158

Mg 44.91600 3.80900 46.69500
C  42.63800 6.31200 46.01400
C  42.27900 1.55400 46.85300
C  47.21900 1.49200 47.11500
C  47.49500 6.24000 46.10300
N  42.72300 3.94700 46.36300
C  42.01000 5.03800 46.00900
C  40.51700 4.68400 45.72800
C  40.41800 3.19100 46.30400
C  41.88700 2.87500 46.49100
C  39.67500 3.01800 47.65100
C  40.20900 4.65000 44.17700
C  39.26000 5.70300 43.63000
H  39.50100 6.55900 42.27600
N  44.82200 1.78600 46.90500
C  43.63700 1.06900 46.96800
C  44.03500 -0.31800 47.00200
C  45.46200 -0.42600 47.17000
C  45.93300 0.95200 47.03300
C  43.04000 -1.48300 46.98600
C  46.35300 -1.72400 47.24100
O  45.83100 -2.80000 47.09100
C  47.83000 -1.71400 47.58300
N  47.05900 3.82000 46.52300
C  47.81700 2.76100 46.91600
C  49.29400 3.13500 47.12000
C  49.37400 4.49000 46.35400
C  47.88300 4.92100 46.27600
C  49.77900 3.09500 48.63800
C  50.06100 4.44400 45.01000
C  51.59800 4.67900 44.96900
N  45.10300 5.87600 46.26400
C  46.18300 6.71300 46.06200
C  45.70700 8.08900 45.96400
C  44.30000 8.01600 45.91600
C  44.00200 6.58200 46.09600
C  46.54900 9.29700 45.84200
C  43.07900 8.70000 45.82600
O  42.89900 9.87400 45.64200
C  41.95400 7.71600 45.93700
C  41.12000 8.12400 47.09300
O  41.63200 8.39100 48.20200
O  39.80100 8.31600 46.69300
C  38.90500 8.61300 47.78700
H  41.47400 0.81700 46.80600
H  47.88400 0.72200 47.51100
H  48.35000 6.91800 46.15500
H  39.97700 5.42100 46.32300
H  39.87500 2.46400 45.70100
H  38.80400 2.36400 47.64000
H  39.43600 4.00900 48.03900
H  40.37200 2.54800 48.34600
H  39.61100 3.74900 44.03600
H  41.12000 4.52300 43.59200
H  39.06800 6.43300 44.41600
H  38.36100 5.14200 43.37800
H  42.88900 -1.85800 47.99800
H  43.35600 -2.32000 46.36200
H  42.10300 -1.11400 46.56900
H  48.11900 -1.00900 48.36300
H  48.33100 -1.50500 46.63800
H  48.12000 -2.73800 47.81800
H  49.87300 2.35700 46.62200
H  49.93900 5.25200 46.89100
H  50.33700 2.18600 48.86200
H  48.95300 3.19100 49.34200
H  50.46300 3.90100 48.90600
H  49.57300 5.09200 44.28100
H  49.79100 3.43400 44.70100
H  51.87500 5.01600 43.97000
H  52.05900 3.74400 45.28600
H  51.86400 5.45700 45.68500
H  47.50400 9.04600 46.30300
H  45.95400 10.15400 46.15700
H  46.72100 9.56900 44.80000
H  41.29000 7.81000 45.07800
H  38.98900 7.69000 48.36000
H  37.87400 8.77800 47.47500
H  39.11300 9.54300 48.31600
Mg -9.27100 18.55400 42.94200
C  -5.82200 18.08000 43.14200
C  -8.75900 21.83500 42.28700
C  -12.56200 18.83500 42.29100
C  -9.71400 14.99800 43.00200
N  -7.44200 19.68300 42.43900
C  -6.15700 19.36700 42.77200
C  -5.18500 20.63200 42.51700
C  -6.24200 21.80700 42.49400
C  -7.57500 21.04600 42.35700
C  -6.20200 22.68700 43.82100
C  -4.25500 20.71400 41.19100
C  -4.72500 20.08100 39.79200
H  -4.74100 21.04000 38.61200
N  -10.52200 20.16300 42.39900
C  -10.09500 21.44800 42.23100
C  -11.18900 22.26000 41.94700
C  -12.34400 21.35600 41.81600
C  -11.85000 20.03100 42.19100
C  -11.13900 23.68700 41.68600
C  -13.73900 21.75200 41.40700
O  -14.06800 22.91400 41.26500
C  -14.88400 20.84100 41.33300
N  -10.98400 17.08800 42.64100
C  -12.23400 17.47000 42.48300
C  -13.22600 16.22000 42.65300
C  -12.25500 14.99600 42.83100
C  -10.94200 15.72300 42.86000
C  -14.40300 16.27100 43.68300
C  -12.35400 13.87900 41.75700
C  -13.38000 12.75500 42.06200
N  -8.03900 16.88300 43.02300
C  -8.34900 15.52500 43.15900
C  -7.10200 14.80100 43.40200
C  -6.06000 15.77900 43.41200
C  -6.68600 17.00900 43.12900
C  -6.94500 13.28300 43.50500
C  -4.59900 15.97300 43.47300
O  -3.68500 15.15200 43.56900
C  -4.37500 17.50400 43.32300
C  -3.75800 17.97900 44.62700
O  -2.78300 18.68200 44.69000
O  -4.48000 17.54100 45.66700
C  -3.89300 17.92600 46.94800
H  -8.60400 22.91500 42.34200
H  -13.64900 18.91900 42.23400
H  -9.73100 13.90700 43.05300
H  -4.52300 20.61500 43.38200
H  -6.11500 22.37000 41.56900
H  -7.07700 22.53800 44.45400
H  -6.28400 23.74700 43.58200
H  -5.31700 22.47000 44.41900
H  -3.24400 20.40800 41.45800
H  -4.22000 21.79200 41.03200
H  -5.76500 19.77400 39.90600
H  -4.08500 19.24100 39.52400
H  -11.05000 23.88700 40.61800
H  -10.27300 24.13400 42.17500
H  -11.97800 24.31200 41.99000
H  -15.10800 20.48900 42.34000
H  -14.57300 19.94900 40.78800
H  -15.75000 21.27200 40.83100
H  -13.73700 16.12800 41.69500
H  -12.38700 14.57000 43.82600
H  -14.33900 17.22900 44.19900
H  -14.47100 15.47400 44.42400
H  -15.33700 16.23000 43.12300
H  -11.41200 13.40000 41.48800
H  -12.68100 14.38300 40.84800
H  -13.68200 12.71800 43.10900
H  -12.87300 11.81900 41.82900
H  -14.20200 12.93800 41.37000
H  -6.03200 13.02000 44.04000
H  -6.80300 12.81900 42.52900
H  -7.83700 12.84900 43.95700
H  -3.64700 17.51500 42.51200
H  -4.63800 17.89200 47.74300
H  -3.50600 18.94500 46.96000
H  -3.14900 17.16200 47.17400

