158

Mg 5.90400 53.20400 41.55200
C  5.59500 49.71300 41.46900
C  9.19300 52.72800 40.48700
C  6.16300 56.56700 41.07400
C  2.45400 53.37400 41.89400
N  7.13800 51.39900 40.77800
C  6.79200 50.13500 40.84600
C  7.92900 49.24400 40.26500
C  9.09000 50.21800 40.43100
C  8.46200 51.51700 40.56700
C  9.95200 49.96000 41.63000
C  7.67800 48.63300 38.78200
C  6.77300 49.43700 37.77700
H  6.33700 48.82000 36.50000
N  7.57400 54.47900 40.91600
C  8.83600 54.10700 40.67000
C  9.68900 55.24500 40.53200
C  8.79800 56.44000 40.60000
C  7.40600 55.87200 40.87400
C  11.12800 55.13000 40.18200
C  9.20700 57.84100 40.64900
O  10.41500 57.98600 40.39600
C  8.35900 59.00800 40.97000
N  4.48500 54.73600 41.40500
C  4.88400 56.07700 41.37700
C  3.69000 56.99400 41.75600
C  2.49100 55.96900 41.50400
C  3.13900 54.60600 41.54000
C  3.77500 57.52900 43.20800
C  1.51800 56.15300 40.30100
C  0.09900 56.47100 40.59100
N  4.32500 51.87200 41.93100
C  2.97000 52.08200 42.10400
C  2.35500 50.89300 42.60400
C  3.35300 49.87700 42.39100
C  4.49300 50.55100 41.86600
C  0.93600 50.75800 43.11700
C  3.63100 48.43500 42.35100
O  3.10000 47.43800 42.77300
C  5.05500 48.32200 41.75900
C  4.79800 47.61400 40.42400
O  4.13000 48.08300 39.52000
O  5.48700 46.35600 40.50000
C  5.28700 45.51700 39.33300
H  10.24900 52.53300 40.28500
H  6.22000 57.65200 40.96400
H  1.36900 53.32200 42.01000
H  8.07900 48.38800 40.92400
H  9.61100 50.32700 39.48000
H  10.93200 50.31900 41.31700
H  9.99800 48.92700 41.97700
H  9.78400 50.53900 42.53800
H  7.30000 47.62000 38.92300
H  8.66500 48.66700 38.32100
H  7.32700 50.28600 37.37600
H  5.84200 49.76900 38.23700
H  11.74100 55.94900 40.55800
H  11.25900 55.10900 39.10100
H  11.56500 54.22300 40.60000
H  9.00500 59.88600 40.98800
H  7.82600 58.75800 41.88700
H  7.71900 58.86500 40.09900
H  3.74100 57.90300 41.15800
H  1.88200 55.95500 42.40800
H  4.69200 57.16900 43.67400
H  3.02900 57.03100 43.82800
H  3.64500 58.61100 43.24100
H  1.57600 55.41500 39.50100
H  1.80200 57.04400 39.74100
H  -0.35000 57.21100 39.92800
H  -0.15500 56.54600 41.64900
H  -0.40400 55.58000 40.21800
H  0.45900 51.73200 43.22500
H  0.80400 50.27500 44.08500
H  0.40800 50.23600 42.31900
H  5.75600 47.72200 42.33900
H  6.18600 44.93000 39.14400
H  5.21200 46.13900 38.44100
H  4.46200 44.81700 39.46900
Mg 9.93100 48.07100 26.01700
C  7.71400 48.15200 28.78200
C  12.34800 49.41100 27.95700
C  11.89800 47.43100 23.49400
C  7.16500 47.46000 23.97700
N  10.02000 48.63700 28.14800
C  9.02300 48.48500 29.11200
C  9.62100 48.86200 30.49400
C  10.91300 49.61700 30.06800
C  11.16600 49.07500 28.65200
C  10.85100 51.18500 30.15100
C  9.90000 47.68000 31.48200
C  9.27700 47.92300 32.89700
H  9.02600 46.72800 33.77400
N  11.89200 48.45000 25.72400
C  12.72500 49.00800 26.66300
C  14.09600 48.91200 26.12500
C  13.97700 48.28900 24.86800
C  12.55600 48.05500 24.63700
C  15.19600 49.28400 27.03100
C  15.05400 48.11900 23.85200
O  14.76900 47.89600 22.67400
C  16.50500 48.16200 24.20400
N  9.58800 47.79000 23.87700
C  10.57100 47.28300 23.13400
C  10.10400 46.64000 21.80900
C  8.61500 46.78100 21.94600
C  8.45100 47.34500 23.36300
C  10.74300 47.20000 20.45600
C  7.80200 45.44200 21.60900
C  6.47200 45.69000 20.83400
N  7.85200 48.00200 26.22700
C  6.87800 47.71300 25.31300
C  5.62800 47.57400 25.99400
C  5.89300 47.72100 27.35000
C  7.25800 47.99500 27.43400
C  4.34600 47.20200 25.32600
C  5.28900 47.81500 28.68500
O  4.13500 47.74900 29.05100
C  6.46900 47.99000 29.61700
C  6.55900 46.70800 30.43900
O  7.01500 45.62500 30.09900
O  5.85400 46.91400 31.62900
C  5.51300 45.76400 32.49800
H  13.12400 49.97500 28.47900
H  12.68500 46.93600 22.92100
H  6.26600 47.25700 23.39100
H  8.96200 49.59800 30.95600
H  11.83000 49.27100 30.54400
H  11.26400 51.37800 31.14100
H  9.85100 51.61900 30.14400
H  11.51600 51.66000 29.43000
H  10.91300 47.30800 31.63300
H  9.43200 46.76000 31.12900
H  8.34100 48.46800 32.77100
H  9.79400 48.70900 33.44700
H  15.85800 48.42400 27.13600
H  14.92000 49.66700 28.01300
H  15.85400 50.05800 26.63800
H  16.84400 49.13300 24.56600
H  17.24800 47.74700 23.52400
H  16.57300 47.48300 25.05400
H  10.23900 45.55900 21.83100
H  8.27800 47.58600 21.29400
H  10.03800 47.51400 19.68700
H  11.33300 46.41500 19.98400
H  11.42000 48.02700 20.67100
H  7.44000 45.00600 22.54000
H  8.47300 44.68700 21.19900
H  6.37000 46.74700 20.58900
H  5.64400 45.29200 21.42100
H  6.57000 45.16900 19.88100
H  3.61200 47.19600 26.13300
H  4.29000 46.27500 24.75700
H  4.10000 48.01000 24.63700
H  6.16900 48.80800 30.27200
H  4.50400 45.92700 32.87700
H  6.12700 45.88300 33.39100
H  5.60400 44.76600 32.07100

