158

Mg 24.81100 -3.85800 45.89800
C  27.01000 -1.50500 44.31600
C  22.43700 -2.73000 43.80900
C  23.19100 -6.52800 46.69700
C  27.57900 -4.91400 47.79700
N  24.78100 -2.48400 44.01400
C  25.72900 -1.49200 43.70000
C  25.25300 -0.58200 42.63300
C  23.67600 -0.80600 42.81600
C  23.64700 -2.11100 43.58700
C  22.89700 0.26100 43.59000
C  25.81700 -1.03500 41.33700
C  25.99000 0.11000 40.31400
H  26.10000 -0.21400 38.79600
N  23.00700 -4.56400 45.28900
C  22.15700 -3.92500 44.46100
C  20.92300 -4.68300 44.41200
C  21.13200 -5.89400 45.19800
C  22.47000 -5.68900 45.79800
C  19.71700 -4.11800 43.70700
C  20.16700 -6.97200 45.33600
O  19.03800 -6.87400 44.88900
C  20.46700 -8.22500 46.08800
N  25.41400 -5.54700 47.01300
C  24.48300 -6.49400 47.23100
C  25.04700 -7.58600 48.18200
C  26.30500 -6.89000 48.75000
C  26.50800 -5.75000 47.76200
C  24.12500 -8.27500 49.18800
C  27.49000 -7.88900 48.78800
C  28.45700 -7.75700 49.96300
N  26.96000 -3.36200 46.05100
C  27.90200 -3.85800 46.87500
C  29.10200 -3.10900 46.61800
C  28.83700 -2.14500 45.64800
C  27.52900 -2.39400 45.31500
C  30.38300 -3.31600 47.37400
C  29.30700 -1.02800 44.92800
O  30.35200 -0.40500 44.93200
C  28.24300 -0.62100 43.99300
C  27.98900 0.79900 44.20200
O  27.58400 1.22800 45.27100
O  28.37500 1.39600 43.01300
C  28.15400 2.86500 43.00000
H  21.55000 -2.32200 43.31900
H  22.70400 -7.46700 46.97100
H  28.31500 -5.12500 48.57500
H  25.58400 0.42600 42.88300
H  23.20000 -0.94200 41.84500
H  23.57700 1.06400 43.87400
H  22.44400 -0.18900 44.47400
H  22.12600 0.64500 42.92200
H  25.15000 -1.74500 40.84700
H  26.81000 -1.47500 41.42800
H  26.80500 0.69600 40.73700
H  25.06300 0.64200 40.53000
H  19.97200 -4.13100 42.64800
H  19.53000 -3.04600 43.76000
H  18.77800 -4.61200 43.96100
H  21.38000 -8.70600 45.73700
H  19.77400 -9.02600 45.83200
H  20.58300 -8.09800 47.16400
H  25.45100 -8.31400 47.48000
H  26.08600 -6.43700 49.71600
H  24.43100 -8.07100 50.21400
H  24.19100 -9.35500 49.05100
H  23.12200 -7.96100 48.90000
H  27.99800 -7.77000 47.83100
H  27.06600 -8.89300 48.80700
H  28.10700 -8.39600 50.77400
H  28.29500 -6.77600 50.41000
H  29.50400 -7.91700 49.70400
H  31.02800 -4.09900 46.97600
H  30.14500 -3.51100 48.41900
H  30.90300 -2.36400 47.48200
H  28.58300 -0.93900 43.00700
H  27.12800 3.19900 42.84800
H  28.73600 3.30600 42.19100
H  28.51900 3.26700 43.94500
Mg 4.79500 54.17800 42.16100
C  4.87600 50.66500 41.08800
C  7.93800 54.36300 40.75400
C  4.33000 57.44100 41.93400
C  1.78200 53.62200 43.46700
N  6.17100 52.60900 41.02300
C  5.92100 51.36400 40.59500
C  7.06800 50.88900 39.63500
C  8.17400 51.82800 40.12600
C  7.34700 53.07400 40.57500
C  9.27300 51.33300 41.15600
C  6.60500 51.13100 38.16600
C  7.26200 50.08700 37.22800
H  6.39200 49.51400 36.12100
N  5.95300 55.69900 41.43100
C  7.26100 55.58000 41.01100
C  7.81300 56.91300 40.69700
C  6.71900 57.83000 40.78300
C  5.55100 57.02500 41.39300
C  9.22000 57.15900 40.11900
C  6.71500 59.33900 40.46600
O  7.71200 59.95700 40.01300
C  5.53500 60.22000 40.80600
N  3.19600 55.40700 42.47300
C  3.28700 56.74100 42.58100
C  2.17700 57.33900 43.32500
C  1.28100 56.06300 43.58500
C  2.17900 54.91600 43.20400
C  2.63300 58.09600 44.66600
C  -0.14600 56.05600 42.79400
C  -0.93500 57.38100 42.57300
N  3.55200 52.47800 42.37800
C  2.31800 52.44900 43.03000
C  1.90900 51.06400 43.07500
C  2.89600 50.29500 42.30700
C  3.84800 51.22300 41.88100
C  0.68300 50.64500 43.79700
C  3.19300 48.96800 41.77400
O  2.68800 47.89500 41.80600
C  4.56000 49.16400 41.06000
C  4.74800 48.45700 39.76800
O  4.41300 48.87900 38.68800
O  5.31400 47.22400 40.00900
C  5.71900 46.53200 38.75100
H  8.95100 54.48600 40.36600
H  4.03200 58.48600 41.82400
H  0.94800 53.48700 44.15900
H  7.38000 49.87000 39.86500
H  8.75400 52.12300 39.25100
H  9.56200 51.96900 41.99300
H  10.12300 51.11300 40.50900
H  8.98500 50.39000 41.61900
H  6.87600 52.14800 37.88500
H  5.51600 51.09200 38.14200
H  7.73800 49.30100 37.81300
H  8.08600 50.62400 36.76000
H  9.54900 58.19900 40.11100
H  9.27800 56.61500 39.17700
H  9.86100 56.65500 40.84200
H  5.67600 61.28200 40.60300
H  5.46600 60.21900 41.89400
H  4.66900 59.89600 40.23000
H  1.62700 57.97800 42.63300
H  1.08400 55.80600 44.62500
H  1.81100 58.10900 45.38200
H  2.95000 59.07800 44.31500
H  3.41100 57.53000 45.17900
H  -0.83900 55.39200 43.31100
H  0.09000 55.68200 41.79800
H  -0.64100 57.54800 41.53700
H  -0.44200 58.22600 43.05300
H  -2.01600 57.35200 42.71100
H  0.31000 49.68000 43.45400
H  -0.11300 51.37300 43.63900
H  0.91300 50.57100 44.86000
H  5.23400 48.68000 41.76700
H  6.01000 45.51700 39.02200
H  6.58300 47.07900 38.37300
H  4.99400 46.45900 37.94100

