158

Mg 35.69600 3.40600 30.82400
C  33.02300 4.34000 32.76900
C  37.66600 3.35400 33.59800
C  38.32900 2.47700 28.86800
C  33.66300 3.54800 28.01300
N  35.32300 3.63000 32.92900
C  34.14500 4.00500 33.52200
C  34.24500 3.99700 35.04300
C  35.80400 3.95800 35.27200
C  36.30600 3.63600 33.85100
C  36.41100 5.24800 35.86500
C  33.34400 2.85800 35.61900
C  33.54600 2.20700 36.99700
H  33.97400 3.04700 38.20200
N  37.68600 2.91000 31.26900
C  38.34200 2.99800 32.43000
C  39.75300 2.82800 32.22800
C  39.91500 2.27500 30.92800
C  38.60400 2.52600 30.26000
C  40.74300 2.91500 33.33000
C  41.02200 1.54000 30.32200
O  40.97900 1.16200 29.12900
C  42.11600 1.11900 31.22900
N  35.90300 2.98500 28.77200
C  37.11700 2.71900 28.18900
C  37.04300 2.62700 26.64700
C  35.54000 2.95300 26.36200
C  35.00900 3.21600 27.78000
C  37.87400 3.68600 25.89800
C  34.79200 1.74800 25.76200
C  34.31900 0.55800 26.69400
N  33.74400 3.89200 30.36900
C  33.03200 3.88600 29.20500
C  31.67000 4.22800 29.44600
C  31.59100 4.51500 30.83700
C  32.87400 4.20200 31.38600
C  30.57400 4.21100 28.42000
C  30.78100 4.93000 31.96600
O  29.66100 5.46400 32.01800
C  31.65100 4.80500 33.25900
C  31.75900 6.15500 33.96100
O  32.56900 6.99400 33.59800
O  30.84100 6.30500 34.99200
C  31.05800 7.34500 36.00500
H  38.17600 3.37200 34.56300
H  39.16900 2.40100 28.17400
H  32.94300 3.65300 27.19900
H  33.80600 4.94600 35.35100
H  36.16100 3.13900 35.89600
H  36.94500 5.87700 35.15200
H  37.03300 5.22100 36.76000
H  35.52700 5.82500 36.13600
H  33.51600 2.01200 34.95400
H  32.28300 3.07700 35.49700
H  34.26300 1.40600 36.81800
H  32.56900 1.74600 37.14200
H  41.72200 3.18200 32.93400
H  40.65500 2.00800 33.92900
H  40.65600 3.76300 34.01000
H  42.52000 0.23900 30.72700
H  41.73200 0.76800 32.18700
H  43.01300 1.72800 31.34200
H  37.29500 1.59300 26.41400
H  35.43100 3.88800 25.81200
H  38.74100 3.18500 25.46600
H  38.26000 4.34300 26.67800
H  37.45900 4.25900 25.06900
H  35.45500 1.33200 25.00400
H  33.98000 2.20900 25.19900
H  33.89800 0.85700 27.65400
H  35.05800 -0.23700 26.80500
H  33.54700 0.14500 26.04500
H  30.52000 3.30900 27.81000
H  30.59100 4.99000 27.65800
H  29.62500 4.27900 28.95200
H  31.14000 4.15800 33.97200
H  31.33100 6.79100 36.90200
H  30.15300 7.85500 36.33600
H  31.91800 7.99500 35.84300
Mg 48.76000 34.62400 25.76700
C  46.78100 33.24200 28.27300
C  48.96900 37.48600 27.63000
C  50.40300 36.01500 23.27600
C  48.15200 31.72900 23.90300
N  47.92100 35.29300 27.73400
C  47.25900 34.52500 28.59500
C  47.11100 35.22600 29.98000
C  47.54400 36.68100 29.59800
C  48.13800 36.55700 28.20100
C  46.41100 37.78300 29.67300
C  48.13800 34.60000 31.04400
C  47.70400 34.41100 32.42400
H  46.49600 35.24900 32.92000
N  49.75600 36.44900 25.56200
C  49.69400 37.54700 26.38000
C  50.61000 38.55900 25.90900
C  51.10100 38.08200 24.68900
C  50.36500 36.81300 24.44900
C  51.00200 39.74700 26.83400
C  52.28100 38.52200 23.88400
O  52.72000 37.85300 23.02800
C  52.81800 39.89200 24.18800
N  49.22200 33.98600 23.83500
C  49.80800 34.76200 22.95600
C  50.16400 33.96100 21.66200
C  49.51600 32.53700 21.91200
C  48.89300 32.74600 23.33200
C  49.92600 34.65700 20.24900
C  50.44100 31.35500 21.85900
C  51.70100 31.40700 22.74400
N  47.60000 32.87900 25.89200
C  47.54400 31.73800 25.12800
C  46.64400 30.76600 25.71800
C  46.33100 31.30700 26.96800
C  46.86000 32.62100 26.97200
C  46.31700 29.48000 25.18600
C  45.72600 31.03000 28.20700
O  45.16800 30.06500 28.59200
C  46.09600 32.25400 29.09800
C  46.65000 31.70200 30.32600
O  47.78300 31.31900 30.41100
O  45.65800 31.50800 31.27300
C  46.11300 30.60600 32.32300
H  49.05300 38.38300 28.24700
H  51.06100 36.46700 22.53100
H  48.04000 30.89400 23.20800
H  46.11000 35.19700 30.41000
H  48.33400 37.05900 30.24600
H  46.16200 38.41000 28.81700
H  46.79000 38.48400 30.41700
H  45.49400 37.27200 29.96800
H  49.01800 35.24200 31.07000
H  48.47100 33.63500 30.66100
H  48.56800 34.46600 33.08700
H  47.43700 33.37100 32.61400
H  50.54700 39.82100 27.82200
H  50.70000 40.61700 26.25000
H  52.07200 39.83700 27.02100
H  53.62300 39.71300 24.90000
H  52.17700 40.66900 24.60400
H  53.24400 40.33400 23.28700
H  51.23100 33.84700 21.85600
H  48.75200 32.32500 21.16500
H  49.26500 35.51800 20.34200
H  49.52200 33.98400 19.49300
H  50.90300 34.97600 19.88600
H  50.77200 31.26200 20.82500
H  49.98300 30.37200 21.97400
H  51.74100 32.40400 23.18300
H  52.59800 31.25400 22.14400
H  51.90000 30.65400 23.50600
H  46.71100 28.71900 25.86000
H  46.78900 29.36200 24.21100
H  45.23200 29.44500 25.08500
H  45.10900 32.67800 29.28200
H  45.36200 30.72900 33.10300
H  47.01000 30.96000 32.83100
H  46.16300 29.57700 31.96700

