158

Mg 41.58100 41.02600 26.58800
C  41.21700 43.40100 29.06300
C  42.57000 38.74300 29.04700
C  42.79600 39.01300 24.17000
C  40.97200 43.43700 24.15900
N  41.87500 41.10300 28.82800
C  41.49400 42.15900 29.58500
C  41.50500 41.82700 31.03600
C  42.11200 40.39200 31.05000
C  42.18700 40.00500 29.53900
C  43.40600 40.27000 31.90500
C  40.23200 42.04000 31.83400
C  40.10800 41.28700 33.25200
H  39.25100 42.00500 34.36100
N  42.36300 39.13800 26.55300
C  42.62800 38.39300 27.67700
C  43.04700 37.02600 27.26800
C  43.27700 37.09900 25.79500
C  42.83700 38.46500 25.45800
C  43.38900 35.95200 28.21700
C  43.80000 36.09000 24.79100
O  43.88900 36.34600 23.55100
C  44.41000 34.72500 25.28400
N  41.76300 41.17300 24.49400
C  42.26600 40.20600 23.72700
C  42.23000 40.68600 22.20900
C  41.38900 41.92600 22.26100
C  41.41700 42.26100 23.70200
C  43.67400 40.83400 21.63200
C  39.91400 41.79000 21.81200
C  38.87700 41.34600 22.86300
N  41.21100 43.09500 26.56600
C  41.00200 43.91400 25.47800
C  40.81600 45.25300 25.99800
C  40.81500 45.13200 27.35100
C  41.06500 43.77300 27.66800
C  40.54200 46.45800 25.26400
C  40.63700 45.82900 28.68200
O  40.48900 47.04100 28.92400
C  40.89000 44.73900 29.77900
C  42.04400 45.19000 30.68200
O  43.14000 45.50000 30.38900
O  41.52200 45.32200 31.89900
C  42.50100 45.72700 32.94000
H  42.85100 38.09600 29.88100
H  43.42900 38.56500 23.40100
H  40.76900 44.19200 23.39700
H  42.22900 42.53400 31.44000
H  41.45100 39.68900 31.55800
H  44.21200 39.66500 31.48900
H  43.20800 39.85400 32.89200
H  43.83600 41.25700 32.07500
H  39.43800 41.72100 31.15700
H  40.20000 43.12900 31.86200
H  41.10700 41.09200 33.64200
H  39.51700 40.37500 33.16800
H  42.75500 35.15900 27.81900
H  43.02400 36.09500 29.23400
H  44.45600 35.73900 28.15000
H  44.90300 34.21800 24.45400
H  43.73900 34.04400 25.80700
H  45.25600 34.91900 25.94300
H  41.77700 39.83700 21.69700
H  41.81300 42.78400 21.74000
H  44.32400 40.06600 22.05100
H  44.05300 41.83300 21.84700
H  43.65600 40.75300 20.54500
H  39.93400 41.13700 20.94000
H  39.64200 42.79000 21.47200
H  39.28400 41.29300 23.87300
H  38.43300 40.39900 22.55500
H  38.06300 42.07000 22.83300
H  40.73400 46.33900 24.19700
H  41.19700 47.26600 25.59100
H  39.59900 46.95400 25.49300
H  39.98700 44.70400 30.38900
H  43.40000 45.12100 33.06000
H  42.12600 45.43300 33.92100
H  42.82100 46.76700 32.88000
Mg 0.11900 44.27100 25.77400
C  2.30600 43.51300 28.36400
C  -2.54300 43.56100 27.82300
C  -1.95300 44.30400 23.03300
C  2.82800 44.66500 23.69100
N  0.00200 43.55100 27.75000
C  0.96400 43.33900 28.66200
C  0.36700 43.31000 30.09500
C  -1.07400 42.99400 29.78500
C  -1.22600 43.32700 28.33100
C  -1.50700 41.58000 30.17200
C  0.52200 44.67900 30.90400
C  0.54900 44.66700 32.43100
H  0.58600 43.30200 33.14400
N  -1.98100 44.17200 25.50100
C  -2.90700 43.86100 26.46400
C  -4.24100 43.91400 25.96500
C  -4.07800 44.18200 24.54200
C  -2.66100 44.23700 24.30000
C  -5.42300 43.58400 26.76700
C  -5.16800 44.28400 23.45200
O  -4.91200 44.57000 22.25800
C  -6.57600 44.11000 23.79900
N  0.34200 44.43500 23.65600
C  -0.61400 44.50900 22.73200
C  -0.10200 45.06000 21.36900
C  1.43900 45.03500 21.60100
C  1.57200 44.74400 23.06300
C  -0.57900 44.37500 20.03600
C  2.25200 46.24000 20.92800
C  2.45500 47.38900 21.84900
N  2.16900 43.95300 25.92200
C  3.20600 44.17300 24.98500
C  4.47800 44.00400 25.62500
C  4.20200 43.71300 26.93900
C  2.80100 43.75900 27.10000
C  5.73200 44.22500 24.92100
C  4.82300 43.51800 28.26000
O  6.02700 43.41600 28.57600
C  3.57600 43.42400 29.23800
C  3.63700 42.15200 30.11200
O  3.37900 41.06500 29.68800
O  4.15300 42.46600 31.36800
C  4.34800 41.25300 32.21100
H  -3.29800 43.34600 28.58200
H  -2.63700 44.30200 22.18200
H  3.69100 44.95100 23.08600
H  0.83400 42.49100 30.64200
H  -1.77200 43.63200 30.32600
H  -2.03300 41.27700 29.26700
H  -2.15000 41.63700 31.05000
H  -0.64300 40.93900 30.34200
H  -0.22400 45.41100 30.59600
H  1.49100 45.08500 30.61400
H  -0.32700 45.18400 32.82200
H  1.38700 45.25200 32.81100
H  -5.17000 43.13100 27.72500
H  -6.19600 42.97100 26.30300
H  -5.98700 44.46300 27.07700
H  -6.81300 43.09200 24.10800
H  -7.08800 44.31500 22.85800
H  -6.83200 44.88100 24.52600
H  -0.39600 46.10900 21.32800
H  1.86000 44.22600 21.00300
H  0.09500 44.51100 19.19000
H  -1.56000 44.81200 19.85300
H  -0.75700 43.31200 20.19900
H  1.77300 46.65000 20.03800
H  3.25300 45.94600 20.61200
H  2.36100 48.24000 21.17300
H  3.47100 47.60600 22.17700
H  1.69000 47.52600 22.61400
H  6.48800 43.53800 25.30000
H  6.10000 45.21400 25.19500
H  5.76000 43.98300 23.85800
H  3.59500 44.34300 29.82400
H  4.92900 40.43000 31.79600
H  3.43200 40.81900 32.61100
H  4.75700 41.60700 33.15700

