158

Mg 16.83500 52.27900 25.49800
C  18.53700 50.72200 28.32100
C  14.18000 52.85500 27.71800
C  14.94200 52.99300 22.79800
C  19.39700 51.05100 23.50500
N  16.51700 51.95800 27.81000
C  17.34400 51.35900 28.71600
C  16.79500 51.57500 30.16400
C  15.33400 51.88100 29.77900
C  15.36100 52.29100 28.38000
C  14.25700 50.76600 30.08600
C  17.51000 52.76200 30.82700
C  17.37600 52.88500 32.35000
H  16.61900 51.85900 33.10100
N  14.91400 52.92800 25.36800
C  13.94000 53.09800 26.31700
C  12.68300 53.68500 25.66900
C  12.95700 53.66500 24.26700
C  14.30600 53.19000 24.05000
C  11.37700 54.00700 26.37600
C  12.00200 54.17400 23.09600
O  12.41500 54.23100 21.98700
C  10.62500 54.70400 23.41500
N  17.19600 52.24700 23.49200
C  16.28300 52.60000 22.50700
C  16.78700 52.29700 21.07200
C  18.29600 51.91900 21.29400
C  18.37500 51.80300 22.88100
C  15.99500 51.28800 20.23700
C  19.36000 52.80100 20.66400
C  20.31900 53.62400 21.50700
N  18.68200 51.27700 25.78400
C  19.57100 50.83000 24.83000
C  20.62900 49.94500 25.48000
C  20.29500 50.01300 26.79900
C  19.07700 50.75800 26.95300
C  21.87500 49.30600 24.80100
C  20.68200 49.54900 28.12800
O  21.65500 48.84800 28.42700
C  19.64200 50.07700 29.12000
C  19.40900 48.98100 30.07500
O  18.85600 47.89900 29.81300
O  20.10400 49.24100 31.31600
C  19.88700 48.35000 32.49900
H  13.35200 53.16200 28.36100
H  14.32400 53.05400 21.90100
H  20.12100 50.69100 22.77100
H  16.76500 50.64700 30.73500
H  14.97100 52.79400 30.25100
H  14.17000 50.10900 29.22100
H  13.28100 51.16700 30.35700
H  14.59800 50.10000 30.87800
H  17.13500 53.60700 30.25000
H  18.58700 52.74200 30.65800
H  16.96600 53.81700 32.73900
H  18.40500 52.90400 32.70800
H  10.72300 53.16800 26.13900
H  11.04400 54.95000 25.94400
H  11.42800 54.12100 27.45900
H  10.68200 55.56600 24.08000
H  10.06000 53.84700 23.78200
H  10.20900 54.96900 22.44300
H  16.76600 53.26800 20.57700
H  18.45700 50.89100 20.97000
H  16.60400 50.57100 19.68600
H  15.53300 51.88600 19.45100
H  15.25200 50.79000 20.86000
H  18.87100 53.41800 19.91000
H  20.04000 52.14700 20.11800
H  19.92600 53.77200 22.51300
H  20.50300 54.62400 21.11600
H  21.28800 53.12600 21.46600
H  22.75000 49.76000 25.26700
H  21.92000 49.52000 23.73300
H  21.88900 48.21900 24.88500
H  20.30300 50.82700 29.55400
H  19.20500 48.84100 33.19300
H  20.87800 48.29000 32.94700
H  19.57600 47.33200 32.26200
Mg 9.39500 47.93600 25.17800
C  7.40700 48.35100 27.86700
C  11.94000 49.63000 26.87300
C  11.43200 47.36600 22.59700
C  6.66800 46.86800 23.23900
N  9.60200 48.85200 27.14800
C  8.68600 48.77600 28.14600
C  9.30800 49.21700 29.46900
C  10.51800 50.00400 28.96300
C  10.70900 49.60300 27.51000
C  10.21700 51.53500 29.04300
C  9.72500 48.12100 30.46900
C  9.06200 48.21800 31.86900
H  9.45100 47.10000 32.88500
N  11.41800 48.44100 24.75900
C  12.32300 49.08700 25.62400
C  13.63000 49.04900 25.06600
C  13.48600 48.43700 23.82200
C  12.08400 48.03900 23.65500
C  14.87900 49.58900 25.82900
C  14.57300 48.23100 22.72000
O  14.40900 47.69100 21.59700
C  15.98600 48.74500 22.98200
N  9.02800 47.33600 23.09500
C  10.07500 47.17900 22.27400
C  9.68800 46.48600 20.94100
C  8.09300 46.39000 21.12300
C  7.85700 46.89100 22.58700
C  10.00200 47.37400 19.69800
C  7.49800 44.96200 20.87800
C  7.69000 43.95200 22.04500
N  7.45700 47.55600 25.45100
C  6.37200 47.17700 24.56500
C  5.16200 47.26700 25.30900
C  5.46900 47.62100 26.61700
C  6.89400 47.84400 26.62000
C  3.87700 47.07100 24.76600
C  4.94700 47.74800 27.92000
O  3.82700 47.64300 28.35300
C  6.21100 48.19900 28.86200
C  6.37500 47.12500 29.90900
O  7.26800 46.23700 29.83800
O  5.44000 47.15600 30.87000
C  5.70500 46.21100 31.97300
H  12.70400 50.05600 27.52600
H  12.06000 47.03700 21.76700
H  5.84200 46.45900 22.65300
H  8.58800 49.85200 29.98400
H  11.39300 49.80300 29.58100
H  10.38800 51.96200 30.03100
H  9.19100 51.79500 28.78000
H  10.79800 52.12500 28.33400
H  10.79000 48.16100 30.69900
H  9.55400 47.10700 30.11000
H  7.97300 48.26100 31.83200
H  9.35000 49.16500 32.32400
H  14.58400 49.86000 26.84300
H  15.51500 50.37000 25.41400
H  15.50200 48.70500 25.96100
H  15.96400 49.83500 22.97500
H  16.66000 48.44700 22.17800
H  16.38100 48.33300 23.91000
H  10.15600 45.50100 20.91300
H  7.58100 46.94200 20.33500
H  10.11100 48.42600 19.96100
H  9.23200 47.33300 18.92800
H  10.96700 47.05000 19.31100
H  8.06500 44.57100 20.03300
H  6.43100 45.04300 20.66900
H  8.15800 43.04900 21.65400
H  6.66400 43.68800 22.30000
H  8.22800 44.35100 22.90400
H  3.92200 46.68900 23.74600
H  3.26100 47.96300 24.88200
H  3.42600 46.24400 25.31400
H  6.04000 49.16900 29.32800
H  5.89400 45.17700 31.68500
H  4.73800 46.09800 32.46400
H  6.36400 46.57200 32.76200

