158

Mg 16.81000 -3.33500 28.49400
C  16.09400 -1.06100 31.11200
C  18.31500 -5.38000 30.70800
C  18.07700 -5.02100 25.89800
C  15.52000 -0.86400 26.26300
N  17.24200 -3.11900 30.64300
C  16.85900 -2.20200 31.53700
C  17.18400 -2.68200 32.98700
C  18.08100 -3.96100 32.73200
C  17.87800 -4.14800 31.28600
C  19.62600 -3.81300 33.09000
C  15.89800 -3.03100 33.86300
C  15.70200 -2.27400 35.16500
H  16.83300 -1.87800 35.95700
N  17.87300 -5.04200 28.25500
C  18.36500 -5.76300 29.35200
C  18.88800 -7.03600 28.86300
C  18.82800 -6.94200 27.42000
C  18.25500 -5.64700 27.12500
C  19.36200 -8.18800 29.70100
C  19.35200 -7.96000 26.34700
O  19.32000 -7.70200 25.17300
C  19.97000 -9.23900 26.78900
N  16.61400 -3.08800 26.40400
C  17.30500 -3.89300 25.54500
C  17.11500 -3.46600 24.12900
C  16.17900 -2.23200 24.17000
C  16.03400 -2.03300 25.70700
C  18.50700 -3.25100 23.37500
C  14.84300 -2.35100 23.33500
C  13.55800 -2.04600 24.04700
N  15.84500 -1.42200 28.60800
C  15.37200 -0.53100 27.63400
C  14.76300 0.70600 28.29500
C  14.99700 0.45800 29.62600
C  15.67100 -0.81900 29.74500
C  14.15600 1.80900 27.53900
C  14.96200 1.12800 30.96800
O  14.48500 2.22000 31.20600
C  15.55600 0.09400 31.97900
C  16.53300 0.83100 32.75900
O  17.67100 1.09500 32.39700
O  15.93300 1.38700 33.82400
C  16.55000 2.45200 34.59000
H  18.70600 -6.15000 31.37800
H  18.43500 -5.58300 25.03300
H  15.08200 -0.13800 25.57500
H  17.78900 -1.90700 33.45800
H  17.61100 -4.83000 33.19200
H  20.17300 -3.65700 32.16000
H  20.01500 -4.74800 33.49200
H  19.72900 -3.03800 33.85000
H  15.68000 -4.05800 34.15700
H  15.06700 -2.76000 33.21200
H  14.90600 -2.70400 35.77300
H  15.23800 -1.35300 34.80900
H  18.76100 -9.02800 29.35500
H  19.05700 -8.05100 30.73900
H  20.42100 -8.43500 29.62200
H  20.85500 -9.24300 27.42600
H  20.26500 -9.83700 25.92600
H  19.14900 -9.79800 27.23800
H  16.60000 -4.37200 23.81300
H  16.65600 -1.37000 23.70300
H  18.67800 -2.17900 23.27300
H  18.51800 -3.70000 22.38100
H  19.30400 -3.50800 24.07200
H  14.79600 -3.33500 22.86900
H  14.88000 -1.70300 22.45900
H  13.37400 -2.60900 24.96200
H  12.78600 -2.29200 23.31800
H  13.58600 -0.97100 24.22200
H  14.47100 1.64000 26.50900
H  14.51000 2.80600 27.79900
H  13.07100 1.70500 27.53400
H  14.86900 -0.32800 32.71300
H  15.96000 3.36600 34.65800
H  17.58300 2.65700 34.30600
H  16.43900 2.18700 35.64100
Mg -1.46100 34.87200 26.53800
C  -2.89200 33.10400 29.16700
C  -0.38200 37.21300 28.76800
C  -0.48400 36.86600 24.01100
C  -2.97500 32.75800 24.21700
N  -1.69500 35.13600 28.70000
C  -2.11900 34.22100 29.61400
C  -1.81400 34.65300 31.07400
C  -0.96500 35.95700 30.90500
C  -1.10800 36.15000 29.35400
C  -1.34900 37.09400 31.85300
C  -1.06400 33.51400 31.87300
C  -1.78000 33.25900 33.20000
H  -0.97200 33.29700 34.56600
N  -0.51100 36.78100 26.42400
C  -0.10500 37.55400 27.47100
C  0.64500 38.74600 26.95600
C  0.61700 38.62900 25.52000
C  -0.11800 37.39800 25.27200
C  1.22000 39.82700 27.80400
C  1.17100 39.53400 24.43900
O  1.09800 39.31800 23.27300
C  1.87200 40.78800 24.79200
N  -1.81100 34.89300 24.45100
C  -1.22400 35.75000 23.63900
C  -1.39800 35.41500 22.14500
C  -2.01800 34.01700 22.26800
C  -2.30400 33.82700 23.73200
C  -2.16000 36.36200 21.25100
C  -1.10600 32.96500 21.62700
C  0.23000 32.62800 22.31600
N  -2.63900 33.20000 26.61400
C  -3.24400 32.46300 25.54600
C  -4.05100 31.41200 26.09800
C  -3.97300 31.68000 27.48000
C  -3.14700 32.78500 27.79400
C  -4.83000 30.36200 25.42000
C  -4.36100 31.17200 28.81300
O  -5.21400 30.36800 29.21000
C  -3.53100 31.97200 29.88600
C  -4.42800 32.42400 31.03100
O  -5.01400 33.46600 31.02800
O  -4.40900 31.48500 32.02800
C  -5.36500 31.73700 33.06400
H  -0.11700 38.01400 29.46100
H  -0.20100 37.46100 23.14000
H  -3.41400 31.99200 23.57500
H  -2.77700 34.93500 31.49900
H  0.10100 35.75400 31.01100
H  -1.96000 36.67700 32.65400
H  -1.90100 37.75300 31.18200
H  -0.46300 37.63200 32.18900
H  -0.07200 33.91500 32.08300
H  -1.03400 32.65600 31.20200
H  -1.93300 32.18100 33.26000
H  -2.76600 33.71500 33.28800
H  1.56500 39.32100 28.70600
H  0.53700 40.64100 28.04800
H  2.09500 40.20800 27.27800
H  1.99700 41.37800 23.88400
H  2.88600 40.52800 25.09600
H  1.30800 41.40100 25.49500
H  -0.41300 35.33600 21.68400
H  -2.94100 33.84400 21.71400
H  -1.43500 37.03700 20.79700
H  -2.97200 36.89000 21.75200
H  -2.58700 35.91800 20.35200
H  -0.88200 33.30000 20.61400
H  -1.68300 32.04000 21.64600
H  0.12900 31.64700 22.78100
H  0.31000 33.32400 23.15100
H  1.15300 32.71100 21.74300
H  -5.07300 29.50200 26.04400
H  -4.24000 30.08500 24.54600
H  -5.78600 30.80500 25.14000
H  -2.77500 31.36200 30.38100
H  -5.04300 32.44600 33.82600
H  -5.40400 30.76900 33.56300
H  -6.33200 32.05900 32.67800

