158

Mg 1.90900 -2.91200 44.70000
C  5.13000 -1.76300 43.93000
C  0.75400 -0.54100 42.38200
C  -1.28600 -4.19900 44.96000
C  3.15500 -5.53100 46.44800
N  2.91400 -1.36300 43.23200
C  4.21300 -1.13100 43.15100
C  4.48600 0.01100 42.15000
C  3.05400 0.62900 42.04800
C  2.17500 -0.53100 42.52800
C  2.72300 1.83600 42.93700
C  5.19900 -0.54300 40.90700
C  6.53100 0.12400 40.56600
H  6.64200 1.07600 39.34100
N  -0.04300 -2.38700 43.83800
C  -0.25800 -1.35200 42.91400
C  -1.70800 -1.21400 42.70200
C  -2.30400 -2.26300 43.47300
C  -1.21300 -2.99700 44.21600
C  -2.32700 -0.11700 41.87200
C  -3.85700 -2.49600 43.56700
O  -4.65000 -1.78700 42.99800
C  -4.38700 -3.64900 44.21400
N  1.09100 -4.68300 45.43600
C  -0.31300 -4.95400 45.52800
C  -0.53400 -6.31000 46.23500
C  0.92300 -6.67300 46.77500
C  1.79100 -5.55200 46.14900
C  -1.76800 -6.32500 47.21600
C  1.37600 -8.13800 46.38300
C  2.04600 -9.00300 47.44000
N  3.76300 -3.54100 45.14200
C  4.12300 -4.60800 45.94300
C  5.61800 -4.63600 46.04900
C  6.04100 -3.50600 45.28500
C  4.89000 -2.79400 44.80000
C  6.47500 -5.71600 46.61400
C  7.18400 -2.71400 44.88100
O  8.38100 -2.85300 45.13400
C  6.62600 -1.55400 43.96700
C  6.92700 -0.28800 44.57200
O  6.26400 0.24200 45.46500
O  8.00700 0.26400 43.93000
C  8.33400 1.66400 44.30700
H  0.38400 0.38100 41.92700
H  -2.21700 -4.75800 45.07300
H  3.52300 -6.39400 47.00500
H  5.14800 0.70100 42.67300
H  2.85900 0.79300 40.98800
H  3.64800 2.38500 43.10700
H  2.19300 1.46000 43.81200
H  2.11600 2.51700 42.33900
H  4.48100 -0.43400 40.09500
H  5.53800 -1.56500 41.07400
H  7.23200 -0.68000 40.33900
H  6.83500 0.66800 41.46100
H  -1.68900 0.76500 41.92400
H  -3.31500 0.22700 42.18100
H  -2.43000 -0.56800 40.88500
H  -4.25500 -3.63100 45.29500
H  -3.83000 -4.51400 43.85300
H  -5.43300 -3.79800 43.94400
H  -0.72100 -7.00900 45.42000
H  0.98000 -6.40300 47.82900
H  -1.44300 -6.30000 48.25600
H  -2.42000 -7.16900 46.99300
H  -2.41800 -5.49200 46.94600
H  2.20000 -8.02700 45.67800
H  0.58800 -8.69600 45.87700
H  1.77700 -10.05900 47.44100
H  1.83400 -8.63600 48.44500
H  3.12400 -8.88900 47.33100
H  6.34400 -5.65300 47.69400
H  7.50300 -5.58800 46.27400
H  6.26100 -6.70500 46.21000
H  6.96700 -1.65000 42.93600
H  7.51000 2.37700 44.26600
H  9.15800 2.13300 43.76900
H  8.72300 1.71000 45.32400
Mg 25.61000 0.73300 29.69400
C  27.44200 0.47100 32.56700
C  22.75200 1.40300 31.68000
C  23.69800 0.80600 26.89100
C  28.43400 -0.24300 27.82400
N  25.14900 0.79200 31.77700
C  26.16700 0.94000 32.74900
C  25.59600 1.28400 34.11200
C  24.03700 1.37700 33.93400
C  23.97700 1.16800 32.37200
C  23.20700 0.25000 34.73000
C  26.35500 2.56300 34.70500
C  27.12100 2.29800 35.95700
H  26.94300 3.35600 37.09200
N  23.56700 1.01300 29.30000
C  22.62500 1.21700 30.30100
C  21.35100 1.38300 29.61200
C  21.53500 1.25000 28.23200
C  23.01400 1.11100 28.05900
C  20.12700 1.77600 30.30500
C  20.48400 1.40000 27.07700
O  20.76100 1.16200 25.89100
C  19.07700 1.71200 27.44000
N  25.98000 0.51200 27.65600
C  25.08900 0.61800 26.65700
C  25.79100 0.37000 25.23400
C  27.26600 0.12700 25.57700
C  27.26000 0.13900 27.12100
C  25.11700 -0.86300 24.50800
C  28.21700 1.21900 24.97600
C  28.15900 1.62900 23.47900
N  27.48000 0.12100 30.08500
C  28.53800 -0.23100 29.23600
C  29.74600 -0.45500 30.02200
C  29.34500 -0.25200 31.30700
C  27.98700 0.10100 31.31400
C  31.09300 -0.95400 29.40300
C  29.80400 -0.29900 32.66800
O  30.86200 -0.57000 33.19400
C  28.58600 0.16100 33.56200
C  28.26600 -0.91300 34.58000
O  27.48500 -1.85700 34.40900
O  28.96400 -0.55900 35.68500
C  28.63900 -1.33200 36.89500
H  21.98500 1.76900 32.36600
H  23.06800 0.85300 26.00100
H  29.25700 -0.56200 27.18100
H  25.71300 0.37000 34.69300
H  23.67200 2.38000 34.15800
H  22.89700 -0.48800 33.99000
H  22.30700 0.69300 35.15800
H  23.88300 -0.09200 35.51400
H  25.62100 3.32100 34.97800
H  27.01600 2.89200 33.90300
H  28.17000 2.36400 35.67000
H  26.94700 1.28400 36.31900
H  19.45700 0.95300 30.55400
H  19.38800 2.46600 29.89800
H  20.33000 2.21600 31.28200
H  18.26800 1.62700 26.71400
H  19.19300 2.75500 27.73700
H  18.79600 1.04200 28.25200
H  25.63100 1.19500 24.53900
H  27.75000 -0.78500 25.22700
H  24.70300 -1.63700 25.15400
H  26.00300 -1.36400 24.11800
H  24.32800 -0.47800 23.86100
H  29.26800 0.96400 25.11300
H  28.10100 2.13500 25.55400
H  29.18200 1.64100 23.10200
H  27.76200 2.64300 23.51600
H  27.60500 0.96200 22.81900
H  31.35800 -0.48900 28.45400
H  30.86400 -1.98500 29.13300
H  31.99900 -0.91100 30.00800
H  28.88800 1.12000 33.98400
H  28.74100 -2.38800 36.64300
H  27.63800 -1.17200 37.29500
H  29.34500 -1.07500 37.68500

