158

Mg 44.29800 4.88900 47.36400
C  41.88600 7.41800 46.90200
C  41.67800 2.59200 47.06600
C  46.64600 2.45500 47.14500
C  46.83000 7.40500 46.68500
N  42.01900 5.00800 47.03100
C  41.27600 6.12100 46.79600
C  39.77300 5.71000 46.46800
C  39.77700 4.19300 46.78300
C  41.22900 3.92000 47.03100
C  38.89300 3.80900 47.94900
C  39.46200 6.14500 45.07000
C  38.23100 6.95700 44.84900
H  38.15700 8.04800 43.75500
N  44.17500 2.81400 47.19800
C  42.99500 2.05500 47.16300
C  43.44800 0.67100 47.18200
C  44.84700 0.66400 47.36200
C  45.29900 2.02700 47.20900
C  42.47400 -0.48800 47.15700
C  45.58100 -0.63300 47.40600
O  44.99900 -1.73000 47.56700
C  47.02700 -0.66500 47.37300
N  46.42800 4.94100 46.84100
C  47.13500 3.77000 47.01900
C  48.65100 4.08600 46.83700
C  48.78200 5.65900 46.74600
C  47.27400 6.03700 46.73000
C  49.55500 3.50900 47.97000
C  49.68600 6.04900 45.50900
C  49.05200 6.14800 44.19600
N  44.46600 7.03700 47.16300
C  45.51500 7.88700 46.93700
C  45.01600 9.19900 46.89300
C  43.59900 9.09700 46.96000
C  43.31800 7.71400 46.97100
C  45.82900 10.45400 46.74600
C  42.33000 9.87200 46.89100
O  42.10300 11.08000 46.92000
C  41.11700 8.77900 46.70300
C  40.14200 9.00300 47.82500
O  40.29000 8.59500 48.96500
O  39.05500 9.72300 47.38200
C  38.05700 10.11700 48.42000
H  40.85200 1.88700 46.94700
H  47.46900 1.73700 47.18200
H  47.63400 8.03700 46.30200
H  39.16800 6.27600 47.17700
H  39.41800 3.52000 46.00400
H  38.39700 4.72400 48.27600
H  39.61000 3.45800 48.69100
H  38.24700 3.01200 47.58200
H  39.20300 5.21300 44.56700
H  40.26700 6.71200 44.60200
H  37.99300 7.50300 45.76200
H  37.38400 6.27500 44.77200
H  42.78300 -1.34300 46.55500
H  41.59700 -0.11400 46.62700
H  42.32200 -0.89800 48.15600
H  47.51000 -0.17300 46.52900
H  47.43200 -1.67100 47.48900
H  47.30900 -0.15100 48.29200
H  49.00500 3.72900 45.87000
H  49.28400 5.99200 47.65500
H  50.34700 4.19400 48.27200
H  49.91800 2.55600 47.58500
H  48.92300 3.43900 48.85500
H  50.62200 5.49300 45.44200
H  49.89000 7.08600 45.77500
H  49.77900 5.70400 43.51600
H  49.02600 7.18700 43.86800
H  48.16800 5.51000 44.18400
H  45.73200 10.63200 45.67400
H  46.79600 10.30100 47.22500
H  45.39300 11.27200 47.31800
H  40.60400 8.92600 45.75300
H  38.06000 9.65800 49.40900
H  37.06700 10.00500 47.97900
H  37.96200 11.19400 48.56000
Mg -11.60200 15.33200 41.32800
C  -8.34300 14.02600 41.23500
C  -10.42600 18.21800 39.84200
C  -14.80900 16.41900 40.87800
C  -12.78200 12.13700 42.32900
N  -9.53100 16.02300 40.65500
C  -8.38600 15.32200 40.74500
C  -7.24400 16.13200 40.07400
C  -7.83100 17.53000 39.92300
C  -9.34500 17.25800 40.10800
C  -7.26300 18.59900 40.97500
C  -6.65400 15.61600 38.72200
C  -5.14600 15.76500 38.56100
H  -4.78800 16.06000 37.12500
N  -12.43800 17.17100 40.65600
C  -11.79300 18.20300 40.13200
C  -12.75100 19.28500 39.89000
C  -13.99800 18.88600 40.33200
C  -13.81700 17.38700 40.59200
C  -12.46500 20.63400 39.39600
C  -15.31000 19.70100 40.39800
O  -15.30300 20.88300 40.04800
C  -16.59100 19.20800 40.92300
N  -13.51300 14.43600 41.67500
C  -14.71200 15.08100 41.44200
C  -15.92700 14.18000 41.69100
C  -15.26200 12.84800 42.12000
C  -13.78500 13.10300 42.02400
C  -16.92800 14.88300 42.65100
C  -15.66200 11.72300 41.10500
C  -16.16200 10.35800 41.71400
N  -10.82800 13.38500 41.69800
C  -11.38500 12.21500 42.10800
C  -10.24700 11.30700 42.43100
C  -9.06300 11.98300 42.02800
C  -9.42400 13.23600 41.59700
C  -10.42000 9.92400 42.99800
C  -7.60300 11.81700 41.98500
O  -6.85400 10.85200 42.23300
C  -7.12500 13.08300 41.31100
C  -6.08800 13.73200 42.19000
O  -6.27300 14.42400 43.21500
O  -4.82100 13.42600 41.70900
C  -3.70700 13.98000 42.39600
H  -10.02000 19.10700 39.35500
H  -15.81800 16.76200 40.63900
H  -13.13400 11.19600 42.75800
H  -6.36000 16.22500 40.70500
H  -7.61900 17.86700 38.90800
H  -8.05500 19.19400 41.42800
H  -6.63500 19.30400 40.43100
H  -6.72300 18.05000 41.74600
H  -7.08700 16.09800 37.84500
H  -6.89200 14.55400 38.67700
H  -4.66800 14.83700 38.87500
H  -4.76200 16.58900 39.16200
H  -11.52700 20.72400 38.84800
H  -12.36300 21.36300 40.20000
H  -13.33100 20.99800 38.84400
H  -16.97000 18.57400 40.12100
H  -17.14900 20.07700 41.27100
H  -16.34500 18.52600 41.73700
H  -16.38800 14.01900 40.71600
H  -15.49900 12.69300 43.17200
H  -16.93700 14.43300 43.64300
H  -17.88700 15.01100 42.14900
H  -16.53100 15.88700 42.79700
H  -14.80300 11.38500 40.52400
H  -16.47100 12.04400 40.44900
H  -17.14100 10.16500 41.27500
H  -16.08000 10.35100 42.80100
H  -15.38800 9.65500 41.40300
H  -10.72100 9.82200 44.04100
H  -9.47100 9.43600 42.77700
H  -11.05100 9.31900 42.34600
H  -6.63700 12.83800 40.36700
H  -3.54300 15.01700 42.10000
H  -2.88700 13.33800 42.07200
H  -3.87200 13.96200 43.47300

