158

Mg 9.51500 48.38000 26.16300
C  7.28300 48.49800 28.80900
C  12.00900 49.23100 28.58000
C  11.81500 47.92800 23.75700
C  6.97600 47.69000 23.95300
N  9.58700 48.91100 28.40200
C  8.57100 48.82600 29.32100
C  9.06600 49.16900 30.78700
C  10.44100 49.84400 30.54500
C  10.71500 49.25300 29.14300
C  10.43700 51.40100 30.60200
C  9.13100 47.94300 31.73000
C  8.75400 48.14200 33.17900
H  9.14200 47.07900 34.17800
N  11.59700 48.56900 26.20500
C  12.46000 48.83200 27.27600
C  13.87600 48.81200 26.75300
C  13.85200 48.32500 25.39400
C  12.34300 48.28200 25.07300
C  15.08800 49.09800 27.57400
C  14.96400 47.94100 24.47600
O  14.79200 47.57400 23.28800
C  16.33200 47.89000 24.91400
N  9.44600 47.97600 24.08800
C  10.51200 47.84800 23.35500
C  10.09900 47.46700 21.90000
C  8.57200 47.59200 21.92300
C  8.24100 47.65400 23.42500
C  10.88500 48.17500 20.75400
C  7.80000 46.46300 21.20800
C  6.79100 47.02100 20.18000
N  7.51200 48.30600 26.30100
C  6.62000 47.96100 25.28800
C  5.31800 47.80400 25.88300
C  5.49400 48.05100 27.28900
C  6.88700 48.33400 27.47200
C  4.06600 47.34800 25.15600
C  4.75800 48.15500 28.55700
O  3.56900 48.02700 28.78800
C  5.95100 48.37400 29.57300
C  6.03900 47.12500 30.33100
O  6.67600 46.13500 30.01500
O  5.20800 47.17000 31.41200
C  5.29100 46.14900 32.46500
H  12.80800 49.59500 29.23000
H  12.61500 47.73800 23.04000
H  6.12000 47.55300 23.28800
H  8.41900 49.88900 31.28700
H  11.15200 49.40900 31.24800
H  11.28800 51.64900 31.23600
H  9.61300 51.71800 31.24200
H  10.42900 51.95400 29.66300
H  10.06100 47.37500 31.69800
H  8.47500 47.19300 31.28700
H  7.67100 48.27300 33.16700
H  9.11000 49.10200 33.55300
H  15.85200 49.68000 27.05900
H  15.57600 48.15200 27.81100
H  14.86000 49.60600 28.51100
H  16.45500 47.29100 25.81700
H  16.83700 48.83700 25.10300
H  16.94500 47.44900 24.12800
H  10.39900 46.41900 21.88400
H  8.17700 48.52500 21.52100
H  11.02600 49.21000 21.06500
H  10.16900 48.14700 19.93200
H  11.72900 47.61000 20.36000
H  7.18700 45.85500 21.87300
H  8.42500 45.87400 20.53700
H  6.15500 46.20300 19.84100
H  7.28300 47.36100 19.26900
H  6.20500 47.87400 20.52300
H  4.28700 46.56300 24.43300
H  3.70900 48.16800 24.53300
H  3.26900 47.02500 25.82500
H  5.70400 49.27400 30.13400
H  6.17000 45.51000 32.37700
H  4.33700 45.62400 32.51100
H  5.39700 46.45000 33.50700
Mg -5.60600 24.88700 26.95000
C  -4.59000 26.76900 29.75100
C  -7.37500 23.05300 29.16600
C  -6.87500 23.24300 24.33300
C  -3.79500 26.96400 24.96800
N  -5.86800 24.93800 29.21800
C  -5.45600 25.81900 30.12900
C  -6.07400 25.55700 31.52000
C  -6.76100 24.16300 31.31600
C  -6.67800 24.00600 29.79800
C  -6.13700 22.87900 32.06300
C  -7.00800 26.70900 31.98000
C  -7.06100 27.19600 33.53900
H  -6.52000 26.23100 34.61200
N  -6.98800 23.38000 26.72100
C  -7.69100 22.79700 27.79000
C  -8.63400 21.82100 27.21300
C  -8.48000 21.80700 25.76600
C  -7.44500 22.89200 25.56500
C  -9.56100 20.95900 28.09500
C  -9.10300 20.95000 24.73200
O  -9.06600 21.27100 23.53000
C  -10.07500 19.90200 25.14200
N  -5.26800 25.00500 24.95300
C  -5.92300 24.19100 24.07200
C  -5.36800 24.44400 22.61600
C  -4.45300 25.68900 22.84700
C  -4.50000 25.87700 24.37000
C  -4.56200 23.25600 22.02600
C  -4.92600 27.01600 22.00500
C  -4.10000 27.22100 20.70900
N  -4.35100 26.46600 27.23600
C  -3.69100 27.25300 26.27400
C  -2.96200 28.25000 26.92900
C  -3.23500 28.08200 28.31700
C  -4.16400 27.07800 28.45300
C  -2.02600 29.20300 26.28900
C  -3.00200 28.63600 29.61500
O  -2.34000 29.57200 30.03400
C  -3.94300 27.87600 30.62600
C  -3.16700 27.38600 31.80300
O  -2.44100 26.41500 31.84900
O  -3.21200 28.28800 32.88300
C  -2.25800 28.20900 34.02700
H  -7.79100 22.32400 29.86400
H  -7.12000 22.55100 23.52500
H  -3.25400 27.60500 24.26900
H  -5.32700 25.35500 32.28800
H  -7.79800 24.08900 31.64300
H  -5.35400 23.31400 32.68500
H  -5.77000 22.14300 31.34800
H  -6.91800 22.50700 32.72600
H  -8.01900 26.51000 31.62400
H  -6.57300 27.56000 31.45400
H  -8.05600 27.52200 33.84200
H  -6.54300 28.14500 33.68000
H  -9.44400 19.93300 27.74900
H  -10.57800 21.33900 28.00500
H  -9.36900 21.00700 29.16700
H  -9.81300 19.22200 25.95200
H  -10.45900 19.26700 24.34300
H  -10.98100 20.37200 25.52500
H  -6.24300 24.62400 21.99300
H  -3.40000 25.47000 22.67500
H  -4.32100 22.44800 22.71700
H  -3.61100 23.58600 21.60800
H  -5.22900 22.87600 21.25200
H  -4.93700 27.93000 22.59900
H  -5.93300 26.89600 21.60500
H  -3.35900 26.46100 20.46000
H  -3.52100 28.14300 20.75700
H  -4.72700 27.30800 19.82200
H  -1.43500 29.64200 27.09400
H  -2.38100 29.93400 25.56300
H  -1.26900 28.62500 25.76000
H  -4.72300 28.56400 30.95400
H  -1.29400 27.78200 33.75000
H  -2.61000 27.75300 34.95200
H  -1.99300 29.21300 34.35900

