158

Mg 5.32100 54.78900 40.41000
C  4.76200 51.28300 40.30800
C  8.60500 54.08500 39.56200
C  5.74000 57.98700 40.16600
C  1.89900 55.16100 40.99200
N  6.54300 52.92100 39.94100
C  6.05300 51.61100 39.85500
C  7.17900 50.63500 39.42200
C  8.44300 51.51600 39.53000
C  7.84600 52.95200 39.72400
C  9.44900 50.99600 40.56600
C  7.04300 49.91400 38.01200
C  6.15900 50.66500 36.98900
H  6.87900 51.31900 35.85700
N  7.03700 55.90500 39.96300
C  8.27700 55.45500 39.65300
C  9.12400 56.61200 39.49000
C  8.32800 57.79000 39.74400
C  6.92700 57.24100 39.88800
C  10.65900 56.51300 39.25600
C  8.86700 59.17900 39.63200
O  10.06100 59.42000 39.45700
C  7.96600 60.32200 39.82800
N  4.01700 56.39200 40.52200
C  4.43300 57.65300 40.49200
C  3.29100 58.66700 40.80500
C  2.04700 57.72100 40.89400
C  2.69300 56.35100 40.80100
C  3.56300 59.48900 42.07800
C  0.93100 57.74700 39.78700
C  -0.52200 57.78500 40.17100
N  3.58700 53.52700 40.59300
C  2.35700 53.79400 40.96000
C  1.60600 52.57600 41.13600
C  2.51300 51.59600 41.02900
C  3.70700 52.16700 40.64500
C  0.09000 52.46300 41.22200
C  2.77000 50.14400 41.09900
O  2.01700 49.24000 41.37500
C  4.26800 49.96500 40.61800
C  4.08500 49.23500 39.35700
O  3.56500 49.73000 38.35400
O  4.55000 47.92500 39.53700
C  4.29600 46.94000 38.45800
H  9.66000 53.90800 39.34700
H  5.79100 59.07700 40.17100
H  0.84100 55.33000 41.20200
H  7.19800 49.88800 40.21600
H  8.98900 51.51800 38.58700
H  10.46300 50.86300 40.18800
H  9.21100 50.09700 41.13400
H  9.53600 51.74200 41.35600
H  6.61100 48.91900 38.11300
H  7.99700 49.85200 37.48800
H  5.55000 51.45700 37.42500
H  5.46400 49.99200 36.48800
H  11.07300 57.06600 38.41200
H  10.92400 55.46400 39.12700
H  11.04600 56.82900 40.22500
H  8.45100 61.29700 39.77700
H  7.45100 60.24500 40.78600
H  7.32800 60.33400 38.94500
H  3.11900 59.27900 39.92000
H  1.62600 57.61900 41.89400
H  2.72500 59.40100 42.77000
H  3.54900 60.54600 41.81400
H  4.45900 59.25100 42.65100
H  1.06900 56.95200 39.05300
H  1.06900 58.62000 39.15000
H  -0.61400 58.11700 41.20500
H  -1.17100 56.91700 40.05500
H  -0.96700 58.58500 39.57900
H  -0.41300 53.37500 40.90100
H  -0.11100 52.34300 42.28700
H  -0.36900 51.63200 40.68700
H  4.91500 49.54100 41.38600
H  4.51400 47.36900 37.48000
H  3.30600 46.49900 38.34200
H  4.94300 46.09500 38.69300
Mg 9.62200 48.55000 25.90100
C  7.72300 48.88700 28.80700
C  12.29600 50.06700 27.77800
C  11.50500 48.31700 23.22700
C  6.77800 47.91000 24.07000
N  9.96100 49.44500 28.12900
C  9.05800 49.33400 29.14000
C  9.64300 49.85400 30.46900
C  10.98400 50.50100 30.03500
C  11.08800 50.00100 28.52700
C  11.07100 52.00300 30.14200
C  9.87300 48.67500 31.42600
C  9.83500 48.99500 32.94000
H  9.48200 47.84200 33.89400
N  11.53400 48.96700 25.60400
C  12.52900 49.57700 26.42800
C  13.83400 49.59100 25.71900
C  13.56800 49.16200 24.42800
C  12.16300 48.84400 24.37200
C  15.09900 50.08800 26.37400
C  14.54800 49.09700 23.28600
O  14.30700 48.78800 22.11300
C  16.01200 49.36900 23.54300
N  9.23500 48.34100 23.84300
C  10.20300 48.10700 22.93800
C  9.68700 47.59700 21.58000
C  8.13100 47.48100 21.88600
C  7.97600 47.93400 23.34400
C  10.00500 48.40100 20.28300
C  7.72500 45.97200 21.75600
C  7.75600 45.10900 23.04500
N  7.65400 48.41400 26.29800
C  6.55600 48.11700 25.43600
C  5.30800 48.30300 26.16500
C  5.78700 48.45400 27.51600
C  7.21900 48.61300 27.54800
C  3.89700 48.16900 25.67800
C  5.26900 48.67100 28.87800
O  4.12800 48.78400 29.26400
C  6.54000 48.77900 29.74300
C  6.56300 47.49800 30.44000
O  6.81700 46.40200 29.92400
O  6.31400 47.80800 31.77500
C  6.17100 46.64400 32.69300
H  13.15300 50.54900 28.25300
H  12.14500 48.11000 22.36700
H  5.91600 47.52100 23.52300
H  8.91200 50.57400 30.83400
H  11.75500 50.10400 30.69600
H  12.04500 52.26400 30.55700
H  10.26800 52.36600 30.78300
H  11.01300 52.51500 29.18200
H  10.81800 48.24700 31.09300
H  9.24900 47.79300 31.28300
H  9.13600 49.81200 33.11600
H  10.82200 49.36300 33.22200
H  15.09300 50.05600 27.46300
H  15.49200 51.02800 25.98700
H  15.85300 49.35300 26.09200
H  16.03000 50.43000 23.79200
H  16.56200 49.19700 22.61800
H  16.47500 48.79500 24.34600
H  10.14600 46.61700 21.45100
H  7.60400 48.22100 21.28200
H  10.68500 49.20500 20.56500
H  9.17200 48.78900 19.69700
H  10.56800 47.76300 19.60100
H  8.44900 45.44400 21.13600
H  6.71000 45.82200 21.38700
H  8.36800 45.51500 23.85000
H  8.29600 44.22700 22.70100
H  6.74100 44.85600 23.35200
H  3.70900 47.11600 25.46800
H  3.75900 48.78300 24.78800
H  3.16700 48.47000 26.42900
H  6.61300 49.54400 30.51600
H  6.54200 46.99300 33.65700
H  6.75700 45.81300 32.30100
H  5.11200 46.39800 32.76900

