158

Mg 17.68700 52.25700 26.77200
C  19.80600 50.76200 29.25800
C  15.32100 52.51900 29.33100
C  15.67500 53.42000 24.55100
C  19.80400 50.92700 24.29500
N  17.69000 51.75600 29.11700
C  18.66800 51.26200 29.92200
C  18.29900 51.31900 31.38900
C  16.69000 51.44300 31.26900
C  16.54000 51.95700 29.83400
C  15.83800 50.19000 31.66500
C  19.10800 52.38800 32.16500
C  18.91700 52.62100 33.76300
H  17.81100 51.76500 34.44900
N  15.80300 52.92400 26.86500
C  14.99500 53.00100 28.04900
C  13.77400 53.67000 27.73700
C  13.82700 53.90200 26.32300
C  15.17400 53.45700 25.86600
C  12.67000 53.89600 28.70100
C  12.70700 54.41800 25.39600
O  12.86800 54.44400 24.18700
C  11.38700 54.83400 25.83000
N  17.85100 52.28500 24.73800
C  16.87400 52.92000 23.99300
C  17.16600 52.82400 22.44000
C  18.55200 52.07200 22.39000
C  18.79100 51.72300 23.93400
C  15.98100 52.10900 21.74200
C  19.72200 53.01000 21.83500
C  20.26700 54.07800 22.71500
N  19.53400 51.12300 26.72800
C  20.24700 50.60100 25.63300
C  21.33500 49.73800 26.09700
C  21.22600 49.90000 27.54500
C  20.09200 50.66000 27.83400
C  22.22600 48.88700 25.27200
C  21.89100 49.50700 28.80600
O  22.93800 48.94900 28.95200
C  20.95200 50.02000 29.94500
C  20.59100 48.88000 30.79900
O  20.01100 47.93900 30.32100
O  20.87500 49.19000 32.11400
C  20.38500 48.31500 33.11200
H  14.60500 52.49100 30.15500
H  15.02000 53.73600 23.73600
H  20.32800 50.52900 23.42400
H  18.61400 50.34000 31.75100
H  16.26300 52.23700 31.88200
H  15.29600 49.74900 30.82900
H  14.95800 50.58300 32.17300
H  16.30500 49.41200 32.26900
H  19.06300 53.29900 31.56800
H  20.10000 51.96200 32.01700
H  18.76400 53.68900 33.92200
H  19.81800 52.29400 34.28100
H  12.26400 54.90800 28.68500
H  13.04300 53.77400 29.71800
H  11.88600 53.15100 28.56600
H  10.97400 54.04100 26.45400
H  10.71700 54.93600 24.97700
H  11.40000 55.81700 26.30000
H  17.20900 53.80500 21.96700
H  18.58000 51.15700 21.79800
H  15.92900 51.09300 22.13400
H  15.96400 52.15000 20.65300
H  15.09200 52.71300 21.92400
H  19.29300 53.43400 20.92700
H  20.57900 52.36900 21.62500
H  20.39500 54.99200 22.13500
H  21.18700 53.69400 23.15600
H  19.74900 54.22800 23.66200
H  21.78600 48.58600 24.32200
H  22.31900 48.00500 25.90600
H  23.25000 49.25500 25.21900
H  21.50000 50.77700 30.50600
H  19.55800 47.64600 32.87200
H  20.05200 48.95700 33.92700
H  21.17100 47.63300 33.43500
Mg -11.86000 15.64300 41.25100
C  -8.74700 13.99200 40.86900
C  -10.27400 18.33700 39.77200
C  -14.77200 17.04900 40.98200
C  -13.21600 12.57100 42.07500
N  -9.69800 16.10000 40.65600
C  -8.59600 15.27900 40.46400
C  -7.40800 15.95300 39.86400
C  -7.87900 17.44500 39.89300
C  -9.40300 17.34300 40.13900
C  -7.11100 18.23100 41.07900
C  -7.11900 15.44100 38.42100
C  -5.64700 15.28900 38.04100
H  -5.23500 15.89500 36.68100
N  -12.42900 17.53900 40.64100
C  -11.64500 18.43900 40.00300
C  -12.46800 19.57800 39.70000
C  -13.80400 19.28100 40.10700
C  -13.72300 17.92100 40.68100
C  -11.89100 20.84600 39.02100
C  -15.00100 20.17800 39.91600
O  -15.00000 21.25200 39.37500
C  -16.36000 19.71400 40.39200
N  -13.71400 14.93200 41.39100
C  -14.77300 15.70500 41.31100
C  -16.11400 14.87400 41.37900
C  -15.58700 13.43200 41.79200
C  -14.07000 13.64000 41.73600
C  -17.24000 15.38700 42.27600
C  -16.03600 12.31300 40.88400
C  -17.06200 11.33200 41.39300
N  -11.11200 13.68600 41.67900
C  -11.78900 12.50800 41.95100
C  -10.87400 11.40200 42.08700
C  -9.69200 11.98700 41.63500
C  -9.89900 13.35200 41.36000
C  -11.23600 10.02300 42.52500
C  -8.25200 11.72200 41.38300
O  -7.62100 10.69200 41.47100
C  -7.62000 12.97300 40.85700
C  -6.54500 13.37700 41.85500
O  -6.67700 13.81900 42.94800
O  -5.32700 12.99300 41.35600
C  -4.18900 13.23900 42.25600
H  -9.79800 19.23300 39.36800
H  -15.78500 17.45800 40.97600
H  -13.79900 11.73000 42.45700
H  -6.55100 15.92800 40.53700
H  -7.60700 17.99700 38.99400
H  -6.51500 17.51700 41.64800
H  -7.80600 18.67900 41.78900
H  -6.51400 19.08400 40.75800
H  -7.60900 16.19000 37.79900
H  -7.66400 14.52000 38.21200
H  -5.43900 14.22200 38.11900
H  -5.02100 15.79900 38.77300
H  -12.58600 21.33100 38.33500
H  -11.05200 20.49500 38.42000
H  -11.56600 21.56000 39.77700
H  -16.79300 18.99300 39.70000
H  -16.95400 20.62800 40.39700
H  -16.20300 19.31800 41.39500
H  -16.47200 14.87000 40.34900
H  -15.87000 13.21900 42.82300
H  -16.94600 16.29300 42.80600
H  -17.51900 14.55300 42.92000
H  -18.05400 15.65800 41.60300
H  -15.21300 11.83700 40.35100
H  -16.58600 12.68900 40.02100
H  -17.52400 11.79400 42.26600
H  -16.56300 10.39600 41.64500
H  -17.82000 11.00600 40.68200
H  -10.34100 9.43200 42.71800
H  -11.87900 9.60600 41.75000
H  -11.80600 10.18900 43.44000
H  -7.20900 12.71000 39.88200
H  -4.30100 12.72100 43.20900
H  -4.26700 14.30900 42.44900
H  -3.24200 12.92300 41.82000

