158

Mg 47.09000 16.31800 28.48500
C  45.22700 15.47500 31.26200
C  48.74500 18.61600 30.27700
C  48.86300 17.19500 25.69000
C  45.05700 14.31900 26.53700
N  46.91700 16.96600 30.52700
C  46.22900 16.39000 31.52800
C  46.68900 16.90300 32.92400
C  47.63200 18.08000 32.55300
C  47.81300 17.82100 31.04100
C  47.13100 19.51900 32.92500
C  47.37800 15.83100 33.77600
C  47.12600 15.80100 35.31900
H  48.38200 15.81900 36.26400
N  48.67400 17.59700 28.07200
C  49.28200 18.39900 28.99400
C  50.44500 19.02800 28.41100
C  50.49700 18.66100 27.09700
C  49.34100 17.73600 26.87600
C  51.53100 19.64700 29.35000
C  51.47300 19.09300 25.93600
O  51.43200 18.69600 24.77300
C  52.63900 19.88400 26.36400
N  47.06300 15.69400 26.41600
C  47.90500 16.15400 25.45700
C  47.41600 15.71300 24.03400
C  46.42100 14.58900 24.44200
C  46.14500 14.84800 25.86300
C  46.67400 16.80000 23.26300
C  47.01800 13.19100 24.40700
C  47.03700 12.39600 23.07000
N  45.38700 15.24000 28.74400
C  44.68000 14.44900 27.88400
C  43.57500 13.73700 28.49600
C  43.79700 14.09600 29.86800
C  44.87700 14.99900 29.92900
C  42.46300 12.88100 27.93900
C  43.33500 13.95000 31.30500
O  42.40200 13.27800 31.72500
C  44.28200 14.74900 32.27700
C  43.46600 15.82900 32.97600
O  42.79100 16.69900 32.46400
O  43.41600 15.57300 34.36500
C  42.50300 16.27600 35.19300
H  49.39200 19.29000 30.84200
H  49.44800 17.51600 24.82600
H  44.31500 13.80900 25.92000
H  45.79300 17.28800 33.41300
H  48.63800 17.90400 32.93400
H  46.27700 19.80300 32.31000
H  47.96600 20.21000 32.81500
H  46.74100 19.47900 33.94200
H  48.46100 15.94800 33.74500
H  47.12300 14.83000 33.42700
H  46.46000 14.99400 35.62400
H  46.58400 16.74300 35.40100
H  51.35800 20.72300 29.36000
H  52.55400 19.42600 29.04600
H  51.41400 19.34400 30.39100
H  52.28800 20.78100 26.87400
H  53.23700 20.18700 25.50500
H  53.25400 19.26700 27.02000
H  48.25500 15.38500 23.42000
H  45.47200 14.55300 23.90900
H  45.65800 16.59300 22.92900
H  47.34400 16.91500 22.41100
H  46.59400 17.78200 23.72800
H  46.38800 12.57000 25.04300
H  47.99700 13.25100 24.88300
H  46.61700 11.43500 23.36900
H  48.09300 12.30100 22.81700
H  46.56400 12.86200 22.20600
H  41.86200 13.47300 27.25000
H  41.73600 12.64900 28.71700
H  42.86400 12.00000 27.43600
H  44.65300 14.03700 33.01500
H  41.67400 16.65400 34.59500
H  43.05300 17.13300 35.58200
H  42.19900 15.59600 35.98800
Mg 35.39000 49.33800 25.00900
C  35.00800 47.55000 28.08400
C  33.78200 52.03100 26.65300
C  35.19600 50.89700 22.14600
C  36.39600 46.40100 23.45700
N  34.57900 49.76100 27.18700
C  34.60700 48.92700 28.21600
C  34.03600 49.46600 29.50800
C  33.55300 50.92400 29.03200
C  34.04200 50.98200 27.54800
C  32.08100 51.22700 29.18600
C  35.07000 49.47300 30.69800
C  34.55100 49.09900 32.10400
H  33.00800 48.81800 32.27700
N  34.74300 51.22900 24.53300
C  34.11000 52.18400 25.33700
C  33.93300 53.41600 24.58700
C  34.33600 53.10800 23.22300
C  34.72600 51.66800 23.27100
C  33.13900 54.59200 25.12100
C  34.26500 54.09500 21.99700
O  34.30100 53.64600 20.82800
C  33.96200 55.57000 22.20400
N  35.62300 48.67800 23.05700
C  35.50200 49.56100 21.99500
C  35.93900 48.90000 20.66200
C  36.45200 47.46500 21.15600
C  36.21100 47.50700 22.64600
C  34.84500 48.98600 19.57800
C  37.83500 47.05700 20.71600
C  39.07800 47.39100 21.58500
N  35.72400 47.37200 25.58500
C  36.18900 46.24300 24.90000
C  36.32100 45.13100 25.75700
C  35.89100 45.57100 26.99500
C  35.44000 46.92800 26.87200
C  36.96900 43.76200 25.53400
C  35.80000 45.24000 28.38200
O  36.20500 44.25000 28.99900
C  35.12000 46.41100 29.09800
C  33.76000 45.92400 29.63700
O  32.68400 46.39300 29.26700
O  33.96700 45.26400 30.86100
C  32.77700 44.84800 31.60000
H  33.41300 52.85500 27.26600
H  35.23100 51.49200 21.23100
H  36.79500 45.48100 23.02500
H  33.18100 48.88300 29.85100
H  34.12800 51.64200 29.61600
H  31.90700 51.91100 30.01700
H  31.65700 50.26900 29.48800
H  31.61300 51.73600 28.34300
H  35.65100 50.39100 30.60500
H  35.84800 48.71000 30.73700
H  34.86400 49.91700 32.75400
H  35.13900 48.30900 32.57000
H  33.76700 55.47000 24.97300
H  32.98500 54.58600 26.20000
H  32.22800 54.65700 24.52600
H  32.90400 55.49400 22.45300
H  34.06300 55.97600 21.19800
H  34.44600 56.17700 22.96900
H  36.73400 49.61000 20.43200
H  35.95500 46.65500 20.62300
H  33.94500 49.23300 20.14100
H  34.71300 48.07800 18.98800
H  34.99300 49.81900 18.89000
H  38.11800 47.58400 19.80500
H  37.81800 46.00500 20.43200
H  39.54400 48.24700 21.09700
H  39.77400 46.55200 21.58500
H  38.85600 47.67200 22.61400
H  37.78300 43.76100 24.80900
H  36.14700 43.06900 25.35600
H  37.47800 43.50700 26.46400
H  35.67600 46.63200 30.00800
H  32.68900 43.76200 31.57900
H  31.78700 45.23500 31.35800
H  33.06300 45.12200 32.61600

