158

Mg 49.00300 35.32000 25.60900
C  46.82200 34.51000 28.20200
C  49.83700 38.09100 27.34300
C  50.97500 36.19100 22.91800
C  47.66100 32.68000 23.63700
N  48.23500 36.30700 27.47000
C  47.49300 35.67200 28.43900
C  47.44800 36.49500 29.74300
C  48.24600 37.83100 29.25300
C  48.83100 37.38800 27.99100
C  47.40600 39.17700 29.07500
C  48.18600 35.85100 30.93400
C  47.30400 35.59700 32.11500
H  47.43600 36.64300 33.19200
N  50.33900 36.88100 25.29000
C  50.49800 37.87200 26.12800
C  51.50500 38.74300 25.56200
C  52.05100 38.12700 24.42700
C  51.15700 36.97600 24.18000
C  52.00300 40.04100 26.24400
C  53.23200 38.49100 23.49900
O  53.67900 37.79600 22.62200
C  53.93700 39.76800 23.74200
N  49.29500 34.57400 23.61300
C  50.14400 35.11400 22.63600
C  50.03800 34.35600 21.30300
C  49.32400 33.04100 21.70600
C  48.72500 33.40700 23.10800
C  49.46200 35.24300 20.10500
C  50.22700 31.76200 21.75500
C  49.72700 30.51100 20.94300
N  47.35000 33.97300 25.73800
C  46.98800 32.90000 24.89400
C  45.94400 32.14600 25.55300
C  45.85100 32.69500 26.87500
C  46.73200 33.79000 26.92800
C  45.42600 30.84200 25.12700
C  45.29700 32.59200 28.15100
O  44.45700 31.77000 28.54400
C  45.94900 33.62800 29.13400
C  46.74200 32.87500 30.15200
O  47.91400 32.51800 30.05000
O  45.84600 32.47200 31.20400
C  46.57100 31.77900 32.23600
H  50.23300 38.96300 27.86800
H  51.58900 36.62000 22.12400
H  47.34000 31.80000 23.07600
H  46.40600 36.70200 29.98900
H  49.10600 38.18100 29.82500
H  47.74500 39.82900 28.27000
H  47.50300 39.66700 30.04400
H  46.37600 38.83600 28.96500
H  48.92700 36.60200 31.21100
H  48.64500 34.92200 30.59600
H  47.46200 34.62600 32.58400
H  46.26100 35.64900 31.80200
H  51.39400 40.39900 27.07500
H  52.03000 40.87700 25.54600
H  53.07000 39.97000 26.45500
H  54.53500 40.04100 22.87300
H  54.52300 39.82400 24.66000
H  53.24500 40.61000 23.77200
H  51.03800 34.17200 20.91000
H  48.45800 32.89600 21.06100
H  49.25800 36.24700 20.47600
H  48.60800 34.76700 19.62300
H  50.26500 35.35900 19.37700
H  50.22900 31.33400 22.75700
H  51.24000 32.08200 21.50900
H  49.34000 29.74000 21.60800
H  50.55200 30.03800 20.41000
H  48.94100 30.66500 20.20400
H  46.10700 30.22600 24.53900
H  44.59400 31.07700 24.46300
H  44.99500 30.27200 25.95000
H  45.08000 34.19600 29.46500
H  46.47600 30.71300 32.02700
H  45.99400 31.82100 33.16000
H  47.60500 32.11800 32.29900
Mg 0.45000 42.95200 26.24600
C  2.42400 42.71700 29.19700
C  -2.32500 42.57600 28.26400
C  -1.21500 42.26200 23.47600
C  3.44900 43.41200 24.43500
N  0.19500 42.36200 28.40200
C  1.05600 42.59500 29.43000
C  0.33600 42.63500 30.80500
C  -1.14100 42.25400 30.45300
C  -1.08200 42.48100 28.92200
C  -1.69700 40.86300 30.78400
C  0.54000 43.99000 31.61700
C  1.25100 43.81200 33.02500
H  0.85600 42.58000 33.83600
N  -1.55200 42.53400 25.92200
C  -2.58700 42.50400 26.85100
C  -3.80300 42.26000 26.16800
C  -3.50100 42.13500 24.76700
C  -2.02200 42.31100 24.66100
C  -5.03200 42.24500 27.00500
C  -4.41400 41.86800 23.64200
O  -4.01900 41.79400 22.47200
C  -5.89600 41.71700 23.86500
N  1.12000 42.75300 24.28800
C  0.17500 42.49500 23.34500
C  0.68300 42.58100 21.93000
C  1.99400 43.35700 22.20200
C  2.28700 43.13900 23.72200
C  0.77400 41.17200 21.21200
C  2.09800 44.87800 21.81800
C  2.76500 45.44100 20.60700
N  2.51800 43.18400 26.70200
C  3.58700 43.33500 25.82200
C  4.80800 43.34900 26.60000
C  4.43700 43.03100 27.91100
C  3.01800 42.97600 27.88200
C  6.18000 43.51600 26.12400
C  4.90400 42.84500 29.22700
O  6.05200 42.86200 29.66800
C  3.65000 42.76200 30.13200
C  3.67800 41.61300 31.05600
O  3.17600 40.59700 30.80000
O  4.49500 41.80100 32.10400
C  4.65300 40.71800 33.01700
H  -3.26200 42.56200 28.82400
H  -1.81700 42.33200 22.56700
H  4.31300 43.69900 23.83300
H  0.70600 41.82000 31.42800
H  -1.84800 42.97500 30.86400
H  -2.14700 40.33600 29.94200
H  -2.60400 41.00200 31.37200
H  -1.06700 40.23900 31.41700
H  -0.37500 44.54200 31.82900
H  1.17100 44.68100 31.05700
H  0.97100 44.73800 33.52800
H  2.34000 43.85900 33.01400
H  -5.09300 43.20100 27.52600
H  -4.97800 41.48500 27.78400
H  -5.99600 42.14200 26.50600
H  -6.09800 40.84600 24.48800
H  -6.34800 41.57400 22.88400
H  -6.26700 42.64900 24.29200
H  -0.05900 43.18500 21.40800
H  2.80000 42.81300 21.70900
H  1.37900 40.41200 21.70800
H  1.36300 41.51600 20.36200
H  -0.27400 40.96600 20.99600
H  2.56900 45.25900 22.72400
H  1.07000 45.23900 21.81400
H  2.20500 46.18500 20.04000
H  3.06800 44.65300 19.91700
H  3.67200 46.01600 20.79500
H  6.29800 43.88800 25.10700
H  6.67700 42.54600 26.08300
H  6.87300 44.12600 26.70400
H  3.69300 43.72700 30.63600
H  5.66200 40.40800 32.74600
H  3.99800 39.85900 32.87400
H  4.54300 40.93700 34.08000

