158

Mg 30.10600 57.71600 40.67000
C  27.72300 55.39000 39.50800
C  32.48200 55.62700 39.19200
C  32.42700 60.20800 40.97000
C  27.56000 59.97800 41.42800
N  30.03100 55.74200 39.56300
C  29.01500 54.91200 39.20700
C  29.49100 53.68800 38.36800
C  30.93400 53.59200 38.75600
C  31.17500 55.03800 39.19500
C  31.40200 52.54200 39.82900
C  29.26100 54.02800 36.85200
C  28.54200 52.92900 36.12100
H  27.37100 53.48500 35.27100
N  32.16600 57.90700 40.17200
C  32.91900 56.85700 39.65300
C  34.28800 57.27500 39.65100
C  34.37800 58.65700 40.12700
C  32.95500 58.97600 40.46000
C  35.39300 56.36500 39.16700
C  35.65400 59.40600 40.32000
O  36.73500 58.91500 39.95300
C  35.66600 60.68800 41.12000
N  30.03000 59.76400 41.22100
C  31.06700 60.60400 41.28100
C  30.65200 62.02400 41.79500
C  29.13300 61.91800 41.97300
C  28.88100 60.45400 41.53100
C  31.36300 62.62100 43.02300
C  28.23400 62.94400 41.20000
C  27.37300 63.84900 42.12700
N  28.13200 57.68000 40.67300
C  27.22600 58.61800 41.04800
C  25.88800 58.12800 40.95500
C  26.06700 56.88200 40.33100
C  27.43600 56.60900 40.16900
C  24.60200 58.87000 41.29700
C  25.31500 55.67300 39.93000
O  24.12300 55.40200 40.04100
C  26.38300 54.65200 39.32500
C  26.30800 53.39800 40.09800
O  26.66700 53.17300 41.25300
O  25.61400 52.52600 39.31200
C  25.45900 51.18100 39.93400
H  33.20000 54.86000 38.89400
H  33.16600 61.00600 41.06900
H  26.82800 60.64100 41.89200
H  28.96600 52.86000 38.84600
H  31.60200 53.38300 37.92000
H  32.01000 51.75300 39.38700
H  30.55500 52.06200 40.32000
H  31.98700 53.03500 40.60500
H  30.19400 54.06400 36.28900
H  28.78000 55.00400 36.78500
H  28.20600 52.15000 36.80400
H  29.26100 52.48600 35.43200
H  35.98500 56.86700 38.40200
H  35.08100 55.40300 38.76100
H  36.09600 56.07700 39.94800
H  35.43000 61.52800 40.46700
H  36.66700 60.84900 41.52000
H  35.01100 60.62600 41.98900
H  30.87800 62.69100 40.96300
H  28.99500 61.96400 43.05300
H  32.11000 61.88500 43.32300
H  30.72100 62.87100 43.86700
H  31.85400 63.53600 42.69100
H  27.52000 62.42500 40.56100
H  28.77600 63.51000 40.44200
H  27.64400 64.90000 42.03100
H  27.44000 63.46300 43.14400
H  26.34000 63.60500 41.88000
H  24.16000 59.41100 40.46100
H  24.63700 59.60800 42.09800
H  23.92800 58.05500 41.56100
H  26.22800 54.52900 38.25300
H  26.45900 50.80400 40.14900
H  24.94800 50.60000 39.16500
H  24.93400 51.22100 40.88800
Mg 1.53600 42.01600 26.28000
C  3.78700 41.98900 29.12600
C  -0.99600 41.35700 28.36300
C  -0.14800 41.40900 23.57000
C  4.56900 42.08400 24.36200
N  1.44600 41.85900 28.50500
C  2.41000 41.92700 29.43900
C  1.76800 41.80300 30.81900
C  0.32000 41.27100 30.51000
C  0.23200 41.56700 29.05400
C  0.06600 39.77600 30.87100
C  1.84900 43.08800 31.72700
C  2.21200 42.91600 33.19200
H  1.80600 41.62400 33.86600
N  -0.29900 41.52100 26.05100
C  -1.24700 41.36000 26.99100
C  -2.51900 41.05200 26.40600
C  -2.24800 40.91400 24.98100
C  -0.85000 41.29100 24.78800
C  -3.82800 40.98800 27.20800
C  -3.25800 40.55300 23.94600
O  -3.02700 40.59900 22.73600
C  -4.61400 40.22400 24.45100
N  2.12700 41.93200 24.23300
C  1.17900 41.81600 23.28800
C  1.85500 41.96400 21.90600
C  3.28700 42.47600 22.25200
C  3.39000 42.10300 23.72400
C  1.85700 40.59200 21.17500
C  3.57100 44.01000 22.00000
C  4.58500 44.39500 20.93100
N  3.75200 41.99200 26.64500
C  4.80800 42.08400 25.73400
C  6.13200 42.24800 26.39600
C  5.77500 42.20100 27.76600
C  4.33400 42.07200 27.81000
C  7.46900 42.33000 25.78600
C  6.28300 42.19600 29.06900
O  7.40200 42.28100 29.46300
C  4.95400 42.21600 30.02200
C  5.18100 41.21100 31.09400
O  4.94900 39.97600 30.97800
O  5.62000 41.81600 32.19200
C  6.11500 40.88700 33.21800
H  -1.80000 40.97300 28.99400
H  -0.74000 41.20900 22.67500
H  5.43900 42.29100 23.73600
H  2.36100 41.04800 31.33600
H  -0.46000 41.76800 31.08600
H  -0.20000 39.15600 30.01500
H  -0.79700 39.68200 31.53000
H  0.88900 39.32600 31.42700
H  1.03000 43.79600 31.59600
H  2.66600 43.71900 31.37500
H  1.53700 43.60000 33.70700
H  3.29200 43.03200 33.27700
H  -3.76900 41.30600 28.24900
H  -4.11900 39.93700 27.21100
H  -4.60200 41.64100 26.80400
H  -5.12800 41.14000 24.73900
H  -4.61400 39.48000 25.24800
H  -5.19500 39.74000 23.66600
H  1.49900 42.85100 21.38300
H  3.99000 41.91300 21.63800
H  1.16600 39.88000 21.62800
H  2.79900 40.09300 21.40200
H  1.63000 40.57300 20.10900
H  3.97400 44.35700 22.95200
H  2.60500 44.48700 21.83300
H  5.39400 44.86800 21.48800
H  4.13800 45.09300 20.22300
H  4.92700 43.52200 20.37500
H  7.76200 43.37300 25.66800
H  7.59500 41.82500 24.82800
H  8.17000 41.85600 26.47300
H  4.89600 43.21300 30.45900
H  6.67200 40.10900 32.69500
H  5.38800 40.30600 33.78400
H  6.73100 41.47300 33.90000

