158

Mg 2.45800 -1.68300 44.17600
C  4.90500 0.75400 43.33000
C  0.03800 0.52500 42.80400
C  0.36200 -4.16200 44.25600
C  5.10100 -3.78600 45.21200
N  2.47900 0.34100 43.20300
C  3.64200 1.14400 42.96800
C  3.24600 2.45600 42.26200
C  1.67000 2.40400 42.22500
C  1.38400 0.95600 42.75300
C  1.04900 3.53400 43.14500
C  3.95100 2.55800 40.87500
C  4.66000 3.87200 40.58000
H  4.45900 4.34900 39.07800
N  0.42600 -1.78400 43.83000
C  -0.39700 -0.77400 43.34100
C  -1.77300 -1.28300 43.35700
C  -1.69800 -2.71900 43.64800
C  -0.25700 -2.94500 43.94500
C  -2.97400 -0.48000 43.17300
C  -2.94100 -3.62900 43.87400
O  -4.09500 -3.23600 43.64600
C  -2.77000 -5.08600 44.34900
N  2.70700 -3.72200 44.60600
C  1.65100 -4.57500 44.57600
C  2.07500 -5.97800 45.11600
C  3.64100 -5.81400 45.34500
C  3.89600 -4.38700 45.06800
C  1.20500 -6.56600 46.23900
C  4.54600 -6.76800 44.39300
C  5.36800 -7.91000 45.01200
N  4.67500 -1.59600 44.21800
C  5.55800 -2.51600 44.72400
C  6.83200 -1.89200 44.70800
C  6.62200 -0.56800 44.21500
C  5.26000 -0.40900 43.90900
C  8.10200 -2.54900 45.04100
C  7.25900 0.68900 43.90900
O  8.41700 1.04100 43.97100
C  6.15300 1.66400 43.37600
C  6.04400 2.76600 44.32200
O  5.54000 2.62400 45.45200
O  6.69100 3.89000 43.94400
C  6.64400 4.95700 44.96400
H  -0.79400 1.11600 42.41400
H  -0.29400 -5.03500 44.24800
H  5.81700 -4.53300 45.56200
H  3.69800 3.24200 42.86800
H  1.29100 2.52700 41.21000
H  1.73900 4.27500 43.54900
H  0.53100 3.09400 43.99700
H  0.36000 4.08700 42.50700
H  3.25300 2.42100 40.04900
H  4.74700 1.81600 40.80600
H  5.72600 3.75700 40.77100
H  4.25900 4.55500 41.32900
H  -3.30600 -0.81200 42.19000
H  -2.74800 0.57800 43.04100
H  -3.80800 -0.69600 43.84100
H  -3.69600 -5.62300 44.55200
H  -2.10900 -5.19000 45.21000
H  -2.29900 -5.68500 43.57000
H  2.02700 -6.66100 44.26800
H  3.80900 -5.95100 46.41300
H  0.54500 -5.82500 46.68900
H  1.71500 -6.85500 47.15700
H  0.66500 -7.37700 45.75000
H  5.23600 -6.22200 43.75100
H  3.90900 -7.24900 43.65100
H  5.36900 -8.10200 46.08500
H  6.39700 -7.63900 44.77800
H  5.18600 -8.87900 44.54900
H  8.47200 -3.09000 44.17000
H  7.84900 -3.34700 45.73900
H  8.79400 -1.84500 45.50300
H  6.43900 2.10300 42.42000
H  7.40500 4.71600 45.70700
H  5.68100 5.14300 45.43800
H  6.90500 5.85300 44.40100
Mg 6.97900 53.33100 41.45500
C  6.32900 49.77200 41.22000
C  10.10100 52.65700 40.36300
C  7.19700 56.61500 40.94100
C  3.52800 53.68600 42.23100
N  7.97300 51.45000 40.70800
C  7.65700 50.12200 40.86600
C  8.95600 49.18500 40.69500
C  10.07400 50.24700 40.59000
C  9.34900 51.54100 40.58500
C  11.09700 50.15300 41.80900
C  8.92600 48.22800 39.38600
C  8.79600 48.94500 38.03000
H  7.61900 48.58200 37.15500
N  8.44300 54.44400 40.69100
C  9.73000 54.04200 40.36600
C  10.50800 55.20300 40.06700
C  9.64700 56.30500 40.19700
C  8.33700 55.80800 40.56400
C  11.95300 55.11600 39.87300
C  10.11000 57.71800 40.05800
O  11.28300 57.93100 39.75700
C  9.28700 58.93100 40.20000
N  5.57300 54.95000 41.43200
C  5.97700 56.25900 41.32500
C  4.75900 57.20000 41.58800
C  3.58200 56.13700 41.71800
C  4.26000 54.79300 41.83300
C  4.96400 58.20000 42.71200
C  2.65900 56.17100 40.37200
C  1.05000 56.19500 40.41300
N  5.30800 52.06900 41.79700
C  3.96100 52.34400 42.12300
C  3.25400 51.14100 42.47600
C  4.16900 50.12500 42.17600
C  5.37300 50.71700 41.66900
C  1.81900 51.03800 42.78800
C  4.25400 48.64600 42.05000
O  3.37600 47.81500 42.20400
C  5.70000 48.37900 41.47600
C  5.39700 47.54800 40.23400
O  5.24000 47.85200 39.08800
O  5.39100 46.26100 40.64700
C  5.32200 45.22500 39.69200
H  11.17500 52.48800 40.25900
H  7.30500 57.69800 40.84600
H  2.53200 53.91400 42.61700
H  9.09700 48.61200 41.61200
H  10.63700 50.07900 39.67200
H  12.03900 49.82100 41.37200
H  10.68000 49.57800 42.63500
H  11.26700 51.15700 42.19800
H  8.11500 47.51700 39.54800
H  9.91000 47.77100 39.27600
H  9.65500 48.83600 37.36900
H  8.71500 50.00500 38.27400
H  12.12400 55.55600 38.89100
H  12.22800 54.06200 39.89200
H  12.58000 55.60500 40.61900
H  8.48300 58.80700 39.47500
H  9.89000 59.79400 39.91900
H  8.96700 59.05400 41.23500
H  4.72500 57.72700 40.63500
H  3.00200 56.17800 42.63900
H  5.20600 59.16800 42.27400
H  5.87600 57.86000 43.20300
H  4.05300 58.23000 43.30900
H  2.89600 55.46100 39.58000
H  2.85800 57.15700 39.95300
H  0.79200 57.21000 40.71400
H  0.71400 55.52700 41.20700
H  0.56900 55.88300 39.48600
H  1.60100 50.35400 43.60800
H  1.40300 50.60700 41.87700
H  1.29700 51.95500 43.06000
H  6.25300 47.83500 42.24200
H  5.87200 44.32000 39.95000
H  5.75100 45.55700 38.74700
H  4.28300 44.90400 39.62100

