158

Mg 53.27000 24.40400 44.66100
C  50.45900 26.35300 44.42100
C  51.36500 21.54700 44.36400
C  56.16200 22.57000 44.24200
C  55.09800 27.37700 44.74100
N  51.15200 23.98700 44.30500
C  50.16800 25.00300 44.39000
C  48.78200 24.35200 44.24000
C  49.07300 22.88100 44.65000
C  50.59500 22.74100 44.40900
C  48.80900 22.47800 46.14500
C  48.02700 24.59500 42.92700
C  48.84000 24.50500 41.61400
H  48.46700 23.30300 40.62900
N  53.73400 22.36800 44.29300
C  52.79400 21.33600 44.27600
C  53.45700 20.09200 44.15400
C  54.86600 20.34100 44.05700
C  54.95500 21.79000 44.21700
C  52.82400 18.71500 44.03000
C  55.96600 19.28600 43.80200
O  55.65100 18.15500 43.41700
C  57.39400 19.59900 43.88600
N  55.28900 24.95100 44.36200
C  56.26400 23.99200 44.24200
C  57.61400 24.70200 43.95700
C  57.31800 26.18400 44.43300
C  55.78300 26.18300 44.53200
C  58.79700 24.09300 44.80600
C  58.03600 27.31800 43.56300
C  58.76200 28.30000 44.42600
N  52.94100 26.50200 44.71800
C  53.74500 27.57400 44.82600
C  52.98500 28.76400 45.07000
C  51.65400 28.34000 44.84500
C  51.75700 26.90100 44.61500
C  53.53400 30.11300 45.33300
C  50.35900 28.79200 44.69700
O  49.94200 29.91500 44.76100
C  49.52800 27.56900 44.42900
C  48.80300 27.78600 43.18300
O  49.31900 27.80700 42.10400
O  47.45900 28.04200 43.44600
C  46.71000 28.20500 42.17500
H  50.70300 20.69400 44.52600
H  57.15800 22.12700 44.18200
H  55.78000 28.22900 44.78600
H  48.20600 24.80800 45.04400
H  48.59000 22.09000 44.07600
H  48.13000 23.01900 46.80300
H  49.77200 22.45300 46.65500
H  48.64100 21.40100 46.14700
H  47.45100 25.52100 42.94400
H  47.30900 23.77500 42.91800
H  49.84300 24.25600 41.96000
H  48.80900 25.41200 41.01000
H  53.08800 18.25400 43.07800
H  51.74400 18.80600 44.14400
H  53.10400 18.03800 44.83700
H  57.99000 18.70300 43.71600
H  57.63000 20.00700 44.86800
H  57.60500 20.38400 43.15900
H  57.88100 24.78100 42.90400
H  57.63600 26.32400 45.46600
H  58.73800 23.01400 44.94800
H  58.97700 24.54500 45.78100
H  59.68100 24.28900 44.19900
H  57.30900 27.80600 42.91400
H  58.70800 26.87100 42.83000
H  58.70800 28.05700 45.48700
H  58.35400 29.30900 44.37500
H  59.75700 28.41300 43.99500
H  52.64600 30.73600 45.44400
H  54.20800 30.48400 44.56100
H  53.98300 30.03100 46.32200
H  48.80200 27.54100 45.24200
H  45.65100 28.45800 42.22500
H  46.88000 27.38000 41.48300
H  47.19200 29.04000 41.66600
Mg 29.48100 59.93400 41.06900
C  26.28200 58.75500 40.04200
C  30.88300 57.09400 39.67000
C  32.36700 61.47000 41.22700
C  27.76700 63.12400 41.66000
N  28.65000 58.20300 39.96600
C  27.34600 57.92400 39.63200
C  27.28400 56.67200 38.88300
C  28.74600 56.03100 39.12600
C  29.44900 57.19000 39.68900
C  28.74000 54.97300 40.21200
C  26.85600 56.77600 37.40100
C  26.06600 55.56600 36.85700
H  26.42900 55.08300 35.53000
N  31.37000 59.29000 40.73600
C  31.78100 58.11300 40.17800
C  33.22700 58.04000 40.19600
C  33.69300 59.28500 40.63000
C  32.46000 60.07300 40.97500
C  34.00100 56.86400 39.72700
C  35.13500 59.64200 40.81500
O  36.02100 58.84200 40.55100
C  35.67500 60.93100 41.35700
N  30.02200 62.06500 41.32600
C  31.34000 62.31400 41.40900
C  31.60800 63.77900 41.61200
C  30.17700 64.28600 42.02900
C  29.18400 63.15200 41.61600
C  32.59500 64.11500 42.77800
C  29.83600 65.59000 41.27300
C  30.06200 66.87000 42.16100
N  27.48900 60.83400 40.99200
C  26.97900 62.07000 41.29200
C  25.50800 61.94400 41.35900
C  25.20900 60.66400 40.88500
C  26.43000 60.04500 40.63000
C  24.44400 63.00900 41.72000
C  24.18800 59.74300 40.55300
O  22.96100 59.83600 40.72500
C  24.77900 58.45800 39.98700
C  24.42300 57.17500 40.60900
O  24.20800 56.90100 41.77600
O  24.08700 56.32000 39.63400
C  23.44200 54.96700 39.96600
H  31.31200 56.12400 39.41000
H  33.35100 61.94200 41.26600
H  27.36300 64.08400 41.98800
H  26.48600 56.00400 39.20700
H  29.18200 55.76000 38.16400
H  27.77300 54.83300 40.69600
H  29.44900 55.07400 41.03400
H  28.94400 54.01200 39.73900
H  27.81400 56.93500 36.90600
H  26.30700 57.66000 37.07800
H  25.01600 55.84200 36.76700
H  26.18900 54.62300 37.39000
H  34.52500 57.10100 38.80100
H  33.38000 55.96900 39.70300
H  34.76200 56.73100 40.49700
H  35.57000 61.71500 40.60800
H  36.73300 60.81800 41.59200
H  35.21600 61.29900 42.27500
H  31.93200 64.19400 40.65700
H  29.97200 64.41400 43.09200
H  32.73300 63.28400 43.47000
H  32.32600 65.04900 43.27200
H  33.52000 64.30600 42.23300
H  28.80500 65.67800 40.93100
H  30.48900 65.71500 40.41000
H  31.04700 67.29500 41.97100
H  30.11900 66.59800 43.21500
H  29.26200 67.60900 42.10000
H  24.26000 63.44100 40.73600
H  24.78700 63.76900 42.42200
H  23.60900 62.44600 42.13600
H  24.39200 58.44800 38.96800
H  23.51900 54.37300 39.05500
H  22.37700 55.12600 40.13800
H  23.89200 54.41000 40.78900

