158

Mg 36.25200 48.93500 25.09200
C  36.18200 46.97100 27.89600
C  34.93900 51.63900 26.97100
C  36.33200 50.81700 22.31700
C  37.55200 46.32900 23.16800
N  35.52300 49.20600 27.11000
C  35.67000 48.29200 28.17700
C  35.46100 48.92200 29.50400
C  34.68900 50.24100 29.19600
C  35.06400 50.39700 27.67100
C  33.22200 50.12800 29.22600
C  36.72200 49.07600 30.42000
C  36.56700 48.53400 31.84900
H  35.24000 48.44700 32.62700
N  35.64100 50.92100 24.67100
C  35.14000 51.85300 25.56500
C  34.88800 53.07300 24.89800
C  35.34600 52.92100 23.54200
C  35.72800 51.46700 23.42200
C  34.41600 54.29200 25.51900
C  35.54200 53.92700 22.43500
O  35.66800 53.56900 21.26700
C  35.36300 55.40600 22.69600
N  36.70200 48.62300 23.01400
C  36.61600 49.54000 22.04300
C  37.00700 48.95600 20.59200
C  37.86200 47.80100 21.06100
C  37.29500 47.50100 22.54100
C  35.73300 48.69700 19.77400
C  39.38100 47.94800 20.98200
C  39.97400 47.67600 19.54600
N  36.82300 47.11900 25.40700
C  37.39500 46.17800 24.57800
C  37.52100 44.95800 25.31700
C  37.02900 45.22900 26.58600
C  36.61700 46.56500 26.62100
C  38.09100 43.67600 24.86700
C  36.84800 44.61200 27.92900
O  36.96600 43.42600 28.33800
C  36.38000 45.80200 28.79700
C  35.20100 45.33200 29.62100
O  34.09000 45.61700 29.36800
O  35.58700 44.74300 30.79500
C  34.57600 44.33300 31.69500
H  34.60400 52.41600 27.66200
H  36.28600 51.42200 21.40900
H  38.08500 45.55000 22.62000
H  34.73400 48.23500 29.93500
H  35.14400 51.06400 29.74600
H  32.81500 50.17900 28.21600
H  32.79300 50.99700 29.72700
H  32.89200 49.24500 29.77300
H  36.95500 50.14000 30.38300
H  37.52500 48.57600 29.87800
H  37.13800 49.15300 32.54200
H  36.97500 47.55600 32.10400
H  33.66400 54.10700 26.28700
H  33.93200 55.03400 24.88400
H  35.24500 54.80900 26.00100
H  35.84600 56.02900 21.94400
H  35.89200 55.53300 23.64000
H  34.31700 55.69300 22.80400
H  37.59900 49.74700 20.13100
H  37.63600 46.96000 20.40500
H  34.87600 49.11900 20.29900
H  35.65700 47.61000 19.74300
H  35.72500 49.22100 18.81900
H  39.82300 47.18800 21.62700
H  39.66800 48.97200 21.21800
H  39.24300 47.33600 18.81200
H  40.74000 46.90500 19.63000
H  40.56800 48.53100 19.22300
H  39.12800 43.56500 25.18300
H  37.88700 43.35900 23.84400
H  37.60900 42.87200 25.42400
H  37.22600 45.96700 29.46500
H  34.99600 44.38600 32.70000
H  34.33800 43.33300 31.33300
H  33.70600 44.98500 31.62400
Mg 17.61000 51.49000 25.74000
C  19.38900 50.14800 28.40100
C  15.22100 52.46700 28.00600
C  15.89000 52.79700 23.15500
C  19.80000 50.06500 23.46300
N  17.44400 51.50600 28.04100
C  18.30400 50.88100 28.90000
C  17.75400 50.85500 30.30800
C  16.34400 51.59800 30.17200
C  16.25200 51.82300 28.63200
C  15.14300 50.74800 30.57500
C  18.65000 51.54200 31.39500
C  18.45800 51.06200 32.83800
H  17.50400 51.78100 33.84800
N  15.89300 52.43200 25.61800
C  15.03000 52.72500 26.60500
C  13.83000 53.33900 26.11400
C  13.99800 53.54300 24.64300
C  15.30100 52.93700 24.42400
C  12.76500 53.80700 27.02200
C  13.09600 54.24600 23.60800
O  13.24300 54.31100 22.38600
C  11.90100 54.85800 24.20700
N  17.73300 51.31000 23.59900
C  16.97100 52.00700 22.73400
C  17.27900 51.75000 21.20700
C  18.59400 50.99000 21.39200
C  18.79900 50.79200 22.90700
C  16.15400 51.07700 20.33500
C  19.85800 51.67500 20.73600
C  20.83200 52.60800 21.52600
N  19.18300 50.32600 25.83200
C  20.01400 49.73800 24.84800
C  21.03600 48.99100 25.52400
C  20.80600 49.10100 26.90800
C  19.73100 49.92700 27.02500
C  22.14400 48.29100 24.81600
C  21.29100 48.70700 28.16800
O  22.23000 48.00300 28.47900
C  20.35500 49.41000 29.22700
C  19.88500 48.38500 30.12200
O  19.18400 47.39000 29.87200
O  20.51400 48.55800 31.36300
C  20.24400 47.57500 32.43100
H  14.42500 52.77900 28.68600
H  15.36800 53.14300 22.26000
H  20.40500 49.51400 22.74000
H  17.61100 49.80200 30.55400
H  16.21600 52.56300 30.66300
H  14.28600 50.94300 29.93100
H  14.76000 50.80500 31.59400
H  15.20600 49.74500 30.15200
H  18.34200 52.58600 31.44100
H  19.70100 51.39600 31.14600
H  19.48700 51.08400 33.19500
H  18.20500 50.00500 32.75300
H  11.74800 53.64500 26.66500
H  13.00700 54.86300 27.14400
H  12.73100 53.19700 27.92500
H  11.36500 55.38700 23.41900
H  12.19800 55.49500 25.04000
H  11.07500 54.19500 24.46400
H  17.58000 52.68200 20.72800
H  18.42700 49.99500 20.98200
H  16.55800 50.46600 19.52900
H  15.61700 51.91500 19.88900
H  15.60900 50.43600 21.02800
H  19.58800 52.20900 19.82500
H  20.46200 50.86900 20.31900
H  21.76700 52.12100 21.80100
H  20.32800 52.91000 22.44400
H  21.05400 53.44400 20.86300
H  22.83400 49.06400 24.47900
H  21.73900 47.95800 23.86100
H  22.66400 47.51200 25.37200
H  20.96400 50.06500 29.84900
H  19.90600 46.62400 32.02100
H  19.54200 47.80600 33.23300
H  21.23700 47.51300 32.87700

