158

Mg 53.75100 24.67600 45.34900
C  51.05900 26.55200 44.28600
C  51.99000 21.81600 44.13500
C  56.62200 22.87100 45.52700
C  55.40100 27.50700 46.27600
N  51.77600 24.30800 44.12500
C  50.95500 25.24600 43.88000
C  49.79200 24.68400 43.05000
C  49.82600 23.21300 43.42400
C  51.26100 23.05000 43.87400
C  48.67200 22.59700 44.32500
C  49.91600 24.72900 41.49700
C  48.60700 24.90700 40.64300
H  48.26900 23.82600 39.59300
N  54.18000 22.66300 44.98700
C  53.32800 21.66700 44.53700
C  54.01000 20.41400 44.60300
C  55.39300 20.65900 44.82300
C  55.46200 22.12400 45.14700
C  53.29700 19.07200 44.27800
C  56.45700 19.58100 44.93500
O  56.18300 18.41800 44.72400
C  57.95500 19.86700 45.24500
N  55.81300 25.18900 45.55900
C  56.73000 24.20100 45.72800
C  57.85900 24.76000 46.52200
C  57.52900 26.21400 46.66900
C  56.12300 26.32600 46.17500
C  58.11900 24.05900 47.90400
C  58.50200 27.14400 46.01900
C  59.85800 27.33900 46.84500
N  53.36300 26.68500 45.43100
C  54.09700 27.73600 45.85700
C  53.28600 28.89400 45.77300
C  52.08500 28.47800 45.20100
C  52.20200 27.12400 44.97200
C  53.75400 30.28600 46.18600
C  50.80500 28.97300 44.79300
O  50.34900 30.11100 44.69100
C  50.11000 27.69600 44.10700
C  49.68100 28.08500 42.68400
O  50.42900 28.48400 41.78600
O  48.34100 28.00400 42.61200
C  47.77200 28.61200 41.46200
H  51.37100 20.94600 43.90400
H  57.52500 22.31200 45.78200
H  55.90800 28.29900 46.83100
H  48.82600 25.13600 43.27300
H  49.60900 22.57600 42.56600
H  48.40300 21.61000 43.94900
H  47.80400 23.25200 44.38700
H  49.16000 22.51900 45.29700
H  50.33000 23.86000 40.98400
H  50.48300 25.62800 41.25700
H  48.77500 25.78600 40.02200
H  47.73700 24.99800 41.29400
H  53.87300 18.50200 43.54800
H  52.33300 19.15800 43.77700
H  53.13500 18.38400 45.10800
H  58.41500 20.61400 44.59800
H  58.54000 18.96600 45.06100
H  57.94300 19.98500 46.32800
H  58.75200 24.66700 45.90400
H  57.49900 26.45500 47.73200
H  57.53200 23.14100 47.92400
H  57.85200 24.64500 48.78400
H  59.17700 23.80700 47.96600
H  58.02700 28.11600 45.88700
H  58.80200 26.72700 45.05800
H  59.86000 27.03700 47.89200
H  60.12000 28.39500 46.79100
H  60.65500 26.82600 46.30800
H  53.17000 31.00300 45.60900
H  54.82800 30.47200 46.18300
H  53.31800 30.57400 47.14300
H  49.18600 27.38900 44.59600
H  46.76100 28.91400 41.73400
H  47.78300 27.86600 40.66800
H  48.31400 29.47700 41.08000
Mg 16.50300 51.97300 24.33600
C  18.37200 50.78900 27.35600
C  14.01100 52.82900 26.72000
C  14.74000 52.74000 21.85100
C  19.00900 50.58300 22.47700
N  16.20500 51.57600 26.83800
C  17.15000 51.35600 27.76400
C  16.64600 51.55200 29.17500
C  15.16900 52.09900 28.91800
C  15.12900 52.18300 27.39100
C  14.08700 51.08500 29.44200
C  17.53500 52.52200 29.94700
C  17.82300 52.26700 31.41400
H  16.91200 51.35300 32.25700
N  14.69200 52.77500 24.23800
C  13.73200 53.02600 25.29600
C  12.57400 53.61800 24.74700
C  12.73100 53.53400 23.30700
C  14.09700 52.98000 23.10500
C  11.46800 54.21400 25.58600
C  11.77600 54.01600 22.20800
O  11.97900 53.90900 20.99400
C  10.42200 54.57100 22.64900
N  16.67300 51.47100 22.41200
C  15.92200 52.02900 21.51300
C  16.36300 51.74700 20.01700
C  17.79600 51.17600 20.26700
C  17.90000 51.21300 21.79700
C  15.32600 50.84800 19.25500
C  18.95900 51.94100 19.57300
C  19.04100 51.81900 18.09100
N  18.35300 50.95900 24.79600
C  19.18400 50.40200 23.83400
C  20.41900 49.96400 24.50600
C  20.08200 50.01700 25.88100
C  18.79900 50.59400 25.99100
C  21.69700 49.45200 23.94100
C  20.58000 49.70100 27.21400
O  21.62400 49.25100 27.58200
C  19.44200 50.12700 28.21000
C  18.97700 48.96100 29.02300
O  18.21600 48.09200 28.69300
O  19.71400 48.99600 30.23800
C  19.33000 47.94200 31.15700
H  13.28600 53.16300 27.46500
H  14.18800 53.06800 20.96800
H  19.72000 50.13100 21.78300
H  16.67000 50.58100 29.67000
H  15.01800 53.10900 29.29900
H  13.54400 50.58400 28.64100
H  13.40400 51.67000 30.05800
H  14.51300 50.30500 30.07300
H  17.15200 53.54200 29.90500
H  18.49900 52.59000 29.44400
H  18.04300 53.23600 31.86200
H  18.77700 51.74500 31.48000
H  11.57100 53.99400 26.64900
H  10.46200 53.96600 25.24800
H  11.63400 55.27600 25.40700
H  10.59200 55.35200 23.39000
H  9.83300 53.75000 23.05600
H  10.10400 54.98100 21.69100
H  16.37400 52.67500 19.44500
H  17.75100 50.11300 20.03000
H  15.01700 51.24200 18.28700
H  14.41600 50.82000 19.85400
H  15.80300 49.88100 19.10100
H  19.82700 51.47000 20.03300
H  19.07500 52.97200 19.90700
H  18.00100 51.65100 17.80800
H  19.67400 50.97100 17.83000
H  19.43800 52.72700 17.63800
H  21.47100 49.26200 22.89100
H  21.91200 48.46500 24.35000
H  22.57200 50.09500 24.03700
H  19.74000 50.94400 28.86700
H  19.94800 48.03700 32.05000
H  19.55700 46.93800 30.79800
H  18.33900 48.13900 31.56600

