158

Mg 40.27000 9.56500 29.19100
C  42.13800 10.43800 32.09600
C  37.80800 7.93100 31.26400
C  38.77600 8.27900 26.46300
C  42.91300 10.68600 27.32600
N  40.10200 9.18400 31.40100
C  40.89100 9.79500 32.32900
C  40.26300 9.54600 33.72800
C  38.95200 8.58900 33.44100
C  38.94600 8.60200 31.92400
C  38.90300 7.28000 34.27700
C  39.87900 10.92300 34.43200
C  39.04100 10.69800 35.68200
H  39.35300 11.63200 36.83900
N  38.58200 8.31000 28.89600
C  37.76400 7.71300 29.83700
C  36.70600 7.01000 29.21500
C  36.82400 7.18600 27.75700
C  38.05900 8.03400 27.67300
C  35.70000 6.19100 30.06000
C  35.95000 6.76600 26.58000
O  36.14900 7.01400 25.37000
C  34.68900 6.08500 26.92500
N  40.79100 9.47800 27.19600
C  39.97000 8.95100 26.25200
C  40.60900 9.05500 24.78400
C  41.92600 9.87000 25.05700
C  41.84300 10.03800 26.62700
C  40.87300 7.66200 24.12800
C  42.15100 11.18100 24.23600
C  41.23200 12.34400 24.68500
N  42.09500 10.52700 29.56400
C  43.08100 10.92100 28.72300
C  44.26300 11.38800 29.41500
C  43.97700 11.29300 30.76600
C  42.60600 10.72800 30.83400
C  45.43100 12.12400 28.67900
C  44.32300 11.66100 32.12600
O  45.25700 12.26000 32.59900
C  43.13100 11.12100 33.00600
C  43.71500 10.27200 34.05600
O  44.48700 9.34300 33.83600
O  43.34300 10.76800 35.31000
C  43.97000 10.16400 36.48600
H  37.00200 7.62900 31.93600
H  38.22600 7.95600 25.57700
H  43.83600 11.00500 26.83700
H  40.97300 8.92900 34.27900
H  38.06700 9.13500 33.76700
H  38.89400 6.37600 33.66800
H  38.06600 7.16300 34.96600
H  39.68200 7.17900 35.03300
H  39.36500 11.40200 33.59800
H  40.70900 11.53000 34.79300
H  39.21000 9.69900 36.08500
H  37.98800 10.85000 35.44400
H  36.10800 6.01700 31.05600
H  35.55500 5.23700 29.55500
H  34.73700 6.65000 30.28500
H  34.80700 5.34700 27.71800
H  34.30500 5.62600 26.01400
H  34.01500 6.87200 27.26500
H  39.88900 9.56200 24.14200
H  42.87900 9.35400 24.93900
H  40.31300 6.85900 24.60700
H  41.94600 7.46800 24.10700
H  40.69100 7.75500 23.05800
H  42.10000 11.13800 23.14800
H  43.19100 11.36400 24.50500
H  41.78500 13.28300 24.68200
H  40.70400 12.09500 25.60600
H  40.51800 12.32500 23.86200
H  45.78600 11.44800 27.90200
H  46.23100 12.40200 29.36600
H  45.04100 13.04100 28.23700
H  42.79500 12.07600 33.40800
H  45.05500 10.22600 36.39900
H  43.62400 9.13800 36.61000
H  43.80000 10.74100 37.39500
Mg 26.98600 50.39300 26.20000
C  24.66800 51.31100 28.70100
C  29.13900 49.40200 28.74700
C  29.22000 49.89700 23.89900
C  24.81800 51.96300 23.75400
N  26.92300 50.41600 28.50900
C  25.78600 50.67700 29.27400
C  26.02100 50.51600 30.76100
C  27.47500 49.90200 30.73400
C  27.85500 49.78800 29.26100
C  28.55000 50.66100 31.60000
C  24.89200 49.50200 31.40000
C  24.23600 49.86000 32.72700
H  25.15300 50.57000 33.77800
N  28.93000 49.75400 26.25900
C  29.59900 49.39900 27.39100
C  30.99100 49.07100 26.98900
C  31.04000 49.18200 25.58500
C  29.72500 49.61400 25.16400
C  32.07000 48.63700 27.97300
C  32.21500 48.88600 24.64000
O  32.14100 49.07600 23.41500
C  33.43600 48.26400 25.07800
N  27.03700 51.02700 24.13800
C  28.08200 50.58200 23.39100
C  27.77500 50.65800 21.91100
C  26.24000 50.98300 21.86700
C  25.97500 51.31400 23.35800
C  28.66800 51.66300 21.13700
C  25.28800 49.84200 21.34900
C  23.98100 50.43300 20.85200
N  25.16100 51.50100 26.16200
C  24.42800 52.09200 25.10900
C  23.18100 52.55000 25.62300
C  23.28000 52.31800 27.08800
C  24.46400 51.61600 27.34600
C  22.09000 53.21200 24.88300
C  22.60000 52.60300 28.25800
O  21.59200 53.30900 28.44800
C  23.35600 51.83600 29.31000
C  23.49000 52.77200 30.57100
O  24.51400 53.42400 30.79900
O  22.33500 52.66200 31.28400
C  22.39700 53.32200 32.63100
H  29.80100 49.09600 29.56100
H  29.94900 49.48400 23.20000
H  24.04000 52.22300 23.03400
H  26.01300 51.51300 31.20300
H  27.41600 48.85800 31.03900
H  29.32300 51.18700 31.04000
H  28.98300 49.92700 32.28000
H  28.08600 51.38000 32.27600
H  25.40200 48.55100 31.55500
H  24.08700 49.39000 30.67300
H  23.90800 48.93100 33.19300
H  23.27900 50.34700 32.54100
H  32.51100 47.67200 27.72300
H  31.58700 48.68400 28.94900
H  32.87400 49.36900 27.90500
H  33.31600 47.31300 25.59600
H  33.84900 48.97700 25.79100
H  34.06300 48.21800 24.18700
H  27.82100 49.66800 21.45700
H  26.08100 51.87800 21.26600
H  29.62200 51.78000 21.65000
H  28.18500 52.61700 20.92900
H  28.83600 51.22200 20.15500
H  25.04300 49.11400 22.12300
H  25.68600 49.31600 20.48100
H  23.99100 51.51500 20.72400
H  23.20300 50.17100 21.57000
H  23.80200 50.07100 19.84000
H  22.63300 53.79700 24.14000
H  21.54900 54.00300 25.40300
H  21.36300 52.53400 24.43600
H  22.78200 50.98500 29.67800
H  22.89700 52.59700 33.27300
H  21.41300 53.53700 33.04800
H  22.95300 54.25800 32.59500

