158

Mg -2.86700 17.72900 27.03600
C  -3.25600 15.40500 29.60800
C  -3.24400 20.24500 29.36300
C  -3.00700 19.97600 24.51000
C  -3.09100 15.16700 24.82400
N  -3.52500 17.80900 29.26400
C  -3.38500 16.74800 30.07500
C  -3.27800 17.19700 31.50300
C  -3.59500 18.74700 31.42300
C  -3.48400 18.94500 29.91700
C  -4.93100 19.21700 32.10400
C  -1.95600 16.73500 32.21300
C  -1.40100 17.62200 33.42300
H  -1.15100 16.79900 34.70700
N  -2.98000 19.85600 26.98600
C  -2.99200 20.67100 28.07300
C  -2.72900 21.99100 27.67100
C  -2.54100 22.03700 26.26000
C  -2.83400 20.58600 25.81400
C  -2.78100 23.20200 28.60500
C  -2.05200 23.17000 25.31800
O  -1.90800 22.94400 24.12700
C  -1.52300 24.38500 25.95500
N  -3.20500 17.62200 25.01100
C  -3.30800 18.67700 24.11800
C  -3.49700 18.27700 22.69300
C  -3.56700 16.71700 22.81200
C  -3.24800 16.47300 24.28200
C  -4.74900 18.86400 21.86800
C  -2.56100 16.00000 21.92800
C  -1.07700 16.00200 22.37400
N  -3.02900 15.69900 27.16100
C  -3.04700 14.78800 26.17200
C  -3.08800 13.46500 26.72400
C  -3.19400 13.67600 28.00000
C  -3.12600 15.03600 28.26900
C  -3.09000 12.24300 25.97400
C  -3.21800 12.99500 29.20100
O  -3.25400 11.80500 29.42000
C  -3.30400 14.05700 30.30800
C  -2.17900 13.65900 31.19300
O  -1.04300 13.67900 30.87200
O  -2.66100 13.23700 32.40900
C  -1.78900 12.78400 33.47400
H  -3.04600 21.04800 30.07600
H  -2.82900 20.58300 23.62000
H  -3.30400 14.32400 24.16300
H  -4.03000 16.68900 32.10700
H  -2.68900 19.23100 31.78900
H  -5.31800 18.27500 32.49200
H  -5.55000 19.68600 31.33900
H  -4.83100 19.96600 32.89000
H  -1.12600 16.68200 31.50800
H  -2.11300 15.72800 32.59900
H  -2.16600 18.34900 33.69800
H  -0.49100 18.11900 33.08500
H  -3.11600 24.04900 28.00700
H  -1.77000 23.50700 28.87700
H  -3.55000 23.15500 29.37600
H  -0.77500 24.21500 26.73000
H  -2.33000 25.07000 26.21400
H  -1.05800 24.97800 25.16700
H  -2.55400 18.48600 22.18800
H  -4.56000 16.30600 22.62600
H  -5.31600 19.51500 22.53200
H  -5.37300 18.04100 21.51800
H  -4.44400 19.51100 21.04600
H  -2.68700 16.50100 20.96800
H  -2.95300 15.00100 21.73700
H  -0.97500 16.75800 23.15200
H  -0.45900 16.30300 21.52900
H  -0.78700 15.04800 22.81600
H  -2.93800 11.35000 26.58100
H  -2.35300 12.22000 25.17100
H  -4.07600 12.19100 25.51200
H  -4.28500 13.88200 30.74900
H  -1.83200 13.52900 34.26900
H  -0.73400 12.65500 33.23000
H  -2.13200 11.87800 33.97200
Mg 24.42900 -5.18200 45.58300
C  26.21400 -2.48300 44.15500
C  21.72900 -4.42100 43.32500
C  23.04600 -8.14000 46.32800
C  27.32100 -6.00400 47.30000
N  24.05800 -3.57500 43.99600
C  24.89300 -2.57700 43.61200
C  24.29600 -1.73500 42.46500
C  22.84200 -2.24700 42.38500
C  22.79100 -3.48100 43.29600
C  21.75800 -1.18200 42.84400
C  25.10200 -1.93500 41.08100
C  25.49600 -0.66400 40.34200
H  25.39800 -0.80100 38.79200
N  22.55400 -6.10200 45.05100
C  21.61700 -5.64800 44.14200
C  20.57100 -6.62400 44.06500
C  20.80300 -7.61300 45.05300
C  22.17400 -7.33700 45.59200
C  19.37400 -6.40800 43.12000
C  19.84900 -8.73100 45.37700
O  18.66000 -8.67800 45.01700
C  20.14700 -9.83200 46.41300
N  25.07300 -6.87000 46.59700
C  24.33200 -7.92000 46.82400
C  25.00700 -8.90600 47.79200
C  26.45100 -8.35900 47.89500
C  26.34600 -6.96100 47.28500
C  24.21800 -9.00100 49.14800
C  27.62400 -9.27100 47.37600
C  28.87200 -9.49700 48.35500
N  26.35900 -4.32700 45.80600
C  27.37700 -4.85900 46.55200
C  28.55600 -3.90800 46.38800
C  28.14100 -2.99100 45.40500
C  26.78900 -3.29300 45.12600
C  29.90100 -4.05300 47.01200
C  28.53200 -1.89600 44.61100
O  29.63100 -1.34000 44.49500
C  27.32700 -1.51200 43.75300
C  27.06600 -0.05500 43.97300
O  26.41500 0.54100 44.80600
O  27.84200 0.65300 43.06000
C  27.77700 2.09900 43.13400
H  20.85300 -4.21900 42.70400
H  22.78200 -9.19200 46.45500
H  28.22000 -6.17300 47.89700
H  24.22900 -0.66100 42.64000
H  22.63600 -2.54700 41.35800
H  22.09600 -0.89500 43.83900
H  20.78000 -1.65400 42.94200
H  21.72300 -0.28600 42.22300
H  24.60300 -2.68000 40.46100
H  26.04000 -2.39100 41.39800
H  26.49200 -0.35900 40.66300
H  24.71600 0.05900 40.58300
H  19.58900 -6.98500 42.22000
H  19.16400 -5.37800 42.83100
H  18.45900 -6.81700 43.54800
H  20.81000 -9.43500 47.18200
H  20.83400 -10.52800 45.93100
H  19.23200 -10.26200 46.82000
H  24.91500 -9.83100 47.22300
H  26.64100 -8.32100 48.96800
H  23.25700 -8.50600 49.00800
H  24.74200 -8.76100 50.07300
H  24.00900 -10.06500 49.25900
H  28.04600 -8.81100 46.48300
H  27.28000 -10.23200 46.99400
H  28.84800 -10.47200 48.84200
H  28.83300 -8.67500 49.06900
H  29.76000 -9.48500 47.72200
H  30.06200 -3.68500 48.02600
H  30.59100 -3.44000 46.43100
H  30.29700 -5.06400 46.91700
H  27.60700 -1.62900 42.70600
H  27.02400 2.47400 42.44000
H  28.71600 2.51800 42.77200
H  27.56200 2.46800 44.13700

