158

Mg 1.37600 7.55600 25.85600
C  2.28600 9.43700 28.59300
C  1.96500 4.66200 27.78200
C  0.64700 5.66300 23.16800
C  1.42200 10.43200 23.88200
N  2.22100 7.09700 27.89600
C  2.33500 8.06200 28.84600
C  2.53000 7.40100 30.21500
C  2.76200 5.91500 29.87100
C  2.28200 5.87800 28.43300
C  4.20100 5.35400 30.02800
C  1.26300 7.56600 31.18200
C  1.41900 8.15600 32.57100
H  2.35500 7.30900 33.55000
N  1.44100 5.47100 25.49900
C  1.57500 4.47500 26.40700
C  1.19900 3.16400 25.82900
C  0.85500 3.43700 24.47800
C  0.98700 4.91700 24.32900
C  1.35400 1.93500 26.52100
C  0.14000 2.50300 23.52300
O  -0.19700 2.88900 22.39300
C  -0.15000 1.06100 23.77200
N  1.30100 7.96700 23.78000
C  0.79000 7.03600 22.91800
C  0.49500 7.69800 21.50200
C  0.43700 9.17100 21.88900
C  1.05400 9.22300 23.30000
C  1.47200 7.21900 20.36500
C  -0.90900 9.94000 21.76700
C  -1.05300 11.10600 20.69400
N  1.85100 9.53700 26.09500
C  1.84100 10.66400 25.22700
C  2.22500 11.87100 25.92400
C  2.45100 11.46300 27.22500
C  2.14200 10.06700 27.29700
C  2.20300 13.26600 25.38800
C  2.75700 11.85400 28.56400
O  3.11000 12.92400 28.95900
C  2.40100 10.62200 29.55400
C  3.57000 10.53100 30.46800
O  4.68600 10.22400 30.16800
O  3.21900 11.00000 31.72900
C  4.26000 11.35400 32.74500
H  2.04000 3.76500 28.40100
H  0.15400 5.12100 22.35800
H  1.41300 11.39900 23.37600
H  3.42000 7.85600 30.65000
H  2.14100 5.36500 30.57900
H  4.58000 5.28800 29.00800
H  4.36200 4.38900 30.50800
H  4.71100 6.13800 30.58800
H  0.79800 6.58900 31.31400
H  0.50800 8.17000 30.67900
H  0.39500 8.22700 32.94000
H  1.90700 9.13000 32.54200
H  1.95000 2.03600 27.42800
H  1.86100 1.24300 25.84900
H  0.32700 1.63500 26.73200
H  -0.82900 0.60300 23.05400
H  -0.75600 1.21400 24.66500
H  0.72300 0.43900 23.97300
H  -0.51600 7.43400 21.19300
H  1.18100 9.57300 21.20200
H  1.90500 8.07800 19.85100
H  0.91600 6.63300 19.63300
H  2.20500 6.58400 20.86300
H  -1.01000 10.33900 22.77600
H  -1.83600 9.37100 21.69700
H  -1.81700 11.02000 19.92100
H  -0.12500 11.18000 20.12800
H  -1.19700 12.07400 21.17400
H  3.21900 13.62900 25.23400
H  1.63400 13.96900 25.99700
H  1.65300 13.15900 24.45400
H  1.48800 10.79400 30.12300
H  4.16600 10.65800 33.57800
H  3.90800 12.31400 33.12300
H  5.29900 11.40400 32.41900
Mg 6.16100 53.94900 40.95800
C  5.72400 50.46400 40.85400
C  9.41100 53.50600 39.95900
C  6.26100 57.28200 40.27300
C  2.67900 54.09600 41.44900
N  7.38000 52.28900 40.37900
C  6.97800 50.95900 40.43900
C  8.12100 50.05700 40.03100
C  9.39700 50.92000 40.25800
C  8.68000 52.33200 40.12100
C  10.12400 50.66800 41.62200
C  7.96700 49.42500 38.66300
C  7.55900 50.41300 37.47500
H  6.36300 49.99900 36.49000
N  7.67100 55.19600 40.28100
C  8.95900 54.85800 40.03600
C  9.68800 56.07200 39.68700
C  8.83800 57.20300 39.84100
C  7.52300 56.61300 40.13100
C  11.14900 56.00400 39.38200
C  9.25200 58.75000 39.75400
O  10.39100 59.03600 39.59400
C  8.23700 59.80300 40.06000
N  4.68900 55.40700 40.79500
C  4.99200 56.72100 40.54300
C  3.73200 57.63500 40.40000
C  2.60300 56.62200 40.78300
C  3.32800 55.27100 40.96100
C  3.69400 58.80000 41.40300
C  1.36900 56.70400 39.90200
C  0.00500 56.70800 40.69600
N  4.53800 52.60700 41.40600
C  3.21500 52.84100 41.65600
C  2.51800 51.56700 41.96200
C  3.51200 50.62400 41.65300
C  4.68700 51.28600 41.35100
C  1.08100 51.40300 42.33600
C  3.72700 49.22300 41.59800
O  3.01100 48.30200 41.92300
C  5.16500 49.03900 40.94600
C  4.89600 48.33500 39.65600
O  4.22800 48.79600 38.74000
O  5.32100 47.02300 39.71400
C  4.92000 46.25200 38.56400
H  10.47100 53.31200 39.78800
H  6.28500 58.37000 40.17900
H  1.61400 54.22000 41.65400
H  8.13900 49.23400 40.74600
H  10.13200 50.79000 39.46400
H  11.19900 50.70900 41.44500
H  9.95100 49.62200 41.87500
H  9.74100 51.32700 42.40100
H  7.22900 48.63400 38.79600
H  8.94400 49.01800 38.40000
H  8.47100 50.67300 36.93700
H  7.08100 51.31300 37.86100
H  11.63200 55.41200 40.15900
H  11.81000 56.87100 39.37700
H  11.38700 55.56300 38.41400
H  7.46900 59.95000 39.30200
H  8.65300 60.79100 40.25800
H  7.79600 59.54600 41.02400
H  3.69600 58.08000 39.40600
H  2.26000 56.78200 41.80500
H  4.04800 59.66900 40.85000
H  4.44000 58.63100 42.18000
H  2.70600 58.94000 41.84000
H  1.38600 55.83000 39.25100
H  1.36500 57.55200 39.21600
H  -0.59000 57.55100 40.34400
H  0.00600 56.60000 41.78100
H  -0.36100 55.74100 40.35300
H  1.08600 50.54200 43.00500
H  0.54800 51.11600 41.43000
H  0.67400 52.26800 42.85900
H  5.77300 48.49700 41.67000
H  5.27100 46.75000 37.66000
H  3.84200 46.29300 38.40800
H  5.33300 45.25300 38.70400

