158

Mg 44.05800 3.50300 47.95200
C  42.07700 6.26800 47.27900
C  41.23500 1.48200 47.63700
C  46.06600 0.64800 47.87800
C  46.88100 5.42200 47.58900
N  42.00400 3.85800 47.55800
C  41.37000 5.08800 47.38000
C  39.86300 4.93600 47.31200
C  39.57800 3.44600 47.54500
C  41.05300 2.87400 47.54600
C  38.89100 3.10600 48.87100
C  39.18600 5.52900 46.04800
C  39.62400 4.93000 44.68800
H  39.57900 5.87600 43.51100
N  43.74000 1.35000 47.79700
C  42.48600 0.77600 47.79100
C  42.65600 -0.63300 47.61000
C  44.04800 -0.88300 47.45000
C  44.70100 0.40300 47.67300
C  41.52900 -1.59000 47.59100
C  44.76300 -2.19700 47.17700
O  44.16300 -3.28300 47.17800
C  46.18500 -2.20900 46.82100
N  46.18700 3.16800 47.51500
C  46.72300 1.89200 47.84500
C  48.19500 1.96500 48.23600
C  48.51700 3.53000 48.05400
C  47.08600 4.10700 47.73600
C  48.42400 1.47100 49.75200
C  49.54400 3.85000 46.97200
C  50.96900 4.07700 47.45400
N  44.49200 5.46700 47.50100
C  45.69600 6.15900 47.46200
C  45.37000 7.58700 47.50600
C  44.00300 7.67100 47.34300
C  43.48900 6.37300 47.38700
C  46.44700 8.63400 47.64100
C  42.95900 8.56400 47.15400
O  42.97300 9.75200 47.05600
C  41.63100 7.69100 47.17400
C  40.95300 8.14900 48.32500
O  41.38000 8.05400 49.47400
O  39.70800 8.59200 47.95800
C  38.80800 9.08000 49.02100
H  40.28900 0.93600 47.64700
H  46.79100 -0.12900 48.12800
H  47.72600 6.09300 47.75300
H  39.58400 5.58800 48.13900
H  39.06800 3.00700 46.68800
H  37.96600 2.58400 48.62400
H  38.67000 3.99800 49.45800
H  39.44100 2.46100 49.55600
H  39.33000 6.60900 46.07500
H  38.14000 5.28300 46.22900
H  39.03000 4.04600 44.45600
H  40.67500 4.64400 44.73500
H  41.32600 -1.87800 46.56000
H  40.63700 -1.06900 47.94000
H  41.87800 -2.39700 48.23500
H  46.88100 -2.54500 47.58900
H  46.36900 -1.24200 46.35200
H  46.32300 -2.84000 45.94200
H  48.80300 1.32900 47.59100
H  48.80000 4.08100 48.95100
H  48.60000 0.39600 49.69800
H  47.59200 1.78000 50.38400
H  49.33900 1.98100 50.05200
H  49.08400 4.66600 46.41400
H  49.69000 2.93000 46.40600
H  51.65100 3.26700 47.19400
H  50.95200 4.26200 48.52800
H  51.30200 5.01100 47.00200
H  47.14000 8.47200 48.46700
H  46.12800 9.67600 47.68100
H  46.98800 8.63700 46.69400
H  41.09700 7.99600 46.27400
H  38.02000 8.32700 49.03600
H  38.42700 10.02000 48.62100
H  39.28600 9.24000 49.98800
Mg 47.00400 34.64300 28.35400
C  45.35600 32.62200 30.57300
C  46.75900 37.24100 30.56900
C  48.08100 36.63900 25.93900
C  46.56200 32.17200 25.94100
N  46.15300 34.86900 30.30700
C  45.54600 33.94800 31.05200
C  45.29700 34.45300 32.55100
C  45.40900 36.02400 32.31200
C  46.18700 36.07400 30.98500
C  44.04500 36.78500 32.22000
C  46.32700 33.76700 33.57500
C  47.46300 34.57700 34.35800
H  47.19600 34.81800 35.86000
N  47.55600 36.62400 28.29200
C  47.45000 37.53100 29.33500
C  48.10200 38.77600 28.93800
C  48.43100 38.62600 27.58100
C  48.01200 37.26600 27.22100
C  48.30500 39.94600 29.88000
C  49.06900 39.61100 26.63000
O  49.40600 39.42300 25.48100
C  49.34400 41.01400 27.18000
N  47.18300 34.47000 26.21000
C  47.64200 35.41000 25.45400
C  47.90200 35.01900 23.98200
C  47.38300 33.55200 23.93600
C  46.87200 33.38000 25.44200
C  47.17700 35.90500 22.96100
C  48.35200 32.42800 23.37900
C  47.77600 31.51300 22.24500
N  46.26600 32.71900 28.27000
C  46.27300 31.77500 27.30900
C  45.77000 30.50800 27.83400
C  45.37600 30.78700 29.10600
C  45.67000 32.16200 29.28400
C  45.82000 29.23800 27.07400
C  44.65500 30.26000 30.29100
O  44.14600 29.20700 30.53600
C  44.60300 31.45000 31.25100
C  45.21000 31.03000 32.53900
O  46.33400 30.46100 32.53000
O  44.43100 31.21500 33.61600
C  45.14300 30.75800 34.82200
H  46.76400 38.11000 31.23000
H  48.40300 37.23100 25.07900
H  46.51700 31.39000 25.18100
H  44.29400 34.17800 32.87700
H  45.97200 36.58700 33.05600
H  44.19300 37.77200 31.78300
H  43.61200 36.90200 33.21300
H  43.45600 36.18600 31.52500
H  46.88400 32.94100 33.13300
H  45.63600 33.53600 34.38700
H  47.85400 35.48600 33.90000
H  48.33600 33.92500 34.32400
H  49.38900 39.95900 29.99000
H  47.83400 39.80800 30.85300
H  48.00900 40.94900 29.57200
H  50.13600 41.01500 27.92900
H  48.41700 41.43400 27.56900
H  49.59800 41.68700 26.36100
H  48.97700 35.08200 23.81400
H  46.44100 33.56000 23.38700
H  46.49500 36.48000 23.58800
H  46.58700 35.40800 22.19000
H  47.75700 36.64200 22.40600
H  48.66800 31.81200 24.22100
H  49.19000 32.94000 22.90500
H  46.85900 31.92600 21.82500
H  47.69800 30.48400 22.59800
H  48.41700 31.44100 21.36700
H  46.73600 29.27900 26.48500
H  44.96000 29.17000 26.40800
H  45.79600 28.31200 27.64700
H  43.62300 31.79900 31.57700
H  44.77200 31.40100 35.62000
H  46.21000 30.97700 34.85900
H  44.97200 29.69700 35.00500

