158

Mg -1.57100 18.38600 26.89100
C  -2.32500 16.35600 29.75600
C  -2.39500 21.17000 28.76200
C  -1.17100 20.16300 23.99800
C  -1.32900 15.38100 25.03000
N  -2.27400 18.67800 29.02200
C  -2.25600 17.74000 30.05200
C  -2.48800 18.40100 31.38400
C  -2.93600 19.91800 30.99200
C  -2.54400 19.97100 29.46900
C  -4.42400 20.34800 31.15500
C  -1.28200 18.25600 32.40600
C  -1.64200 17.72400 33.86800
H  -0.43400 17.53700 34.86200
N  -1.79400 20.31400 26.41500
C  -2.02600 21.33000 27.36100
C  -1.95400 22.60300 26.70200
C  -1.46200 22.32500 25.36500
C  -1.40700 20.91100 25.22300
C  -2.25800 23.95600 27.35600
C  -1.18900 23.30800 24.21700
O  -0.90300 22.93500 23.06100
C  -1.06600 24.77800 24.50400
N  -1.07000 17.86400 24.82500
C  -1.02300 18.78600 23.81800
C  -0.94200 18.08200 22.40600
C  -0.95100 16.60300 22.79800
C  -1.14700 16.56200 24.34100
C  -2.14700 18.58000 21.43000
C  0.41000 15.87300 22.33200
C  0.15100 14.49600 21.76800
N  -1.72800 16.27600 27.29100
C  -1.58900 15.20400 26.40600
C  -1.93200 14.02000 27.11000
C  -2.16900 14.37900 28.40600
C  -2.02900 15.78200 28.45100
C  -2.16100 12.64500 26.48900
C  -2.56100 13.84500 29.69300
O  -2.70500 12.68900 29.98700
C  -2.61200 15.15000 30.68800
C  -1.53300 14.81300 31.67200
O  -0.33300 14.64100 31.36700
O  -1.98800 14.60600 32.92800
C  -1.26700 13.63400 33.75500
H  -2.45900 22.04300 29.41600
H  -1.16300 20.60200 22.99800
H  -1.33700 14.49200 24.39600
H  -3.33500 17.89000 31.84200
H  -2.25200 20.60000 31.49800
H  -4.77400 20.71200 30.18900
H  -4.54200 21.10500 31.93100
H  -4.96400 19.45400 31.46600
H  -0.78000 19.21500 32.53700
H  -0.49500 17.64200 31.96800
H  -2.15000 16.76300 33.78700
H  -2.31800 18.41800 34.36700
H  -3.15100 24.34300 26.86600
H  -1.30800 24.48300 27.44200
H  -2.52300 23.85800 28.40900
H  -1.26400 25.38100 23.61800
H  -0.13900 25.00100 25.03100
H  -1.92600 25.06800 25.10700
H  -0.00800 18.41000 21.95100
H  -1.73300 16.12900 22.20500
H  -2.90100 17.79400 21.37500
H  -1.77000 18.75000 20.42200
H  -2.63000 19.49800 21.76500
H  1.10500 15.82700 23.16900
H  0.82800 16.54700 21.58400
H  0.86900 14.34100 20.96200
H  -0.87500 14.43800 21.40500
H  0.24400 13.70000 22.50600
H  -2.18900 12.59200 25.40100
H  -3.10700 12.20200 26.80000
H  -1.46300 11.94300 26.94600
H  -3.52600 15.23700 31.27500
H  -0.60200 14.25200 34.35900
H  -0.64700 12.93500 33.19500
H  -1.89300 13.08500 34.45800
Mg 5.01400 54.59100 40.90200
C  4.90400 51.08300 40.63600
C  8.08300 54.51100 39.37000
C  4.76100 57.88100 40.58300
C  1.86500 54.52300 42.41600
N  6.23900 52.99300 40.02700
C  6.03900 51.66400 40.00100
C  7.21500 50.92500 39.41800
C  8.30800 52.00700 39.26900
C  7.53800 53.25400 39.59200
C  9.53100 51.82600 40.25900
C  6.82400 50.07400 38.17400
C  5.88300 50.80200 37.17200
H  6.54500 51.03400 35.78800
N  6.28300 56.11400 40.15100
C  7.57500 55.81900 39.57900
C  8.22300 57.08700 39.27400
C  7.31400 58.14300 39.68100
C  6.00500 57.36900 40.14000
C  9.68400 57.10100 38.65600
C  7.58600 59.59400 39.50800
O  8.60800 60.04700 39.08000
C  6.63200 60.56500 40.03500
N  3.50900 55.93500 41.23700
C  3.64500 57.26400 41.10000
C  2.35900 58.00500 41.43300
C  1.34400 56.86900 41.95900
C  2.32800 55.71800 41.88400
C  2.45700 59.06100 42.51000
C  0.12700 56.65500 41.03700
C  -1.09900 56.05200 41.65800
N  3.59800 53.15200 41.47700
C  2.41500 53.23900 42.19600
C  2.01200 51.85600 42.49300
C  2.91300 51.01800 41.87600
C  3.84200 51.87800 41.23800
C  0.79500 51.48400 43.40600
C  3.17900 49.62500 41.67600
O  2.57900 48.58700 42.03800
C  4.53800 49.66300 40.90400
C  4.15500 48.81700 39.76500
O  3.36100 49.04400 38.93800
O  4.93600 47.65100 39.85700
C  4.62200 46.60300 38.88500
H  9.09000 54.53700 38.94900
H  4.60400 58.96000 40.51400
H  1.05300 54.57300 43.14500
H  7.54600 50.28800 40.23700
H  8.78800 52.03700 38.29100
H  10.26700 51.17700 39.78400
H  9.19500 51.36900 41.19000
H  9.90400 52.79800 40.58200
H  6.49500 49.05200 38.35800
H  7.83500 50.05700 37.76800
H  5.67000 51.80400 37.54500
H  4.91700 50.31700 37.02900
H  10.53000 56.98000 39.33200
H  9.94300 58.01500 38.12200
H  9.69100 56.33000 37.88600
H  5.66500 60.67200 39.54400
H  6.98400 61.58600 39.89000
H  6.43300 60.43700 41.09900
H  1.95100 58.53900 40.57600
H  1.01600 56.92100 42.99800
H  1.93400 58.83000 43.43800
H  2.06200 59.97500 42.06700
H  3.46600 59.39400 42.75200
H  0.47700 55.92300 40.30900
H  -0.05700 57.58700 40.50200
H  -1.39500 55.10700 41.20200
H  -1.91600 56.77300 41.62500
H  -0.90400 55.86200 42.71400
H  0.02900 50.86900 42.93400
H  0.26700 52.38300 43.72400
H  1.10900 50.91400 44.28000
H  5.37900 49.23000 41.44600
H  5.28200 45.77500 39.14400
H  4.63700 46.83200 37.82000
H  3.62100 46.19300 39.01600

