158

Mg 17.20600 -1.70800 27.67800
C  16.01100 0.20800 30.36500
C  18.69300 -3.86400 29.78700
C  18.64100 -3.15400 24.90900
C  15.44900 0.49500 25.61800
N  17.31000 -1.80600 29.82500
C  16.76400 -0.96200 30.73900
C  17.17500 -1.36000 32.19500
C  18.10000 -2.64600 32.03700
C  18.05700 -2.76200 30.44600
C  19.48300 -2.39700 32.65400
C  15.88500 -1.44900 33.13900
C  16.00900 -0.75100 34.46900
H  17.33500 -0.25200 34.97700
N  18.44200 -3.25600 27.42900
C  18.96400 -4.04300 28.42600
C  19.66300 -5.19400 27.87300
C  19.70200 -4.95300 26.45200
C  18.89200 -3.79300 26.13800
C  20.26900 -6.24900 28.72200
C  20.43700 -5.76000 25.35400
O  20.51500 -5.44300 24.17000
C  21.15400 -7.06600 25.66400
N  16.89600 -1.49100 25.57700
C  17.74600 -2.10200 24.65800
C  17.52700 -1.63000 23.21000
C  16.36900 -0.57800 23.47400
C  16.20800 -0.49000 24.92900
C  18.68400 -1.05100 22.44200
C  15.11900 -0.77500 22.64100
C  14.77600 0.31700 21.61700
N  15.97300 0.02700 27.90400
C  15.29900 0.76200 26.99000
C  14.59000 1.86100 27.68500
C  14.87500 1.64200 28.99400
C  15.81100 0.60200 29.03700
C  13.73700 2.91700 27.01400
C  14.61200 2.25700 30.25400
O  13.92200 3.22800 30.51600
C  15.48000 1.37200 31.19000
C  16.51000 2.17400 31.71100
O  17.61700 2.27200 31.20600
O  16.06700 2.87600 32.82000
C  16.93500 3.95200 33.36600
H  19.23300 -4.56000 30.43200
H  19.21800 -3.55800 24.07600
H  15.04900 1.32800 25.03400
H  17.80500 -0.54200 32.54500
H  17.60700 -3.55800 32.37500
H  19.57800 -1.59900 33.39000
H  20.15900 -2.24700 31.81200
H  19.82200 -3.30000 33.16000
H  15.86900 -2.50400 33.41100
H  14.94300 -1.15400 32.67600
H  15.50700 -1.29700 35.26900
H  15.34600 0.11400 34.46600
H  19.83500 -6.45500 29.70100
H  21.31400 -6.01700 28.92700
H  20.32200 -7.14100 28.09800
H  21.70300 -6.91200 26.59300
H  21.81300 -7.25900 24.81700
H  20.45600 -7.90400 25.65900
H  17.19000 -2.45300 22.58100
H  16.74600 0.40800 23.20100
H  18.62900 -0.07300 21.96400
H  18.92700 -1.71900 21.61600
H  19.59200 -1.08900 23.04400
H  14.29500 -0.95900 23.33100
H  15.22800 -1.73600 22.13800
H  13.71300 0.26700 21.38000
H  15.39200 0.06000 20.75500
H  15.15100 1.26900 21.99300
H  14.11900 3.92200 27.19800
H  12.73300 2.82600 27.42800
H  13.76200 2.84700 25.92600
H  14.87600 1.04400 32.03700
H  16.40500 4.41700 34.19700
H  17.14900 4.74700 32.65200
H  17.86700 3.43300 33.58800
Mg 6.50400 54.32400 40.99500
C  5.57200 50.90100 40.37200
C  9.53900 53.70900 39.93500
C  6.79100 57.69500 40.90700
C  2.87400 54.90400 41.49100
N  7.48600 52.48400 40.38100
C  6.94600 51.22900 40.15500
C  8.04700 50.26900 39.68700
C  9.32600 51.13900 39.82900
C  8.80800 52.56900 40.12900
C  10.39800 50.65900 40.91200
C  7.87900 49.44900 38.33500
C  7.84400 50.20300 37.03600
H  6.62500 50.08900 36.09200
N  7.97400 55.52100 40.46600
C  9.22700 55.08700 40.08200
C  10.10600 56.20400 40.04900
C  9.36400 57.32600 40.35500
C  7.96600 56.90700 40.60700
C  11.58300 56.14600 39.77000
C  9.88500 58.68000 40.52700
O  10.95500 58.88900 40.06200
C  9.17300 59.84700 41.19100
N  4.99700 56.01400 41.16400
C  5.46400 57.29800 41.26600
C  4.35600 58.34100 41.42300
C  3.11100 57.45100 41.38400
C  3.65700 56.01200 41.48000
C  4.53200 59.14600 42.71300
C  2.23700 57.70500 40.11600
C  0.69800 58.06200 40.32200
N  4.59900 53.15800 41.05400
C  3.28000 53.51000 41.29600
C  2.47500 52.31300 41.48200
C  3.31100 51.28900 41.11200
C  4.57100 51.82600 40.73400
C  1.00100 52.16500 41.74500
C  3.40700 49.88700 40.94400
O  2.52100 49.04000 41.15500
C  4.82100 49.55300 40.40400
C  4.57400 49.04900 39.06000
O  4.04500 49.60200 38.10100
O  4.76900 47.68900 39.09900
C  3.85900 46.98100 38.08600
H  10.51500 53.63800 39.45100
H  6.88900 58.77400 41.04200
H  1.81000 55.14300 41.55100
H  8.19600 49.60300 40.53700
H  9.68700 51.17900 38.80100
H  11.30300 50.52400 40.31800
H  10.14500 49.70100 41.36700
H  10.61000 51.39100 41.69100
H  6.96900 48.85300 38.39700
H  8.74300 48.78500 38.30000
H  8.61800 49.74500 36.42000
H  8.14000 51.24600 37.14200
H  11.62600 56.79900 38.89800
H  11.92500 55.23800 39.27300
H  12.20800 56.38000 40.63200
H  8.46100 60.30800 40.50600
H  9.87500 60.59800 41.55500
H  8.69700 59.46200 42.09300
H  4.49100 58.92200 40.51100
H  2.46800 57.53700 42.26100
H  5.42200 58.89600 43.29000
H  3.71000 59.18600 43.42700
H  4.67700 60.18600 42.42200
H  2.29400 56.76400 39.56800
H  2.64800 58.53900 39.54800
H  0.15000 57.17600 40.00000
H  0.33000 58.83500 39.64700
H  0.44600 58.25700 41.36400
H  0.64000 53.02600 42.30800
H  0.81200 51.27600 42.34700
H  0.44600 52.06900 40.81200
H  5.31200 48.77800 40.99200
H  3.59500 46.01200 38.51000
H  4.41700 46.92800 37.15000
H  2.89000 47.47400 38.01500

