158

Mg 1.82500 -1.68300 43.74900
C  5.14900 -0.71400 43.12700
C  0.88700 1.27000 42.29700
C  -1.26600 -2.81200 43.79900
C  3.03900 -4.78600 44.96000
N  2.90500 0.01600 42.84600
C  4.22400 0.13100 42.53300
C  4.58000 1.45500 41.72300
C  3.22700 2.26700 41.85200
C  2.31400 1.14300 42.39700
C  3.24600 3.47800 42.82400
C  5.16100 1.24200 40.31800
C  6.57900 1.79500 40.11100
H  6.72700 2.80400 38.87800
N  0.01900 -0.90200 42.98000
C  -0.11900 0.36000 42.46200
C  -1.53100 0.51800 42.17200
C  -2.17800 -0.66400 42.63100
C  -1.16900 -1.56500 43.14000
C  -2.03800 1.82300 41.60800
C  -3.64100 -1.01100 42.60000
O  -4.36700 -0.03800 42.35000
C  -4.20900 -2.33700 42.80800
N  0.99100 -3.61600 44.26500
C  -0.30400 -3.74900 44.22800
C  -0.85400 -5.10000 44.81300
C  0.60500 -5.72700 45.12700
C  1.63800 -4.66600 44.75700
C  -1.83200 -4.98500 46.05000
C  0.94900 -7.12300 44.55000
C  0.85400 -8.34500 45.48900
N  3.66200 -2.63800 44.00200
C  3.95100 -3.81800 44.61200
C  5.42200 -3.92200 44.64900
C  5.91300 -2.68000 44.17500
C  4.82000 -2.00000 43.69800
C  6.13100 -5.07300 45.19000
C  7.11600 -1.84600 43.89400
O  8.26200 -1.90800 44.22100
C  6.63200 -0.59800 43.18300
C  7.02000 0.56400 43.95500
O  6.44600 1.00500 44.93300
O  8.16800 1.22800 43.42500
C  8.47900 2.51800 44.18100
H  0.53800 2.27000 42.03000
H  -2.28600 -3.10300 44.06000
H  3.33400 -5.66700 45.53300
H  5.34000 1.92200 42.35000
H  2.89100 2.64900 40.88800
H  4.27400 3.77500 43.03200
H  2.74100 3.29400 43.77200
H  2.74200 4.36800 42.44700
H  4.50100 1.71500 39.59100
H  5.30100 0.18100 40.11100
H  7.31500 1.00600 39.95800
H  6.87200 2.26600 41.05000
H  -1.57000 2.00200 40.64000
H  -1.79000 2.65900 42.26300
H  -3.11400 1.66300 41.54100
H  -5.23100 -2.35800 42.42900
H  -4.24400 -2.44400 43.89300
H  -3.68900 -3.20100 42.39600
H  -1.25200 -5.76000 44.04300
H  0.73100 -5.76900 46.20900
H  -2.54000 -5.81000 45.98100
H  -2.37800 -4.04100 46.06900
H  -1.33200 -5.17000 47.00100
H  1.98800 -7.08200 44.22600
H  0.25900 -7.20700 43.71000
H  1.44800 -9.17800 45.11400
H  -0.18800 -8.66200 45.44200
H  1.17400 -8.21800 46.52400
H  5.54100 -5.62400 45.92200
H  7.03300 -4.69800 45.67200
H  6.47800 -5.76800 44.42500
H  7.06100 -0.56900 42.18200
H  7.86300 3.36000 43.86700
H  9.52100 2.74600 43.95600
H  8.48500 2.40300 45.26500
Mg 5.87100 54.07000 42.04300
C  4.87700 50.63100 41.85600
C  8.87500 53.12200 40.76700
C  6.41900 57.22200 41.31600
C  2.43600 54.73900 42.92200
N  6.69100 52.11900 41.35000
C  6.15200 50.85200 41.34400
C  7.14800 49.77800 40.83400
C  8.51700 50.49300 41.10100
C  8.03700 52.00800 41.07700
C  9.30000 50.18500 42.37700
C  7.02500 49.40500 39.32600
C  6.11300 50.25200 38.32500
H  6.80400 51.04600 37.27300
N  7.50700 55.06100 41.15600
C  8.68600 54.52000 40.82300
C  9.62900 55.60000 40.49500
C  8.93600 56.80100 40.76800
C  7.56000 56.42400 41.09900
C  11.07500 55.47000 39.87100
C  9.52000 58.22800 40.74100
O  10.75100 58.40800 40.51800
C  8.71500 59.45300 41.04500
N  4.58700 55.70100 41.90300
C  5.13400 56.95800 41.79700
C  4.12200 58.05400 42.16600
C  2.86900 57.18800 42.54400
C  3.38500 55.74400 42.60900
C  4.59000 59.03900 43.33200
C  1.62400 57.34200 41.54800
C  0.20800 57.55100 42.14900
N  3.96500 52.92600 42.38200
C  2.71200 53.36700 42.69100
C  1.91100 52.21500 43.05600
C  2.67600 51.10300 42.62300
C  3.93900 51.63000 42.23200
C  0.57100 52.03800 43.69800
C  2.65200 49.67800 42.49800
O  1.74200 48.88800 42.58200
C  4.10500 49.29800 42.03200
C  4.13500 48.38000 40.89200
O  3.70800 48.56000 39.78800
O  4.74000 47.21000 41.24600
C  4.58000 46.08800 40.27800
H  9.93700 52.87100 40.78700
H  6.57500 58.25400 40.99400
H  1.43600 54.92000 43.32200
H  7.04700 48.85200 41.40000
H  9.21500 50.27200 40.29300
H  9.03100 49.29900 42.95100
H  9.19400 51.04100 43.04400
H  10.35600 50.34000 42.15400
H  6.60100 48.40100 39.30100
H  8.01900 49.30500 38.89100
H  5.53500 50.98700 38.88500
H  5.37600 49.52000 37.99400
H  11.13000 54.69500 39.10700
H  11.66000 55.07200 40.70000
H  11.50900 56.41800 39.55300
H  9.43300 60.26900 41.11300
H  8.22800 59.31200 42.01000
H  7.92500 59.57900 40.30400
H  3.90300 58.75100 41.35700
H  2.47900 57.54000 43.49900
H  4.14200 60.02400 43.20300
H  5.65400 59.24900 43.22500
H  4.20400 58.62300 44.26300
H  1.51700 56.39500 41.01800
H  1.71300 58.08900 40.75900
H  -0.16200 58.52900 41.84400
H  0.03900 57.58600 43.22500
H  -0.48700 56.82600 41.72600
H  0.01200 52.97000 43.77900
H  0.66800 51.52600 44.65500
H  -0.06600 51.31600 43.18600
H  4.55700 48.77100 42.87200
H  5.16300 46.25700 39.37200
H  3.58500 45.98000 39.84600
H  4.89500 45.11600 40.65700

