158

Mg 48.38500 15.57600 27.11800
C  46.80100 15.65400 30.33500
C  50.93800 17.52200 28.59900
C  49.69700 15.77400 24.23300
C  45.57200 13.87000 25.97200
N  48.83100 16.36900 29.22300
C  48.10900 16.24500 30.37100
C  48.85200 16.83000 31.54800
C  49.98900 17.67000 30.91500
C  49.93200 17.16100 29.45800
C  49.81400 19.21600 30.89600
C  49.37200 15.71800 32.47300
C  49.22900 16.10600 34.07100
H  48.99400 17.52800 34.52500
N  50.14800 16.51200 26.47500
C  51.08000 17.20600 27.18400
C  52.16600 17.50500 26.24700
C  51.69500 17.16700 24.95100
C  50.49800 16.39200 25.16800
C  53.33100 18.38300 26.78100
C  52.17300 17.53700 23.62700
O  51.72200 17.13000 22.56700
C  53.31600 18.46700 23.56700
N  47.64400 15.19200 25.34200
C  48.46600 15.15100 24.26400
C  47.79000 14.68000 23.00800
C  46.50000 14.11600 23.60000
C  46.61500 14.34000 25.07600
C  47.52900 15.76100 21.91800
C  46.21900 12.59000 23.26800
C  44.95400 12.39500 22.45600
N  46.50500 14.98200 27.93100
C  45.54600 14.23600 27.34800
C  44.41000 13.99400 28.24900
C  44.93200 14.40000 29.46500
C  46.21000 15.07000 29.21000
C  43.14800 13.24900 27.92000
C  44.59500 14.53100 30.90900
O  43.55400 14.15100 31.49100
C  45.80800 15.36600 31.54000
C  45.26700 16.62300 32.25600
O  44.98800 17.70200 31.77600
O  44.90800 16.33900 33.50300
C  43.75800 17.11900 33.98900
H  51.60100 18.25700 29.06000
H  50.12100 15.64200 23.23500
H  44.80100 13.18200 25.61700
H  48.13100 17.44300 32.08800
H  50.98500 17.50100 31.32400
H  48.85100 19.51700 31.30900
H  49.82200 19.74100 29.94000
H  50.63600 19.63600 31.47400
H  50.43200 15.50400 32.33300
H  48.81600 14.84200 32.13900
H  50.16300 15.80600 34.54600
H  48.46900 15.49300 34.55500
H  53.21200 19.46500 26.72600
H  54.26200 18.14100 26.26800
H  53.43900 18.20600 27.85200
H  53.22600 19.42100 24.08600
H  53.43800 18.68800 22.50700
H  54.17200 17.95500 24.00800
H  48.33800 13.82700 22.60900
H  45.62200 14.74300 23.44400
H  48.00900 16.71200 22.15200
H  46.47000 15.94600 21.74100
H  47.89700 15.33900 20.98300
H  45.99100 12.07600 24.20200
H  47.08400 12.19600 22.73500
H  45.16400 11.85500 21.53300
H  44.68300 13.39200 22.11100
H  44.07800 12.11900 23.04500
H  43.45600 12.45200 27.24400
H  42.44400 13.95800 27.48400
H  42.79000 12.84600 28.86700
H  46.18400 14.64700 32.26700
H  43.29000 16.61500 34.83500
H  43.01200 17.20500 33.19900
H  44.13300 18.10300 34.27200
Mg 0.07800 43.66200 26.16600
C  2.34600 44.08900 28.82100
C  -2.35400 42.98700 28.66900
C  -2.03700 42.90600 23.79000
C  2.73600 43.76300 23.88800
N  -0.02400 43.54400 28.54700
C  1.03000 43.89200 29.34400
C  0.62600 43.86300 30.82200
C  -0.83500 43.23700 30.78700
C  -1.14000 43.26800 29.23900
C  -0.97000 41.78900 31.39100
C  0.79600 45.23600 31.58800
C  1.41200 45.27100 32.95800
H  1.12500 44.06000 33.91300
N  -1.94000 43.28400 26.18300
C  -2.77900 43.06800 27.29000
C  -4.15600 42.76200 26.82900
C  -4.03200 42.71900 25.40900
C  -2.59900 42.93200 25.06900
C  -5.31700 42.46100 27.80800
C  -5.14500 42.63500 24.40300
O  -4.86700 42.74200 23.17800
C  -6.62700 42.47800 24.70600
N  0.32000 43.39200 24.13600
C  -0.75800 43.14600 23.34200
C  -0.35900 43.01500 21.79400
C  1.15000 43.35400 21.89300
C  1.45600 43.60700 23.41700
C  -0.62700 41.57600 21.31000
C  1.52900 44.60000 21.08700
C  2.80100 44.60300 20.32800
N  2.14000 43.77000 26.23500
C  3.07900 43.90300 25.28700
C  4.40400 44.27600 25.79200
C  4.11800 44.31100 27.21400
C  2.74300 43.99600 27.40500
C  5.64600 44.58400 25.05100
C  4.77700 44.54700 28.48900
O  5.91700 44.82900 28.76600
C  3.59100 44.45700 29.56800
C  4.00800 43.39900 30.49800
O  3.55900 42.28600 30.51000
O  4.98100 43.92800 31.32700
C  5.46800 43.16300 32.45900
H  -3.23600 42.81600 29.29100
H  -2.69900 42.68500 22.95000
H  3.51200 43.99600 23.15700
H  1.19900 43.09600 31.34400
H  -1.53700 43.92300 31.26000
H  -0.06100 41.42100 31.86700
H  -1.12600 41.11600 30.54900
H  -1.73600 41.65000 32.15300
H  -0.13500 45.80300 31.61400
H  1.46100 45.87500 31.00800
H  1.18600 46.17300 33.52700
H  2.49000 45.26200 32.79100
H  -6.07200 41.82500 27.34600
H  -5.79400 43.38600 28.13300
H  -4.98800 41.81700 28.62400
H  -6.88600 43.21500 25.46600
H  -6.84100 41.47100 25.06600
H  -7.12400 42.74000 23.77300
H  -1.02200 43.64900 21.20500
H  1.69900 42.46300 21.58900
H  -1.46500 41.71300 20.62700
H  -0.92700 40.93700 22.14100
H  0.23600 41.05300 20.89700
H  1.71100 45.43000 21.77000
H  0.70700 44.96400 20.47000
H  3.20900 43.59600 20.41100
H  3.57200 45.24400 20.75500
H  2.66000 44.90900 19.29100
H  6.31100 43.72000 25.07000
H  6.17300 45.36600 25.59700
H  5.46400 44.85100 24.01000
H  3.47000 45.38800 30.12300
H  6.03700 42.28700 32.14800
H  4.65900 42.85400 33.12100
H  6.18600 43.82200 32.94800

