158

Mg 35.82000 2.06900 29.69400
C  33.43700 3.13500 32.19200
C  38.10800 2.23400 32.27100
C  38.19600 1.75400 27.38900
C  33.25700 2.16600 27.30100
N  35.73000 2.40100 31.92100
C  34.60100 2.67700 32.75600
C  35.04000 2.79700 34.22400
C  36.57400 2.86700 34.13000
C  36.83600 2.42700 32.74200
C  37.29100 4.19600 34.52600
C  34.42500 1.61300 34.99700
C  34.29200 1.58200 36.52200
H  34.70700 2.86100 37.30700
N  37.91700 1.88700 29.82200
C  38.67600 2.01600 30.97200
C  40.03900 1.74200 30.69000
C  40.13000 1.70600 29.22700
C  38.71500 1.82900 28.71300
C  41.17400 1.58700 31.69300
C  41.39900 1.52900 28.34700
O  41.35000 1.45700 27.11300
C  42.78200 1.32400 29.04500
N  35.72900 1.89600 27.67100
C  36.85600 1.72800 26.94600
C  36.51800 1.45500 25.45600
C  34.99500 1.28700 25.52100
C  34.55000 1.73300 26.93200
C  37.00700 2.51300 24.32700
C  34.42700 -0.13500 25.19200
C  33.91500 -0.45100 23.79400
N  33.77200 2.59300 29.61500
C  32.85600 2.60400 28.60500
C  31.56500 3.16800 29.12400
C  31.75000 3.40000 30.44900
C  33.10100 2.97100 30.75300
C  30.38600 3.50100 28.31100
C  31.18200 3.82600 31.70800
O  30.00700 4.18700 31.91700
C  32.18400 3.75300 32.86400
C  32.44400 5.08500 33.42300
O  33.16500 5.92400 32.92200
O  31.73100 5.23000 34.64400
C  31.66100 6.49200 35.38600
H  38.91000 2.26400 33.01200
H  38.85000 1.47400 26.56100
H  32.45100 2.10800 26.56600
H  34.63000 3.75100 34.55700
H  36.91000 2.07600 34.80100
H  37.08900 5.01500 33.83600
H  38.34000 3.90900 34.58700
H  37.03200 4.65800 35.47900
H  34.79600 0.69600 34.54000
H  33.35200 1.52700 34.82700
H  34.87800 0.74200 36.89500
H  33.28900 1.24000 36.77700
H  41.75400 2.48500 31.48100
H  41.79600 0.70900 31.51800
H  40.70700 1.52800 32.67600
H  43.62800 1.37500 28.35900
H  42.83700 0.46900 29.71800
H  42.79800 2.20700 29.68400
H  36.92600 0.49800 25.13300
H  34.46200 2.00900 24.90200
H  37.68500 3.23700 24.77900
H  36.14800 3.04400 23.91800
H  37.67100 2.04700 23.59900
H  33.66400 -0.27900 25.95600
H  35.15100 -0.84200 25.59600
H  33.90500 0.49500 23.25400
H  32.91400 -0.87800 23.72500
H  34.57300 -1.09800 23.21400
H  30.68300 3.37400 27.27000
H  30.02100 4.50900 28.50800
H  29.51400 2.87700 28.50800
H  31.79900 3.05300 33.60500
H  30.68500 6.81200 35.75000
H  31.96200 7.30500 34.72600
H  32.26400 6.38400 36.28800
Mg 42.32700 41.26300 26.38600
C  41.51700 43.67900 28.86700
C  43.22800 39.09000 28.82100
C  43.10900 39.11400 23.98200
C  41.59000 43.67900 23.97200
N  42.47600 41.48600 28.66900
C  42.03100 42.52200 29.46400
C  42.27100 42.13100 30.95200
C  42.81400 40.58200 30.85100
C  42.87100 40.37900 29.31500
C  44.27200 40.45100 31.36300
C  40.93200 42.44100 31.81300
C  40.77900 41.62500 33.13300
H  40.12800 42.45200 34.24100
N  43.01900 39.31200 26.43100
C  43.39200 38.59900 27.48700
C  43.86500 37.32200 26.99300
C  43.76500 37.34400 25.61600
C  43.28600 38.63900 25.25300
C  44.53200 36.28800 27.93900
C  43.90500 36.13100 24.60500
O  43.65000 36.16300 23.39400
C  44.16300 34.84000 25.18000
N  42.35200 41.41700 24.32400
C  42.80800 40.35700 23.58200
C  42.66800 40.61300 22.09200
C  42.13500 42.06600 22.07100
C  41.98100 42.39800 23.55400
C  44.00900 40.43200 21.28300
C  40.71300 42.16900 21.37400
C  39.60700 41.28400 21.93800
N  41.66000 43.12900 26.36700
C  41.49300 44.03200 25.29300
C  40.94200 45.25100 25.82100
C  40.90600 45.18400 27.16400
C  41.39700 43.86500 27.49600
C  40.63400 46.45300 24.94700
C  40.49800 45.86300 28.38300
O  39.99100 46.95500 28.53800
C  40.99000 44.92100 29.54100
C  41.98000 45.65600 30.38600
O  43.16900 45.70900 30.10500
O  41.38800 46.18900 31.44800
C  42.38000 46.55300 32.52500
H  43.56400 38.34100 29.54100
H  43.32700 38.41200 23.17500
H  41.48500 44.49800 23.25800
H  42.98000 42.87200 31.32100
H  42.11500 39.88700 31.31500
H  44.51000 41.32700 31.96600
H  45.05900 40.39400 30.61000
H  44.39400 39.57600 32.00200
H  40.06600 42.24700 31.18000
H  40.98600 43.50300 32.05200
H  41.79800 41.36900 33.42300
H  40.21000 40.70100 33.03500
H  45.42200 35.96300 27.40000
H  43.90500 35.44200 28.22000
H  44.85100 36.81200 28.84000
H  44.17400 34.10000 24.37900
H  43.23500 34.50200 25.64200
H  45.15100 34.75300 25.63200
H  41.95200 39.92200 21.64800
H  42.85200 42.76700 21.64500
H  44.17800 41.28800 20.62900
H  43.90900 39.56500 20.63200
H  44.80900 40.43100 22.02400
H  40.80900 41.77000 20.36400
H  40.37900 43.20700 21.40000
H  39.24100 40.55000 21.22100
H  38.84100 41.99900 22.24000
H  39.95300 40.75100 22.82300
H  41.41900 46.42700 24.19100
H  40.83000 47.36000 25.52000
H  39.68900 46.47700 24.40500
H  40.14000 44.70300 30.18900
H  42.90200 45.66400 32.87900
H  41.79400 47.08800 33.27300
H  43.05900 47.28500 32.08700

