158

Mg -2.34800 16.60300 25.91700
C  -2.90400 14.60600 28.81800
C  -3.34900 19.38100 27.84500
C  -2.53300 18.50300 23.14700
C  -2.08400 13.77400 24.04900
N  -3.01800 16.92500 28.12800
C  -3.16400 15.97900 29.09200
C  -3.60000 16.62600 30.41200
C  -4.11800 18.04500 29.92000
C  -3.48900 18.13600 28.49100
C  -5.64600 18.10900 29.90600
C  -2.43700 16.74400 31.45400
C  -2.89800 17.17800 32.82600
H  -2.77300 16.00400 33.86700
N  -2.67100 18.64800 25.56300
C  -2.79100 19.66200 26.53600
C  -2.56000 20.93000 25.93400
C  -2.41400 20.69700 24.49800
C  -2.57000 19.22500 24.30400
C  -2.52800 22.24300 26.80000
C  -2.08400 21.66600 23.38500
O  -2.08400 21.44000 22.21400
C  -1.96100 23.10100 23.77700
N  -2.50200 16.17300 23.91300
C  -2.48800 17.12500 22.90000
C  -2.35500 16.50200 21.47800
C  -1.90800 14.98800 21.84500
C  -2.19900 14.93700 23.36100
C  -3.64300 16.65700 20.60400
C  -0.51300 14.55700 21.56000
C  0.57000 15.12200 22.45300
N  -2.38900 14.61600 26.34300
C  -2.24000 13.51200 25.43000
C  -2.35400 12.33900 26.06500
C  -2.54000 12.67000 27.43200
C  -2.55800 14.08600 27.51600
C  -2.14500 10.99400 25.45200
C  -2.69700 12.07500 28.74200
O  -2.53100 10.93200 29.14800
C  -3.05300 13.35800 29.68200
C  -2.11400 13.38600 30.82900
O  -0.96400 13.83700 30.87100
O  -2.61000 12.56900 31.83000
C  -1.91900 12.21400 33.08400
H  -3.74700 20.23200 28.40100
H  -2.34300 18.99500 22.19000
H  -1.98400 12.87400 23.44000
H  -4.38200 16.01600 30.86600
H  -3.69700 18.90300 30.44500
H  -5.90100 18.44800 28.90200
H  -6.04200 18.81800 30.63300
H  -6.12500 17.14100 30.05400
H  -1.71300 17.46000 31.06700
H  -1.96700 15.76200 31.50700
H  -3.94300 17.48200 32.77000
H  -2.31700 18.04900 33.13100
H  -2.59500 22.09700 27.87800
H  -3.43400 22.75700 26.47700
H  -1.66200 22.82200 26.47800
H  -1.90400 23.70300 22.87000
H  -0.99800 23.20700 24.27800
H  -2.75400 23.50600 24.40500
H  -1.55600 16.93300 20.87600
H  -2.61700 14.30700 21.37500
H  -4.27700 15.78500 20.76200
H  -3.39600 16.73800 19.54600
H  -4.14100 17.61500 20.75600
H  -0.41000 14.84600 20.51400
H  -0.54800 13.49500 21.31700
H  0.15600 15.63500 23.32100
H  1.12600 15.85600 21.87000
H  1.21500 14.32600 22.82700
H  -2.06600 10.21800 26.21300
H  -1.21700 10.96200 24.88100
H  -2.94700 10.72500 24.76400
H  -4.03000 13.37200 30.16300
H  -1.13500 12.97000 33.11000
H  -1.41900 11.24800 33.01100
H  -2.67800 12.36800 33.85200
Mg -0.91700 33.52400 26.67100
C  -2.48500 31.97900 29.52200
C  0.68900 35.45300 28.80500
C  -0.14100 35.31500 24.03500
C  -2.78800 31.31900 24.63000
N  -0.96700 33.65100 28.95100
C  -1.57400 32.97400 29.91500
C  -1.08200 33.18500 31.30100
C  -0.06800 34.40000 31.12100
C  -0.05300 34.57000 29.53000
C  -0.30000 35.71600 31.98900
C  -0.43700 31.93800 31.98200
C  -1.06100 31.55700 33.38100
H  -0.26000 32.09100 34.66500
N  0.12400 35.21400 26.50800
C  0.76700 35.85800 27.46300
C  1.53500 36.92500 26.91500
C  1.23300 36.91700 25.53600
C  0.37100 35.75400 25.31300
C  2.37600 37.83900 27.77000
C  1.71400 37.80000 24.43300
O  1.36400 37.73000 23.24600
C  2.66000 38.84600 24.84400
N  -1.65800 33.49800 24.55800
C  -0.99900 34.26800 23.66800
C  -1.47500 33.91500 22.27600
C  -2.09500 32.51500 22.46900
C  -2.22300 32.41000 23.96200
C  -2.42100 34.92800 21.67900
C  -1.23600 31.27300 21.95000
C  0.22200 31.07100 22.30500
N  -2.32700 31.95400 26.97700
C  -2.94700 31.14800 26.02900
C  -3.75200 30.24500 26.72400
C  -3.68400 30.54300 28.09400
C  -2.73800 31.58000 28.23300
C  -4.77400 29.29400 26.10200
C  -4.19900 30.28800 29.46400
O  -5.00900 29.49600 29.82800
C  -3.34800 31.14800 30.46500
C  -4.33200 31.91400 31.22800
O  -5.07200 32.82300 30.75900
O  -4.29400 31.62700 32.52900
C  -5.23900 32.43400 33.28800
H  1.46500 35.89600 29.43200
H  0.08700 35.82100 23.09500
H  -3.07900 30.52900 23.93400
H  -1.94000 33.49500 31.89900
H  0.98400 34.14100 31.24600
H  -0.66800 36.46600 31.29000
H  0.68600 36.03900 32.32400
H  -0.90500 35.53000 32.87700
H  0.60600 32.17500 32.19100
H  -0.50400 31.10600 31.28000
H  -1.04300 30.47500 33.50800
H  -2.04400 32.00700 33.52000
H  3.44700 37.67300 27.88600
H  2.03600 37.82300 28.80600
H  2.02100 38.80900 27.42200
H  2.94500 39.43000 23.96900
H  3.58800 38.35300 25.13400
H  2.20100 39.52600 25.56200
H  -0.65100 33.81200 21.57100
H  -3.06800 32.47600 21.97800
H  -1.94000 35.83300 21.30700
H  -3.12500 35.18100 22.47300
H  -3.03300 34.49000 20.89100
H  -1.25600 31.44100 20.87300
H  -1.80100 30.36500 22.16300
H  0.47600 31.90200 22.96300
H  0.84100 31.22700 21.42200
H  0.30800 30.13600 22.85900
H  -4.82400 29.33000 25.01300
H  -5.81600 29.48800 26.35300
H  -4.59200 28.29800 26.50600
H  -2.80000 30.44800 31.09600
H  -6.27000 32.08300 33.23500
H  -5.20200 33.49800 33.05400
H  -5.05800 32.34600 34.35900

