158

Mg 48.10000 24.81900 28.76600
C  48.78700 27.21500 31.30100
C  47.08400 22.65700 31.22300
C  47.98900 22.52300 26.43400
C  49.34400 27.19400 26.47900
N  47.99300 24.91700 31.01900
C  48.29100 26.03100 31.84400
C  48.04800 25.69100 33.32700
C  47.47900 24.20100 33.23000
C  47.54200 23.91600 31.74300
C  48.30900 23.20900 34.07400
C  47.05800 26.69500 33.92900
C  46.54800 26.31900 35.29600
H  47.14000 27.07800 36.48200
N  47.49400 22.84900 28.80100
C  47.03100 22.16300 29.90600
C  46.63300 20.84000 29.45400
C  46.88300 20.77600 27.99200
C  47.47700 22.05200 27.68200
C  46.01700 19.84700 30.38500
C  46.51100 19.80800 26.91300
O  46.83100 19.93900 25.68800
C  45.73900 18.56600 27.29700
N  48.60000 24.84800 26.70400
C  48.38900 23.73300 25.95200
C  48.75000 24.07300 24.50400
C  48.79400 25.64800 24.40800
C  48.88800 25.96700 25.95600
C  50.08400 23.42000 23.92800
C  47.52300 26.14200 23.61100
C  47.71800 27.51800 22.87900
N  48.91100 26.83300 28.83700
C  49.40600 27.61200 27.82600
C  49.85000 28.88200 28.25500
C  49.72400 28.76600 29.66800
C  49.10500 27.48700 29.94400
C  50.35700 29.96800 27.43800
C  49.82700 29.47100 30.91900
O  50.11800 30.60600 31.26100
C  49.35200 28.45000 32.04900
C  50.39000 28.18100 32.99800
O  51.26300 27.31900 32.85400
O  50.17700 28.93500 34.09400
C  51.17200 28.74000 35.16800
H  46.74900 21.94400 31.97900
H  48.11100 21.89500 25.54900
H  49.57000 27.92900 25.70300
H  49.03200 25.78700 33.78500
H  46.45000 24.14300 33.58400
H  48.62900 23.67200 35.00700
H  49.08900 23.03100 33.33400
H  47.67100 22.33900 34.23200
H  46.21500 26.73200 33.23900
H  47.61600 27.62400 34.04400
H  46.63100 25.24500 35.46400
H  45.48500 26.55100 35.23800
H  44.94000 19.69800 30.31100
H  46.22000 20.08000 31.43000
H  46.49000 18.87700 30.23400
H  44.86000 18.65900 27.93600
H  46.53700 17.92200 27.66900
H  45.42100 18.16900 26.33300
H  47.85400 23.73100 23.98600
H  49.67300 26.06100 23.91300
H  50.57700 22.88400 24.73800
H  50.75000 24.18700 23.53200
H  49.84200 22.70600 23.14100
H  46.69800 26.26400 24.31400
H  47.20300 25.42700 22.85300
H  48.70000 27.90800 23.14900
H  47.08700 28.33100 23.23700
H  47.69500 27.45000 21.79100
H  50.74200 30.77000 28.06800
H  49.58300 30.40700 26.80900
H  51.13100 29.42300 26.89600
H  48.45700 28.92900 32.44500
H  52.18800 28.79700 34.77700
H  50.92100 27.76100 35.57800
H  51.00300 29.52300 35.90600
Mg 42.01900 41.18400 27.16700
C  41.29200 43.41900 29.56200
C  43.18300 38.99300 29.48400
C  42.55700 38.82900 24.71000
C  41.29700 43.47000 24.74300
N  42.17200 41.22500 29.32500
C  41.75300 42.24800 30.14400
C  42.00000 41.95600 31.63500
C  42.70700 40.49200 31.53800
C  42.67000 40.18800 30.00300
C  44.09400 40.54300 32.15500
C  40.66400 42.02800 32.51000
C  40.69500 42.94300 33.70700
H  39.63300 42.49900 34.82000
N  42.85600 39.24400 27.08200
C  43.26000 38.51600 28.17300
C  43.73100 37.18400 27.75300
C  43.45200 37.10400 26.37100
C  42.85800 38.40300 26.00800
C  44.48600 36.15900 28.61500
C  43.73900 35.96900 25.41600
O  43.39800 35.96400 24.23800
C  44.34300 34.66800 25.92600
N  42.11600 41.20500 25.05400
C  42.32600 40.14000 24.20500
C  42.27900 40.48700 22.78000
C  41.75400 41.90300 22.78400
C  41.73300 42.21900 24.29000
C  43.66700 40.26000 21.90300
C  40.34500 42.19100 22.05800
C  39.01700 42.03400 22.83400
N  41.38000 43.08300 27.11700
C  41.10900 43.87200 26.05400
C  40.62500 45.19000 26.51000
C  40.66700 45.06300 27.95600
C  41.13000 43.77400 28.18400
C  40.44800 46.46200 25.69000
C  40.48900 45.72400 29.24500
O  40.18300 46.88000 29.45700
C  40.96100 44.74700 30.28700
C  42.11800 45.33700 30.96400
O  43.21600 45.46800 30.47200
O  41.71900 45.66500 32.21600
C  42.73000 46.08100 33.13800
H  43.63400 38.28500 30.18200
H  42.75700 38.12800 23.89700
H  41.02700 44.08900 23.88500
H  42.65000 42.75200 32.00000
H  42.10500 39.73000 32.03400
H  44.13500 39.75600 32.90800
H  44.23300 41.52000 32.61900
H  44.79700 40.39600 31.33500
H  40.58000 41.07200 33.02600
H  39.78000 42.36300 31.96800
H  40.40400 43.94300 33.38600
H  41.70800 43.08800 34.08400
H  43.96400 35.20300 28.65300
H  44.65200 36.47500 29.64500
H  45.48100 35.93800 28.22900
H  45.37000 34.83300 26.24900
H  44.18200 33.88300 25.18700
H  43.70500 34.42900 26.77700
H  41.42300 39.91700 22.41800
H  42.54000 42.55900 22.40900
H  43.96600 41.19100 21.42000
H  43.33900 39.49500 21.20000
H  44.45300 39.91600 22.57600
H  40.32000 41.37100 21.34000
H  40.39900 43.16800 21.57700
H  38.41900 42.94200 22.75600
H  39.22400 42.00500 23.90400
H  38.40900 41.18600 22.52000
H  39.40700 46.77500 25.60700
H  40.83100 46.36000 24.67500
H  41.01800 47.24000 26.19700
H  40.21700 44.60800 31.07100
H  42.62600 45.47400 34.03700
H  42.66300 47.13100 33.42200
H  43.74400 45.95500 32.75600

