158

Mg 47.32600 16.59900 28.07700
C  45.19900 16.29500 30.97000
C  49.55100 18.37700 30.09900
C  49.04700 17.31000 25.24800
C  44.75400 15.25800 26.27300
N  47.37900 17.15500 30.31600
C  46.45900 16.83900 31.28200
C  46.90300 17.36100 32.61400
C  48.16600 18.26300 32.29200
C  48.44600 17.97800 30.80400
C  48.06200 19.82300 32.54400
C  47.22700 16.14200 33.56600
C  47.13400 16.37700 35.06100
H  47.31700 17.78000 35.58100
N  49.13300 17.59200 27.71000
C  49.86900 18.24100 28.71900
C  50.96900 18.89400 28.04800
C  50.99500 18.43000 26.66300
C  49.67400 17.73900 26.44500
C  51.94800 19.70200 28.87200
C  52.00600 18.73000 25.62700
O  51.90400 18.43200 24.43700
C  53.20800 19.58800 25.92500
N  46.91400 16.52900 26.12200
C  47.76600 16.83000 25.11400
C  47.21800 16.59000 23.77500
C  45.85500 15.80100 24.03000
C  45.81400 15.82000 25.62600
C  46.98500 17.93300 22.99400
C  45.98600 14.24600 23.69100
C  45.05300 13.71200 22.59000
N  45.34000 15.95900 28.50100
C  44.41700 15.39100 27.66900
C  43.18100 15.05300 28.40500
C  43.48400 15.46500 29.68600
C  44.79000 15.95100 29.71300
C  41.92000 14.47700 27.88300
C  42.87800 15.54700 31.02700
O  41.84000 15.09700 31.48200
C  44.02100 16.07800 31.90500
C  43.50200 17.27700 32.63200
O  43.47500 18.39400 32.12200
O  42.98000 16.93200 33.82600
C  42.53500 17.95600 34.76800
H  50.28100 18.95500 30.67000
H  49.52500 17.55900 24.29800
H  43.91500 14.90000 25.67200
H  46.17600 18.03900 33.06100
H  49.01300 17.85100 32.84100
H  47.07300 19.97900 32.97500
H  47.97100 20.40600 31.62800
H  48.86700 20.12700 33.21300
H  48.23700 15.78800 33.36200
H  46.54600 15.32300 33.33600
H  47.91800 15.76300 35.50300
H  46.20800 15.97000 35.46700
H  52.44600 18.89400 29.40700
H  51.38100 20.34900 29.54200
H  52.61800 20.23200 28.19500
H  53.79900 19.76300 25.02700
H  53.76700 19.28500 26.81000
H  52.92800 20.57800 26.28400
H  48.04400 15.95300 23.45700
H  44.99600 16.39100 23.70900
H  45.96100 18.10700 22.66400
H  47.72700 17.96600 22.19600
H  47.21500 18.78300 23.63600
H  45.80200 13.63900 24.57800
H  46.97900 14.04600 23.28800
H  45.50500 13.98400 21.63600
H  44.02700 14.08100 22.61700
H  44.95900 12.62700 22.63900
H  41.90800 13.43900 28.21400
H  41.80400 14.62300 26.80900
H  41.10000 14.94200 28.43000
H  44.29200 15.26700 32.58100
H  41.45700 18.03400 34.62300
H  43.00500 18.91000 34.53000
H  42.55900 17.64500 35.81200
Mg 29.97600 58.47300 40.13900
C  27.21500 56.65300 39.06300
C  31.98300 55.92300 39.30100
C  32.52000 60.54900 40.27400
C  27.73500 61.38300 40.54400
N  29.58700 56.49300 39.31100
C  28.46100 55.94800 39.02700
C  28.59800 54.47600 38.59000
C  30.04400 54.22700 39.13300
C  30.61000 55.65800 39.33300
C  30.11800 53.40100 40.49200
C  28.46600 54.17300 37.03400
C  27.34500 53.26100 36.49800
H  26.61300 53.81200 35.30000
N  32.03800 58.25100 39.85200
C  32.69800 57.11900 39.52200
C  34.12200 57.27600 39.59700
C  34.32600 58.64100 39.87100
C  32.92100 59.21200 40.08400
C  35.11900 56.14600 39.34400
C  35.72000 59.31000 39.88600
O  36.68500 58.74700 39.49900
C  35.87100 60.75800 40.26000
N  30.07400 60.69100 40.53700
C  31.36400 61.26500 40.48900
C  31.22900 62.80200 40.62300
C  29.67300 63.05300 40.85700
C  29.11800 61.66000 40.73900
C  32.13100 63.49300 41.67900
C  29.22500 64.11500 39.82400
C  29.42200 65.57200 40.27200
N  27.85700 58.95600 39.89300
C  27.12000 60.15400 40.04900
C  25.71700 59.91200 39.67900
C  25.65300 58.52000 39.37200
C  26.99200 58.04300 39.39300
C  24.64700 60.94000 39.57300
C  24.86000 57.39100 38.90100
O  23.65400 57.35200 38.58400
C  25.79300 56.16800 38.75400
C  25.43200 54.98400 39.57400
O  25.88500 54.73400 40.70600
O  24.36100 54.30000 39.00300
C  23.80700 53.29400 39.84800
H  32.50600 54.97600 39.14900
H  33.28200 61.32300 40.15900
H  26.99600 62.18000 40.65700
H  27.89300 53.81700 39.09700
H  30.54400 53.58000 38.41300
H  30.38200 54.00200 41.36200
H  30.98500 52.74400 40.42000
H  29.18200 52.84800 40.57300
H  29.39200 53.86200 36.55100
H  28.28500 55.12400 36.53300
H  26.59100 53.07900 37.26300
H  27.73900 52.28600 36.20800
H  35.93800 56.52200 38.73100
H  34.67900 55.28700 38.83800
H  35.53200 55.86500 40.31200
H  36.88200 61.07100 40.52300
H  35.24200 60.99200 41.11900
H  35.56600 61.33900 39.38900
H  31.50400 63.09900 39.61100
H  29.50600 63.47300 41.84900
H  32.69000 62.73900 42.23300
H  31.48700 63.98800 42.40500
H  32.90600 64.18200 41.34300
H  28.15800 64.07700 39.60200
H  29.74700 63.94100 38.88300
H  28.43000 66.02400 40.25800
H  30.00500 66.07100 39.49900
H  29.80700 65.72000 41.28100
H  24.81000 61.53600 38.67600
H  24.86400 61.63600 40.38400
H  23.71200 60.38200 39.62200
H  25.78800 55.77600 37.73700
H  24.64600 52.65700 40.12700
H  23.03500 52.69600 39.36200
H  23.33500 53.76700 40.70900

