158

Mg 40.65700 9.31200 29.27000
C  42.49600 10.00100 32.08100
C  38.31000 7.70700 31.21400
C  39.14100 8.49500 26.36000
C  43.34400 10.64100 27.26700
N  40.53900 8.75800 31.32800
C  41.30400 9.31400 32.35800
C  40.65700 9.15100 33.72600
C  39.54900 8.15200 33.41700
C  39.44400 8.15700 31.90300
C  39.84800 6.82200 34.12200
C  40.11300 10.48300 34.34400
C  40.19200 10.51900 35.83900
H  40.88800 11.56500 36.70200
N  39.06900 8.11500 28.85200
C  38.19300 7.56600 29.79600
C  37.13700 6.82400 29.08800
C  37.22800 7.28600 27.73200
C  38.51000 7.97400 27.57700
C  36.04900 6.08100 29.85500
C  36.12300 7.35500 26.66800
O  36.38200 7.81400 25.59600
C  34.78300 6.81100 26.99400
N  41.24000 9.58100 27.01000
C  40.36000 9.20700 26.09700
C  40.93100 9.65300 24.69200
C  42.33600 10.33200 24.99300
C  42.32900 10.21600 26.49400
C  41.03200 8.50900 23.73000
C  42.54100 11.74400 24.39800
C  41.46000 12.80600 24.86900
N  42.53600 10.03400 29.58000
C  43.38900 10.76400 28.67800
C  44.40600 11.46800 29.50400
C  44.11800 11.05900 30.77700
C  42.97000 10.29200 30.79900
C  45.57400 12.29700 29.03700
C  44.55200 11.38700 32.14700
O  45.53600 12.10300 32.54500
C  43.46100 10.63300 33.05900
C  44.11600 9.74400 33.95500
O  44.63400 8.69800 33.66700
O  44.18700 10.19900 35.21700
C  44.99400 9.58500 36.24500
H  37.56900 7.19600 31.83200
H  38.58900 8.31600 25.43500
H  44.17400 11.01300 26.66300
H  41.48200 8.82400 34.35800
H  38.63000 8.50400 33.88600
H  39.24700 6.11400 33.55200
H  39.57800 6.85200 35.17800
H  40.90800 6.62100 33.96800
H  39.09700 10.78700 34.09000
H  40.72700 11.32400 34.02200
H  40.55700 9.54400 36.16000
H  39.15400 10.40900 36.15600
H  35.11900 6.64200 29.93700
H  36.49600 5.80200 30.80900
H  35.70700 5.18900 29.33000
H  34.83200 6.03100 27.75300
H  34.56400 6.30500 26.05400
H  34.17700 7.70400 27.14600
H  40.37500 10.48400 24.25800
H  43.12000 9.62400 24.72300
H  41.26000 7.54600 24.18600
H  41.91000 8.78900 23.14700
H  40.15100 8.55300 23.09100
H  42.67100 11.74900 23.31500
H  43.46800 12.09000 24.85700
H  41.98400 13.75300 24.73900
H  41.07300 12.51300 25.84500
H  40.62900 12.86400 24.16600
H  45.74400 13.19100 29.63800
H  45.31200 12.65800 28.04200
H  46.48400 11.70300 28.95700
H  42.89800 11.34700 33.66000
H  44.55100 9.44200 37.23100
H  45.76200 10.34300 36.39600
H  45.50900 8.65900 35.99000
Mg 36.30200 48.83400 26.34800
C  36.58700 46.75000 29.23100
C  35.00900 51.25600 28.39500
C  35.95700 50.74300 23.70100
C  37.66800 46.20600 24.45600
N  35.78700 49.01200 28.59200
C  36.00100 48.00700 29.56100
C  35.73000 48.58100 30.96400
C  34.96900 49.94300 30.60200
C  35.34300 50.13700 29.14400
C  33.37400 49.91000 30.94800
C  36.98100 48.73300 31.65600
C  36.93900 48.98900 33.19200
H  35.55200 49.14400 33.82200
N  35.67100 50.76700 26.11800
C  35.10700 51.58700 27.05100
C  34.66600 52.78500 26.47600
C  34.97500 52.69500 25.10500
C  35.57400 51.39300 24.87700
C  34.20000 54.05500 27.24400
C  34.72600 53.73500 23.99100
O  35.06800 53.57400 22.79100
C  33.82300 54.89500 24.20100
N  36.79900 48.49600 24.40100
C  36.47100 49.47800 23.43200
C  36.74200 48.95700 21.96900
C  37.40700 47.65100 22.29500
C  37.28100 47.43000 23.76400
C  35.42300 48.84100 21.11000
C  38.95600 47.45100 21.77000
C  39.93900 47.85500 22.90100
N  36.83800 46.76500 26.65300
C  37.42000 45.84600 25.79900
C  37.67500 44.59600 26.52200
C  37.46700 44.92900 27.90900
C  36.86000 46.20400 27.95800
C  38.08500 43.30300 25.87800
C  37.57300 44.42200 29.25500
O  37.97900 43.29400 29.65400
C  37.02700 45.56400 30.21900
C  35.87800 44.97500 30.96800
O  35.00700 44.29900 30.46600
O  35.95000 45.31400 32.28500
C  34.84500 44.93200 33.17200
H  34.76500 52.15900 28.95800
H  35.65000 51.31500 22.82300
H  38.06000 45.49600 23.72500
H  35.19400 47.80500 31.51100
H  35.41700 50.72100 31.22100
H  33.07500 50.65300 31.68700
H  33.12300 48.89000 31.24100
H  32.81600 50.14900 30.04300
H  37.43800 49.56900 31.12600
H  37.60000 47.84000 31.57200
H  37.51200 49.89000 33.40800
H  37.43600 48.19000 33.74200
H  33.32400 54.45000 26.73000
H  35.03600 54.75400 27.22000
H  33.92600 53.82000 28.27300
H  32.81900 54.53800 24.43400
H  33.88800 55.44500 23.26300
H  34.27400 55.58600 24.91400
H  37.40700 49.58000 21.37100
H  36.84900 46.82000 21.86500
H  34.46500 48.73200 21.61800
H  35.59600 47.91200 20.56700
H  35.34600 49.68500 20.42400
H  39.21600 47.84600 20.78800
H  39.00100 46.38500 21.54700
H  40.77500 48.28700 22.35100
H  40.38600 47.03600 23.46500
H  39.56000 48.62900 23.56900
H  39.02100 42.85800 26.21600
H  37.86500 43.24500 24.81200
H  37.39400 42.56000 26.27700
H  37.82100 45.82600 30.91800
H  34.18800 44.16500 32.76200
H  34.29800 45.84400 33.40900
H  35.29500 44.44000 34.03400

