158

Mg 1.98200 -0.97000 44.17000
C  5.36000 -0.20100 43.53600
C  1.13200 1.90300 42.47400
C  -1.16300 -2.27900 43.98400
C  3.20700 -4.17000 45.36800
N  3.10600 0.54300 43.01000
C  4.47900 0.68600 43.01100
C  4.89400 2.04200 42.29800
C  3.52800 2.84700 42.39500
C  2.50300 1.72000 42.66600
C  3.52900 3.93300 43.42200
C  5.33700 1.75000 40.85600
C  6.35000 2.79700 40.34200
H  5.82800 3.68000 39.18400
N  0.23500 -0.29400 43.40700
C  0.08600 0.93900 42.77300
C  -1.34300 1.09400 42.47200
C  -2.04600 -0.05200 42.98500
C  -0.96400 -0.95600 43.45900
C  -1.96600 2.31400 41.70300
C  -3.57600 -0.27700 43.07100
O  -4.35200 0.56000 42.57500
C  -4.23900 -1.39700 43.80800
N  1.16200 -2.92600 44.62900
C  -0.24200 -3.15600 44.58100
C  -0.55200 -4.61300 45.09400
C  0.83700 -5.17400 45.51000
C  1.81500 -4.03900 45.10900
C  -1.68200 -4.75700 46.11300
C  1.25900 -6.54000 44.87300
C  2.26800 -7.37000 45.55800
N  3.84400 -1.98500 44.57900
C  4.14800 -3.25600 45.00400
C  5.55600 -3.34900 45.19000
C  6.06500 -2.23300 44.55700
C  5.01000 -1.42500 44.18600
C  6.28300 -4.45200 45.71600
C  7.29400 -1.59400 44.16800
O  8.49900 -1.97900 44.30400
C  6.92500 -0.21300 43.49400
C  7.68200 0.83600 44.23000
O  7.74100 0.94600 45.45500
O  8.25700 1.81100 43.39600
C  8.96600 2.91800 44.03200
H  0.77900 2.83700 42.03200
H  -2.15900 -2.72600 44.02300
H  3.54300 -5.12200 45.78400
H  5.69600 2.49100 42.88400
H  3.34700 3.37200 41.45700
H  4.25900 3.94100 44.23200
H  2.58300 3.91900 43.96300
H  3.64800 4.83000 42.81500
H  4.53900 1.58100 40.13200
H  5.83300 0.78300 40.77400
H  7.29400 2.30800 40.10100
H  6.59000 3.48400 41.15300
H  -1.20300 2.60700 40.98200
H  -1.98900 3.11100 42.44600
H  -2.92700 2.26000 41.19100
H  -5.25600 -1.10400 44.07000
H  -3.66600 -1.70000 44.68400
H  -4.10400 -2.30100 43.21500
H  -0.94500 -5.19700 44.26200
H  0.79500 -5.19200 46.59900
H  -2.15300 -5.71000 45.87100
H  -2.40800 -3.95700 45.96900
H  -1.23300 -4.78100 47.10600
H  1.78400 -6.15400 43.99900
H  0.43700 -7.07300 44.39500
H  2.05800 -8.43600 45.47000
H  2.30100 -7.13300 46.62100
H  3.22300 -7.13700 45.08700
H  5.60100 -4.99700 46.36900
H  7.20800 -4.19400 46.23100
H  6.64500 -5.19600 45.00500
H  7.28100 -0.20000 42.46400
H  10.01800 2.75200 43.80400
H  8.77900 3.06400 45.09600
H  8.70600 3.83300 43.50000
Mg 45.99100 3.74100 46.80500
C  43.95600 6.58200 46.71500
C  43.00000 1.78500 46.42900
C  47.84500 1.05900 46.61500
C  48.75400 5.84300 46.66500
N  43.69200 4.18100 46.44500
C  43.17600 5.45200 46.46600
C  41.69000 5.28700 46.25300
C  41.35400 3.78500 46.70200
C  42.75300 3.16200 46.51500
C  40.72700 3.62600 48.18000
C  41.16600 5.87600 44.90800
C  42.15300 5.99300 43.79000
H  41.57900 6.50200 42.49700
N  45.47500 1.71400 46.43700
C  44.24500 1.11800 46.36300
C  44.47800 -0.32900 46.34700
C  45.86400 -0.62000 46.37200
C  46.43300 0.77200 46.52800
C  43.36600 -1.44500 46.37500
C  46.49900 -1.99400 46.28300
O  45.84100 -3.03500 46.23200
C  47.89300 -2.23100 46.31900
N  47.98600 3.54400 46.29200
C  48.53800 2.29100 46.60700
C  50.09500 2.42000 46.76100
C  50.39200 3.91200 46.49400
C  48.99700 4.47200 46.45600
C  50.65900 1.82400 48.02800
C  51.19900 4.24600 45.23600
C  52.37000 5.19700 45.46500
N  46.32400 5.78300 46.80600
C  47.51500 6.46500 46.88600
C  47.21100 7.87000 47.09600
C  45.88200 7.97100 47.11700
C  45.36700 6.66400 46.90400
C  48.15200 9.00900 47.03700
C  44.75300 8.88500 47.10600
O  44.68500 10.11900 47.22800
C  43.46200 8.05500 46.80000
C  42.48000 8.36300 47.90500
O  42.46700 7.81900 49.00400
O  41.63400 9.34900 47.53100
C  40.46700 9.52400 48.42800
H  42.10000 1.16700 46.46400
H  48.43600 0.15100 46.75500
H  49.62800 6.48500 46.78500
H  41.25000 5.87700 47.05700
H  40.67700 3.28000 46.01300
H  41.47400 3.18600 48.84100
H  39.83200 3.00400 48.19600
H  40.45700 4.56000 48.67300
H  40.68400 6.83600 45.09400
H  40.28700 5.25400 44.73900
H  42.41400 4.94700 43.62500
H  43.08500 6.46200 44.10600
H  42.39900 -0.96300 46.23100
H  43.41700 -2.04800 47.28100
H  43.47200 -2.15100 45.55100
H  48.32500 -2.09100 47.31000
H  48.34200 -1.53500 45.61100
H  48.16000 -3.21700 45.94000
H  50.52700 1.84900 45.93900
H  50.89400 4.37500 47.34300
H  51.38800 1.02400 47.89400
H  49.79200 1.54000 48.62400
H  51.10100 2.56200 48.69700
H  50.63500 4.48300 44.33400
H  51.77700 3.37000 44.94000
H  53.30100 4.64700 45.33100
H  52.35100 5.52100 46.50600
H  52.22200 6.08300 44.84800
H  48.95800 8.93100 47.76600
H  47.65800 9.98000 47.07600
H  48.62400 9.22100 46.07700
H  43.14400 8.37300 45.80700
H  39.89900 8.62000 48.20600
H  39.96000 10.41500 48.05900
H  40.65600 9.61200 49.49800

