158

Mg -1.73700 17.37200 26.21000
C  -1.80200 15.40000 29.28100
C  -1.91200 20.19300 28.37300
C  -1.87400 19.29700 23.59600
C  -1.95400 14.50400 24.41900
N  -1.83600 17.71000 28.58700
C  -1.83100 16.72200 29.61600
C  -2.04200 17.36500 31.02400
C  -2.43900 18.85700 30.55000
C  -1.93400 18.93500 29.09100
C  -3.97300 19.18500 30.58600
C  -0.87000 17.36600 32.12500
C  -1.36200 17.16800 33.54600
H  -0.51400 16.39400 34.56900
N  -1.70000 19.46600 25.97400
C  -1.75400 20.44600 26.98600
C  -1.78700 21.75700 26.35200
C  -1.87200 21.51300 24.93500
C  -1.82300 20.08500 24.81700
C  -1.55700 23.10300 27.11900
C  -1.82300 22.54900 23.78800
O  -1.82900 22.21200 22.63800
C  -1.68300 23.99100 24.10800
N  -2.15800 16.96300 24.27100
C  -2.04200 17.95900 23.36600
C  -2.27400 17.30200 21.97400
C  -2.04300 15.74800 22.19000
C  -2.07800 15.71500 23.68700
C  -3.74300 17.73700 21.48500
C  -0.72300 15.26800 21.53400
C  -0.78500 14.72000 20.07300
N  -1.88600 15.34900 26.70800
C  -1.87000 14.23000 25.83300
C  -1.94700 12.98600 26.47200
C  -1.81300 13.41900 27.86500
C  -1.88800 14.80000 27.97800
C  -1.82800 11.56600 25.88400
C  -1.66400 12.95500 29.17900
O  -1.63200 11.79300 29.65000
C  -1.68200 14.19200 30.16100
C  -0.38800 14.09300 30.83800
O  0.69600 14.48200 30.39800
O  -0.53000 13.65900 32.14900
C  0.68600 13.66300 32.97700
H  -1.98200 21.07000 29.02000
H  -1.99400 19.92900 22.71400
H  -2.04300 13.55500 23.88600
H  -2.92700 16.88300 31.43800
H  -1.92000 19.57000 31.19000
H  -4.44300 18.24800 30.88500
H  -4.25600 19.43000 29.56200
H  -4.33300 19.97800 31.24100
H  -0.36700 18.33200 32.09200
H  -0.01000 16.81700 31.74400
H  -2.22400 16.50000 33.55300
H  -1.59000 18.13900 33.98500
H  -0.69900 23.60100 26.66700
H  -1.36000 22.92100 28.17500
H  -2.44100 23.73000 27.00600
H  -2.62000 24.33200 24.54700
H  -1.66900 24.40200 23.09800
H  -0.81200 24.26600 24.70300
H  -1.60100 17.66800 21.19900
H  -2.91300 15.16100 21.89600
H  -4.10200 17.14300 20.64500
H  -3.73800 18.80000 21.24600
H  -4.56500 17.56800 22.18100
H  -0.06800 14.74400 22.23000
H  -0.10600 16.16700 21.51700
H  -1.79900 14.83600 19.68900
H  -0.44300 13.69300 19.94500
H  -0.20800 15.36800 19.41300
H  -2.60000 11.40200 25.13300
H  -1.86600 10.90000 26.74700
H  -0.88900 11.48900 25.33600
H  -2.56200 14.18100 30.80400
H  1.18800 14.62800 32.91400
H  1.34600 12.90400 32.55700
H  0.39100 13.52300 34.01700
Mg 26.11800 50.56300 26.04600
C  23.95800 51.66800 28.50000
C  28.42900 49.94100 28.57100
C  28.37300 49.84300 23.66800
C  23.91700 51.76900 23.60900
N  26.20900 50.89800 28.28000
C  25.13500 51.23900 29.04500
C  25.43300 51.19700 30.59000
C  26.99900 50.87600 30.57100
C  27.24100 50.54300 29.04800
C  27.93600 51.96900 31.19300
C  24.58800 50.20100 31.35100
C  24.10500 50.63400 32.77800
H  24.23300 49.44500 33.78700
N  28.10300 49.85100 26.10500
C  28.87000 49.65600 27.25200
C  30.15100 49.03300 26.80300
C  30.14400 48.98200 25.39800
C  28.85600 49.56200 24.94200
C  31.30300 48.73100 27.73100
C  31.20600 48.65000 24.41400
O  31.05600 48.82800 23.21200
C  32.42900 47.97800 24.88000
N  26.06100 50.74900 23.97600
C  27.17100 50.35900 23.16000
C  26.76600 50.35900 21.66500
C  25.35200 51.00700 21.70800
C  25.04700 51.14200 23.20900
C  27.71100 51.16700 20.83800
C  24.31700 50.11000 20.84600
C  23.86500 48.84200 21.49600
N  24.29100 51.55100 26.03800
C  23.45800 51.90700 24.98100
C  22.26600 52.44500 25.42900
C  22.42800 52.42800 26.84400
C  23.64400 51.82200 27.12100
C  21.25500 53.04200 24.51700
C  21.69800 52.73400 28.13400
O  20.59000 53.23600 28.37700
C  22.71800 52.12700 29.22500
C  23.07900 53.29200 30.11500
O  23.84200 54.18800 29.83100
O  22.38300 53.22300 31.28300
C  22.46500 54.26500 32.33200
H  29.20900 49.69300 29.29400
H  28.95700 49.55400 22.79200
H  23.16700 52.05900 22.87100
H  25.43200 52.19700 31.02300
H  27.13500 49.98000 31.17600
H  27.69600 52.99300 30.90800
H  28.96000 51.74600 30.89300
H  27.75600 51.80500 32.25500
H  25.16500 49.28700 31.49200
H  23.81500 49.85200 30.66700
H  23.02900 50.79800 32.72000
H  24.65600 51.51000 33.12000
H  31.66600 47.70400 27.69100
H  30.99800 48.72900 28.77800
H  32.13900 49.43100 27.73700
H  33.12900 47.73200 24.08200
H  32.40300 47.13800 25.57500
H  32.90900 48.82900 25.36300
H  26.69900 49.30600 21.39000
H  25.41100 52.02600 21.32600
H  28.51300 51.64500 21.40000
H  27.24200 51.91600 20.20000
H  28.32100 50.46800 20.26600
H  24.80700 49.87400 19.90200
H  23.39300 50.62100 20.57500
H  24.39000 48.03000 20.99400
H  22.78300 48.75200 21.39700
H  24.04000 48.79300 22.57100
H  20.92600 53.90500 25.09600
H  20.53500 52.23200 24.40500
H  21.68600 53.30700 23.55100
H  22.40000 51.36500 29.93700
H  21.42500 54.48000 32.57900
H  22.84000 55.23800 32.01200
H  22.88700 54.01100 33.30400

