158

Mg 47.59500 24.94300 28.03600
C  48.30900 27.17100 30.55300
C  46.47100 22.67900 30.26200
C  46.93000 22.83500 25.45200
C  48.83200 27.26000 25.67500
N  47.23700 25.00200 30.18000
C  47.67000 26.02100 31.02800
C  47.43900 25.58200 32.53100
C  47.06700 24.07000 32.32700
C  46.90900 23.89600 30.83500
C  47.94300 23.01200 32.95700
C  46.32100 26.43700 33.29700
C  46.69700 27.07800 34.59300
H  45.69300 27.07400 35.79100
N  46.92200 23.03700 27.92300
C  46.45700 22.21200 28.96800
C  46.04000 20.96000 28.45000
C  46.39600 20.94300 27.05300
C  46.67800 22.33400 26.75700
C  45.24800 19.99200 29.29900
C  46.42000 19.77800 26.01200
O  46.62500 19.87400 24.77700
C  45.99300 18.38400 26.57200
N  47.82900 25.02600 25.82400
C  47.44600 24.07700 24.97000
C  47.45000 24.59100 23.50300
C  47.93100 26.04500 23.56900
C  48.26000 26.12600 25.11600
C  48.24700 23.68800 22.44100
C  46.91300 27.15800 23.09700
C  47.55400 28.35000 22.28100
N  48.54300 26.73700 28.07400
C  49.01500 27.55500 27.02600
C  49.66800 28.74900 27.59700
C  49.34800 28.61300 28.93900
C  48.60200 27.44000 29.17500
C  50.38500 29.81900 26.90500
C  49.56500 29.30100 30.22200
O  50.11900 30.32500 30.48700
C  49.00600 28.32200 31.28800
C  49.93300 27.79600 32.32500
O  50.82600 27.09600 32.06700
O  49.67000 28.21600 33.61900
C  50.64100 27.79700 34.65600
H  46.19400 21.90600 30.98200
H  46.80000 22.25800 24.53400
H  49.04200 28.01400 24.91400
H  48.41900 25.60300 33.00800
H  46.02700 23.92900 32.62000
H  48.72000 22.77600 32.23000
H  47.28900 22.14500 33.05300
H  48.24800 23.18400 33.99000
H  45.49800 25.76800 33.54800
H  45.93000 27.20600 32.63100
H  46.92200 28.11600 34.34800
H  47.58700 26.57000 34.96500
H  45.76900 19.03400 29.29600
H  44.22700 19.86800 28.93900
H  45.17900 20.22700 30.36100
H  46.66000 18.18900 27.41200
H  46.09600 17.60500 25.81700
H  44.97400 18.38200 26.96000
H  46.42100 24.72900 23.17100
H  48.92900 26.12100 23.13600
H  47.95100 24.07300 21.46600
H  47.98900 22.63800 22.58400
H  49.32700 23.79000 22.54100
H  46.47400 27.63600 23.97300
H  46.09500 26.70900 22.53300
H  48.58500 28.13600 22.00100
H  47.63700 29.14900 23.01700
H  46.86500 28.69100 21.50800
H  51.35300 29.81400 27.40400
H  49.89800 30.79400 26.88500
H  50.51300 29.49300 25.87200
H  48.32100 28.88100 31.92600
H  50.35100 26.79200 34.96400
H  50.54100 28.49300 35.48900
H  51.69400 27.68600 34.40000
Mg 0.55300 43.55800 26.28300
C  2.78500 43.85900 28.81200
C  -1.83300 42.59600 28.59300
C  -1.53600 42.79700 23.73400
C  3.03300 44.33100 23.95800
N  0.47800 43.19300 28.43300
C  1.52100 43.46400 29.31800
C  1.03300 43.45600 30.78700
C  -0.43700 42.84100 30.64400
C  -0.63800 42.90800 29.11600
C  -0.59800 41.43400 31.25100
C  1.10500 44.85400 31.39500
C  1.07100 44.95300 32.91900
H  0.69700 43.75900 33.75400
N  -1.49900 42.99900 26.15300
C  -2.25100 42.65300 27.22500
C  -3.58800 42.36300 26.72700
C  -3.54400 42.55400 25.29900
C  -2.15800 42.67400 25.00400
C  -4.70800 41.81200 27.63900
C  -4.64400 42.47400 24.28100
O  -4.42500 42.56100 23.10100
C  -6.00200 42.52500 24.83100
N  0.88300 43.26700 24.18500
C  -0.20400 42.97600 23.39200
C  0.18200 43.19700 21.95300
C  1.59800 43.83900 21.95500
C  1.90800 43.80500 23.45200
C  0.05400 41.81000 21.18500
C  1.65400 45.31300 21.35400
C  1.17900 46.53600 22.13100
N  2.55900 44.00400 26.28400
C  3.45600 44.26900 25.31500
C  4.75600 44.44200 25.84500
C  4.56800 44.26100 27.23800
C  3.17900 44.06800 27.45600
C  6.10600 44.67600 25.09100
C  5.19600 44.24000 28.58400
O  6.36500 44.33200 28.96100
C  4.02900 44.00800 29.65900
C  4.33800 42.71500 30.24300
O  4.15600 41.58700 29.81400
O  4.82000 43.00800 31.45100
C  4.98400 41.94800 32.41200
H  -2.65700 42.40500 29.28300
H  -2.20700 42.79600 22.87200
H  3.79800 44.64400 23.24500
H  1.69500 42.88500 31.43800
H  -1.24300 43.41200 31.10600
H  0.05000 41.38600 32.12700
H  -0.35400 40.61600 30.57400
H  -1.58200 41.31000 31.70300
H  0.49000 45.59200 30.88100
H  2.12500 45.19300 31.21500
H  0.30900 45.70600 33.11800
H  2.07300 45.16600 33.29100
H  -5.41500 41.23200 27.04500
H  -5.30500 42.65200 27.99400
H  -4.33100 41.39700 28.57300
H  -6.04000 42.90200 25.85300
H  -6.35800 41.49400 24.82500
H  -6.60100 43.16400 24.18200
H  -0.50100 43.98000 21.62500
H  2.27800 43.21300 21.37900
H  0.99700 41.56900 20.69400
H  -0.71800 41.95700 20.43100
H  -0.16100 40.94400 21.81200
H  1.32200 45.23800 20.31800
H  2.70900 45.46000 21.12500
H  0.46900 47.02600 21.46500
H  1.98500 47.17700 22.48900
H  0.73400 46.16400 23.05400
H  5.91400 45.03500 24.08000
H  6.89700 43.92700 25.09300
H  6.54400 45.51600 25.62900
H  4.04000 44.72500 30.48000
H  4.01700 41.85600 32.90600
H  5.77300 42.26900 33.09200
H  5.07000 40.97400 31.93100

