158

Mg 8.27900 3.84200 28.45700
C  9.94000 2.38900 31.23900
C  6.30300 5.44300 30.71500
C  6.84800 5.29400 25.85000
C  9.86000 1.58500 26.40700
N  8.07200 3.84700 30.81400
C  8.92600 3.26200 31.65400
C  8.66100 3.77300 33.15900
C  7.28800 4.39100 32.97000
C  7.25500 4.66000 31.42500
C  6.19000 3.43700 33.54900
C  9.74800 4.77400 33.53800
C  10.08700 4.93200 35.09900
H  9.21800 4.41800 36.19400
N  6.90900 5.30400 28.28700
C  6.19800 5.82700 29.32300
C  5.23900 6.82200 28.84000
C  5.51900 6.96700 27.42300
C  6.52300 5.86900 27.09200
C  4.19900 7.50200 29.66500
C  4.91100 7.91500 26.45000
O  5.28700 7.97300 25.28000
C  3.90000 8.98000 26.91300
N  8.09400 3.31200 26.33000
C  7.59700 4.21200 25.52100
C  7.83400 3.69400 24.04300
C  9.06300 2.67400 24.23800
C  9.00900 2.51900 25.77500
C  6.55600 3.04000 23.34200
C  10.38900 3.13100 23.68400
C  11.19700 4.21000 24.55600
N  9.54900 2.28000 28.70700
C  10.15400 1.47100 27.74900
C  11.16500 0.55000 28.36300
C  11.13700 0.94700 29.72700
C  10.16400 1.93700 29.89600
C  11.88500 -0.52200 27.56600
C  11.75200 0.70600 31.01300
O  12.66100 -0.02800 31.39400
C  10.97700 1.57600 32.06200
C  10.33500 0.79200 33.10900
O  9.55600 -0.07000 32.77800
O  10.90900 1.08100 34.30300
C  10.43400 0.08800 35.35000
H  5.64100 5.99300 31.38700
H  6.35700 5.87800 25.06900
H  10.49200 1.03800 25.70400
H  8.68400 2.93800 33.85800
H  7.24600 5.36100 33.46500
H  5.21700 3.92000 33.45900
H  6.34000 3.17300 34.59600
H  6.15600 2.55400 32.91100
H  9.54100 5.73400 33.06500
H  10.64500 4.36300 33.07500
H  10.21200 6.01500 35.10200
H  11.08200 4.50400 35.22400
H  4.45400 8.55300 29.79800
H  4.06200 6.96800 30.60600
H  3.19500 7.43700 29.24600
H  2.96000 8.60700 27.31900
H  3.62600 9.56100 26.03200
H  4.29400 9.64000 27.68600
H  8.09700 4.56900 23.44800
H  8.78400 1.71500 23.80000
H  6.36000 3.66000 22.46800
H  5.68500 3.17100 23.98400
H  6.65700 1.99900 23.03500
H  10.23900 3.70800 22.77200
H  11.11200 2.33900 23.48700
H  12.02300 3.82300 25.15100
H  10.59300 4.74300 25.29000
H  11.60300 4.93500 23.85000
H  11.59400 -0.56900 26.51700
H  11.66500 -1.50100 27.99200
H  12.94900 -0.31800 27.68700
H  11.65800 2.33300 32.44900
H  10.03000 -0.80700 34.87800
H  9.70900 0.56600 36.00900
H  11.22300 -0.19300 36.04700
Mg 17.42300 -1.38600 27.93500
C  16.44700 0.48300 30.70700
C  19.57400 -3.23900 29.92300
C  18.60000 -2.72500 25.08600
C  15.40100 0.68600 25.94400
N  18.10600 -1.23400 30.02600
C  17.47000 -0.43800 30.98600
C  17.97700 -0.83500 32.36400
C  19.21500 -1.79900 32.10400
C  19.00000 -2.07800 30.55900
C  20.66300 -1.26500 32.34500
C  16.80300 -1.57600 33.08000
C  16.38800 -1.25300 34.51600
H  17.31100 -0.46700 35.38200
N  18.79400 -2.84500 27.61200
C  19.61200 -3.49700 28.51500
C  20.48000 -4.37700 27.83400
C  20.18400 -4.27200 26.37800
C  19.16200 -3.22800 26.29300
C  21.43200 -5.37300 28.51700
C  20.68500 -5.15900 25.28300
O  20.21500 -5.08300 24.18700
C  21.80100 -6.14400 25.48000
N  17.01900 -1.03000 25.85000
C  17.70400 -1.69000 24.89700
C  17.33900 -1.15700 23.50500
C  16.14500 -0.26100 23.79800
C  16.17600 -0.22000 25.29000
C  18.57500 -0.47100 22.76600
C  14.76700 -0.87500 23.20900
C  14.10700 -0.10100 22.04700
N  16.21400 0.21900 28.17200
C  15.40500 0.87300 27.32700
C  14.60000 1.84000 28.07100
C  14.92800 1.71400 29.40200
C  15.92700 0.74600 29.38800
C  13.58400 2.81700 27.52800
C  14.70900 2.23700 30.72100
O  13.97800 3.15600 31.05400
C  15.62000 1.37700 31.60500
C  16.56300 2.20500 32.27300
O  17.68700 2.48800 31.87900
O  15.92500 2.71100 33.35200
C  16.70100 3.65800 34.23500
H  20.32500 -3.75400 30.52700
H  19.07800 -3.08000 24.17100
H  14.76500 1.38200 25.39300
H  18.45900 -0.03100 32.92000
H  19.09700 -2.74900 32.62400
H  20.47600 -0.54300 33.14000
H  21.09200 -0.80400 31.45600
H  21.39600 -1.97600 32.72600
H  17.11400 -2.61400 33.19700
H  15.90700 -1.57000 32.45900
H  16.13600 -2.10600 35.14600
H  15.46800 -0.67100 34.47700
H  21.02700 -6.38200 28.43500
H  21.47200 -5.17600 29.58900
H  22.38200 -5.26500 27.99400
H  21.32200 -6.91000 26.09000
H  22.60400 -5.63500 26.01400
H  22.05300 -6.62900 24.53800
H  16.99600 -2.05800 22.99500
H  16.11500 0.78800 23.50000
H  18.25700 0.55200 22.56200
H  18.84500 -0.93500 21.81800
H  19.42900 -0.37800 23.43600
H  14.05800 -0.93900 24.03400
H  14.93200 -1.88300 22.82900
H  13.19700 -0.63100 21.76900
H  14.72400 -0.19900 21.15300
H  13.80800 0.92600 22.25800
H  13.09400 2.28800 26.71000
H  14.16200 3.64800 27.12400
H  13.01300 3.24400 28.35200
H  14.96600 0.77300 32.23400
H  16.49500 4.70000 33.99000
H  17.76300 3.47100 34.08000
H  16.44700 3.42500 35.26900

