158

Mg 30.53500 57.96700 40.51800
C  27.94000 56.28900 38.92400
C  32.56500 55.28800 39.83800
C  33.08000 60.04900 40.88700
C  28.36300 60.83700 40.53400
N  30.25900 56.02200 39.43100
C  29.09100 55.51700 38.99400
C  29.29100 54.08300 38.49000
C  30.61600 53.68400 39.21000
C  31.20800 55.07400 39.52000
C  30.55000 52.74300 40.38100
C  29.43600 53.99600 36.93000
C  28.24500 53.35400 36.16100
H  27.70300 54.10900 34.91400
N  32.63000 57.72600 40.45000
C  33.23600 56.54400 40.15000
C  34.67300 56.76700 40.16300
C  34.86700 58.14000 40.42100
C  33.48900 58.71000 40.63200
C  35.64100 55.68300 39.87500
C  36.22800 58.70400 40.51900
O  37.15900 57.93500 40.42200
C  36.51600 60.08500 40.94900
N  30.70700 60.16000 40.54600
C  31.87800 60.71400 40.87300
C  31.78600 62.24000 41.13200
C  30.28000 62.47900 40.96700
C  29.69700 61.10900 40.67300
C  32.39700 62.73500 42.48400
C  29.98100 63.46400 39.79500
C  28.70800 64.22800 40.00200
N  28.52000 58.40300 40.19000
C  27.87500 59.61000 40.22700
C  26.52600 59.43400 39.76100
C  26.49300 58.12700 39.37200
C  27.73500 57.55000 39.54200
C  25.32300 60.43000 39.73600
C  25.64800 57.10400 38.77700
O  24.42700 57.19500 38.52100
C  26.54900 55.88600 38.41200
C  25.99400 54.67100 39.21100
O  26.48200 54.11400 40.17500
O  24.82600 54.24400 38.59400
C  24.28600 52.92100 38.97900
H  33.12200 54.35100 39.77200
H  33.95000 60.68100 41.08000
H  27.73200 61.72800 40.57200
H  28.45500 53.45300 38.79500
H  31.20700 53.14800 38.46700
H  29.56800 52.43200 40.73800
H  31.05900 53.09500 41.27900
H  31.12200 51.85900 40.10100
H  30.35000 53.48900 36.62100
H  29.54600 55.03600 36.62300
H  27.42200 53.09600 36.82800
H  28.64600 52.42500 35.75600
H  36.22700 55.84600 38.97000
H  35.11000 54.73100 39.86300
H  36.30900 55.51600 40.72000
H  37.53400 60.38100 41.20300
H  35.91600 60.34400 41.82100
H  36.26300 60.62000 40.03400
H  32.40000 62.58700 40.30100
H  29.79100 62.83000 41.87500
H  33.23200 63.38800 42.22900
H  32.69300 61.84700 43.04300
H  31.69000 63.29200 43.09900
H  29.93800 62.87900 38.87700
H  30.77700 64.19600 39.66300
H  28.19000 64.04900 40.94400
H  28.06800 64.04800 39.13800
H  28.95900 65.28700 39.95200
H  25.66500 61.30000 39.17400
H  24.97500 60.70200 40.73200
H  24.48200 59.93200 39.25400
H  26.43400 55.58500 37.37100
H  24.25400 52.34900 38.05200
H  23.29700 52.94500 39.43700
H  25.01900 52.44100 39.62800
Mg 36.06900 49.22200 26.24400
C  36.40000 47.02600 29.07800
C  35.02700 51.59100 28.48200
C  35.43800 51.05100 23.67300
C  36.91600 46.61600 24.16500
N  35.64900 49.19300 28.47400
C  35.96800 48.28400 29.44500
C  35.99100 48.84300 30.91900
C  35.26100 50.14700 30.67100
C  35.33300 50.37300 29.10800
C  33.78000 50.19400 31.09500
C  37.43900 49.12500 31.49600
C  37.65200 48.88000 33.00400
H  36.49500 49.19900 33.96600
N  35.38700 51.11200 26.07900
C  35.03100 51.93000 27.10600
C  34.60000 53.14900 26.54000
C  34.82500 53.11300 25.13800
C  35.28400 51.72900 24.93200
C  34.15700 54.21100 27.45700
C  34.55300 54.08400 24.00500
O  34.76900 53.86800 22.82300
C  33.99800 55.34900 24.45400
N  36.22600 48.87700 24.13200
C  35.79500 49.72500 23.28100
C  35.67100 49.23600 21.83600
C  36.18300 47.77400 22.05900
C  36.44300 47.71400 23.52800
C  34.31600 49.38200 21.12700
C  37.45400 47.44500 21.16200
C  38.83500 47.37300 21.79500
N  36.60700 47.23000 26.48400
C  37.01400 46.30100 25.52400
C  37.34400 45.14000 26.17500
C  37.06900 45.33500 27.58200
C  36.67700 46.65400 27.72900
C  37.70600 43.87700 25.50600
C  37.08700 44.67700 28.86500
O  37.44700 43.54300 29.11200
C  36.68100 45.76500 29.95100
C  35.52700 45.27500 30.65600
O  34.41800 45.13000 30.20500
O  35.90600 45.17700 31.97200
C  34.79200 44.70300 32.75900
H  34.62400 52.28200 29.22400
H  34.99600 51.70200 22.91600
H  37.23000 45.76000 23.56500
H  35.51700 48.13600 31.60000
H  35.64800 51.01100 31.21200
H  33.56100 49.50000 31.90600
H  33.13300 49.87500 30.27800
H  33.63100 51.22900 31.40300
H  37.77600 50.10700 31.16300
H  38.11200 48.38300 31.06700
H  38.36600 49.60900 33.38800
H  37.99400 47.86200 33.19000
H  33.53400 53.91000 28.30000
H  33.65200 54.97600 26.86700
H  34.99400 54.76200 27.88700
H  34.00800 56.03700 23.60800
H  34.66800 55.80000 25.18600
H  32.99900 55.14500 24.84000
H  36.34300 49.85300 21.23900
H  35.37300 47.06500 21.88900
H  33.69900 49.99600 21.78200
H  33.67600 48.51200 20.98100
H  34.55600 49.90100 20.19900
H  37.49300 48.16800 20.34700
H  37.17500 46.50900 20.67900
H  38.83700 47.47100 22.88100
H  39.39600 48.19300 21.34700
H  39.35100 46.41600 21.72200
H  36.78900 43.35900 25.22600
H  38.32200 43.32300 26.21400
H  38.40600 44.10000 24.70100
H  37.49800 45.89700 30.66000
H  33.82900 45.19100 32.61400
H  35.10000 44.99900 33.76200
H  34.71900 43.61900 32.66800

