158

Mg 36.53200 49.28900 24.80600
C  36.48900 47.80500 27.88800
C  35.20000 52.12000 26.16200
C  36.47900 50.69100 21.75100
C  37.89500 46.36700 23.50300
N  35.88300 49.84100 26.78200
C  36.01200 49.12800 27.92600
C  35.73400 49.92000 29.18400
C  35.21400 51.27000 28.57100
C  35.45200 51.08400 27.10100
C  33.77500 51.64200 28.94900
C  36.93700 50.06500 30.14200
C  36.74800 49.77900 31.71200
H  35.42900 50.24400 32.31500
N  35.92000 51.11500 24.06300
C  35.45300 52.14500 24.76800
C  35.08900 53.22000 23.84900
C  35.31100 52.80800 22.57100
C  35.98800 51.47100 22.75200
C  34.67500 54.55400 24.48600
C  35.11500 53.47500 21.31500
O  35.24800 53.00000 20.21100
C  34.49100 54.98600 21.28400
N  36.88500 48.43300 22.88000
C  36.75900 49.25800 21.78100
C  37.37600 48.57800 20.59000
C  38.20900 47.43700 21.23600
C  37.59500 47.39400 22.64800
C  36.40600 48.32600 19.38900
C  39.64500 47.72000 21.37000
C  40.57900 46.66500 20.72800
N  37.14400 47.39000 25.54500
C  37.59200 46.26900 24.89300
C  37.70100 45.17500 25.82600
C  37.18300 45.78200 26.99700
C  36.88900 47.11300 26.74700
C  38.28500 43.81800 25.54100
C  36.88400 45.44300 28.32100
O  37.09500 44.41000 28.98600
C  36.43500 46.76800 29.00100
C  35.13500 46.49400 29.59500
O  34.09600 46.51900 29.00400
O  35.22000 46.25500 30.93200
C  33.95700 45.92500 31.60700
H  34.53800 52.95700 26.39600
H  36.46500 51.15200 20.76100
H  38.45500 45.56100 23.02300
H  34.86300 49.44500 29.63500
H  35.84100 52.12800 28.81500
H  33.42400 51.04200 29.78800
H  33.14600 51.59400 28.06000
H  33.84400 52.61600 29.43300
H  37.30000 51.08100 29.98700
H  37.79900 49.48100 29.81900
H  37.64100 50.20000 32.17400
H  36.76400 48.70000 31.86500
H  33.66000 54.46800 24.87600
H  34.57900 55.44500 23.86600
H  35.46800 54.80700 25.19000
H  33.55400 54.87700 21.83000
H  34.26700 55.27500 20.25700
H  35.13600 55.72700 21.75700
H  38.03900 49.32200 20.14900
H  37.98700 46.46500 20.79600
H  35.39400 48.70400 19.53700
H  36.18900 47.26800 19.24300
H  36.81700 48.63300 18.42800
H  40.07800 47.80900 22.36600
H  39.87100 48.66300 20.87300
H  40.08800 45.93100 20.08900
H  41.17100 46.20000 21.51700
H  41.27400 47.22300 20.10100
H  37.78700 43.10000 26.19200
H  39.35100 43.71100 25.74100
H  38.03200 43.63300 24.49700
H  37.14300 47.02700 29.78800
H  33.41300 46.86200 31.72200
H  34.07600 45.38400 32.54600
H  33.24600 45.25500 31.12200
Mg -10.78900 15.73100 43.09100
C  -7.35900 16.31000 43.05700
C  -11.26500 19.11400 42.80900
C  -14.04300 15.14300 42.10700
C  -10.17100 12.29100 42.83200
N  -9.39200 17.49500 42.79600
C  -8.03900 17.47600 42.98000
C  -7.46000 18.88200 42.80900
C  -8.75700 19.78300 42.96700
C  -9.93800 18.73400 42.93400
C  -8.84600 20.55400 44.32000
C  -6.81900 19.09500 41.38300
C  -5.42300 19.75700 41.35200
H  -4.34200 19.25000 40.38300
N  -12.43900 16.95200 42.49200
C  -12.42900 18.32200 42.53900
C  -13.70700 18.87000 42.16900
C  -14.53700 17.72300 41.85900
C  -13.66300 16.51500 42.13400
C  -14.05000 20.30400 41.98900
C  -15.93900 17.91300 41.48000
O  -16.52000 18.97600 41.50300
C  -16.69000 16.70600 41.17100
N  -12.00000 13.98200 42.59700
C  -13.31100 14.03100 42.44700
C  -13.95600 12.57100 42.34500
C  -12.63900 11.69200 42.30100
C  -11.55200 12.73700 42.69200
C  -14.81100 12.20200 43.53000
C  -12.44400 10.95100 40.92200
C  -12.34900 9.41800 41.00300
N  -9.17600 14.46200 43.02900
C  -9.03800 13.11000 42.97400
C  -7.62200 12.72500 43.15800
C  -6.91700 13.96300 43.15800
C  -7.87800 14.97400 43.10400
C  -7.08800 11.31500 43.14200
C  -5.55600 14.59400 43.14000
O  -4.42200 14.10000 43.06100
C  -5.81200 16.11800 43.29800
C  -5.40300 16.43100 44.68800
O  -6.05700 16.52700 45.72400
O  -4.05200 16.61900 44.64400
C  -3.21500 16.81600 45.83000
H  -11.29900 20.20200 42.72000
H  -15.01500 14.85000 41.70500
H  -10.07300 11.23500 42.57400
H  -6.82100 18.99600 43.68400
H  -8.84500 20.43100 42.09500
H  -8.94000 21.57500 43.94900
H  -7.93100 20.47200 44.90600
H  -9.72800 20.17400 44.83500
H  -7.63400 19.46800 40.76400
H  -6.72600 18.07600 41.00700
H  -5.01300 19.49100 42.32700
H  -5.45900 20.84600 41.32100
H  -13.25200 20.87600 42.46000
H  -14.87600 20.57600 42.64500
H  -14.30800 20.48700 40.94600
H  -17.70700 16.91900 40.84100
H  -16.95400 16.20600 42.10200
H  -16.17900 15.98900 40.52800
H  -14.45500 12.60000 41.37600
H  -12.76700 10.92800 43.06800
H  -15.83900 12.01800 43.21800
H  -14.80300 12.89400 44.37300
H  -14.65700 11.23300 44.00300
H  -11.49800 11.23000 40.45800
H  -13.13800 11.32800 40.17100
H  -11.39800 9.13300 40.55200
H  -13.21300 9.05400 40.44800
H  -12.27900 8.95900 41.99000
H  -7.40700 10.74700 44.01500
H  -6.00000 11.30000 43.07500
H  -7.30400 10.80400 42.20300
H  -5.23400 16.66500 42.55300
H  -2.53700 15.96900 45.93800
H  -3.65700 17.09700 46.78500
H  -2.54700 17.66300 45.66600

