158

Mg 49.15500 35.46700 27.69900
C  46.73000 34.00100 29.88900
C  49.42400 38.01000 29.86300
C  50.89800 37.06600 25.38800
C  48.52400 32.87400 25.41300
N  48.20000 35.86900 29.72700
C  47.26100 35.22400 30.42000
C  46.99900 35.90600 31.74800
C  47.57000 37.27800 31.55500
C  48.41300 37.12400 30.24000
C  46.56900 38.51300 31.31100
C  47.55700 35.15200 33.04800
C  49.08100 34.64500 32.92100
H  50.12000 35.44100 33.84400
N  50.20400 37.21900 27.73000
C  50.22100 38.08900 28.71400
C  51.14300 39.18300 28.43800
C  51.47100 39.04700 27.05500
C  50.82800 37.71500 26.66400
C  51.47900 40.20300 29.52300
C  52.26700 39.90400 26.18200
O  52.45100 39.62000 25.01900
C  52.84900 41.12500 26.76400
N  49.69000 35.03100 25.61500
C  50.37400 35.87300 24.84000
C  50.52900 35.34100 23.41200
C  49.96200 33.87700 23.55400
C  49.40100 33.88000 24.94500
C  49.82200 36.24500 22.40200
C  51.03100 32.71400 23.51700
C  51.39900 32.59500 22.03600
N  48.00700 33.77300 27.62100
C  47.88500 32.80000 26.68500
C  47.02900 31.79900 27.15000
C  46.51000 32.24100 28.36800
C  47.12500 33.47300 28.63200
C  46.73000 30.51200 26.44700
C  45.57400 31.85000 29.45200
O  44.79800 30.90800 29.65300
C  45.76900 33.02800 30.49400
C  46.23400 32.38800 31.68700
O  47.26800 31.76300 31.74000
O  45.33000 32.43100 32.76400
C  45.85500 31.88100 34.03500
H  49.35700 38.85900 30.54700
H  51.43100 37.46800 24.52400
H  48.39200 31.98400 24.79600
H  45.91600 35.89700 31.87000
H  48.20700 37.49600 32.41200
H  46.74900 39.21500 32.12400
H  45.56200 38.16000 31.53600
H  46.61300 39.05300 30.36500
H  46.89300 34.34800 33.36500
H  47.43800 35.87000 33.86000
H  49.56500 34.61900 31.94500
H  49.09100 33.66500 33.39800
H  52.55200 40.39000 29.54900
H  51.12100 40.03300 30.53900
H  51.11700 41.20000 29.27200
H  52.05200 41.63000 27.31100
H  53.24600 41.76500 25.97600
H  53.67600 40.85400 27.42000
H  51.58000 35.44100 23.14300
H  49.24100 33.63100 22.77400
H  49.22100 37.00600 22.89900
H  49.18600 35.74100 21.67300
H  50.51400 36.78700 21.75800
H  50.65200 31.83500 24.03800
H  51.90600 33.11400 24.03000
H  52.29400 33.17500 21.80900
H  50.64500 33.03000 21.38000
H  51.46400 31.52700 21.82800
H  46.17800 30.74400 25.53600
H  46.07000 29.88800 27.04900
H  47.56800 29.88800 26.13600
H  44.77800 33.44400 30.67500
H  46.90600 32.12600 34.18800
H  45.62900 30.82600 34.18800
H  45.28300 32.37400 34.82000
Mg 37.10600 49.92000 24.50900
C  37.40500 48.38300 27.55800
C  35.56100 52.52300 26.12100
C  36.58500 51.18100 21.47900
C  38.67900 47.08400 22.98200
N  36.65000 50.46400 26.67700
C  36.83700 49.63900 27.71100
C  36.37400 50.35300 29.05800
C  35.77300 51.69100 28.52600
C  36.00600 51.59000 27.04500
C  34.30200 51.91600 28.75400
C  37.64200 50.50500 29.95400
C  37.53000 49.81400 31.35400
H  36.24600 49.86800 32.16100
N  36.16400 51.64700 23.85100
C  35.61200 52.60600 24.66000
C  35.07800 53.67500 23.87100
C  35.33100 53.31000 22.50800
C  35.98100 51.95200 22.51900
C  34.55500 54.96600 24.43300
C  34.97300 54.09400 21.25000
O  35.23100 53.69800 20.09200
C  34.51400 55.56400 21.24300
N  37.44600 49.09400 22.38800
C  37.24700 49.90400 21.36600
C  37.64400 49.18400 20.02700
C  38.55600 48.06500 20.62700
C  38.24200 48.08600 22.12000
C  36.36800 48.79700 19.25800
C  39.99900 48.12800 20.29800
C  40.98700 48.60900 21.38100
N  37.80900 48.12700 25.08800
C  38.46700 47.10200 24.42300
C  38.95500 46.12800 25.32600
C  38.53800 46.56200 26.53500
C  37.90600 47.79900 26.34800
C  39.62100 44.87000 25.13800
C  38.53700 46.15300 27.91200
O  39.01100 45.25900 28.50900
C  37.78800 47.29500 28.60400
C  36.61300 46.72900 29.42200
O  35.42100 46.65800 29.02900
O  37.08900 46.43800 30.66100
C  36.32100 45.56200 31.54800
H  35.01700 53.36200 26.56000
H  36.44200 51.59900 20.48100
H  39.34200 46.28500 22.64300
H  35.64300 49.63200 29.42600
H  36.34900 52.57200 28.80700
H  34.18800 52.78500 29.40200
H  33.91000 51.11200 29.37700
H  33.67200 52.11600 27.88700
H  37.66100 51.56500 30.20800
H  38.50700 50.18200 29.37600
H  38.17700 50.41000 31.99800
H  37.89500 48.79300 31.24300
H  35.03300 55.81700 23.94700
H  34.80700 55.11800 25.48300
H  33.47200 54.92200 24.31700
H  33.43600 55.40300 21.21200
H  34.72600 55.99300 20.26400
H  34.95800 56.20300 22.00500
H  38.20400 49.92500 19.45600
H  38.22600 47.10100 20.23900
H  35.48400 49.06900 19.83400
H  36.34300 47.74400 18.97800
H  36.40800 49.41300 18.36000
H  40.17900 48.63500 19.35000
H  40.32200 47.09300 20.18600
H  41.28400 47.79200 22.03700
H  40.49900 49.34900 22.01600
H  41.81400 49.08900 20.85700
H  40.36400 45.06700 24.36500
H  38.91800 44.07800 24.87600
H  40.17800 44.68200 26.05500
H  38.53100 47.80300 29.21900
H  35.77000 44.80800 30.98700
H  35.54100 46.03600 32.14400
H  37.02200 44.96700 32.13400

