158

Mg 40.98200 9.99400 29.51600
C  42.70700 11.13300 32.45100
C  38.96100 8.09800 31.61100
C  39.43500 8.77600 26.79900
C  43.60800 11.14800 27.68800
N  40.80700 9.78500 31.84700
C  41.59600 10.36000 32.83200
C  40.99900 10.06200 34.20300
C  39.99500 8.89200 33.83800
C  39.96100 8.79400 32.31300
C  40.12200 7.59400 34.63400
C  40.45200 11.33200 34.86700
C  39.93900 11.15000 36.36100
H  40.49500 12.09200 37.45100
N  39.30600 8.75200 29.27500
C  38.65800 8.06900 30.26100
C  37.59100 7.28900 29.60800
C  37.63500 7.56100 28.19100
C  38.81300 8.36300 28.02400
C  36.75200 6.27400 30.36300
C  36.79300 7.03600 27.13200
O  36.93100 7.24400 25.95900
C  35.52800 6.28300 27.49500
N  41.38000 10.09900 27.54600
C  40.67700 9.45100 26.58900
C  41.38700 9.45200 25.18900
C  42.65800 10.28400 25.50300
C  42.57400 10.53700 27.02700
C  41.61600 8.11800 24.52000
C  42.79700 11.45500 24.55900
C  42.16900 12.81500 24.89900
N  42.79200 10.99300 29.92500
C  43.67600 11.48100 29.06000
C  44.74700 12.02900 29.77600
C  44.38400 12.00800 31.19200
C  43.18200 11.32700 31.13600
C  46.08500 12.35800 29.15100
C  44.83500 12.32800 32.52600
O  45.76300 12.95300 33.00100
C  43.69100 11.77400 33.42500
C  44.30000 10.88800 34.47200
O  44.97100 9.88600 34.17700
O  44.00400 11.31500 35.73900
C  44.76900 10.62000 36.81000
H  38.43700 7.56600 32.40800
H  39.17900 8.36100 25.82200
H  44.36000 11.57300 27.02000
H  41.91100 9.70100 34.67800
H  39.01400 9.13600 34.24400
H  40.20100 6.79300 33.89800
H  39.21200 7.53400 35.23100
H  40.96300 7.45600 35.31300
H  39.88600 11.97500 34.19400
H  41.28500 11.97500 35.15300
H  40.34900 10.16100 36.56400
H  38.85100 11.11300 36.29600
H  36.75600 5.38400 29.73300
H  35.73400 6.63500 30.51000
H  37.34900 6.14800 31.26700
H  34.78900 6.85400 28.05900
H  35.83000 5.34800 27.96700
H  34.96600 6.02300 26.59800
H  40.74500 10.03400 24.52800
H  43.53200 9.66000 25.31700
H  41.34500 7.32700 25.21900
H  42.65800 7.99300 24.22500
H  40.88800 8.07200 23.71000
H  42.51400 11.18600 23.54100
H  43.85100 11.73000 24.51700
H  41.47100 13.13800 24.12700
H  43.00500 13.51000 24.96900
H  41.64400 12.95100 25.84500
H  46.70200 12.60400 30.01500
H  46.11400 13.20500 28.46500
H  46.26600 11.44800 28.57900
H  43.30400 12.65800 33.93300
H  44.70300 11.20200 37.72900
H  45.81800 10.40700 36.60400
H  44.38900 9.60900 36.95500
Mg 48.79500 35.80400 27.81600
C  46.63100 34.07100 30.08600
C  48.72600 38.50300 29.99300
C  50.41000 37.55200 25.55000
C  48.09600 33.29800 25.50300
N  47.62500 36.28400 29.74300
C  47.13400 35.28200 30.56700
C  47.15900 35.81100 31.98500
C  47.45200 37.32700 31.81400
C  47.87700 37.45700 30.37000
C  46.23400 38.27400 32.08900
C  48.40100 35.18500 32.74000
C  48.19000 34.71500 34.19000
H  49.00000 35.49200 35.18700
N  49.64800 37.66800 27.92000
C  49.52900 38.61000 28.87200
C  50.53000 39.63000 28.59000
C  50.98600 39.40500 27.24500
C  50.32900 38.17200 26.81800
C  50.73800 40.75200 29.63500
C  52.09900 40.07100 26.47400
O  52.59500 39.55200 25.48000
C  52.70000 41.45600 27.03100
N  49.06100 35.50400 25.77600
C  49.85600 36.33700 25.08400
C  50.12400 35.78500 23.65200
C  49.43700 34.39300 23.74100
C  48.87100 34.37200 25.10000
C  49.59400 36.65200 22.37700
C  50.27000 33.14700 23.40500
C  51.18000 32.43900 24.37800
N  47.71300 33.96600 27.79500
C  47.46500 33.13000 26.73800
C  46.51600 32.07600 27.15800
C  46.11300 32.48500 28.40500
C  46.86300 33.59300 28.77800
C  46.02400 30.90900 26.26000
C  45.21300 32.16600 29.55400
O  44.45000 31.27100 29.74700
C  45.48000 33.29400 30.65100
C  45.80700 32.62300 31.92900
O  46.77800 31.96400 32.18900
O  44.89300 33.00800 32.84900
C  45.27300 32.78000 34.30700
H  48.95900 39.25800 30.74700
H  50.97600 38.01200 24.73800
H  47.80000 32.45100 24.88000
H  46.23000 35.52400 32.47800
H  48.27100 37.70200 32.42700
H  45.68200 37.97900 32.98100
H  45.67600 38.13900 31.16200
H  46.59000 39.30400 32.08700
H  49.23400 35.86700 32.57500
H  48.65700 34.27800 32.19300
H  48.35600 33.63800 34.19400
H  47.13400 34.87100 34.40700
H  50.83500 40.45600 30.67900
H  49.89000 41.43500 29.59500
H  51.63100 41.34000 29.42500
H  53.23800 42.07800 26.31500
H  53.42300 41.35200 27.84000
H  51.85200 41.95900 27.49600
H  51.18900 35.57100 23.56700
H  48.63400 34.42200 23.00400
H  50.40300 36.78400 21.65900
H  49.29700 37.65100 22.69400
H  48.67300 36.29400 21.91600
H  50.97600 33.43900 22.62800
H  49.59600 32.38700 23.01200
H  50.84000 31.40400 24.36000
H  51.11900 32.99900 25.31200
H  52.21600 32.28600 24.07600
H  45.46000 31.18900 25.37000
H  45.40500 30.23700 26.85400
H  46.79800 30.20900 25.94700
H  44.61000 33.95000 30.65000
H  46.27200 32.38200 34.48700
H  44.46100 32.13500 34.64400
H  45.16100 33.76800 34.75300

