158

Mg 44.41700 4.98400 48.00700
C  42.28100 7.81000 47.60700
C  41.72700 2.94500 47.52700
C  46.52800 2.39000 47.79200
C  47.16400 7.25300 48.12800
N  42.21300 5.40200 47.63900
C  41.52400 6.57000 47.58200
C  40.03800 6.40100 47.31500
C  39.93700 4.85700 47.72700
C  41.37500 4.28700 47.61700
C  39.34800 4.48500 49.04000
C  39.46300 7.11400 46.01400
C  38.40900 6.20900 45.32500
H  37.84800 6.64900 43.89800
N  44.14700 2.90600 47.76200
C  42.95900 2.28900 47.50600
C  43.25700 0.93600 47.28100
C  44.66800 0.71900 47.32800
C  45.19600 2.08700 47.68600
C  42.13600 -0.10000 47.11800
C  45.26400 -0.65100 47.15900
O  44.55300 -1.67100 46.98400
C  46.79300 -0.87000 47.24400
N  46.64400 4.82500 47.85200
C  47.22800 3.64000 47.94400
C  48.76100 3.75700 47.95400
C  48.92800 5.35600 47.97300
C  47.48700 5.83800 48.00800
C  49.49200 3.04300 49.10100
C  49.93000 5.89300 47.01400
C  50.94800 6.87900 47.64600
N  44.77700 7.07500 47.88000
C  45.85600 7.81900 47.97400
C  45.54900 9.19300 47.73700
C  44.19600 9.22900 47.64400
C  43.69200 7.95300 47.71900
C  46.57800 10.34200 47.43100
C  43.06000 10.14300 47.56700
O  43.03700 11.34900 47.59700
C  41.75800 9.22200 47.52700
C  40.86300 9.57500 48.64800
O  40.91500 9.09500 49.79900
O  39.93400 10.50000 48.27200
C  38.80200 10.82200 49.14900
H  40.94900 2.18900 47.40600
H  47.16100 1.50700 47.90300
H  48.04000 7.87500 47.93200
H  39.52700 6.99100 48.07500
H  39.33400 4.31700 46.99700
H  38.50300 3.80800 48.91700
H  38.98500 5.33000 49.62500
H  40.10800 4.04700 49.68600
H  40.27300 7.19800 45.28900
H  39.06000 8.06400 46.36600
H  37.61600 5.93100 46.02000
H  38.97400 5.30100 45.11500
H  42.08100 -0.38700 46.06800
H  41.16100 0.32000 47.36600
H  42.36400 -0.87200 47.85300
H  47.04600 -1.85900 46.86200
H  46.89800 -0.74400 48.32200
H  47.33800 -0.18100 46.59800
H  49.02900 3.37200 46.97000
H  49.35400 5.65200 48.93100
H  48.71000 2.78600 49.81500
H  50.28100 3.62300 49.58000
H  49.80100 2.11800 48.61500
H  49.45500 6.28200 46.11400
H  50.44300 5.01400 46.62300
H  50.69700 7.22400 48.64900
H  50.99600 7.85300 47.15900
H  51.95500 6.46900 47.71600
H  47.56000 10.21600 47.88700
H  46.20200 11.25300 47.89700
H  46.67600 10.57900 46.37200
H  41.16100 9.46100 46.64700
H  38.56600 11.88500 49.10000
H  38.87100 10.53700 50.19900
H  37.95200 10.28700 48.72700
Mg 40.98200 9.99400 29.51600
C  42.70700 11.13300 32.45100
C  38.96100 8.09800 31.61100
C  39.43500 8.77600 26.79900
C  43.60800 11.14800 27.68800
N  40.80700 9.78500 31.84700
C  41.59600 10.36000 32.83200
C  40.99900 10.06200 34.20300
C  39.99500 8.89200 33.83800
C  39.96100 8.79400 32.31300
C  40.12200 7.59400 34.63400
C  40.45200 11.33200 34.86700
C  39.93900 11.15000 36.36100
H  40.49500 12.09200 37.45100
N  39.30600 8.75200 29.27500
C  38.65800 8.06900 30.26100
C  37.59100 7.28900 29.60800
C  37.63500 7.56100 28.19100
C  38.81300 8.36300 28.02400
C  36.75200 6.27400 30.36300
C  36.79300 7.03600 27.13200
O  36.93100 7.24400 25.95900
C  35.52800 6.28300 27.49500
N  41.38000 10.09900 27.54600
C  40.67700 9.45100 26.58900
C  41.38700 9.45200 25.18900
C  42.65800 10.28400 25.50300
C  42.57400 10.53700 27.02700
C  41.61600 8.11800 24.52000
C  42.79700 11.45500 24.55900
C  42.16900 12.81500 24.89900
N  42.79200 10.99300 29.92500
C  43.67600 11.48100 29.06000
C  44.74700 12.02900 29.77600
C  44.38400 12.00800 31.19200
C  43.18200 11.32700 31.13600
C  46.08500 12.35800 29.15100
C  44.83500 12.32800 32.52600
O  45.76300 12.95300 33.00100
C  43.69100 11.77400 33.42500
C  44.30000 10.88800 34.47200
O  44.97100 9.88600 34.17700
O  44.00400 11.31500 35.73900
C  44.76900 10.62000 36.81000
H  38.43700 7.56600 32.40800
H  39.17900 8.36100 25.82200
H  44.36000 11.57300 27.02000
H  41.91100 9.70100 34.67800
H  39.01400 9.13600 34.24400
H  40.20100 6.79300 33.89800
H  39.21200 7.53400 35.23100
H  40.96300 7.45600 35.31300
H  39.88600 11.97500 34.19400
H  41.28500 11.97500 35.15300
H  40.34900 10.16100 36.56400
H  38.85100 11.11300 36.29600
H  36.75600 5.38400 29.73300
H  35.73400 6.63500 30.51000
H  37.34900 6.14800 31.26700
H  34.78900 6.85400 28.05900
H  35.83000 5.34800 27.96700
H  34.96600 6.02300 26.59800
H  40.74500 10.03400 24.52800
H  43.53200 9.66000 25.31700
H  41.34500 7.32700 25.21900
H  42.65800 7.99300 24.22500
H  40.88800 8.07200 23.71000
H  42.51400 11.18600 23.54100
H  43.85100 11.73000 24.51700
H  41.47100 13.13800 24.12700
H  43.00500 13.51000 24.96900
H  41.64400 12.95100 25.84500
H  46.70200 12.60400 30.01500
H  46.11400 13.20500 28.46500
H  46.26600 11.44800 28.57900
H  43.30400 12.65800 33.93300
H  44.70300 11.20200 37.72900
H  45.81800 10.40700 36.60400
H  44.38900 9.60900 36.95500

