158

Mg 24.82500 -7.86800 47.50500
C  26.95700 -5.23400 46.25900
C  22.46600 -6.94300 45.28000
C  23.24400 -10.70000 48.24400
C  27.75400 -9.06900 49.17900
N  24.84500 -6.36700 45.78000
C  25.71800 -5.31800 45.58800
C  25.16900 -4.25100 44.62200
C  23.66500 -4.75700 44.52200
C  23.64500 -6.09100 45.21500
C  22.74300 -3.68100 45.03500
C  26.02100 -4.17600 43.29600
C  26.58200 -2.76000 42.99000
H  26.28200 -2.26700 41.58700
N  23.05300 -8.67500 46.89900
C  22.17800 -8.09200 46.00200
C  20.98300 -8.83800 45.79000
C  21.15200 -9.93300 46.72600
C  22.48000 -9.81700 47.38200
C  19.86900 -8.47100 44.75700
C  20.05600 -11.04100 47.00900
O  19.03400 -11.02300 46.39600
C  20.42500 -12.04600 48.08400
N  25.46400 -9.66000 48.44100
C  24.53700 -10.61700 48.71300
C  25.15700 -11.67900 49.60400
C  26.52400 -11.09600 50.10300
C  26.61300 -9.87900 49.16400
C  24.27600 -12.28600 50.71000
C  27.79900 -12.04300 50.05100
C  28.76200 -12.16700 51.21000
N  26.88000 -7.25800 47.84000
C  27.93000 -7.82200 48.55000
C  29.05100 -6.96600 48.58800
C  28.72800 -5.90700 47.76100
C  27.41100 -6.20100 47.24500
C  30.29100 -7.28500 49.42700
C  29.12800 -4.62500 47.30100
O  30.16300 -3.95900 47.43800
C  28.03200 -4.21000 46.21300
C  27.56600 -2.81700 46.51600
O  26.58200 -2.45100 47.14500
O  28.37000 -1.89500 45.89400
C  27.90600 -0.53000 45.80700
H  21.74200 -6.54300 44.56700
H  22.78900 -11.64700 48.54100
H  28.41300 -9.46400 49.95400
H  25.15900 -3.27700 45.11100
H  23.31400 -4.90800 43.50100
H  23.28000 -2.79200 45.36600
H  22.12000 -4.04700 45.85100
H  22.07000 -3.45700 44.20700
H  25.47000 -4.49800 42.41300
H  26.90400 -4.81200 43.35700
H  27.65600 -2.93800 43.04100
H  26.34000 -1.91800 43.63800
H  20.15900 -8.66000 43.72400
H  19.51300 -7.44200 44.70900
H  18.93100 -9.00800 44.89600
H  21.19500 -12.69400 47.66700
H  19.57700 -12.70300 48.27900
H  20.71900 -11.47500 48.96500
H  25.43300 -12.53000 48.98100
H  26.52700 -10.74000 51.13300
H  23.31600 -11.80200 50.89100
H  24.85300 -12.18300 51.62900
H  24.10600 -13.34700 50.52600
H  28.44000 -11.74900 49.22000
H  27.31600 -12.99400 49.82600
H  29.75100 -12.20100 50.75400
H  28.53800 -13.05400 51.80300
H  28.73700 -11.21700 51.74400
H  29.98100 -7.52700 50.44400
H  30.89700 -6.37900 49.42200
H  30.75900 -8.20600 49.07700
H  28.46900 -4.14600 45.21700
H  26.83600 -0.59300 45.60700
H  28.45700 -0.07700 44.98300
H  28.03800 0.01000 46.74400
Mg 48.31500 14.28700 27.21900
C  46.36300 14.38300 30.26300
C  50.68300 16.23000 28.79400
C  50.09700 14.05900 24.48300
C  45.49000 13.00000 25.67800
N  48.41700 15.23600 29.29200
C  47.49900 15.20900 30.32800
C  48.03100 15.96700 31.52600
C  49.29700 16.70000 30.91200
C  49.52800 16.00700 29.59100
C  48.83100 18.20500 30.66500
C  48.28300 15.04200 32.72000
C  47.59600 15.31000 34.16200
H  48.45600 15.09900 35.42200
N  50.13500 15.04600 26.66600
C  50.97500 15.76100 27.52500
C  52.23200 15.97300 26.83000
C  52.20900 15.18900 25.63000
C  50.76400 14.72000 25.54400
C  53.36900 16.69000 27.50000
C  53.34800 14.83400 24.71700
O  53.17100 14.13700 23.73700
C  54.82100 15.29300 24.99000
N  47.80000 13.79600 25.28700
C  48.72200 13.83900 24.32900
C  48.21300 13.16800 22.98400
C  46.69500 12.80100 23.37900
C  46.59600 13.33400 24.82900
C  48.48000 14.11700 21.79400
C  46.36200 11.29800 23.20700
C  47.02200 10.34300 24.09900
N  46.36600 13.81100 27.82600
C  45.38200 13.20300 27.02400
C  44.30400 12.76300 27.85200
C  44.73100 13.22300 29.06600
C  45.91500 13.90100 29.01800
C  43.13600 11.88700 27.51300
C  44.21900 13.27200 30.40300
O  43.12900 12.98700 30.85900
C  45.28100 14.11600 31.26200
C  44.43200 15.28600 31.81600
O  44.30800 16.34500 31.32700
O  43.87600 14.87400 32.99500
C  42.98200 15.79800 33.72600
H  51.50000 16.77600 29.27000
H  50.76400 13.84700 23.64500
H  44.62100 12.53200 25.21300
H  47.27900 16.71300 31.78200
H  50.16000 16.64000 31.57400
H  49.50700 18.91800 31.13700
H  47.82100 18.39200 31.03000
H  48.95300 18.42000 29.60300
H  49.34400 14.90700 32.93000
H  48.03400 14.01100 32.46600
H  46.73400 14.64400 34.19700
H  47.35300 16.37200 34.15900
H  53.09600 17.68700 27.84600
H  54.27400 16.70700 26.89300
H  53.63600 16.08900 28.36900
H  55.22400 14.91500 25.93000
H  54.85100 16.37600 24.87400
H  55.34500 14.84700 24.14500
H  48.78100 12.24700 22.85500
H  46.05700 13.47000 22.80200
H  49.19600 13.72100 21.07400
H  49.02300 14.95900 22.22200
H  47.55900 14.53000 21.38200
H  46.72100 11.05700 22.20600
H  45.28700 11.13000 23.14900
H  47.52900 10.88500 24.89700
H  47.65900 9.64400 23.55600
H  46.26800 9.70200 24.55600
H  42.72500 11.37000 28.38000
H  43.52800 11.20300 26.76000
H  42.32000 12.46300 27.07600
H  45.57800 13.54400 32.14100
H  43.63300 16.64800 33.93200
H  42.56200 15.23200 34.55700
H  42.24900 16.15700 33.00300

