158

Mg -1.63300 16.93900 25.81100
C  -2.27800 14.65400 28.44700
C  -2.67600 19.48000 27.78100
C  -1.53100 18.96100 23.04100
C  -1.24300 14.18300 23.69500
N  -2.37800 17.01800 27.81700
C  -2.42600 16.01300 28.81100
C  -2.93200 16.56000 30.13400
C  -3.24900 18.04600 29.85200
C  -2.72900 18.24400 28.39700
C  -4.70700 18.50500 30.19800
C  -2.01300 16.13300 31.33200
C  -1.95600 17.11600 32.52400
H  -1.76000 16.53800 33.87300
N  -1.81200 19.02400 25.55200
C  -2.29000 19.91100 26.46700
C  -2.16600 21.25200 25.95900
C  -1.91700 21.01500 24.50500
C  -1.82000 19.60400 24.29200
C  -2.28700 22.51800 26.73900
C  -1.69600 22.10600 23.39800
O  -1.42100 21.91400 22.24200
C  -1.76700 23.57300 23.74000
N  -1.30700 16.63100 23.60700
C  -1.28600 17.60700 22.73800
C  -1.12900 17.02600 21.31800
C  -0.72400 15.52300 21.57400
C  -1.08900 15.41200 23.02900
C  -2.38900 17.26700 20.40600
C  0.77900 15.16800 21.29400
C  1.73600 15.56900 22.47800
N  -1.78600 14.89000 25.99500
C  -1.54200 13.83600 25.06500
C  -1.58700 12.57800 25.71200
C  -1.95100 12.87400 27.02700
C  -1.94100 14.26400 27.14600
C  -1.41200 11.29200 25.04300
C  -2.27800 12.18600 28.25300
O  -2.33200 11.01100 28.54000
C  -2.57200 13.41400 29.22700
C  -1.62700 13.10900 30.29900
O  -0.38900 13.17300 30.23900
O  -2.34000 12.69300 31.37900
C  -1.69900 12.28700 32.60900
H  -2.91000 20.26400 28.50300
H  -1.68100 19.65700 22.21300
H  -1.04100 13.28200 23.11000
H  -3.89000 16.06300 30.28500
H  -2.64300 18.74800 30.42400
H  -4.60600 19.11700 31.09400
H  -5.35300 17.63800 30.33800
H  -5.07900 19.16500 29.41500
H  -0.98100 16.06400 30.98700
H  -2.44800 15.25500 31.80900
H  -2.94300 17.56600 32.63200
H  -1.20600 17.89200 32.37100
H  -2.37200 22.37600 27.81600
H  -3.23300 23.01100 26.51400
H  -1.46700 23.22000 26.58900
H  -1.14900 23.87400 24.58600
H  -2.78300 23.75000 24.09100
H  -1.66100 24.09700 22.79100
H  -0.30600 17.45900 20.74900
H  -1.34500 14.91400 20.91700
H  -2.04800 17.50900 19.39900
H  -2.92800 18.11400 20.82800
H  -2.87100 16.29800 20.27400
H  1.18200 15.66500 20.41200
H  0.94500 14.09600 21.18600
H  1.37200 16.46600 22.97800
H  2.75300 15.81500 22.17100
H  1.72000 14.75900 23.20700
H  -0.72500 10.69300 25.64100
H  -1.10100 11.41500 24.00600
H  -2.35200 10.75200 24.92600
H  -3.58900 13.48300 29.61400
H  -1.76700 13.03000 33.40300
H  -0.68500 11.92000 32.44500
H  -2.28100 11.45400 33.00300
Mg 16.99400 -2.86500 27.99500
C  15.79500 -0.85600 30.64700
C  18.84200 -4.71000 30.32900
C  18.31200 -4.54300 25.44100
C  15.19400 -0.95600 25.79300
N  17.32700 -2.62000 30.27100
C  16.71200 -1.82500 31.12200
C  17.05100 -2.17300 32.58300
C  18.14000 -3.33100 32.37900
C  18.15400 -3.57600 30.86000
C  19.53900 -3.03700 32.88100
C  15.80800 -2.51600 33.51500
C  15.86300 -1.94400 34.95900
H  17.11700 -1.22700 35.53300
N  18.42100 -4.43700 27.93600
C  19.00700 -5.08500 28.98100
C  19.78900 -6.19000 28.44200
C  19.67600 -6.11700 27.02100
C  18.74800 -5.05000 26.74800
C  20.57800 -7.10400 29.30800
C  20.42100 -7.01000 25.93600
O  20.27800 -6.72700 24.72900
C  21.34800 -8.07900 26.35100
N  16.87300 -2.67400 25.87800
C  17.56800 -3.43400 24.99000
C  17.38100 -2.84800 23.53800
C  16.27400 -1.76100 23.66400
C  16.02600 -1.86100 25.22900
C  18.77800 -2.37900 22.82200
C  15.01400 -2.09200 22.76100
C  14.62800 -0.88600 21.83700
N  15.63000 -1.35400 28.18400
C  14.97100 -0.68300 27.15000
C  14.17800 0.36200 27.69900
C  14.44500 0.35300 29.12500
C  15.30100 -0.74000 29.36000
C  13.37200 1.39200 26.91900
C  14.20400 1.06300 30.32400
O  13.59300 2.10900 30.53800
C  15.02600 0.21600 31.45600
C  15.88500 1.16100 32.24900
O  17.07500 1.23100 32.22500
O  15.20800 1.91200 33.16000
C  15.81500 2.83100 34.12700
H  19.32400 -5.32900 31.08800
H  18.66000 -5.08600 24.56000
H  14.60500 -0.47900 25.00800
H  17.52300 -1.25500 32.93400
H  17.85500 -4.28700 32.81700
H  19.54600 -2.08300 33.40900
H  20.23300 -2.84700 32.06200
H  19.99800 -3.87800 33.40000
H  15.76700 -3.59400 33.66700
H  14.93600 -2.10600 33.00500
H  15.62900 -2.71800 35.69000
H  15.05400 -1.21300 34.95800
H  20.46700 -6.83300 30.35800
H  21.64500 -6.99000 29.11600
H  20.44300 -8.17900 29.19000
H  20.74100 -8.74300 26.96600
H  22.14100 -7.67600 26.98200
H  21.76800 -8.56900 25.47200
H  17.01100 -3.71700 22.99400
H  16.62600 -0.75600 23.43200
H  18.81800 -1.31400 22.58900
H  19.20500 -2.96300 22.00800
H  19.51000 -2.36400 23.63000
H  14.23500 -2.56600 23.35800
H  15.33800 -2.90300 22.10900
H  14.02800 -1.10300 20.95300
H  15.49700 -0.29600 21.54500
H  14.08400 -0.14900 22.42900
H  12.93400 0.90400 26.04900
H  14.01600 2.23300 26.66000
H  12.46700 1.64900 27.47000
H  14.35800 -0.29800 32.14800
H  16.03900 3.76500 33.61200
H  16.79700 2.53600 34.49600
H  15.03100 2.92400 34.87900

