158

Mg 36.03000 48.56900 24.05900
C  36.51700 46.77000 27.04400
C  34.33700 50.93200 25.77500
C  35.39700 49.98200 21.14600
C  37.37000 45.65800 22.26200
N  35.46500 48.74200 26.14500
C  35.93600 48.04200 27.29500
C  35.54600 48.65600 28.56100
C  34.71900 49.92500 28.09100
C  34.76000 49.83200 26.58300
C  33.29000 50.19000 28.70100
C  36.84300 49.07900 29.34400
C  36.85800 48.89600 30.89600
H  35.56000 49.14400 31.63000
N  35.08200 50.25200 23.47500
C  34.40800 51.12600 24.33800
C  34.03000 52.30100 23.59900
C  34.23700 51.99200 22.21400
C  34.95600 50.69900 22.18800
C  33.56300 53.51200 24.31500
C  33.80500 52.78300 20.98700
O  34.12400 52.50200 19.82800
C  33.18400 54.10000 21.28300
N  36.46600 47.99200 21.99000
C  36.11300 48.80200 21.03000
C  36.49500 48.29600 19.63600
C  37.25600 46.90000 19.97500
C  37.07600 46.83500 21.47800
C  35.28500 48.02300 18.61400
C  38.81500 46.94800 19.65500
C  39.26900 46.18300 18.44000
N  36.73100 46.68200 24.50000
C  37.20400 45.60700 23.66300
C  37.36600 44.41400 24.50700
C  37.17400 44.87400 25.83300
C  36.72300 46.20300 25.77000
C  37.57200 43.03400 24.02000
C  37.27100 44.42200 27.26700
O  37.65100 43.42700 27.79400
C  36.87800 45.68400 28.04400
C  35.75900 45.44100 28.97300
O  34.62500 45.34700 28.59700
O  36.21100 45.28700 30.28000
C  35.11600 45.01500 31.27800
H  33.84700 51.73800 26.32500
H  35.23600 50.42600 20.16200
H  37.70500 44.76000 21.73700
H  34.80000 48.09500 29.12400
H  35.28800 50.82900 28.31200
H  33.37200 49.74500 29.69200
H  32.50000 49.71200 28.12000
H  33.08300 51.25800 28.76100
H  37.12500 50.07500 29.00300
H  37.66900 48.50400 28.92600
H  37.65600 49.52900 31.28400
H  37.24300 47.88600 31.03300
H  34.14800 54.30200 23.84300
H  33.81900 53.48600 25.37400
H  32.48100 53.48500 24.19200
H  32.27400 53.80500 21.80700
H  33.05000 54.53300 20.29100
H  33.78500 54.76100 21.90800
H  37.25900 48.96200 19.23500
H  36.80900 46.06900 19.43000
H  34.48300 48.69000 18.93200
H  34.93400 46.99100 18.58600
H  35.48800 48.38700 17.60700
H  39.47100 46.63400 20.46700
H  39.22100 47.94900 19.50800
H  38.49700 45.92500 17.71500
H  39.76800 45.23100 18.62000
H  39.96000 46.88500 17.97400
H  37.56100 42.33700 24.85800
H  38.55800 42.85700 23.59000
H  36.84500 42.68800 23.28500
H  37.69500 45.99400 28.69400
H  35.60900 44.94200 32.24700
H  34.75600 43.99600 31.13600
H  34.22600 45.64400 31.26900
Mg -1.84500 34.60100 27.51000
C  -3.56600 32.82600 29.75400
C  -0.68200 36.72200 29.87600
C  -0.67800 36.72500 25.01700
C  -3.41300 32.71900 24.86200
N  -2.31500 34.92400 29.49100
C  -2.83200 33.88000 30.28800
C  -2.80500 34.27700 31.79700
C  -2.03500 35.67100 31.72400
C  -1.65900 35.80900 30.26100
C  -3.01100 36.87200 32.25600
C  -2.08000 33.19600 32.61500
C  -2.79300 32.68000 33.92700
H  -1.87400 32.56400 35.16100
N  -0.71600 36.34000 27.49400
C  -0.23600 37.01200 28.57800
C  0.75400 38.02300 28.26500
C  0.69600 38.05800 26.81900
C  -0.28500 37.02400 26.37200
C  1.54800 38.89500 29.27300
C  1.40300 39.13400 25.95000
O  1.38400 39.08000 24.71300
C  2.26200 40.18500 26.60600
N  -2.24500 34.83100 25.29400
C  -1.54700 35.72900 24.52100
C  -1.69900 35.48600 23.09000
C  -2.34500 34.10500 23.04500
C  -2.71200 33.85600 24.45000
C  -2.43100 36.63000 22.27200
C  -1.66900 32.90900 22.35500
C  -0.38100 32.42300 22.95400
N  -3.22900 33.01700 27.31000
C  -3.66400 32.29400 26.18400
C  -4.59600 31.22300 26.63800
C  -4.48700 31.34400 28.07600
C  -3.69000 32.45700 28.36200
C  -5.39000 30.31400 25.84400
C  -4.84900 30.74600 29.37300
O  -5.54400 29.73000 29.64100
C  -4.19800 31.64000 30.47200
C  -5.24800 32.04500 31.47300
O  -5.87500 33.06800 31.44400
O  -5.55000 31.00400 32.31000
C  -6.29800 31.35600 33.53900
H  -0.17600 37.16400 30.73600
H  -0.26400 37.36700 24.23700
H  -3.84900 32.05400 24.11400
H  -3.81000 34.31200 32.21700
H  -1.09800 35.63000 32.28000
H  -3.62200 37.30300 31.46300
H  -2.44500 37.68100 32.71900
H  -3.61700 36.48200 33.07400
H  -1.08400 33.53000 32.90500
H  -1.84800 32.27600 32.07900
H  -3.21100 31.70800 33.66500
H  -3.65000 33.32700 34.11800
H  1.57300 38.50000 30.28900
H  1.13600 39.89400 29.41600
H  2.57000 38.98100 28.90500
H  1.83500 40.73100 27.44700
H  2.54600 40.87400 25.81000
H  3.18500 39.64700 26.82500
H  -0.69800 35.37300 22.67400
H  -3.34700 34.28500 22.65500
H  -3.45100 36.47200 21.92400
H  -1.89800 36.84100 21.34500
H  -2.32500 37.52900 22.88000
H  -1.57100 33.23200 21.31900
H  -2.41800 32.12100 22.27600
H  0.27300 32.56100 22.09200
H  -0.51100 31.38700 23.26800
H  -0.17200 32.96300 23.87700
H  -4.84900 29.44600 25.46700
H  -5.60500 30.73100 24.86100
H  -6.27500 30.18300 26.46700
H  -3.54100 31.09400 31.14900
H  -5.90900 32.20000 34.10900
H  -6.20700 30.43500 34.11400
H  -7.33000 31.67500 33.39200

