158

Mg -2.17200 17.50900 26.78400
C  -2.29000 15.37400 29.49600
C  -2.76200 20.13900 28.89100
C  -1.95000 19.33300 24.04900
C  -1.89600 14.58000 24.62900
N  -2.57400 17.68300 28.97600
C  -2.58000 16.68900 29.91100
C  -2.81400 17.31400 31.34200
C  -2.93400 18.81500 31.07200
C  -2.84400 18.92700 29.53100
C  -4.28800 19.41100 31.51000
C  -1.77200 16.98100 32.54700
C  -1.90800 17.75500 33.85200
H  -2.03200 17.05500 35.19400
N  -2.32600 19.53000 26.53100
C  -2.57200 20.44200 27.50100
C  -2.53300 21.74100 26.87400
C  -2.50300 21.49200 25.47100
C  -2.25300 20.11600 25.24700
C  -2.87500 23.06000 27.61400
C  -2.55000 22.51600 24.28300
O  -2.75500 22.16000 23.14100
C  -2.69800 23.99700 24.58900
N  -1.71700 16.98500 24.68400
C  -1.79200 17.96100 23.81500
C  -1.73700 17.45000 22.34700
C  -1.43800 15.92200 22.52500
C  -1.71100 15.79700 23.99900
C  -3.03600 17.80700 21.51500
C  0.00800 15.65800 22.29100
C  1.18000 16.57500 22.83900
N  -2.15100 15.43300 26.95400
C  -1.98700 14.38200 26.00500
C  -2.02700 13.09900 26.70400
C  -2.07400 13.45000 28.04400
C  -2.23900 14.87000 28.18300
C  -2.07000 11.76900 26.17700
C  -2.14900 12.89000 29.39700
O  -2.16500 11.73500 29.73700
C  -2.23200 14.09200 30.32600
C  -1.07400 14.03700 31.29700
O  0.04300 14.52800 31.08700
O  -1.49700 13.33500 32.43500
C  -0.50100 13.40000 33.51100
H  -2.91800 20.99400 29.55100
H  -1.81400 19.91200 23.13300
H  -1.87200 13.67500 24.01900
H  -3.81300 16.92800 31.54800
H  -2.19600 19.46200 31.54600
H  -4.98300 19.57600 30.68800
H  -4.05300 20.34800 32.01500
H  -4.76700 18.85100 32.31400
H  -0.74300 17.23900 32.29600
H  -1.80700 15.90400 32.71500
H  -2.86300 18.27300 33.76400
H  -1.04900 18.35700 34.15200
H  -3.91400 23.22800 27.33100
H  -2.18100 23.88800 27.46600
H  -2.91900 22.86300 28.68500
H  -1.80800 24.54700 24.89500
H  -3.53900 24.14700 25.26600
H  -3.17800 24.41400 23.70300
H  -0.89800 17.95700 21.87100
H  -2.04800 15.20800 21.97200
H  -3.61500 18.50700 22.11700
H  -3.64800 16.96500 21.19200
H  -2.74800 18.37200 20.62900
H  0.15300 15.50500 21.22200
H  0.26200 14.73400 22.81000
H  0.91500 17.46400 23.41200
H  1.77500 17.01000 22.03600
H  1.89400 16.06800 23.48800
H  -1.48100 11.04300 26.73800
H  -2.07000 11.65800 25.09300
H  -3.08300 11.42600 26.39000
H  -3.16800 14.02600 30.88000
H  0.48600 13.02800 33.23900
H  -0.70100 12.75800 34.36900
H  -0.38100 14.43700 33.82500
Mg 30.46900 57.06400 39.27800
C  28.03700 54.74100 38.38100
C  32.73500 54.75200 38.07900
C  32.80100 59.47200 39.50500
C  28.07100 59.49600 40.06900
N  30.33000 55.04400 38.17800
C  29.27200 54.23500 38.11200
C  29.59500 52.85400 37.54100
C  31.12900 52.85100 37.62300
C  31.44000 54.31000 37.98200
C  31.68900 51.81100 38.62500
C  29.00300 52.39800 36.21200
C  29.41100 53.08200 34.93700
H  28.34400 53.89700 34.19200
N  32.55000 57.07600 38.85300
C  33.29900 56.00900 38.48200
C  34.71300 56.45600 38.42400
C  34.76200 57.75700 38.87200
C  33.35400 58.15200 39.10900
C  35.83700 55.53700 37.88300
C  36.09300 58.49700 39.03200
O  37.13700 57.91700 38.85000
C  36.14300 59.94000 39.43400
N  30.44100 59.29600 39.59200
C  31.56900 60.04200 39.78900
C  31.24200 61.51700 39.99800
C  29.70400 61.51000 40.18500
C  29.37500 59.98300 40.00500
C  32.17800 62.33500 40.89000
C  28.90600 62.49900 39.15500
C  27.96000 63.60400 39.85400
N  28.47000 57.18900 39.23900
C  27.61200 58.24100 39.66500
C  26.26800 57.78200 39.31500
C  26.37500 56.41400 38.99400
C  27.70200 56.10400 38.85700
C  24.96200 58.44000 39.44700
C  25.61900 55.24700 38.62000
O  24.39300 55.07600 38.63400
C  26.70200 54.13700 38.32500
C  26.35700 53.11300 39.35400
O  26.95600 52.80600 40.41900
O  25.25500 52.48200 38.91700
C  24.62900 51.42200 39.69900
H  33.41400 53.97500 37.72200
H  33.59100 60.19900 39.70300
H  27.29100 60.25500 40.16600
H  29.14300 52.29300 38.35900
H  31.55300 52.63500 36.64200
H  32.19200 51.18700 37.88600
H  30.90500 51.23100 39.11200
H  32.41900 52.35700 39.22300
H  27.92700 52.43600 36.38400
H  29.19400 51.32800 36.13200
H  29.89800 52.34400 34.29800
H  30.08600 53.85700 35.30000
H  36.45800 56.05800 37.15400
H  35.47200 54.62100 37.41600
H  36.58100 55.20800 38.60800
H  37.19300 60.22900 39.41300
H  35.62800 59.98000 40.39400
H  35.55600 60.50100 38.70700
H  31.54600 61.86100 39.00900
H  29.37100 61.80800 41.17900
H  32.90900 61.74700 41.44600
H  31.46200 62.82100 41.55200
H  32.67500 63.18600 40.42300
H  28.34500 62.11400 38.30300
H  29.68300 63.09400 38.67600
H  27.45200 63.12500 40.69100
H  27.22900 63.97600 39.13600
H  28.62700 64.43100 40.10000
H  25.05600 59.52100 39.54400
H  24.46000 58.06000 40.33700
H  24.43100 58.13200 38.54600
H  26.54300 53.68100 37.34800
H  24.45400 50.56900 39.04400
H  23.74500 51.82100 40.19800
H  25.32400 51.04800 40.45100

