158

Mg 45.62700 3.34000 47.30700
C  43.33800 5.98500 46.58400
C  43.10600 1.16000 46.85100
C  48.02100 1.01800 47.19300
C  48.20100 5.85200 47.02000
N  43.54200 3.60700 46.60000
C  42.80600 4.72200 46.61100
C  41.30700 4.39400 46.36800
C  41.23400 2.83200 46.56800
C  42.75000 2.50000 46.66800
C  40.36000 2.40000 47.74900
C  40.84900 4.88900 44.99100
C  39.64200 5.82100 44.91200
H  39.66200 7.02800 43.93600
N  45.59200 1.28700 47.06100
C  44.43900 0.55700 47.08300
C  44.77900 -0.79300 47.41500
C  46.23600 -0.88100 47.42800
C  46.69400 0.48800 47.22000
C  43.85700 -1.90700 47.57000
C  47.12600 -2.19400 47.68300
O  46.64000 -3.30900 47.98000
C  48.62800 -2.15300 47.59500
N  47.82600 3.46600 46.90300
C  48.53600 2.30700 47.09100
C  49.99200 2.60900 47.20600
C  50.08800 4.12700 47.24000
C  48.63200 4.52700 46.95100
C  50.84400 1.99400 48.38900
C  51.16700 4.63800 46.28500
C  52.54000 5.04900 46.77900
N  45.80500 5.47300 46.75800
C  46.87000 6.27900 46.87600
C  46.50100 7.66200 46.85400
C  45.05800 7.59700 46.77900
C  44.74800 6.22300 46.65800
C  47.37100 8.90800 46.85100
C  43.84700 8.38600 46.71800
O  43.67600 9.59500 46.79600
C  42.72400 7.32500 46.56100
C  41.88400 7.56200 47.75600
O  41.94100 6.89500 48.78700
O  40.80000 8.36500 47.43000
C  39.70400 8.39000 48.34300
H  42.29400 0.43800 46.95500
H  48.78400 0.24600 47.31200
H  48.97100 6.62400 46.95600
H  40.55600 4.80100 47.04500
H  40.95500 2.32300 45.64600
H  39.43300 2.97300 47.78200
H  40.80100 2.59100 48.72700
H  40.10500 1.34300 47.67400
H  40.44200 4.04100 44.43900
H  41.61500 5.27400 44.31800
H  39.32400 6.22800 45.87200
H  38.77500 5.22600 44.62500
H  43.56000 -2.06300 48.60800
H  44.24800 -2.82600 47.13400
H  42.94400 -1.74500 46.99700
H  49.09700 -3.13600 47.54900
H  49.17300 -1.55700 48.32700
H  48.99800 -1.69600 46.67700
H  50.48300 2.16700 46.33900
H  50.42600 4.44000 48.22800
H  50.10200 1.69400 49.13000
H  51.48300 2.75600 48.83700
H  51.36400 1.06300 48.16500
H  50.72900 5.44700 45.70100
H  51.26100 3.90300 45.48500
H  52.77100 6.10900 46.66500
H  53.20700 4.44500 46.16400
H  52.67000 4.71700 47.80900
H  48.42100 8.62000 46.78700
H  47.27800 9.58800 47.69800
H  47.03700 9.43200 45.95600
H  42.15100 7.46800 45.64400
H  39.29500 9.33200 48.70900
H  39.97600 7.92600 49.29100
H  38.89800 7.83500 47.86300
Mg 41.01600 9.19200 29.61900
C  43.00600 10.27800 32.26200
C  38.59100 8.10300 32.00500
C  39.11600 7.89700 27.12000
C  43.45300 9.92100 27.48800
N  40.84900 9.19800 31.90700
C  41.76000 9.78700 32.72400
C  41.16900 9.70400 34.17800
C  39.87300 8.79100 34.07500
C  39.71200 8.78900 32.52900
C  39.75900 7.48500 34.80700
C  40.88800 11.14100 34.67000
C  40.03100 11.34500 35.96600
H  40.63700 12.09800 37.19800
N  39.07700 8.13700 29.51300
C  38.24500 7.77900 30.62000
C  37.15000 6.96200 30.11200
C  37.16400 7.15100 28.67600
C  38.52100 7.71600 28.38500
C  36.24900 6.20400 31.01700
C  36.15800 6.77500 27.71000
O  36.29100 7.01400 26.52400
C  34.84800 6.14900 28.17600
N  41.26900 8.81300 27.62700
C  40.39500 8.34300 26.77200
C  40.82900 8.51100 25.31700
C  42.14500 9.26900 25.42200
C  42.31700 9.35100 26.98400
C  40.78500 7.16900 24.45400
C  42.39400 10.58000 24.62200
C  41.56700 11.78700 24.96500
N  42.90800 9.89300 29.86000
C  43.84300 10.19700 28.85200
C  45.03500 10.86500 29.43600
C  44.69600 10.86600 30.83700
C  43.49700 10.26600 31.04500
C  46.25200 11.44500 28.66300
C  45.18900 11.30400 32.07000
O  46.31300 11.79100 32.39900
C  44.01500 11.08500 33.05600
C  44.52900 10.41800 34.31100
O  45.07700 9.34800 34.31100
O  44.42400 11.25300 35.40300
C  44.94300 10.64900 36.63100
H  37.79900 7.84600 32.71200
H  38.61300 7.48300 26.24300
H  44.24700 10.28500 26.83200
H  41.87000 9.14100 34.79400
H  39.00400 9.36000 34.40600
H  40.64600 7.35600 35.42800
H  39.45300 6.74900 34.06300
H  38.92600 7.51700 35.50900
H  40.45800 11.75600 33.88000
H  41.90600 11.51900 34.76200
H  39.64200 10.41600 36.38300
H  39.15000 11.87200 35.60000
H  35.28300 6.69900 31.12400
H  36.59700 6.08900 32.04400
H  36.07500 5.20800 30.60900
H  34.45400 6.67500 29.04500
H  34.92800 5.07600 28.34800
H  34.02700 6.31300 27.47800
H  40.11900 9.22200 24.89300
H  42.95900 8.69100 24.98300
H  40.54300 6.33900 25.11800
H  41.75100 7.09900 23.95300
H  40.07100 7.28100 23.63800
H  42.05700 10.28900 23.62700
H  43.46800 10.74200 24.53000
H  42.36300 12.47100 25.26200
H  40.86400 11.48900 25.74300
H  41.01500 12.00500 24.05100
H  46.21400 11.16600 27.61000
H  47.07000 11.01600 29.24100
H  46.27700 12.53500 28.68500
H  43.60900 12.05600 33.33700
H  44.87700 9.56500 36.54200
H  44.37300 11.02700 37.47900
H  45.98100 10.85300 36.89500

