158

Mg 47.25600 25.18500 28.77000
C  48.08800 27.31100 31.52900
C  46.24200 22.83100 31.09500
C  47.04200 23.07900 26.25100
C  48.85400 27.46300 26.71500
N  47.57300 24.93600 31.09200
C  47.56500 26.07900 31.97200
C  47.16300 25.62400 33.50400
C  46.86700 24.10500 33.30600
C  46.86900 23.91600 31.70900
C  47.93700 23.17600 34.06600
C  46.04000 26.45400 34.15500
C  46.32000 27.06800 35.52000
H  45.11100 27.22400 36.46200
N  46.59300 23.36100 28.60100
C  46.14000 22.52800 29.68900
C  45.59900 21.27600 29.14600
C  45.90000 21.20900 27.75000
C  46.51100 22.59200 27.46700
C  44.84600 20.23200 30.04700
C  45.83700 19.97500 26.81200
O  46.19000 20.08900 25.64400
C  45.22100 18.73000 27.26800
N  47.91500 25.23200 26.82200
C  47.65300 24.30600 25.89900
C  47.80400 24.77700 24.47400
C  48.17900 26.27200 24.68700
C  48.35300 26.37300 26.18500
C  48.82100 23.99200 23.59100
C  47.06500 27.32900 24.21200
C  47.56100 28.75600 23.82300
N  48.24300 27.03700 29.03600
C  48.85600 27.80200 28.07900
C  49.25000 29.02600 28.63300
C  48.98000 28.91400 30.00700
C  48.37900 27.64600 30.20400
C  49.90400 30.13200 27.90300
C  48.98700 29.60600 31.29500
O  49.21200 30.74600 31.61800
C  48.53300 28.48600 32.39500
C  49.55000 28.13600 33.35900
O  50.63700 27.58800 33.15100
O  49.18100 28.75700 34.57000
C  50.05000 28.31600 35.64900
H  45.87800 22.02800 31.73900
H  46.90100 22.38000 25.42400
H  49.34300 28.13600 26.00800
H  47.94100 25.75100 34.25700
H  45.86000 23.88000 33.65700
H  47.54700 22.84600 35.02900
H  48.88200 23.71900 34.08700
H  48.23000 22.29100 33.50000
H  45.20400 25.80100 34.40700
H  45.61200 27.20400 33.49000
H  46.76900 28.05800 35.43500
H  47.09400 26.48200 36.01800
H  43.99400 19.82300 29.50400
H  44.36700 20.75000 30.87700
H  45.41600 19.39200 30.44400
H  45.83800 18.40700 28.10700
H  45.28300 17.95700 26.50200
H  44.20300 19.02500 27.52100
H  46.82800 24.78700 23.98900
H  49.11900 26.49700 24.18400
H  49.31200 23.15100 24.08000
H  49.62800 24.67400 23.32000
H  48.34400 23.77500 22.63500
H  46.29000 27.35900 24.97800
H  46.59400 26.87300 23.34200
H  47.31000 29.57100 24.50100
H  47.18700 29.07200 22.84900
H  48.64700 28.68500 23.77500
H  49.20800 30.64400 27.23900
H  50.80600 29.76300 27.41500
H  50.33900 30.80900 28.63900
H  47.65700 28.86000 32.92600
H  49.50300 27.50100 36.12200
H  50.31800 29.00900 36.44600
H  51.01400 27.87600 35.39200
Mg -10.07200 17.05900 42.88900
C  -6.73700 17.94800 42.69600
C  -10.81200 20.41400 42.25400
C  -13.08200 16.14600 42.26800
C  -9.08400 13.68600 42.82600
N  -8.90900 18.90700 42.38100
C  -7.55100 19.02500 42.44400
C  -7.07900 20.46100 42.17800
C  -8.41500 21.21300 42.42600
C  -9.47500 20.15300 42.29900
C  -8.34700 21.96000 43.80100
C  -6.52200 20.60500 40.69500
C  -5.02000 20.83000 40.55600
H  -4.26800 19.85200 39.58200
N  -11.71800 18.15400 42.25000
C  -11.89900 19.52000 42.17800
C  -13.31700 19.79200 41.81700
C  -13.96700 18.50700 41.68000
C  -12.92300 17.53200 42.05300
C  -13.87100 21.24200 41.57000
C  -15.44500 18.38800 41.32600
O  -16.16800 19.36900 41.21700
C  -16.02200 16.97500 41.00200
N  -10.95700 15.17800 42.46300
C  -12.22600 15.09100 42.50200
C  -12.71700 13.76600 42.81700
C  -11.47900 12.89500 43.00900
C  -10.43000 13.95300 42.65000
C  -13.76200 13.79100 44.02200
C  -11.45200 11.58100 42.18100
C  -11.29900 10.26800 43.08800
N  -8.33600 16.01400 42.83200
C  -8.03000 14.63300 42.79600
C  -6.58400 14.38800 42.97000
C  -6.07900 15.64100 42.90400
C  -7.14800 16.60000 42.79300
C  -5.92000 13.00200 43.20500
C  -4.77500 16.38500 42.98200
O  -3.60400 15.86300 43.02800
C  -5.21500 17.91100 42.95400
C  -4.90700 18.49700 44.30000
O  -5.11500 18.00500 45.42400
O  -4.55500 19.79300 44.09900
C  -3.84700 20.39400 45.27100
H  -11.12900 21.44700 42.09600
H  -14.13100 15.84100 42.28200
H  -8.73800 12.67100 43.03400
H  -6.27700 20.86100 42.79800
H  -8.61900 22.04700 41.75500
H  -7.87800 22.93000 43.63800
H  -7.86700 21.36000 44.57500
H  -9.33100 22.16200 44.22400
H  -6.95800 21.46000 40.17700
H  -6.70600 19.66300 40.17800
H  -4.47300 20.88700 41.49700
H  -4.85000 21.83200 40.16200
H  -13.32100 22.00900 42.11500
H  -14.90400 21.30800 41.91100
H  -13.75900 21.53800 40.52700
H  -15.24500 16.39900 40.50000
H  -16.91900 17.25100 40.44600
H  -16.28600 16.56100 41.97500
H  -13.36500 13.40000 42.02000
H  -11.32600 12.71600 44.07300
H  -13.54500 14.57300 44.75000
H  -13.48400 12.85100 44.50000
H  -14.81700 13.92200 43.78200
H  -10.63600 11.50000 41.46300
H  -12.35000 11.54900 41.56400
H  -10.85600 10.55900 44.04000
H  -10.63000 9.54400 42.62300
H  -12.34200 9.95200 43.08400
H  -4.85300 13.05300 42.99200
H  -6.36700 12.30900 42.49200
H  -6.08700 12.62400 44.21300
H  -4.63900 18.45300 42.20500
H  -4.53500 20.53600 46.10500
H  -3.33300 21.33500 45.07700
H  -3.05900 19.71100 45.59000

