158

Mg 44.17900 4.10500 47.63200
C  42.15900 6.93400 47.04400
C  41.37100 2.12300 47.39200
C  46.25800 1.54300 47.94200
C  47.02300 6.37300 47.53000
N  41.99400 4.52700 47.13000
C  41.44500 5.72400 46.98200
C  39.97200 5.55500 46.56700
C  39.63900 4.09300 47.01400
C  41.08200 3.47900 47.17500
C  38.83600 3.94300 48.25500
C  39.77000 5.79500 45.07600
C  38.85500 6.97100 44.65800
H  39.27700 7.72100 43.46000
N  43.88900 2.05800 47.73600
C  42.62600 1.45200 47.57200
C  42.78600 0.05700 47.69200
C  44.18400 -0.18600 47.95800
C  44.85100 1.14900 47.90600
C  41.75700 -0.94500 47.46600
C  44.74800 -1.60800 48.08800
O  44.10500 -2.65700 48.02000
C  46.21200 -1.75200 48.25000
N  46.31700 3.98200 47.59500
C  46.86600 2.78800 47.83500
C  48.40500 2.90300 47.70000
C  48.65700 4.44900 47.55400
C  47.23400 5.00400 47.47800
C  49.31400 2.19100 48.79700
C  49.59600 4.88500 46.38700
C  50.73000 5.89300 46.69700
N  44.60800 6.30100 47.40800
C  45.77300 7.04200 47.50200
C  45.39400 8.48500 47.43000
C  44.00600 8.50700 47.23300
C  43.57100 7.12000 47.17200
C  46.27100 9.76000 47.69900
C  42.79600 9.39200 47.08900
O  42.64000 10.56900 47.05000
C  41.59300 8.36800 46.86000
C  40.40700 8.56800 47.84900
O  40.31900 8.01500 48.90700
O  39.54800 9.51800 47.32600
C  38.35600 9.80900 48.11600
H  40.49200 1.47700 47.36000
H  46.94600 0.70200 48.05400
H  47.92700 6.96800 47.67500
H  39.42700 6.28900 47.16000
H  39.19800 3.53900 46.18500
H  38.49700 4.96600 48.42100
H  39.37500 3.57700 49.12900
H  37.97000 3.28300 48.18900
H  39.44900 4.88100 44.57500
H  40.74800 6.11200 44.71400
H  38.80000 7.69100 45.47500
H  37.86300 6.67500 44.31600
H  40.86800 -0.55800 46.96800
H  41.45800 -1.44200 48.38800
H  42.15800 -1.62600 46.71500
H  46.85000 -1.68400 47.37000
H  46.61100 -2.58900 48.82400
H  46.49800 -0.96700 48.95000
H  48.71600 2.36500 46.80500
H  48.95600 4.82600 48.53100
H  48.53700 1.86200 49.48700
H  50.07200 2.81100 49.27600
H  49.84200 1.28000 48.51400
H  48.94100 5.37300 45.66600
H  50.01900 3.99400 45.92300
H  50.55300 6.89700 46.31100
H  51.70900 5.44800 46.51600
H  50.81100 6.00300 47.77800
H  45.81900 10.63800 47.23800
H  47.23300 9.57200 47.22000
H  46.43300 9.79200 48.77600
H  41.25800 8.35100 45.82300
H  38.31600 9.17200 48.99900
H  37.55900 9.73800 47.37600
H  38.39400 10.84300 48.45900
Mg 47.28000 44.48500 43.02800
C  43.97600 43.63500 43.16200
C  48.01900 40.99600 42.82300
C  50.57900 45.38600 42.32200
C  46.30600 47.84800 42.70700
N  46.16200 42.49600 42.86200
C  44.81800 42.43400 43.06600
C  44.32400 40.98600 43.08700
C  45.66300 40.12400 42.94700
C  46.66100 41.24600 42.95000
C  45.77600 39.11600 44.15800
C  43.36300 40.63100 41.90000
C  43.84100 41.08800 40.59500
H  43.75900 40.04900 39.43000
N  49.08100 43.36100 42.69900
C  49.14100 41.95300 42.66000
C  50.45300 41.62000 42.39200
C  51.11000 42.81800 41.99100
C  50.28800 43.93100 42.39800
C  50.94900 40.15700 42.44300
C  52.49400 42.87100 41.49600
O  53.10200 41.84800 41.32000
C  53.13900 44.16400 40.89300
N  48.30400 46.42700 42.39900
C  49.69600 46.51900 42.42200
C  50.08300 47.93700 42.39500
C  48.71900 48.69800 42.50600
C  47.67800 47.65000 42.51900
C  51.21400 48.31000 43.41200
C  48.49700 49.74300 41.39200
C  48.04100 51.15400 41.79800
N  45.53900 45.58300 43.06300
C  45.24400 46.89600 42.91100
C  43.84600 47.12700 43.06900
C  43.31000 45.88700 43.16000
C  44.34500 44.97600 43.11700
C  43.16500 48.42900 43.25200
C  42.07500 45.11100 43.34000
O  40.95700 45.49800 43.49600
C  42.49700 43.62500 43.34400
C  42.16500 42.99900 44.67200
O  42.59700 43.27400 45.79000
O  41.33500 41.86700 44.43600
C  40.98500 41.19200 45.64600
H  48.32800 39.95400 42.92600
H  51.63800 45.65100 42.30800
H  46.16000 48.92900 42.65200
H  43.70100 40.88700 43.97600
H  45.82200 39.62100 41.99300
H  45.96600 39.65800 45.08500
H  46.57800 38.42600 43.89500
H  44.92300 38.45100 44.28700
H  42.38700 41.02900 42.17700
H  43.25200 39.54700 41.88600
H  44.86700 41.45700 40.56700
H  43.20200 41.90000 40.24900
H  52.00000 40.09700 42.72700
H  50.76500 39.48000 41.60800
H  50.48900 39.58900 43.25100
H  52.44000 44.72900 40.27700
H  53.90700 43.83400 40.19300
H  53.56200 44.76300 41.70000
H  50.48400 48.30500 41.45100
H  48.74600 49.09700 43.52000
H  51.63000 47.37100 43.77800
H  50.78400 48.74900 44.31200
H  52.00200 48.95100 43.01800
H  47.74100 49.23200 40.79600
H  49.39800 49.85100 40.78800
H  48.94700 51.75000 41.68500
H  47.60700 51.21600 42.79600
H  47.23900 51.46900 41.13000
H  43.04500 48.59200 44.32300
H  42.15400 48.37400 42.84700
H  43.63000 49.29900 42.78800
H  41.91800 43.17200 42.54000
H  40.12000 40.61500 45.31800
H  40.62300 41.83400 46.44800
H  41.82100 40.64000 46.07700

