158

Mg 46.23700 25.29700 28.30900
C  47.45700 27.34900 30.90000
C  45.46800 22.90500 30.74100
C  45.70200 22.98300 25.83200
C  47.56900 27.40400 25.94800
N  46.44400 25.15400 30.60800
C  46.92600 26.20700 31.40000
C  46.79200 25.80500 32.87000
C  46.16900 24.34000 32.86000
C  46.03100 24.08800 31.35700
C  46.98400 23.23100 33.57900
C  46.09900 26.92300 33.73300
C  45.42400 26.40000 35.02200
H  45.63200 27.36300 36.20300
N  45.60600 23.22100 28.22400
C  45.35200 22.46600 29.36700
C  44.97400 21.08900 28.91200
C  45.12400 20.98300 27.50000
C  45.41200 22.44900 27.06100
C  44.60400 19.91800 29.86600
C  44.88700 19.79800 26.56200
O  45.00900 19.95200 25.36600
C  44.52400 18.42700 27.20000
N  46.67900 25.13200 26.24000
C  46.23700 24.18500 25.41400
C  46.31600 24.60100 23.91900
C  46.79800 26.08600 24.00600
C  47.04000 26.23800 25.46900
C  47.36400 23.78100 23.12100
C  45.82800 27.15600 23.42900
C  45.81100 27.40400 21.95100
N  47.29100 27.08600 28.35600
C  47.74600 27.84400 27.26100
C  48.41100 29.03300 27.78600
C  48.28200 28.92000 29.22400
C  47.63800 27.69600 29.48600
C  49.02600 30.17200 27.16200
C  48.54200 29.57600 30.47500
O  49.07300 30.65000 30.64200
C  48.10200 28.58300 31.61100
C  49.37200 28.30100 32.41900
O  50.11500 27.32500 32.28800
O  49.40900 29.08500 33.49900
C  50.27800 28.48300 34.60900
H  45.10900 22.21200 31.50500
H  45.47900 22.38800 24.94400
H  47.88400 28.16000 25.22400
H  47.81900 25.80200 33.23700
H  45.21700 24.32500 33.39000
H  47.40000 22.46100 32.92900
H  46.35800 22.92200 34.41600
H  47.81100 23.75700 34.05500
H  45.32600 27.40600 33.13500
H  46.88400 27.64800 33.94500
H  45.90300 25.48400 35.36600
H  44.35700 26.33800 34.81100
H  45.36300 19.13600 29.87700
H  43.64000 19.57200 29.49200
H  44.38000 20.21100 30.89200
H  44.24000 17.79100 26.36100
H  43.65500 18.67100 27.81100
H  45.27900 18.03100 27.87800
H  45.33900 24.49500 23.44800
H  47.74200 26.14100 23.46300
H  47.46300 24.34900 22.19700
H  46.95100 22.79700 22.89700
H  48.32800 23.68000 23.61900
H  46.02400 28.10300 23.93100
H  44.89600 26.69900 23.75900
H  46.62800 28.07000 21.67400
H  44.85700 27.90000 21.77200
H  45.75100 26.45500 21.41800
H  50.02500 30.30900 27.57700
H  48.56100 31.13300 27.38200
H  49.12400 30.03400 26.08500
H  47.34300 29.06800 32.22500
H  50.16900 29.29100 35.33300
H  51.32100 28.39300 34.30500
H  49.93600 27.47500 34.84200
Mg -5.48000 25.42500 26.26300
C  -4.04500 26.81600 29.10000
C  -7.46900 23.32700 28.31000
C  -6.49300 23.88200 23.50800
C  -3.10700 27.22900 24.35900
N  -5.67600 25.01000 28.44400
C  -5.00300 25.76800 29.38900
C  -5.54700 25.50400 30.83200
C  -6.48000 24.21000 30.51900
C  -6.58000 24.18000 29.01500
C  -5.88200 22.89800 31.18100
C  -6.36300 26.58900 31.52500
C  -6.01400 26.75100 32.98700
H  -5.94100 25.58000 33.93900
N  -6.86000 23.82700 25.92100
C  -7.60900 23.18000 26.87000
C  -8.44800 22.21800 26.16500
C  -8.08600 22.26000 24.77000
C  -7.08000 23.31600 24.69000
C  -9.36300 21.27300 26.88100
C  -8.53600 21.43500 23.59000
O  -7.86900 21.44200 22.54700
C  -9.67900 20.62800 23.67800
N  -4.76200 25.45900 24.17800
C  -5.40100 24.78300 23.31200
C  -4.87200 25.11600 21.92200
C  -3.86900 26.22100 22.11400
C  -3.96300 26.40000 23.63000
C  -4.14900 23.89200 21.23500
C  -4.25500 27.54100 21.40700
C  -3.39100 27.81700 20.21200
N  -3.86200 26.67600 26.58500
C  -3.03100 27.39500 25.75300
C  -2.21400 28.32000 26.45200
C  -2.59800 28.08400 27.83900
C  -3.50800 27.04700 27.81400
C  -1.26600 29.32100 25.92200
C  -2.26800 28.49900 29.20400
O  -1.58400 29.42400 29.64700
C  -3.24800 27.60700 30.10800
C  -2.38700 26.73400 30.99300
O  -1.88500 25.74900 30.61200
O  -2.50800 27.14800 32.25900
C  -1.88900 26.32300 33.34400
H  -8.25800 22.79100 28.84100
H  -6.71800 23.36000 22.57600
H  -2.52600 27.92200 23.74800
H  -4.71400 25.16800 31.44900
H  -7.44200 24.33900 31.01500
H  -6.60700 22.28100 31.71300
H  -5.01600 23.10800 31.80800
H  -5.57200 22.29200 30.33000
H  -7.44700 26.48800 31.46500
H  -6.18700 27.56800 31.07900
H  -6.80400 27.35100 33.43700
H  -5.09000 27.30600 33.15100
H  -10.38900 21.63400 26.96100
H  -8.94000 20.87500 27.80300
H  -9.59700 20.35400 26.34500
H  -10.08500 20.55700 22.66900
H  -10.39400 21.20300 24.26700
H  -9.58900 19.58600 23.98600
H  -5.68100 25.40300 21.25000
H  -2.81900 25.99900 21.92200
H  -3.06200 23.95000 21.16900
H  -4.67600 23.72800 20.29500
H  -4.34900 23.02700 21.86800
H  -4.08200 28.38600 22.07300
H  -5.29600 27.58700 21.08600
H  -3.96500 27.88800 19.28700
H  -2.51800 27.17900 20.07300
H  -2.92700 28.79500 20.34200
H  -1.81100 30.26400 25.88100
H  -0.98200 29.03000 24.91100
H  -0.36500 29.50100 26.50900
H  -3.84400 28.28100 30.72300
H  -1.75300 26.85700 34.28400
H  -0.95200 25.86700 33.02500
H  -2.65200 25.60100 33.63500

