158

Mg 16.86000 -2.49500 28.22500
C  16.04900 -0.29800 30.96200
C  18.71700 -4.21100 30.44500
C  18.04600 -4.05900 25.62600
C  15.17100 -0.30800 26.22100
N  17.16400 -2.34000 30.47900
C  16.84600 -1.34500 31.34100
C  17.21200 -1.66000 32.76300
C  18.11700 -2.92300 32.64500
C  17.99500 -3.21200 31.13800
C  19.54300 -2.87900 33.28500
C  15.91900 -1.83600 33.65100
C  15.95800 -1.22800 35.09300
H  17.35700 -0.77500 35.61500
N  18.15900 -4.05100 28.06200
C  18.80900 -4.64300 29.10100
C  19.56200 -5.70700 28.52400
C  19.31100 -5.70600 27.14900
C  18.47200 -4.58400 26.88900
C  20.33000 -6.79100 29.36400
C  19.78400 -6.67900 26.05000
O  19.43200 -6.59300 24.86800
C  20.83700 -7.73800 26.49200
N  16.61000 -2.30500 26.23700
C  17.28600 -2.99400 25.32700
C  17.13500 -2.47500 23.90600
C  16.04900 -1.30300 24.07100
C  15.84100 -1.34300 25.63200
C  18.42800 -2.10800 23.11100
C  14.66800 -1.51300 23.28800
C  13.57000 -2.33700 24.03100
N  15.73800 -0.80800 28.49300
C  15.05300 -0.03200 27.57100
C  14.35500 1.07100 28.18500
C  14.76900 1.03200 29.49600
C  15.58100 -0.12800 29.62800
C  13.47200 2.03100 27.47800
C  14.59300 1.69400 30.70200
O  13.97200 2.71300 30.99000
C  15.39900 0.87100 31.70700
C  16.50300 1.73300 32.30500
O  17.55100 2.01100 31.77800
O  16.02700 2.39200 33.45000
C  16.75600 3.41800 34.15500
H  19.40400 -4.74300 31.10700
H  18.47100 -4.60900 24.78400
H  14.72000 0.41500 25.53900
H  17.78300 -0.80500 33.12600
H  17.66200 -3.77400 33.15100
H  20.28100 -3.34100 32.62900
H  19.49400 -3.56500 34.13000
H  19.84600 -1.88400 33.61100
H  15.77000 -2.90800 33.77900
H  15.03300 -1.48300 33.12300
H  15.73200 -2.01900 35.80800
H  15.23500 -0.41400 35.15700
H  21.38200 -6.52300 29.45700
H  19.97200 -7.74800 28.98600
H  19.87800 -6.84700 30.35500
H  20.37000 -8.56400 27.02800
H  21.57000 -7.27700 27.15300
H  21.25800 -8.14400 25.57200
H  16.70300 -3.23500 23.25500
H  16.47100 -0.31100 23.91100
H  18.36200 -1.09800 22.70700
H  18.79200 -2.83800 22.38700
H  19.21200 -1.99600 23.86000
H  14.77400 -2.11200 22.38400
H  14.28500 -0.52400 23.04000
H  12.95500 -1.61600 24.57000
H  14.09500 -2.99600 24.72200
H  12.97400 -2.81400 23.25300
H  13.03000 1.45800 26.66300
H  14.02000 2.78300 26.91100
H  12.75000 2.55300 28.10600
H  14.71400 0.69900 32.53700
H  17.00300 4.24500 33.49000
H  17.51700 2.95300 34.78200
H  16.12100 3.90600 34.89400
Mg 47.04000 16.32700 28.94100
C  44.92400 15.57600 31.79500
C  49.16500 17.95300 30.94500
C  48.54600 17.17100 26.23500
C  44.20700 15.00300 27.00700
N  47.04400 16.68100 31.13000
C  46.15400 16.20300 32.13100
C  46.54600 16.67500 33.56400
C  47.82800 17.54300 33.19800
C  48.08100 17.38200 31.73600
C  47.72700 19.05900 33.51300
C  46.78200 15.41100 34.47800
C  46.50200 15.60400 36.01800
H  46.58800 16.99700 36.76800
N  48.73200 17.34000 28.65200
C  49.57100 17.90100 29.57200
C  50.75700 18.47600 28.96000
C  50.46000 18.34700 27.60200
C  49.15000 17.69000 27.43400
C  51.95600 19.09500 29.69000
C  51.37900 18.74700 26.41500
O  51.09800 18.48600 25.21300
C  52.58300 19.67300 26.69500
N  46.42200 16.10200 26.95300
C  47.35200 16.49000 26.01600
C  46.84900 16.26200 24.55300
C  45.57800 15.44000 24.82200
C  45.43400 15.46500 26.38700
C  46.55800 17.60800 23.77400
C  45.54900 14.00300 24.28700
C  44.30500 13.67300 23.40100
N  45.00200 15.50800 29.24800
C  44.02700 15.03800 28.33800
C  42.88200 14.60600 29.05300
C  43.17100 14.82300 30.41900
C  44.54500 15.29200 30.45300
C  41.63600 14.00600 28.52100
C  42.63600 14.60400 31.79200
O  41.63900 14.07700 32.28400
C  43.71600 15.24500 32.69100
C  43.10700 16.53500 33.16400
O  42.95200 17.56500 32.51100
O  43.01300 16.54200 34.53700
C  42.50200 17.71900 35.24100
H  49.91900 18.43800 31.56900
H  49.01600 17.45400 25.29000
H  43.50200 14.57100 26.29300
H  45.77800 17.36000 33.92400
H  48.71600 17.22700 33.74400
H  48.14200 19.70300 32.73700
H  48.23100 19.32600 34.44200
H  46.72000 19.38100 33.77700
H  47.80600 15.14900 34.21300
H  46.09500 14.60400 34.22100
H  47.18200 14.91500 36.52000
H  45.49500 15.23700 36.21600
H  51.96100 20.16700 29.49500
H  52.91000 18.70200 29.33800
H  51.94700 18.97900 30.77400
H  52.86300 19.92300 25.67200
H  53.29200 18.97400 27.13900
H  52.44200 20.53400 27.34900
H  47.56400 15.68600 23.96500
H  44.61700 15.82900 24.48500
H  45.49200 17.83200 23.76300
H  46.96200 17.49300 22.76800
H  47.04100 18.35100 24.40900
H  45.57900 13.36400 25.17000
H  46.44300 13.91700 23.67100
H  44.58800 12.83600 22.76300
H  43.99300 14.36100 22.61500
H  43.39800 13.63700 24.00500
H  41.41700 14.60800 27.63900
H  40.81400 14.03500 29.23500
H  41.86800 12.97400 28.25800
H  43.79400 14.67300 33.61500
H  41.54300 17.36900 35.62300
H  42.14600 18.56000 34.64500
H  43.21400 18.03300 36.00400

