158

Mg 29.90800 58.30800 39.69000
C  27.30200 56.02200 38.97300
C  32.11600 55.96900 38.57300
C  32.31200 60.71400 40.01300
C  27.39200 60.67100 40.25300
N  29.71600 56.27000 39.03600
C  28.60400 55.57700 38.71000
C  28.99400 54.24600 38.10200
C  30.46100 54.07500 38.47900
C  30.82300 55.50300 38.73300
C  30.79700 53.04600 39.64500
C  28.70100 54.22000 36.62500
C  27.65800 53.30200 36.05800
H  26.83600 54.00100 34.96700
N  31.95900 58.32100 39.55000
C  32.66700 57.28900 38.95300
C  34.04100 57.65800 38.84400
C  34.16100 58.93300 39.38900
C  32.77600 59.40000 39.65400
C  35.12900 56.73000 38.12400
C  35.52100 59.68400 39.54300
O  36.60300 59.25300 39.13300
C  35.60000 61.02700 40.19100
N  29.83600 60.35900 40.18400
C  30.97600 61.16900 40.20400
C  30.54300 62.60900 40.42600
C  29.00700 62.59000 40.48800
C  28.74500 61.10600 40.22600
C  31.25400 63.32800 41.56800
C  28.20600 63.48200 39.52200
C  26.82600 63.99800 40.10000
N  27.70000 58.41800 39.56900
C  26.87900 59.40500 39.88100
C  25.49000 58.91400 39.80800
C  25.66500 57.63000 39.38300
C  27.01100 57.32300 39.31500
C  24.26300 59.64200 40.03900
C  24.84700 56.41600 39.07000
O  23.60700 56.29300 39.10300
C  25.91600 55.40000 38.67800
C  25.61500 54.09100 39.32500
O  25.96800 53.80900 40.46100
O  24.85800 53.32900 38.45300
C  24.36000 52.12700 39.07200
H  32.83700 55.27100 38.14200
H  33.04800 61.52000 40.02000
H  26.61500 61.42300 40.40500
H  28.45900 53.46100 38.63800
H  30.93900 53.70100 37.57300
H  30.09900 52.23200 39.84200
H  30.92200 53.62000 40.56300
H  31.73100 52.55800 39.36600
H  29.62300 54.07800 36.06100
H  28.38700 55.26000 36.52600
H  26.89500 52.94500 36.74900
H  28.19000 52.46500 35.60800
H  35.73800 56.24300 38.88600
H  35.76300 57.37000 37.51200
H  34.85400 55.93800 37.42800
H  35.10600 61.75700 39.54900
H  36.58500 61.26200 40.59200
H  35.02000 60.91600 41.10700
H  30.80100 63.22900 39.56800
H  28.80300 62.81100 41.53600
H  31.88200 62.58500 42.05900
H  30.54100 63.83200 42.22100
H  31.83200 64.13400 41.11400
H  27.90900 62.90900 38.64400
H  28.69900 64.39200 39.18200
H  26.09700 63.59800 39.39500
H  26.71800 65.08300 40.10300
H  26.56500 63.62900 41.09200
H  24.39900 60.72100 39.96200
H  23.92900 59.39400 41.04600
H  23.54800 59.42200 39.24600
H  25.68500 55.20500 37.63000
H  25.00100 51.75800 39.87200
H  24.10600 51.31900 38.38600
H  23.46000 52.34200 39.64700
Mg -11.19800 16.90400 41.64400
C  -7.77100 16.09000 41.45200
C  -10.39900 20.15800 40.88300
C  -14.38900 17.53700 41.64200
C  -11.79900 13.42600 42.20100
N  -9.24900 18.03500 41.37800
C  -8.02700 17.47900 41.27000
C  -7.00400 18.56300 40.82800
C  -7.89100 19.87200 40.71200
C  -9.27300 19.35600 40.99300
C  -7.45400 21.16100 41.53600
C  -6.39300 18.21200 39.47900
C  -4.83700 18.08100 39.23300
H  -4.25600 18.55000 37.91500
N  -12.26100 18.61500 41.12800
C  -11.78500 19.82600 40.95300
C  -12.89300 20.85300 40.78500
C  -14.04000 20.05200 40.93000
C  -13.64400 18.66000 41.15400
C  -12.71400 22.36400 40.57200
C  -15.42800 20.50400 40.92700
O  -15.65600 21.74500 40.96700
C  -16.60100 19.63200 41.06900
N  -12.84300 15.66300 41.81900
C  -14.08300 16.17800 41.82200
C  -15.16900 15.14800 42.16300
C  -14.29200 13.82000 42.08800
C  -12.84300 14.27300 42.07800
C  -15.81800 15.47500 43.57800
C  -14.66300 13.01300 40.83800
C  -15.15400 11.55800 41.10100
N  -10.05700 15.13900 41.86100
C  -10.44300 13.81800 42.11400
C  -9.26200 13.00000 42.22900
C  -8.21400 13.86400 41.97600
C  -8.73000 15.09500 41.70900
C  -9.19000 11.60800 42.77600
C  -6.76600 13.93200 41.85400
O  -5.88400 13.05800 41.86000
C  -6.44200 15.38900 41.59200
C  -5.67100 15.90300 42.69900
O  -6.00500 15.90400 43.88000
O  -4.40300 16.30300 42.33600
C  -3.61100 16.98900 43.32200
H  -10.17600 21.22400 40.80100
H  -15.47900 17.52700 41.57700
H  -12.17600 12.43600 42.46500
H  -6.20900 18.78200 41.54200
H  -7.90900 20.12800 39.65300
H  -6.40700 20.93600 41.73700
H  -8.06200 21.45500 42.39200
H  -7.30400 22.03300 40.90000
H  -6.70700 18.77700 38.60100
H  -6.73000 17.18500 39.34200
H  -4.59800 17.04100 39.45300
H  -4.27100 18.64800 39.97300
H  -12.40400 22.71600 39.58800
H  -11.93600 22.74700 41.23300
H  -13.64300 22.86000 40.85200
H  -17.48000 20.26200 40.92800
H  -16.69500 19.16000 42.04600
H  -16.57500 18.86600 40.29400
H  -15.98300 15.19300 41.43900
H  -14.40400 13.22700 42.99600
H  -15.17000 16.19600 44.07700
H  -15.74400 14.57000 44.18000
H  -16.85200 15.77100 43.40200
H  -13.92600 12.92300 40.04000
H  -15.50500 13.55600 40.40800
H  -16.18900 11.38000 40.81000
H  -15.12500 11.22700 42.13900
H  -14.52100 10.90600 40.49900
H  -9.62700 11.64000 43.77300
H  -8.18300 11.23100 42.95700
H  -9.78000 10.96000 42.12700
H  -5.82000 15.50900 40.70500
H  -2.98200 16.16800 43.66500
H  -4.20300 17.36500 44.15600
H  -3.01700 17.83900 42.98800

