158

Mg 29.59500 59.10800 38.43400
C  26.72300 56.99200 37.80000
C  31.57600 56.37100 37.43500
C  32.39000 61.12100 38.37500
C  27.56500 61.78000 38.72000
N  29.14200 56.98800 37.77100
C  27.94000 56.35200 37.59800
C  28.10600 54.82900 37.27400
C  29.67800 54.68900 37.42900
C  30.16700 56.16900 37.47800
C  30.28200 53.90300 38.57400
C  27.73900 54.51200 35.76100
C  26.33500 53.88400 35.53800
H  25.39100 54.59200 34.52000
N  31.77500 58.73000 37.99600
C  32.31100 57.56500 37.69400
C  33.77100 57.63600 37.78000
C  34.03500 58.99200 38.13700
C  32.76200 59.72400 38.21300
C  34.67900 56.48900 37.34000
C  35.42200 59.58300 38.47100
O  36.44400 58.86800 38.44600
C  35.73300 61.06400 38.79500
N  29.96600 61.14100 38.15900
C  31.14900 61.75700 38.32800
C  30.97300 63.26600 38.58000
C  29.40700 63.45700 38.48200
C  28.91100 62.06000 38.49300
C  31.59700 64.00600 39.78700
C  28.90500 64.21200 37.26300
C  27.97000 65.37700 37.65300
N  27.61700 59.37800 38.49800
C  26.88400 60.50900 38.67600
C  25.48200 60.33400 38.56500
C  25.41000 58.93600 38.31100
C  26.67600 58.45000 38.18900
C  24.47300 61.33300 38.55100
C  24.43600 57.87400 38.10100
O  23.20800 57.89500 37.94300
C  25.22700 56.61100 37.74600
C  24.92400 55.61100 38.78700
O  25.58400 55.48300 39.78300
O  23.71700 54.98100 38.48800
C  23.55100 53.83000 39.39900
H  32.12600 55.51800 37.03300
H  33.34400 61.63200 38.52100
H  27.00800 62.71800 38.77300
H  27.57600 54.23400 38.01800
H  30.13900 54.32900 36.51000
H  29.53300 53.25700 39.03400
H  30.68100 54.50500 39.39000
H  31.00400 53.16700 38.21800
H  28.51400 54.01100 35.18200
H  27.58700 55.50900 35.34700
H  25.78300 53.79500 36.47400
H  26.49300 52.87300 35.16100
H  35.08100 56.80000 36.37600
H  34.10200 55.57700 37.18500
H  35.42900 56.13400 38.04700
H  36.77400 61.15800 39.10600
H  35.06200 61.45700 39.55900
H  35.65000 61.60500 37.85300
H  31.45800 63.73900 37.72500
H  29.02000 63.93000 39.38500
H  32.47800 63.50100 40.18200
H  30.89400 63.95600 40.61900
H  31.83400 65.01800 39.46100
H  28.42400 63.55300 36.54000
H  29.80500 64.59600 36.78200
H  28.56800 66.23900 37.95100
H  27.26800 65.16500 38.46000
H  27.51100 65.78000 36.75000
H  24.22100 61.56800 37.51700
H  24.93300 62.22900 38.96700
H  23.60300 61.00000 39.11700
H  24.80300 56.45500 36.75500
H  22.63200 53.30800 39.13300
H  23.46800 54.14700 40.43900
H  24.43000 53.21400 39.20900
Mg 36.37300 49.74900 24.70000
C  36.22500 48.06700 27.77100
C  35.34900 52.65000 26.23000
C  35.97200 51.23400 21.58400
C  36.99600 46.67800 23.12700
N  35.76400 50.21400 26.71300
C  35.99000 49.42800 27.83400
C  35.74200 50.31700 29.15300
C  35.28000 51.72400 28.58300
C  35.47600 51.55000 27.09600
C  33.98600 52.22500 29.09800
C  37.09800 50.39300 29.95600
C  37.14900 50.51000 31.49300
H  35.93300 50.76600 32.31400
N  35.75300 51.70900 23.99000
C  35.48400 52.74300 24.81000
C  35.17600 53.91100 24.03300
C  35.39100 53.58900 22.65300
C  35.75100 52.11000 22.67700
C  34.74200 55.31700 24.60100
C  35.16900 54.32500 21.34000
O  35.28500 53.76400 20.22000
C  34.66600 55.76900 21.42800
N  36.51100 49.03000 22.66000
C  36.34600 49.87400 21.60700
C  36.77100 49.15200 20.29700
C  37.22300 47.75400 20.82500
C  36.79700 47.76900 22.25000
C  35.70500 49.09900 19.21700
C  38.79900 47.46400 20.69700
C  39.28400 46.04500 20.37900
N  36.60800 47.75800 25.24700
C  36.78300 46.61300 24.52100
C  36.90100 45.51300 25.39400
C  36.71600 45.96700 26.68300
C  36.50400 47.32800 26.57700
C  37.15700 44.11400 24.98100
C  36.60600 45.62700 28.09000
O  36.76900 44.56600 28.65900
C  36.28700 47.03200 28.83500
C  35.07200 46.90500 29.70900
O  33.96300 47.06600 29.35500
O  35.44700 46.41500 30.97300
C  34.32000 46.36400 31.94000
H  35.11700 53.56900 26.77400
H  35.75600 51.61300 20.58300
H  37.36200 45.71700 22.76000
H  34.95300 49.80800 29.70700
H  35.97300 52.50500 28.89200
H  33.80100 51.78500 30.07800
H  33.11700 52.23600 28.44000
H  34.25900 53.26200 29.29300
H  37.67900 51.22700 29.56300
H  37.66700 49.50200 29.69000
H  37.86600 51.30900 31.68000
H  37.68700 49.70400 31.99300
H  35.53800 56.04100 24.42700
H  34.43100 55.24200 25.64300
H  33.86400 55.60400 24.02200
H  35.36600 56.42500 21.94600
H  33.65000 55.78300 21.82200
H  34.58500 56.04900 20.37800
H  37.56600 49.71100 19.80200
H  36.70100 46.93600 20.32800
H  35.85900 49.87400 18.46700
H  34.70300 49.31300 19.58700
H  35.55700 48.11000 18.78500
H  39.32100 47.75400 21.60800
H  39.13800 48.26800 20.04200
H  39.99400 46.18000 19.56300
H  38.45600 45.42500 20.03400
H  39.70100 45.49300 21.22200
H  37.91100 43.98200 24.20400
H  36.20100 43.65900 24.72100
H  37.67200 43.67700 25.83600
H  37.06600 47.21800 29.57500
H  34.56700 46.04700 32.95300
H  33.51200 45.80500 31.46700
H  33.90500 47.36900 32.01900

