158

Mg 8.17300 1.17000 28.23800
C  9.68000 -0.37700 31.11400
C  6.18900 2.82400 30.44900
C  6.44600 2.18700 25.63500
C  9.79000 -1.21200 26.23100
N  8.09400 1.24400 30.55700
C  8.89000 0.68300 31.45500
C  8.73200 1.24300 32.83200
C  7.39600 2.14500 32.63700
C  7.18000 2.09500 31.13600
C  6.15100 1.76400 33.45300
C  10.01200 2.02900 33.35200
C  10.22900 1.95300 34.92400
H  9.01300 1.69600 35.85600
N  6.62100 2.46100 28.11400
C  5.94200 3.02200 29.11900
C  4.94100 3.92100 28.57000
C  5.10600 3.88000 27.10600
C  6.05700 2.81400 26.88900
C  3.92300 4.68400 29.33600
C  4.40200 4.73000 25.95200
O  4.64000 4.51400 24.76400
C  3.63600 5.93200 26.25000
N  8.10400 0.53800 26.22200
C  7.38500 1.24200 25.32000
C  7.66100 0.79900 23.87700
C  8.80400 -0.25400 24.01800
C  8.88400 -0.32800 25.55500
C  6.33600 0.18500 23.32800
C  10.13900 0.24400 23.26900
C  11.21400 0.92400 24.11600
N  9.45500 -0.37400 28.51500
C  9.99300 -1.29300 27.61300
C  10.91200 -2.20400 28.34800
C  10.81300 -1.84800 29.67500
C  9.92700 -0.81400 29.79700
C  11.70400 -3.23400 27.73200
C  11.40400 -2.19400 31.01100
O  12.28100 -3.03700 31.31700
C  10.63400 -1.25400 31.96700
C  9.88400 -2.08300 32.98700
O  8.76200 -2.58000 32.84000
O  10.65100 -2.14500 34.20100
C  9.94800 -2.84200 35.26400
H  5.52400 3.39100 31.10500
H  5.89400 2.61900 24.79900
H  10.43400 -1.86500 25.63800
H  8.54400 0.43000 33.53300
H  7.65400 3.18800 32.81600
H  5.91500 2.67100 34.01000
H  6.40100 1.01700 34.20600
H  5.18800 1.60000 32.97000
H  9.87600 3.08800 33.13200
H  10.91100 1.68100 32.84200
H  10.91400 2.73800 35.24400
H  10.87400 1.07600 34.98000
H  3.02600 4.31300 28.84100
H  4.10400 5.74300 29.14800
H  3.81000 4.49600 30.40400
H  3.59600 6.70200 25.47900
H  4.24900 6.35700 27.04500
H  2.62900 5.73700 26.61800
H  7.93000 1.74300 23.40400
H  8.52600 -1.25400 23.68400
H  5.50500 0.31800 24.02000
H  6.42500 -0.86400 23.04300
H  5.93600 0.75100 22.48700
H  9.87600 0.96800 22.49800
H  10.51200 -0.65600 22.78000
H  10.80500 1.33200 25.03900
H  11.65000 1.75400 23.55900
H  11.89000 0.12400 24.41700
H  11.10000 -3.88900 27.10400
H  12.09300 -3.88500 28.51600
H  12.56900 -2.85200 27.19100
H  11.31600 -0.68600 32.60000
H  9.21500 -2.21800 35.77600
H  10.76800 -3.01900 35.95900
H  9.45800 -3.78800 35.03100
Mg 24.96700 0.53300 30.47100
C  26.93700 0.59900 33.42000
C  22.17500 0.54800 32.42900
C  23.05100 0.09900 27.65500
C  27.77100 -0.15800 28.67300
N  24.61200 0.78900 32.67400
C  25.54900 0.78300 33.68500
C  24.88900 1.08100 35.08500
C  23.38000 0.85900 34.66700
C  23.31700 0.67000 33.12200
C  22.70200 -0.39500 35.40500
C  25.13100 2.52200 35.63100
C  26.14200 2.71500 36.71500
H  25.64200 3.46700 37.97400
N  22.88000 0.33600 30.13400
C  21.90200 0.42600 31.02500
C  20.62900 0.19800 30.44300
C  20.80300 0.11600 29.03600
C  22.30200 0.19900 28.88600
C  19.32300 0.33000 31.19100
C  19.79500 0.02500 27.89700
O  20.16300 -0.12800 26.77900
C  18.27700 -0.04300 28.21600
N  25.35300 -0.00100 28.42900
C  24.42600 0.02100 27.45600
C  25.08500 -0.01700 26.08200
C  26.61900 -0.03100 26.42100
C  26.59500 0.00200 27.93600
C  24.59400 -1.15700 25.26000
C  27.37500 1.21100 25.78500
C  28.70000 0.88600 25.00000
N  27.01100 0.35100 30.85100
C  27.98100 0.03100 30.00600
C  29.19900 0.04800 30.74600
C  28.89900 0.25200 32.09200
C  27.51600 0.37400 32.13500
C  30.52500 -0.38400 30.18900
C  29.43800 0.39300 33.48200
O  30.56800 0.32500 33.98800
C  28.17100 0.65400 34.38200
C  28.06800 -0.45600 35.44000
O  27.44200 -1.53200 35.34900
O  28.88700 -0.17200 36.49500
C  28.68200 -0.96900 37.67900
H  21.29500 0.53200 33.07500
H  22.46500 -0.01700 26.74200
H  28.68400 -0.33500 28.10100
H  25.14600 0.24400 35.73400
H  22.70500 1.68600 34.88800
H  22.48600 -1.10400 34.60500
H  21.72500 -0.12100 35.80400
H  23.26900 -0.78000 36.25200
H  24.13900 2.90100 35.87700
H  25.50400 3.09300 34.78100
H  26.90300 3.39600 36.33700
H  26.65400 1.77500 36.92100
H  18.73100 1.11900 30.72800
H  19.42700 0.47300 32.26700
H  18.76500 -0.58700 31.00100
H  17.95600 0.92600 28.59800
H  18.07000 -0.88100 28.88200
H  17.69200 -0.30200 27.33300
H  24.73300 0.88600 25.58400
H  27.16100 -0.91500 26.08600
H  25.47900 -1.65200 24.86100
H  23.96200 -0.83400 24.43300
H  24.05300 -1.89800 25.84800
H  27.76500 1.81600 26.60400
H  26.73600 1.95700 25.31300
H  28.75400 1.47700 24.08600
H  28.51500 -0.12200 24.63100
H  29.56000 1.00200 25.66000
H  31.04900 0.52400 29.88900
H  30.46800 -1.00800 29.29700
H  31.10000 -0.97100 30.90500
H  28.25100 1.68000 34.74200
H  27.74100 -0.70700 38.16200
H  29.53400 -0.87500 38.35300
H  28.63400 -2.03700 37.46800

