158

Mg -11.45100 38.75600 42.48100
C  -10.14200 35.63400 41.65900
C  -8.95500 40.13900 40.71900
C  -13.19200 41.65000 42.56000
C  -14.52900 36.96200 43.24700
N  -9.76700 37.93800 41.33600
C  -9.39000 36.66700 41.17700
C  -8.13000 36.59600 40.33100
C  -7.53700 37.99000 40.37500
C  -8.87700 38.75200 40.81000
C  -6.29700 38.19300 41.17800
C  -8.41300 35.97300 38.94100
C  -7.60600 34.82000 38.57200
H  -6.61400 35.00200 37.39500
N  -11.00600 40.69000 41.84700
C  -9.88500 41.06400 41.20800
C  -9.95800 42.48900 41.00300
C  -11.17200 42.96800 41.55200
C  -11.87300 41.75900 42.03900
C  -8.88500 43.22600 40.16700
C  -11.67100 44.49300 41.56800
O  -10.90900 45.33800 41.06100
C  -12.93800 44.92600 42.14500
N  -13.51500 39.17200 42.86300
C  -13.89600 40.45800 42.96500
C  -15.32100 40.54500 43.51700
C  -15.77600 39.09400 43.62800
C  -14.55400 38.31800 43.21400
C  -15.44900 41.49200 44.74700
C  -16.92600 38.54800 42.75300
C  -18.13200 37.90200 43.40300
N  -12.20800 36.70800 42.70700
C  -13.38100 36.15100 43.08900
C  -13.21700 34.67900 43.09700
C  -11.95700 34.45400 42.52100
C  -11.42300 35.69800 42.22500
C  -14.14100 33.58900 43.59300
C  -11.15200 33.45300 42.00200
O  -11.33000 32.23700 42.02300
C  -9.78400 34.18700 41.48600
C  -8.61000 33.78400 42.37700
O  -7.63300 33.13100 42.01800
O  -8.76200 34.45600 43.60500
C  -7.49100 34.32300 44.45600
H  -8.06100 40.52700 40.22600
H  -13.84500 42.51500 42.68600
H  -15.39700 36.45400 43.67200
H  -7.39200 35.97100 40.83500
H  -7.28200 38.31900 39.36800
H  -5.68400 38.94500 40.68100
H  -5.87900 37.20800 41.38300
H  -6.66900 38.61300 42.11200
H  -8.15500 36.71900 38.18900
H  -9.47600 35.75700 38.83900
H  -8.34700 34.07200 38.29100
H  -7.13300 34.36100 39.44000
H  -9.04800 43.00500 39.11200
H  -7.94600 42.72900 40.40900
H  -8.80700 44.29400 40.37000
H  -13.78100 44.58600 41.54300
H  -13.01400 46.00400 42.29000
H  -13.03200 44.56300 43.16900
H  -15.87000 41.08700 42.74600
H  -15.88800 38.90100 44.69500
H  -14.54600 42.09300 44.85400
H  -15.77100 41.11000 45.71600
H  -16.24900 42.13800 44.38500
H  -16.43500 37.93000 42.00100
H  -17.30600 39.37500 42.15400
H  -18.16100 37.85400 44.49200
H  -18.26900 36.88900 43.02700
H  -19.04400 38.45000 43.16600
H  -14.52700 33.12800 42.68400
H  -14.91700 34.08600 44.17600
H  -13.63300 32.83300 44.19100
H  -9.54100 34.03800 40.43400
H  -7.63100 33.40500 45.02600
H  -7.36800 35.06100 45.24900
H  -6.57100 34.28400 43.87200
Mg -12.80600 16.78500 42.64300
C  -9.64400 15.39700 41.76400
C  -11.65600 19.67300 41.07000
C  -15.89900 17.89600 42.56100
C  -13.84300 13.38600 43.12200
N  -10.91400 17.38600 41.40000
C  -9.73800 16.77400 41.50100
C  -8.63200 17.66800 40.90000
C  -9.14600 19.03800 41.05700
C  -10.63700 18.75500 41.24800
C  -8.52000 19.86300 42.23800
C  -8.12900 17.37900 39.49500
C  -6.59100 16.99200 39.29800
H  -6.43000 15.91900 38.24400
N  -13.63600 18.56900 42.08700
C  -13.01300 19.59300 41.38900
C  -13.94700 20.66400 41.15600
C  -15.23600 20.24200 41.64300
C  -14.98600 18.87900 42.15500
C  -13.47100 21.98500 40.67100
C  -16.57500 21.05400 41.49800
O  -16.63300 22.19000 40.99600
C  -17.87400 20.48400 41.85400
N  -14.62000 15.72500 42.64500
C  -15.80200 16.47600 42.72600
C  -17.00400 15.62000 42.95200
C  -16.36400 14.20500 43.18400
C  -14.86400 14.39500 42.96600
C  -17.92700 16.12600 44.12500
C  -16.95100 13.11100 42.22000
C  -16.25800 12.69900 40.86900
N  -11.86800 14.78400 42.80400
C  -12.47400 13.53300 43.03700
C  -11.49100 12.53500 43.00700
C  -10.34400 13.22000 42.57800
C  -10.63600 14.55600 42.33800
C  -11.60700 11.11200 43.29100
C  -8.92000 13.08400 42.23400
O  -8.15600 12.14800 42.32800
C  -8.47200 14.42000 41.56200
C  -7.27300 14.82800 42.25300
O  -7.24100 15.30800 43.39900
O  -6.13100 14.46400 41.61000
C  -4.98600 14.21200 42.51300
H  -11.36100 20.64000 40.65700
H  -16.92700 18.20600 42.76100
H  -14.18600 12.41400 43.48300
H  -7.84700 17.48300 41.63400
H  -9.07700 19.73100 40.21800
H  -8.11500 20.77800 41.80700
H  -7.72400 19.34400 42.77300
H  -9.21700 20.09400 43.04300
H  -8.13800 18.33000 38.96300
H  -8.77500 16.68600 38.95500
H  -6.20000 16.56600 40.22200
H  -6.16000 17.93400 38.95800
H  -13.28700 22.09400 39.60200
H  -12.58800 22.30200 41.22400
H  -14.13600 22.82700 40.86400
H  -18.60500 21.22900 41.54100
H  -18.10400 20.31900 42.90700
H  -18.01600 19.61100 41.21800
H  -17.56300 15.77500 42.02900
H  -16.59000 13.82400 44.18000
H  -18.16800 15.21300 44.67000
H  -18.82600 16.55400 43.68300
H  -17.50200 16.86900 44.80000
H  -18.01700 13.29900 42.09200
H  -16.88400 12.26400 42.90200
H  -15.60200 11.85700 41.09000
H  -15.49400 13.45400 40.68500
H  -16.96000 12.51500 40.05600
H  -11.72100 10.60500 42.33300
H  -12.46500 10.95600 43.94500
H  -10.71700 10.77000 43.81900
H  -8.31700 14.30300 40.49000
H  -5.06300 13.45300 43.29200
H  -4.62800 15.13800 42.96300
H  -4.13200 13.79900 41.97700

