158

Mg 17.17000 52.19000 25.97500
C  18.96800 50.51300 28.58700
C  14.68500 52.80600 28.28600
C  15.15900 53.54600 23.48100
C  19.42200 51.10200 23.85600
N  16.90100 51.62600 28.09900
C  17.82300 51.11600 28.99600
C  17.41300 51.31700 30.44600
C  15.88400 51.59800 30.22400
C  15.76400 52.00400 28.74000
C  15.05400 50.29400 30.49800
C  18.22300 52.55400 31.08400
C  18.34200 52.51900 32.57700
H  17.28300 51.72500 33.31900
N  15.20400 53.06700 25.85000
C  14.42400 53.24600 26.98700
C  13.23200 54.01300 26.60500
C  13.32500 54.20900 25.21700
C  14.61600 53.64900 24.76000
C  12.14400 54.48400 27.62600
C  12.34400 54.87900 24.28800
O  12.53600 55.06200 23.08800
C  11.03000 55.37900 24.88300
N  17.18500 52.29000 23.89300
C  16.38800 52.95800 23.03300
C  16.94400 52.89800 21.56000
C  18.38500 52.26000 21.81600
C  18.33400 51.84500 23.30700
C  16.02400 52.08100 20.62700
C  19.65700 53.02900 21.39700
C  20.32800 54.05500 22.28800
N  18.86700 51.06100 26.11700
C  19.73700 50.66200 25.16300
C  20.98200 50.05800 25.71900
C  20.60200 49.93500 27.06400
C  19.33600 50.50600 27.24300
C  22.19700 49.70100 24.97500
C  21.12400 49.43900 28.32800
O  22.13700 48.84800 28.57900
C  20.11300 49.95800 29.43900
C  19.70500 48.81800 30.35000
O  18.98200 47.86400 30.08300
O  20.17800 49.04900 31.64300
C  19.68700 48.03600 32.65100
H  13.93100 52.98600 29.05600
H  14.74900 53.90400 22.53400
H  20.09600 50.62800 23.13900
H  17.54100 50.36900 30.96800
H  15.52900 52.35100 30.92800
H  14.95500 49.79100 29.53600
H  14.02100 50.51000 30.77200
H  15.30900 49.60000 31.29800
H  17.80300 53.46400 30.65400
H  19.25100 52.47400 30.73100
H  18.28500 53.55600 32.90700
H  19.25200 51.96300 32.80200
H  11.18300 54.02000 27.40200
H  12.06900 55.56600 27.51700
H  12.42000 54.29900 28.66400
H  10.57100 55.96700 24.08800
H  11.19200 56.05600 25.72100
H  10.35400 54.55100 25.09800
H  17.01200 53.91500 21.17100
H  18.44800 51.29600 21.31000
H  16.58700 51.43900 19.94900
H  15.39800 52.78200 20.07600
H  15.31200 51.42500 21.12800
H  19.52500 53.57400 20.46200
H  20.36200 52.23900 21.13800
H  21.40200 53.95100 22.44100
H  19.70500 54.09600 23.18100
H  20.21000 55.05500 21.87200
H  22.54500 50.51400 24.33900
H  22.07000 48.75700 24.44500
H  22.89400 49.70600 25.81300
H  20.59600 50.72100 30.04900
H  19.74600 47.00300 32.31100
H  18.70700 48.40300 32.95700
H  20.42000 47.93500 33.45000
Mg 9.65300 48.47200 25.53700
C  7.61200 48.79200 28.40800
C  12.32500 49.57700 27.47300
C  11.56700 48.32800 22.84100
C  6.81400 47.76200 23.63700
N  9.90100 49.27100 27.63400
C  8.99700 49.14900 28.62200
C  9.56600 49.45800 30.04100
C  11.03500 49.94900 29.65100
C  11.10800 49.54600 28.16200
C  11.25500 51.51100 29.79800
C  9.60600 48.23000 30.96300
C  9.42200 48.55900 32.46100
H  8.94000 47.37600 33.27200
N  11.64200 49.05300 25.15300
C  12.59200 49.30100 26.10500
C  13.89600 49.29500 25.48400
C  13.71200 48.90000 24.11600
C  12.28500 48.80400 23.95600
C  15.24700 49.64400 26.16700
C  14.76500 48.84400 22.99800
O  14.49000 48.69400 21.82300
C  16.24400 48.83100 23.28800
N  9.22000 48.30200 23.56600
C  10.23800 48.08100 22.69800
C  9.78300 47.59400 21.29400
C  8.33900 47.14600 21.64400
C  8.04700 47.76100 23.01500
C  9.86100 48.63400 20.14400
C  8.03000 45.62500 21.61700
C  7.89600 44.77900 22.88500
N  7.59300 48.29500 25.89600
C  6.52900 48.08300 24.98600
C  5.29700 48.13300 25.76500
C  5.66000 48.41400 27.08600
C  7.03100 48.52300 27.13400
C  3.86700 47.85200 25.22900
C  5.12300 48.51300 28.41800
O  3.95900 48.34400 28.82900
C  6.39800 48.60200 29.31000
C  6.29900 47.29600 30.05300
O  6.49500 46.16200 29.56700
O  5.68700 47.52900 31.28700
C  5.30500 46.33900 32.08900
H  13.18200 49.87900 28.07800
H  12.14500 48.16500 21.92900
H  5.95600 47.58800 22.98300
H  9.02800 50.22500 30.59800
H  11.86300 49.53200 30.22400
H  12.15900 51.73100 30.36600
H  10.42800 52.04600 30.26400
H  11.37000 51.93200 28.79900
H  10.61200 47.81400 30.91900
H  8.95400 47.46000 30.55100
H  8.61000 49.28000 32.55700
H  10.33200 48.96700 32.89900
H  15.01300 49.83600 27.21400
H  15.71900 50.52900 25.74000
H  15.88900 48.76400 26.19600
H  16.52400 49.78100 23.74500
H  16.75500 48.56900 22.36200
H  16.29800 48.05100 24.04700
H  10.34600 46.73400 20.93200
H  7.64000 47.65500 20.98000
H  10.69100 49.32800 20.27000
H  8.87300 49.07800 20.01800
H  10.17500 48.08800 19.25400
H  8.78500 45.13100 21.00500
H  7.09700 45.59700 21.05500
H  8.58800 45.13700 23.64700
H  8.12600 43.73100 22.69300
H  6.90300 44.79200 23.33300
H  3.44900 47.54100 26.18600
H  3.78400 46.97100 24.59200
H  3.23400 48.66600 24.87300
H  6.25400 49.37900 30.06100
H  5.97000 45.50700 31.85500
H  4.23800 46.15500 31.96300
H  5.43100 46.37300 33.17100

