158

Mg 8.60500 4.23400 27.47600
C  9.74900 2.44700 30.57800
C  6.66500 6.16300 29.61600
C  7.62300 5.63900 24.81000
C  10.29600 1.89500 25.60900
N  8.21800 4.10700 29.88100
C  8.78300 3.39100 30.90900
C  8.25600 3.92400 32.27500
C  7.31600 5.09100 31.89300
C  7.38700 5.14200 30.33100
C  5.87800 4.91700 32.42300
C  9.43300 4.35100 33.28000
C  8.94100 5.04700 34.55600
H  10.08700 5.27100 35.52700
N  7.39800 5.79300 27.25300
C  6.62800 6.38200 28.21300
C  5.89000 7.44300 27.54000
C  6.22100 7.38700 26.15700
C  7.03700 6.18900 25.96500
C  5.00500 8.46900 28.29000
C  5.70200 8.34900 24.96000
O  6.04700 8.14600 23.79800
C  4.95400 9.52200 25.32400
N  8.75000 3.73900 25.50800
C  8.31900 4.50400 24.55700
C  8.44800 3.89700 23.11400
C  9.57300 2.82000 23.38800
C  9.56300 2.79400 24.96200
C  7.13900 3.38900 22.45200
C  10.94200 3.15300 22.74800
C  11.90000 2.11600 22.26000
N  9.81100 2.52700 27.90800
C  10.50300 1.76300 26.95900
C  11.30600 0.84700 27.69000
C  11.05700 1.07700 29.08300
C  10.12000 2.11500 29.16100
C  12.30300 -0.22000 27.20400
C  11.43100 0.64900 30.43800
O  12.29200 -0.12700 30.82900
C  10.52800 1.61600 31.45300
C  9.67800 0.79500 32.33700
O  8.94400 -0.07100 32.00100
O  10.20500 0.93000 33.60100
C  9.63800 -0.00900 34.69300
H  6.07500 6.79000 30.28900
H  7.26300 6.23200 23.96700
H  10.86200 1.11100 25.10200
H  7.70800 3.02800 32.56900
H  7.62000 6.06300 32.28200
H  5.14800 4.73800 31.63300
H  5.61300 5.91400 32.77500
H  5.90000 4.13900 33.18500
H  9.95500 5.08200 32.66400
H  10.10600 3.53000 33.53000
H  8.22600 4.37200 35.02600
H  8.57500 6.04900 34.33300
H  4.00200 8.51100 27.86600
H  5.48400 9.44600 28.34600
H  4.65900 8.13500 29.26800
H  5.59000 9.95000 26.09900
H  4.06100 9.16800 25.83900
H  4.82000 10.24700 24.52200
H  8.82300 4.65300 22.42400
H  9.28300 1.78900 23.18700
H  7.23200 2.34900 22.13900
H  6.94200 3.93300 21.52900
H  6.21900 3.52600 23.02000
H  11.48900 3.76600 23.46400
H  10.70600 3.77900 21.88700
H  12.00800 2.19500 21.17800
H  11.63000 1.07800 22.45500
H  12.87500 2.39900 22.65700
H  12.71200 -0.75400 28.06200
H  13.08800 0.26700 26.62500
H  11.81200 -0.95200 26.56300
H  11.19300 2.21100 32.07800
H  9.32100 -0.98700 34.33100
H  8.74700 0.45600 35.11400
H  10.37000 -0.20800 35.47500
Mg -1.77800 34.75100 27.21300
C  -3.67800 33.01300 29.63200
C  -0.84200 36.83300 29.80100
C  -0.19300 36.62600 24.96600
C  -3.31300 32.86600 24.67500
N  -2.27500 34.92500 29.53100
C  -3.02100 34.07000 30.27700
C  -2.85300 34.27000 31.78100
C  -2.02400 35.61000 31.72100
C  -1.62600 35.81800 30.26100
C  -2.72900 36.85500 32.31400
C  -2.17000 33.05800 32.39300
C  -1.15900 33.12800 33.54700
H  -1.48000 32.63500 34.92200
N  -0.61700 36.50500 27.39400
C  -0.32100 37.17400 28.47800
C  0.64400 38.25200 28.20100
C  0.85400 38.23800 26.77100
C  -0.01600 37.10700 26.34200
C  1.16300 39.22900 29.27300
C  1.61900 39.08000 25.87900
O  1.60900 38.97700 24.62600
C  2.48500 40.17000 26.50200
N  -1.73200 34.76400 25.12800
C  -0.99600 35.60500 24.44100
C  -1.00500 35.33600 22.88300
C  -1.85700 34.02600 22.85800
C  -2.35600 33.83400 24.30400
C  -1.49200 36.55500 21.99500
C  -1.21300 32.79000 22.24400
C  0.08900 32.33500 22.80400
N  -3.13300 33.21400 27.10300
C  -3.68100 32.60100 26.03100
C  -4.38800 31.42100 26.50900
C  -4.44300 31.58800 27.89800
C  -3.71400 32.73800 28.23300
C  -5.06200 30.37400 25.52800
C  -4.99900 31.07300 29.14200
O  -5.75900 30.12700 29.27300
C  -4.52000 31.96200 30.27600
C  -5.76600 32.45400 30.84600
O  -6.56100 33.30200 30.37900
O  -5.99200 31.91600 32.04400
C  -7.05500 32.22600 33.01400
H  -0.41000 37.49800 30.55100
H  0.30100 37.32100 24.28400
H  -3.85500 32.33400 23.89100
H  -3.89200 34.36300 32.09800
H  -1.05000 35.57600 32.21100
H  -2.88200 37.63700 31.57000
H  -2.13500 37.29500 33.11500
H  -3.69500 36.74500 32.80700
H  -1.62600 32.56400 31.58800
H  -2.97600 32.45000 32.80300
H  -1.08300 34.19000 33.78000
H  -0.19300 32.68700 33.30100
H  0.65600 39.05000 30.22100
H  0.98800 40.26300 28.97700
H  2.22900 39.07500 29.44000
H  3.19600 39.55900 27.05900
H  1.90900 40.94300 27.01000
H  3.03500 40.65500 25.69500
H  -0.01600 35.09200 22.49500
H  -2.62400 34.28900 22.12900
H  -1.63300 37.38100 22.69200
H  -2.43100 36.62100 21.44700
H  -0.70700 36.82800 21.28900
H  -1.15100 33.00900 21.17800
H  -1.95000 31.99600 22.36600
H  0.02500 31.37100 23.30900
H  0.55500 32.94600 23.57700
H  0.78100 32.28700 21.96200
H  -5.52200 29.56900 26.10100
H  -4.36200 29.99400 24.78400
H  -5.85000 30.78400 24.89700
H  -4.00300 31.28400 30.95500
H  -7.89100 32.86300 32.72500
H  -6.64100 32.70200 33.90300
H  -7.41100 31.29600 33.45500

