158

Mg 30.56300 58.58900 41.31000
C  27.96400 56.59300 40.25400
C  32.80000 56.11800 40.31700
C  33.25300 60.76800 41.54600
C  28.33400 61.27300 41.40500
N  30.40500 56.64700 40.37900
C  29.23300 56.04700 40.16800
C  29.42200 54.75100 39.42100
C  30.84900 54.39100 39.91300
C  31.46000 55.78700 40.10000
C  31.13000 53.40000 41.12300
C  29.30200 54.76700 37.81800
C  28.24100 53.84800 37.07500
H  27.44600 54.58400 35.95700
N  32.75300 58.42200 41.08500
C  33.40500 57.27500 40.74200
C  34.83500 57.52500 40.77700
C  35.03100 58.87300 41.15600
C  33.66300 59.43600 41.23800
C  35.85300 56.47500 40.36500
C  36.25700 59.65500 41.29700
O  37.33100 59.06200 41.12000
C  36.43000 61.05500 41.74900
N  30.78500 60.71200 41.37200
C  31.95800 61.32800 41.49900
C  31.74600 62.90700 41.73000
C  30.21900 63.01100 41.79000
C  29.73700 61.54400 41.54900
C  32.37000 63.43600 43.07200
C  29.67900 63.92200 40.65300
C  30.21200 65.34100 40.55000
N  28.50900 58.92300 41.04200
C  27.72600 60.03400 41.10200
C  26.35900 59.61600 40.95400
C  26.40700 58.28600 40.60900
C  27.74900 57.90600 40.62300
C  25.05600 60.41600 41.02500
C  25.62000 57.15100 40.27600
O  24.42600 57.08200 40.09200
C  26.58100 56.01900 40.06000
C  26.39500 54.81300 40.86900
O  26.63100 54.70100 42.06000
O  25.88400 53.78600 40.12600
C  25.56000 52.54100 40.87900
H  33.41100 55.25400 40.04800
H  33.98800 61.57300 41.60600
H  27.61800 62.05300 41.67000
H  28.69500 54.03900 39.81300
H  31.40300 53.96800 39.07500
H  31.70900 53.83800 41.93600
H  31.64600 52.57200 40.63600
H  30.17700 53.07500 41.54200
H  30.24800 54.49800 37.34800
H  29.05200 55.78400 37.51600
H  27.50100 53.56200 37.82300
H  28.88000 53.07900 36.64100
H  36.07800 56.58600 39.30400
H  35.59600 55.43100 40.54400
H  36.74800 56.65700 40.96100
H  35.80900 61.11200 42.64300
H  36.15000 61.75900 40.96600
H  37.41800 61.28200 42.15100
H  32.23400 63.29000 40.83400
H  29.77100 63.46800 42.67300
H  32.71400 62.58200 43.65600
H  31.75200 64.09400 43.68200
H  33.24000 64.07300 42.91400
H  28.59800 63.93700 40.79000
H  29.86600 63.58400 39.63400
H  30.73000 65.55100 39.61400
H  30.88100 65.45400 41.40300
H  29.41000 66.06900 40.67900
H  24.39100 60.02900 40.25300
H  25.23900 61.43000 40.66900
H  24.55900 60.34800 41.99200
H  26.58700 55.78700 38.99500
H  26.40800 51.85700 40.83400
H  24.67800 52.04300 40.47800
H  25.23400 52.69800 41.90700
Mg 36.02300 49.37600 25.91800
C  36.03400 47.60700 28.85900
C  34.81200 52.13600 27.69900
C  35.53200 50.96600 22.95700
C  36.81500 46.56500 24.15600
N  35.25400 49.78400 28.11000
C  35.71400 48.94500 29.11000
C  35.64800 49.63000 30.44600
C  35.12300 51.05800 30.03400
C  35.03300 51.00500 28.54500
C  33.85800 51.48300 30.82700
C  37.00200 49.62500 31.18900
C  36.87900 49.27500 32.65700
H  35.62400 49.64300 33.46800
N  35.27000 51.25000 25.40200
C  34.82600 52.20900 26.24300
C  34.33000 53.33600 25.50000
C  34.59100 53.04800 24.11700
C  35.13300 51.68200 24.03800
C  33.78600 54.57100 26.21700
C  34.33100 53.98100 22.80400
O  34.48700 53.64700 21.63800
C  34.00200 55.41300 23.13800
N  35.97600 48.80200 23.82200
C  35.99500 49.70500 22.86100
C  36.34600 49.04400 21.49800
C  37.06200 47.75100 21.97100
C  36.59700 47.67600 23.41000
C  35.21800 48.67700 20.44600
C  38.61500 47.83700 21.90600
C  39.40700 46.46100 21.78100
N  36.32100 47.40500 26.34700
C  36.70900 46.38700 25.55900
C  37.03500 45.26200 26.42800
C  36.73400 45.68400 27.71400
C  36.32200 46.99500 27.56700
C  37.31300 43.92600 25.96400
C  36.60700 45.22000 29.06900
O  36.71600 44.12700 29.59100
C  36.35400 46.51900 29.88200
C  35.24600 46.21000 30.83100
O  34.08400 46.11200 30.54500
O  35.76700 45.99300 32.04900
C  34.80100 45.79600 33.17000
H  34.43900 52.96400 28.30400
H  35.49000 51.47800 21.99400
H  37.15800 45.62900 23.70900
H  34.86500 49.05800 30.94400
H  35.83500 51.84700 30.27800
H  34.03300 52.36700 31.44000
H  33.49800 50.78000 31.57800
H  33.08900 51.65300 30.07300
H  37.53400 50.57200 31.09900
H  37.65200 48.94500 30.63800
H  37.75100 49.74000 33.11700
H  37.18400 48.23100 32.59300
H  33.04800 55.13700 25.64800
H  34.59000 55.19600 26.60600
H  33.22500 54.39100 27.13500
H  33.97600 56.11900 22.30800
H  34.81500 55.69000 23.80900
H  33.03500 55.54100 23.62400
H  37.02700 49.69900 20.95500
H  36.64000 46.87700 21.47500
H  34.21100 48.98200 20.73200
H  35.02500 47.62600 20.22900
H  35.46700 49.13200 19.48700
H  39.07800 48.15400 22.84000
H  38.95200 48.41500 21.04500
H  38.77400 45.57700 21.70100
H  40.09800 46.28200 22.60400
H  40.04800 46.42400 20.90000
H  38.32400 44.01300 25.56600
H  36.56800 43.62100 25.22900
H  37.30800 43.18800 26.76500
H  37.30700 46.81200 30.32200
H  35.16800 46.31200 34.05800
H  34.69500 44.75100 33.45900
H  33.86200 46.32700 33.01600

