158

Mg 48.46100 45.37100 42.29900
C  45.14300 45.73900 41.01700
C  48.37900 42.06200 41.29200
C  51.79800 45.48300 42.25200
C  48.39300 48.81500 43.04400
N  46.82900 44.05400 41.42300
C  45.61100 44.44400 40.97400
C  44.94800 43.30500 40.28100
C  45.87500 42.04000 40.70600
C  47.11300 42.71600 41.12600
C  45.34500 41.05600 41.75500
C  44.79300 43.50500 38.73100
C  43.67300 42.69800 38.01200
H  44.11000 41.45900 37.21700
N  49.91900 43.95800 41.88700
C  49.67900 42.69000 41.56000
C  50.93700 41.92500 41.45300
C  51.97900 42.90200 41.74900
C  51.27800 44.15600 42.02300
C  51.09900 40.47700 41.21300
C  53.42700 42.55900 41.87500
O  53.84700 41.41800 41.72600
C  54.42800 43.64900 42.16100
N  49.92500 46.96300 42.52700
C  51.26200 46.71100 42.47300
C  52.06800 47.96700 42.71900
C  50.96700 49.01400 43.20000
C  49.68300 48.22800 42.87800
C  53.26200 47.79400 43.79800
C  51.27400 50.45900 42.71800
C  51.23400 51.50500 43.76600
N  47.04000 46.96300 42.18000
C  47.18300 48.25500 42.51700
C  45.92000 48.91700 42.27500
C  45.05200 47.97100 41.67000
C  45.79300 46.82000 41.65900
C  45.51800 50.31300 42.55700
C  43.81200 47.73400 41.06200
O  42.91600 48.52100 40.77400
C  43.83000 46.28800 40.42000
C  42.48600 45.63300 40.84500
O  41.61500 45.23100 40.11400
O  42.55400 45.35900 42.13000
C  41.30600 44.95900 42.75500
H  48.33600 41.07700 40.82300
H  52.88800 45.52000 42.20900
H  48.39400 49.85800 43.36800
H  43.99300 43.22800 40.80200
H  45.94300 41.46100 39.78500
H  44.49000 41.55700 42.20900
H  46.08300 40.93100 42.54700
H  45.04100 40.09800 41.33200
H  45.72600 43.16900 38.27900
H  44.77600 44.57400 38.52000
H  43.08100 43.31900 37.33900
H  43.02500 42.30100 38.79300
H  51.65100 40.31500 40.28700
H  50.11800 40.00300 41.24700
H  51.67200 39.93200 41.96200
H  54.49100 44.44600 41.42000
H  55.43600 43.29200 42.36900
H  54.07700 44.00600 43.13000
H  52.44900 48.29800 41.75200
H  51.00200 49.01900 44.28900
H  53.40900 46.75200 44.08000
H  53.06300 48.34100 44.72000
H  54.10500 48.14700 43.20400
H  50.67900 50.71300 41.84100
H  52.21500 50.58400 42.18200
H  51.69900 51.16300 44.69100
H  50.22000 51.86300 43.94400
H  51.84900 52.37500 43.53700
H  46.27000 51.02900 42.22300
H  45.50000 50.32900 43.64700
H  44.50600 50.62600 42.30200
H  43.74300 46.35500 39.33600
H  40.41400 45.02900 42.13200
H  41.22400 45.40700 43.74600
H  41.53200 43.90300 42.90600
Mg 6.30600 53.11700 41.53300
C  5.61800 49.70000 41.39700
C  9.63400 52.45100 40.83900
C  6.97600 56.56500 41.44700
C  2.95000 53.86000 41.87600
N  7.45300 51.19600 40.92500
C  6.98000 49.94600 41.06000
C  8.15500 48.90200 40.88300
C  9.45200 49.88800 40.84000
C  8.85500 51.29100 40.99100
C  10.52700 49.47500 41.93800
C  8.12700 48.17400 39.56800
C  8.08000 48.96000 38.26000
H  7.15700 48.45200 37.19800
N  8.08800 54.34100 41.21200
C  9.35400 53.82200 41.01500
C  10.28600 54.95500 40.75500
C  9.55100 56.09100 40.90000
C  8.11700 55.71600 41.31200
C  11.81100 54.84900 40.51900
C  10.15700 57.53100 40.68900
O  11.34600 57.60500 40.42500
C  9.39200 58.80000 40.69300
N  5.14400 54.93000 41.59200
C  5.63500 56.20400 41.62600
C  4.54300 57.18600 41.60300
C  3.22900 56.36500 41.71500
C  3.78100 54.97800 41.65800
C  4.60500 58.31900 42.67500
C  2.05500 56.49800 40.64300
C  1.01000 57.54100 41.16000
N  4.62600 52.02900 41.57100
C  3.31100 52.49000 41.77300
C  2.42700 51.33600 42.11700
C  3.30500 50.20700 41.87600
C  4.60600 50.69100 41.62000
C  1.03200 51.35800 42.56400
C  3.38700 48.73800 41.98000
O  2.51800 47.92700 42.36100
C  4.81200 48.37500 41.60100
C  4.83600 47.49500 40.46400
O  4.41800 47.76400 39.36000
O  5.36700 46.29200 40.76400
C  5.41400 45.36500 39.61900
H  10.65500 52.14900 40.59600
H  7.15300 57.64200 41.44500
H  1.92700 54.13400 42.14100
H  8.27700 48.17100 41.68200
H  10.08700 49.78100 39.96000
H  11.47700 49.08900 41.56700
H  10.04900 48.90200 42.73300
H  10.77500 50.45900 42.33600
H  7.32900 47.43200 39.57700
H  9.08200 47.64900 39.57800
H  9.05600 48.80300 37.80200
H  7.76200 49.98800 38.43500
H  12.09900 55.34200 39.59100
H  12.10200 53.81100 40.36400
H  12.31700 55.31400 41.36600
H  8.58000 58.77300 39.96700
H  9.93500 59.72300 40.48800
H  9.07900 59.01300 41.71500
H  4.54600 57.56100 40.58000
H  2.76300 56.43700 42.69800
H  3.68500 58.49400 43.23200
H  4.77600 59.30200 42.23700
H  5.41900 58.11300 43.37100
H  1.51500 55.57200 40.44500
H  2.37300 56.88300 39.67400
H  0.85600 58.19100 40.29900
H  1.41400 58.13800 41.97700
H  0.00800 57.21800 41.44200
H  0.76100 50.79100 43.45500
H  0.58000 50.92800 41.67000
H  0.76600 52.40200 42.73100
H  5.24500 47.79300 42.41500
H  5.91500 44.41000 39.77700
H  5.97000 45.76600 38.77200
H  4.40700 45.19200 39.23700

