158

Mg 1.79300 8.98900 26.98100
C  2.32600 10.79000 29.93100
C  1.55800 6.16100 28.96900
C  1.45000 7.23400 24.25000
C  2.15700 11.80900 25.20100
N  2.11000 8.50900 29.34300
C  2.05200 9.48600 30.30000
C  1.74200 8.86800 31.69300
C  1.83300 7.32900 31.30300
C  1.75100 7.27500 29.79800
C  3.08400 6.65900 32.02000
C  0.42200 9.35500 32.24400
C  0.16100 9.29100 33.73300
H  1.26400 8.85200 34.62900
N  1.67100 6.89600 26.62200
C  1.50400 5.94900 27.52700
C  1.29600 4.68400 26.79700
C  1.33500 4.96100 25.39400
C  1.50700 6.39700 25.36800
C  1.06500 3.37300 27.52800
C  1.22000 4.05400 24.23100
O  1.28200 4.33800 23.01400
C  1.33300 2.56000 24.56700
N  1.70900 9.46700 24.92400
C  1.50900 8.60200 23.99000
C  1.42600 9.22500 22.58300
C  1.37400 10.73900 23.02500
C  1.80700 10.71000 24.44800
C  2.63500 8.90400 21.63000
C  0.02600 11.50000 22.92700
C  -0.64600 11.78300 21.58600
N  2.09700 10.90300 27.39300
C  2.26400 11.99800 26.59200
C  2.52900 13.18400 27.37600
C  2.59300 12.70600 28.68500
C  2.32200 11.29900 28.61600
C  2.78600 14.58400 26.88900
C  2.81800 13.21900 30.00700
O  3.10500 14.29800 30.45600
C  2.51800 11.97000 30.89900
C  3.60500 11.84900 31.86500
O  4.75500 11.80000 31.57100
O  3.03400 11.96800 33.12600
C  4.01600 12.17400 34.18100
H  1.50100 5.23700 29.54700
H  1.32200 6.65100 23.33500
H  2.43200 12.68900 24.61700
H  2.54900 9.36000 32.23700
H  0.89500 6.93300 31.69300
H  3.11100 6.88400 33.08700
H  3.98900 7.10000 31.60100
H  3.15200 5.59600 31.79000
H  -0.42100 8.83200 31.79200
H  0.27900 10.38700 31.92200
H  -0.66000 8.58000 33.82500
H  -0.12000 10.29000 34.06600
H  2.04200 3.07200 27.90500
H  0.57100 2.57000 26.98200
H  0.54400 3.57000 28.46500
H  2.04500 2.34900 25.36500
H  1.49700 2.04900 23.61800
H  0.31600 2.30800 24.86400
H  0.47300 8.92100 22.14900
H  2.18900 11.27300 22.53600
H  3.41300 8.62600 22.34100
H  2.96100 9.76900 21.05200
H  2.31500 8.09100 20.97800
H  0.19700 12.49900 23.32800
H  -0.60800 10.89300 23.57300
H  -0.58600 12.83500 21.30500
H  -1.68800 11.46500 21.61600
H  -0.11300 11.29400 20.77100
H  3.31500 14.58200 25.93600
H  3.24300 15.16900 27.68700
H  1.79000 15.00200 26.73900
H  1.57800 12.28000 31.35600
H  4.81400 12.83500 33.84100
H  4.50700 11.22700 34.40700
H  3.43100 12.49100 35.04300
Mg 54.20100 23.45400 44.32600
C  51.40700 25.25600 43.35000
C  52.92300 20.63700 42.95600
C  57.30700 21.97400 44.58700
C  55.55000 26.49800 45.38200
N  52.44800 23.07900 43.26500
C  51.37900 23.93800 43.01600
C  50.36400 23.30200 42.09700
C  50.64300 21.75600 42.34700
C  52.14600 21.80800 42.91100
C  49.70700 21.12100 43.37000
C  50.71200 23.52400 40.62800
C  49.58300 23.99000 39.68200
H  49.51500 23.27700 38.33300
N  55.06500 21.52700 43.83000
C  54.29400 20.45500 43.43100
C  55.21600 19.31000 43.27700
C  56.56800 19.66900 43.64000
C  56.33500 21.11500 44.02900
C  54.71900 17.95800 42.80700
C  57.83800 18.82300 43.55900
O  57.78700 17.65500 43.16700
C  59.20500 19.38800 43.91300
N  56.19100 24.20600 44.82800
C  57.33000 23.37900 44.87000
C  58.53000 24.17200 45.35900
C  57.95400 25.62000 45.59500
C  56.49600 25.43000 45.21200
C  59.50300 23.62900 46.49400
C  58.70500 26.72800 44.69800
C  58.90400 28.13900 45.21600
N  53.62400 25.50900 44.51400
C  54.22000 26.64900 45.08100
C  53.26500 27.74300 45.15900
C  52.16400 27.23300 44.43000
C  52.41700 25.90800 44.01500
C  53.51900 29.05200 45.87900
C  50.88300 27.66800 43.89000
O  50.26600 28.75300 44.02800
C  50.40000 26.37700 43.09700
C  50.48700 26.81800 41.67600
O  51.45300 26.93400 41.02500
O  49.13600 27.16300 41.32200
C  49.05400 27.72300 39.92800
H  52.43800 19.75000 42.54400
H  58.26100 21.56700 44.93000
H  56.02300 27.43600 45.68000
H  49.32500 23.58700 42.26700
H  50.64100 21.14600 41.44400
H  50.09000 21.25100 44.38300
H  49.53400 20.05500 43.21800
H  48.72500 21.57200 43.22800
H  50.93900 22.59000 40.11400
H  51.52400 24.25100 40.62200
H  49.60200 25.00100 39.27400
H  48.58700 23.86600 40.10500
H  54.00000 18.09400 41.99900
H  54.29500 17.44800 43.67200
H  55.53900 17.39500 42.36200
H  59.32800 20.20400 43.20000
H  60.03000 18.68000 43.83600
H  59.22400 19.80900 44.91800
H  59.15800 24.11700 44.46900
H  58.05200 25.89600 46.64600
H  59.51200 22.54100 46.42300
H  59.15800 23.94900 47.47800
H  60.51200 23.98100 46.28100
H  58.15700 26.75800 43.75600
H  59.68300 26.28200 44.51900
H  58.92600 28.71300 44.29000
H  59.82600 28.33000 45.76600
H  58.00600 28.40700 45.77300
H  54.59200 29.19600 45.99700
H  53.01600 29.20800 46.83300
H  53.21100 29.82400 45.17400
H  49.36400 26.10900 43.30200
H  49.98100 27.78900 39.35800
H  48.80300 28.75800 40.15900
H  48.31100 27.23400 39.29900

