158

Mg 1.68300 -1.39800 44.18100
C  5.05900 -0.94300 43.24300
C  0.92200 1.03800 41.88000
C  -1.40000 -2.42700 44.40800
C  2.81500 -4.16000 46.12800
N  2.87600 -0.14300 42.60700
C  4.21200 -0.07100 42.45700
C  4.65000 0.90200 41.37300
C  3.27200 1.70000 41.10300
C  2.24700 0.84900 41.92000
C  3.30500 3.22500 41.27100
C  5.39200 0.28100 40.10400
C  6.87700 0.62000 40.11000
H  7.48600 0.91400 38.72200
N  -0.03100 -0.72600 43.33400
C  -0.16600 0.28300 42.43200
C  -1.57900 0.53700 42.31900
C  -2.27900 -0.30900 43.13200
C  -1.22100 -1.26700 43.66300
C  -2.11700 1.50300 41.23100
C  -3.82700 -0.29800 43.34200
O  -4.51100 0.41000 42.62100
C  -4.45400 -1.19800 44.29900
N  0.84200 -3.32300 44.85400
C  -0.45900 -3.37800 45.07100
C  -0.84200 -4.60800 45.68100
C  0.52900 -5.24700 46.32500
C  1.49700 -4.21300 45.66100
C  -1.94800 -4.52300 46.75500
C  0.87400 -6.68100 45.75900
C  1.00000 -7.72500 46.92900
N  3.52900 -2.37000 44.61200
C  3.77500 -3.39400 45.52100
C  5.20400 -3.67100 45.53400
C  5.75500 -2.61300 44.72300
C  4.69000 -1.95500 44.15800
C  5.92200 -4.87100 46.12600
C  6.94200 -2.08000 44.21700
O  8.09800 -2.50100 44.35400
C  6.55400 -0.89300 43.26900
C  7.04800 0.32300 43.91800
O  6.76900 0.71300 45.04100
O  7.85200 1.02100 42.98300
C  8.25000 2.38300 43.32700
H  0.68100 1.98300 41.38900
H  -2.43500 -2.66600 44.66000
H  3.24600 -4.93300 46.76800
H  5.32600 1.65600 41.77800
H  3.01200 1.56300 40.05400
H  2.70300 3.56100 42.11600
H  2.98700 3.68100 40.33300
H  4.29900 3.50600 41.61800
H  4.94800 0.79100 39.24900
H  5.29000 -0.80400 40.10200
H  7.53100 -0.15900 40.50200
H  7.02100 1.53600 40.68300
H  -2.66700 0.93500 40.48000
H  -1.34600 2.10500 40.74900
H  -2.71200 2.25600 41.74700
H  -5.43600 -0.85400 44.62400
H  -3.87900 -1.32200 45.21700
H  -4.53100 -2.14000 43.75700
H  -1.17400 -5.26000 44.87400
H  0.47000 -5.34000 47.41000
H  -1.63800 -4.65300 47.79200
H  -2.79800 -5.19600 46.64800
H  -2.41300 -3.54400 46.64100
H  1.84800 -6.54300 45.29100
H  0.15700 -6.94300 44.98200
H  2.04400 -8.03600 46.94000
H  0.42700 -8.60600 46.63900
H  0.61800 -7.30800 47.86100
H  5.87800 -5.54200 45.26800
H  5.27500 -5.18900 46.94300
H  6.94300 -4.75700 46.49200
H  7.00000 -1.00900 42.28100
H  7.39900 3.01700 43.07700
H  9.07800 2.68100 42.68400
H  8.55700 2.58000 44.35400
Mg 43.76400 3.77600 46.68100
C  41.50200 6.70500 46.48800
C  40.98700 1.78100 46.40100
C  45.80000 1.21400 46.14200
C  46.37700 6.01400 46.77100
N  41.52600 4.28800 46.36000
C  40.80500 5.48200 46.49200
C  39.31500 5.20100 46.61100
C  39.26100 3.63400 46.78300
C  40.70500 3.15400 46.51800
C  38.71900 3.00800 48.08100
C  38.38400 5.75200 45.43100
C  38.83700 5.25500 44.01300
H  39.17100 6.39500 42.96700
N  43.44000 1.71800 46.19900
C  42.23400 1.11200 46.14600
C  42.50600 -0.29800 45.99900
C  43.81600 -0.52400 45.72300
C  44.44300 0.82900 45.95500
C  41.37100 -1.38300 45.90000
C  44.47000 -1.85500 45.27000
O  43.81900 -2.89200 45.22100
C  45.91200 -1.93600 44.89400
N  45.84200 3.59600 46.25500
C  46.43000 2.39400 46.38700
C  47.97200 2.52200 46.70600
C  48.09100 4.12000 46.83400
C  46.71600 4.66600 46.60300
C  48.44200 1.77500 47.94400
C  49.16000 4.74400 46.08100
C  50.56100 4.99900 46.68500
N  43.96400 5.93700 46.47100
C  45.08100 6.65100 46.61700
C  44.78500 8.05500 46.56200
C  43.37100 8.15500 46.58500
C  42.91000 6.83000 46.44700
C  45.77800 9.15700 46.72300
C  42.21400 9.04900 46.60000
O  42.12100 10.30100 46.57300
C  40.91000 8.08900 46.64000
C  40.30900 8.31700 47.90200
O  40.65500 7.69400 48.91200
O  39.28300 9.23400 47.76700
C  38.51300 9.28900 49.04500
H  40.05900 1.20500 46.40100
H  46.56100 0.44800 45.98100
H  47.24800 6.65900 46.90800
H  39.03700 5.65600 47.56200
H  38.64200 3.29500 45.95200
H  38.22500 3.77700 48.67500
H  39.48700 2.53000 48.69100
H  37.96500 2.25900 47.84000
H  38.28200 6.83100 45.54500
H  37.37700 5.42200 45.68700
H  38.06600 4.57800 43.64400
H  39.70800 4.60500 44.09500
H  41.21500 -1.38900 44.82200
H  40.44100 -1.06400 46.37000
H  41.68200 -2.38400 46.20000
H  46.60600 -2.06200 45.72500
H  46.09500 -0.96100 44.44200
H  46.09500 -2.69900 44.13800
H  48.57000 2.25300 45.83500
H  48.38700 4.29900 47.86800
H  49.02300 0.90100 47.65100
H  47.56400 1.34000 48.42300
H  49.04300 2.33700 48.65900
H  48.70300 5.66600 45.72300
H  49.31900 4.14900 45.18100
H  50.78200 4.15800 47.34300
H  50.61300 5.88400 47.31900
H  51.36300 5.09900 45.95400
H  46.59500 9.04200 46.01000
H  46.27100 8.94200 47.67100
H  45.49000 10.19600 46.56100
H  40.40200 8.23900 45.68700
H  39.08300 9.23700 49.97200
H  37.69300 8.57400 49.11700
H  37.91800 10.19000 49.19300

