158

Mg 24.66400 1.83000 29.61900
C  26.86500 1.56700 32.22800
C  22.09300 2.04900 31.62000
C  22.59300 1.87700 26.82500
C  27.32900 1.46100 27.34600
N  24.52900 1.49600 31.72800
C  25.51500 1.64400 32.66700
C  24.91900 1.87700 34.03800
C  23.35200 1.86500 33.74900
C  23.29600 1.87800 32.27100
C  22.52300 0.62700 34.16700
C  25.50000 3.23200 34.54100
C  25.50000 3.22200 36.11400
H  25.03700 4.36900 36.99700
N  22.62200 1.91800 29.28300
C  21.71900 2.03100 30.29200
C  20.37100 2.00200 29.67300
C  20.48500 1.74200 28.28400
C  21.96900 1.91200 28.06400
C  19.11500 2.07200 30.57700
C  19.38000 1.40800 27.19400
O  19.55200 1.28300 25.99400
C  17.95200 1.03800 27.64800
N  24.95300 1.67400 27.36300
C  23.95900 1.79200 26.53100
C  24.45700 1.87700 25.02800
C  26.00300 1.88900 25.17600
C  26.11700 1.71600 26.73300
C  23.82400 0.95000 23.87700
C  26.75600 3.04300 24.55700
C  27.14000 4.32700 25.33700
N  26.70000 1.43200 29.66300
C  27.68600 1.32600 28.72600
C  28.93300 1.05700 29.37800
C  28.71000 1.18200 30.74200
C  27.33200 1.37700 30.85500
C  30.10700 0.59700 28.68800
C  29.27600 1.14400 32.08700
O  30.38500 0.82600 32.41700
C  28.15700 1.50000 33.17700
C  28.13700 0.51200 34.26400
O  27.71800 -0.63200 34.22800
O  28.61800 1.05100 35.42800
C  28.70800 0.12200 36.60200
H  21.35900 2.25700 32.40200
H  22.00000 1.84200 25.90900
H  28.24300 1.42400 26.75000
H  25.31000 1.07900 34.66800
H  22.92600 2.78700 34.14400
H  23.15700 0.01300 34.80600
H  22.15800 0.06600 33.30700
H  21.65600 0.88000 34.77700
H  24.97900 4.12100 34.18500
H  26.54300 3.39800 34.27100
H  26.52000 3.02500 36.44400
H  24.86800 2.40200 36.45500
H  18.60700 2.96100 30.20300
H  19.41600 2.17100 31.62000
H  18.55300 1.15700 30.39100
H  18.18700 0.03000 27.98900
H  17.33200 1.02500 26.75200
H  17.47600 1.71100 28.36100
H  24.13500 2.91200 24.91300
H  26.43100 1.02500 24.66800
H  22.98200 1.46700 23.41700
H  23.29200 0.06900 24.23600
H  24.63300 0.67400 23.20000
H  26.24000 3.32700 23.63900
H  27.69100 2.70100 24.11300
H  28.22500 4.41300 25.29100
H  26.72200 4.26700 26.34100
H  26.51700 5.12700 24.93800
H  30.81600 1.41700 28.80100
H  29.99300 0.39800 27.62300
H  30.54700 -0.32100 29.07700
H  28.35100 2.49400 33.57900
H  28.88000 -0.91600 36.31700
H  27.85100 0.16600 37.27400
H  29.54800 0.46900 37.20400
Mg 48.04900 25.66300 28.04700
C  49.00600 27.89400 30.55100
C  46.75500 23.62100 30.59400
C  47.40100 23.32600 25.81500
C  49.56000 27.72700 25.71700
N  47.76800 25.82500 30.29900
C  48.20200 26.84500 31.09900
C  47.69800 26.76200 32.50100
C  47.00800 25.30900 32.53800
C  47.27000 24.82300 31.02500
C  47.50800 24.36000 33.65800
C  46.80700 27.93300 32.93900
C  47.13900 28.58200 34.32200
H  45.92000 28.94300 35.19800
N  47.18300 23.74100 28.18600
C  46.70600 23.06300 29.29200
C  46.07500 21.89100 28.83800
C  46.30300 21.74100 27.47600
C  47.01900 22.98200 27.09500
C  45.35600 21.01800 29.77700
C  46.08800 20.55700 26.52400
O  46.44700 20.47600 25.35100
C  45.34400 19.32400 27.05600
N  48.52500 25.48700 26.06500
C  48.10400 24.40900 25.29300
C  48.35300 24.68600 23.75600
C  48.76200 26.21800 23.79500
C  48.89700 26.56600 25.28300
C  49.41200 23.74300 23.13600
C  47.82300 27.14500 22.92900
C  48.69900 27.99800 21.93800
N  49.14700 27.37600 28.07100
C  49.70100 28.11100 27.02800
C  50.31900 29.32800 27.57800
C  50.10800 29.20400 28.92300
C  49.43000 28.03700 29.22700
C  51.00600 30.43900 26.83100
C  50.35800 29.90100 30.19300
O  51.01100 30.90400 30.48900
C  49.60700 29.07400 31.21800
C  50.37600 28.65800 32.47300
O  51.23200 27.77800 32.49600
O  50.12500 29.49200 33.48800
C  50.90200 29.32400 34.74700
H  46.22800 23.03200 31.34800
H  47.27800 22.52000 25.08800
H  49.93700 28.39900 24.94400
H  48.55700 26.82100 33.17000
H  45.94000 25.44300 32.71600
H  47.78300 23.37600 33.27700
H  46.87000 24.26900 34.53700
H  48.44800 24.76800 34.02800
H  45.81200 27.52900 33.12800
H  46.55500 28.64000 32.14800
H  47.68900 29.52200 34.28400
H  47.77700 27.95200 34.94200
H  45.09900 21.32100 30.79200
H  45.89400 20.07600 29.88500
H  44.37400 20.82900 29.34500
H  45.32800 18.52200 26.31800
H  44.33800 19.62800 27.34500
H  45.66000 18.94500 28.02700
H  47.37000 24.49700 23.32200
H  49.79600 26.23100 23.45100
H  49.49500 22.99300 23.92400
H  50.29600 24.33100 22.88900
H  48.91300 23.33200 22.25900
H  47.26300 27.93200 23.43500
H  47.13300 26.52400 22.35700
H  48.09400 28.86200 21.66500
H  48.77000 27.36700 21.05100
H  49.67100 28.28000 22.34200
H  51.75200 30.65600 27.59500
H  50.32000 31.20000 26.46000
H  51.48700 30.06500 25.92700
H  48.81200 29.70900 31.60700
H  51.13000 30.30300 35.16900
H  51.81100 28.74300 34.59400
H  50.29800 28.69300 35.40000

