158

Mg 36.04300 2.31000 30.77800
C  33.32500 3.06900 33.03300
C  38.08800 2.19000 33.27000
C  38.30500 1.69000 28.45800
C  33.55800 2.35600 28.16600
N  35.69800 2.63900 32.88900
C  34.56300 2.87700 33.64700
C  34.95900 2.96300 35.12500
C  36.49200 2.88500 35.16100
C  36.79500 2.49300 33.65300
C  37.25200 4.21200 35.48500
C  34.20800 1.81000 36.02000
C  33.75300 2.17000 37.45500
H  34.57600 3.18000 38.20400
N  37.93500 1.89100 30.84400
C  38.64800 1.89900 32.01600
C  39.98800 1.33800 31.79000
C  40.02100 1.17200 30.38800
C  38.74600 1.66200 29.83200
C  41.01600 1.05400 32.89700
C  41.14300 0.61800 29.51100
O  40.90500 0.39200 28.36900
C  42.54600 0.35500 30.09100
N  35.91900 1.92300 28.58500
C  37.01000 1.81500 27.88300
C  36.69600 1.48100 26.45500
C  35.13300 1.49400 26.38000
C  34.77100 1.87600 27.79400
C  37.34700 2.20600 25.29000
C  34.57500 0.05200 26.10700
C  34.50000 -0.29000 24.61500
N  33.95400 2.80800 30.53700
C  33.11400 2.73800 29.44800
C  31.78900 3.02500 29.87200
C  31.88400 3.23400 31.26800
C  33.19000 3.02000 31.59100
C  30.57600 2.96300 28.97900
C  31.08800 3.50300 32.46800
O  29.92200 3.75200 32.63800
C  32.08300 3.37900 33.65100
C  32.10800 4.72000 34.32500
O  32.54000 5.76600 33.81400
O  31.52200 4.62400 35.55800
C  31.43300 5.81300 36.44600
H  38.82100 2.16400 34.07900
H  39.00800 1.42600 27.66500
H  32.93700 2.31300 27.27000
H  34.59800 3.93500 35.46300
H  36.97000 2.12900 35.78300
H  37.76100 4.66600 34.63500
H  37.99600 4.06700 36.26800
H  36.59100 5.02700 35.77900
H  34.86900 0.94400 36.04600
H  33.38900 1.46800 35.38700
H  33.78300 1.18000 37.91000
H  32.72900 2.53900 37.38900
H  41.98800 1.43900 32.58900
H  41.00300 -0.02400 33.05400
H  40.73800 1.37000 33.90300
H  43.16800 -0.06300 29.29900
H  42.39800 -0.29400 30.95400
H  43.04400 1.26600 30.42400
H  37.01500 0.45600 26.26600
H  34.77500 2.29200 25.73100
H  36.63200 2.08800 24.47600
H  38.18100 1.59800 24.94000
H  37.60200 3.26400 25.35200
H  33.61200 -0.04700 26.60900
H  35.28500 -0.64800 26.54700
H  33.66600 -0.95400 24.38600
H  35.42000 -0.71600 24.21500
H  34.35500 0.62700 24.04300
H  29.69500 2.95500 29.62100
H  30.67100 2.03300 28.41800
H  30.50800 3.79800 28.28300
H  31.75400 2.60400 34.34200
H  31.47300 5.63400 37.52100
H  30.49600 6.33300 36.24500
H  32.24100 6.51900 36.25400
Mg 41.57200 8.15800 30.21400
C  43.26200 9.54500 32.83400
C  39.34200 6.74300 32.61400
C  39.89600 6.76000 27.68800
C  43.99800 9.10800 28.05500
N  41.41500 8.10300 32.39700
C  42.11100 8.87000 33.24400
C  41.70600 8.79600 34.66800
C  40.45000 7.89700 34.56100
C  40.41800 7.46100 33.13800
C  40.37800 6.72500 35.55700
C  41.37100 10.14500 35.44100
C  42.09100 10.32800 36.72500
H  41.36100 10.93700 37.85900
N  39.93500 6.97600 30.16800
C  39.08400 6.60400 31.19700
C  37.93300 5.95400 30.63000
C  38.01700 6.03200 29.19700
C  39.37200 6.57400 28.96100
C  36.89300 5.30200 31.44200
C  36.99100 5.57700 28.14600
O  37.24500 5.66800 26.94700
C  35.57300 5.30800 28.53800
N  41.93000 7.86800 28.18600
C  41.01500 7.41200 27.29100
C  41.45600 7.46100 25.86500
C  42.81100 8.26500 25.99800
C  42.91900 8.49100 27.46000
C  41.69900 6.00000 25.28600
C  42.85900 9.55500 25.11200
C  42.13400 10.80200 25.57800
N  43.42300 9.04900 30.35700
C  44.27700 9.42200 29.39200
C  45.36100 10.23300 30.00300
C  44.98500 10.31500 31.38500
C  43.79200 9.58800 31.53500
C  46.65400 10.75300 29.34100
C  45.36300 10.82700 32.64900
O  46.39300 11.36800 32.98700
C  44.22200 10.40800 33.67700
C  44.94000 9.53000 34.65000
O  45.36000 8.41100 34.49200
O  45.18200 10.22200 35.84700
C  45.68200 9.38200 36.94000
H  38.44100 6.61100 33.21600
H  39.40300 6.25800 26.85300
H  44.66700 9.65100 27.38400
H  42.42700 8.19700 35.22400
H  39.61000 8.49500 34.91500
H  41.11300 6.86800 36.34900
H  40.59800 5.74400 35.13700
H  39.44300 6.74900 36.11700
H  40.29000 10.28600 35.42100
H  41.77900 10.95200 34.83300
H  42.95900 10.98400 36.66200
H  42.53200 9.40100 37.09000
H  37.27100 5.14400 32.45200
H  36.64800 4.30200 31.08300
H  36.04400 5.98500 31.44600
H  35.51900 4.60200 29.36700
H  35.04200 4.96000 27.65200
H  35.11700 6.25700 28.82200
H  40.68100 7.93300 25.26100
H  43.68000 7.61900 25.86800
H  42.74000 5.86500 24.99100
H  41.03600 5.83900 24.43700
H  41.44200 5.26400 26.04800
H  42.44200 9.39500 24.11700
H  43.91300 9.79200 24.96500
H  42.71200 11.72700 25.59600
H  41.48400 10.57100 26.42200
H  41.47200 10.91400 24.72000
H  46.51400 10.70900 28.26100
H  47.54700 10.24500 29.70300
H  46.87500 11.77100 29.66100
H  43.79100 11.35200 34.01200
H  45.42300 9.89600 37.86600
H  46.73900 9.16300 36.78800
H  45.05100 8.49400 36.96900

