158

Mg 43.83200 3.84400 48.18400
C  41.59500 6.43500 47.38100
C  41.24300 1.56300 47.77100
C  46.06900 1.28400 48.62500
C  46.43400 6.13300 47.98100
N  41.63600 4.03300 47.61000
C  40.94500 5.20800 47.33600
C  39.54300 4.84800 46.99900
C  39.39000 3.31200 47.33400
C  40.81100 2.92200 47.50100
C  38.53700 3.02400 48.53200
C  39.21200 5.37700 45.53700
C  38.05200 6.40300 45.58400
H  37.26700 6.38500 44.21600
N  43.70000 1.76900 48.25300
C  42.52000 1.04300 48.12500
C  42.77700 -0.41400 48.25700
C  44.21400 -0.50800 48.42100
C  44.76700 0.88800 48.44100
C  41.69300 -1.49500 48.30100
C  44.87600 -1.80200 48.61400
O  44.14800 -2.79500 48.73800
C  46.44800 -1.92300 48.36100
N  46.02000 3.73800 48.19100
C  46.69400 2.58400 48.49200
C  48.23700 2.86900 48.47600
C  48.30800 4.41000 48.20600
C  46.79200 4.79600 47.99400
C  48.95900 2.41500 49.85700
C  49.13900 4.82500 46.97400
C  50.72100 4.65100 47.18200
N  44.06200 5.86600 47.85800
C  45.17800 6.70000 47.94600
C  44.79000 8.10200 47.76600
C  43.39900 8.00300 47.47000
C  42.98900 6.63200 47.59700
C  45.68500 9.26300 47.49500
C  42.25600 8.79100 47.10700
O  42.17500 10.01700 46.89600
C  41.04100 7.83400 47.06100
C  40.03200 8.45700 48.02800
O  39.85400 8.17100 49.20000
O  39.27100 9.37000 47.40200
C  38.40700 10.19300 48.21300
H  40.42000 0.84600 47.76000
H  46.83500 0.52300 48.78800
H  47.28100 6.81600 48.06900
H  38.90800 5.39200 47.69800
H  38.92200 2.82000 46.48100
H  39.24100 2.97100 49.36300
H  37.87200 2.16100 48.52000
H  37.86700 3.86700 48.70200
H  38.96400 4.54200 44.88200
H  39.99200 5.94600 45.03100
H  38.28000 7.45900 45.73200
H  37.37000 6.09200 46.37500
H  41.72100 -2.04000 47.35800
H  40.65500 -1.17300 48.38000
H  41.86700 -2.05700 49.21900
H  46.74000 -1.41000 47.44500
H  46.60800 -2.97400 48.12300
H  47.17400 -1.55700 49.08700
H  48.70300 2.37200 47.62500
H  48.86400 4.85100 49.03300
H  49.80700 3.05700 50.09800
H  49.35700 1.42000 49.66000
H  48.22500 2.41200 50.66200
H  49.03000 5.90200 46.84700
H  48.86000 4.25500 46.08800
H  51.18500 4.25500 46.27800
H  50.90100 4.09300 48.10100
H  51.27000 5.57100 47.38300
H  46.65600 8.91100 47.14800
H  45.92200 9.72000 48.45600
H  45.23600 9.95500 46.78200
H  40.56300 7.84600 46.08200
H  37.91900 9.71200 49.06100
H  37.57300 10.62200 47.65700
H  38.98400 11.01000 48.64600
Mg 47.91100 44.99200 42.43800
C  44.50700 44.25800 42.47700
C  48.55900 41.44500 42.15600
C  51.13000 45.60800 41.61500
C  47.14900 48.37400 42.09300
N  46.68600 43.02200 42.52400
C  45.26700 43.04100 42.29000
C  44.68800 41.63000 42.06400
C  46.01400 40.77300 42.10600
C  47.14300 41.78400 42.21500
C  46.01200 39.64300 43.22100
C  43.87400 41.43800 40.78300
C  44.29300 42.10200 39.43200
H  44.21400 41.36400 38.09900
N  49.62100 43.72900 42.11400
C  49.65800 42.37700 42.01100
C  50.98400 41.91000 41.79800
C  51.73600 43.10600 41.46100
C  50.84600 44.24700 41.79900
C  51.45600 40.42000 41.64100
C  53.19200 43.16800 40.85900
O  53.89200 42.13600 40.80300
C  53.76800 44.44600 40.49100
N  48.97200 46.64200 41.86300
C  50.25400 46.71300 41.54200
C  50.83800 48.11400 41.46900
C  49.56700 48.96400 41.64900
C  48.46700 47.96800 41.95100
C  51.94600 48.42500 42.53300
C  49.34300 49.79400 40.36400
C  48.94100 51.31600 40.59500
N  46.16200 46.22800 42.51800
C  46.03600 47.55100 42.30100
C  44.56000 47.83200 42.10900
C  43.92600 46.58600 42.25300
C  44.96200 45.66200 42.49100
C  43.92700 49.16200 41.81600
C  42.64600 45.87700 42.14100
O  41.51900 46.19400 41.91800
C  43.03000 44.41600 42.22500
C  42.25200 43.92400 43.39900
O  41.23500 43.24100 43.27200
O  42.73700 44.44200 44.59600
C  41.88800 44.36500 45.77400
H  48.75300 40.37900 42.01600
H  52.14700 45.96300 41.43500
H  46.81700 49.41000 41.99200
H  43.99800 41.32200 42.85000
H  46.10000 40.22100 41.17000
H  46.04400 38.66100 42.75000
H  45.13300 39.80700 43.84600
H  46.92600 39.68100 43.81400
H  42.82300 41.60300 41.02200
H  43.85200 40.37400 40.54600
H  45.34200 42.33100 39.61900
H  43.83800 43.08800 39.34100
H  51.60900 40.18700 40.58800
H  50.78000 39.63400 41.98000
H  52.40300 40.24700 42.15200
H  53.03000 44.91100 39.83800
H  54.67900 44.30600 39.90800
H  54.06400 44.87400 41.44900
H  51.31900 48.17800 40.49300
H  49.70600 49.70500 42.43700
H  52.35000 47.50700 42.95900
H  51.51600 48.98900 43.36100
H  52.69600 49.01500 42.00600
H  48.46200 49.37800 39.87500
H  50.15900 49.73400 39.64400
H  48.06600 51.63000 40.02600
H  49.76700 51.94500 40.26400
H  49.03400 51.61500 41.63900
H  42.94000 49.07900 41.36200
H  44.57100 49.68300 41.10700
H  43.84900 49.77500 42.71400
H  42.73900 44.03500 41.24700
H  41.44300 43.37000 45.79400
H  41.13000 45.12100 45.57100
H  42.41300 44.55500 46.71000

