158

Mg 0.75700 8.12600 24.97200
C  1.40800 9.68200 28.21700
C  0.91800 5.09600 26.69800
C  1.01500 6.62400 22.12100
C  1.32200 11.26600 23.52300
N  1.17100 7.53600 27.21700
C  1.29100 8.30300 28.32300
C  1.22900 7.46300 29.62900
C  1.07000 6.04300 29.09800
C  1.03700 6.21300 27.59800
C  2.20900 5.09900 29.52400
C  0.01100 7.91800 30.50600
C  0.20800 7.66600 32.07500
H  1.55800 7.32500 32.69200
N  0.75500 6.16400 24.41200
C  0.79500 5.03300 25.26300
C  0.72100 3.82500 24.43800
C  0.53300 4.25000 23.07000
C  0.78200 5.71100 23.12000
C  0.65700 2.44500 25.03000
C  0.31300 3.48400 21.80900
O  0.18100 4.04500 20.72300
C  -0.05600 1.97400 21.82600
N  1.16900 8.86200 23.11100
C  1.23500 8.00600 22.06900
C  1.21700 8.87400 20.68900
C  1.07200 10.33300 21.23700
C  1.18100 10.16600 22.75200
C  2.45500 8.67400 19.76800
C  -0.17800 11.13700 20.68300
C  -1.44000 10.99400 21.46000
N  1.09000 10.08600 25.67200
C  1.39400 11.20800 24.95900
C  1.51800 12.31600 25.84100
C  1.60900 11.76300 27.10400
C  1.35200 10.43900 26.96800
C  1.62000 13.75700 25.44100
C  1.87700 12.02600 28.54500
O  2.09900 13.15700 29.03600
C  1.63500 10.69600 29.30900
C  2.83000 10.51300 30.17300
O  3.92000 10.17000 29.88000
O  2.54800 10.94100 31.43900
C  3.67100 11.08800 32.41300
H  0.91500 4.13200 27.21100
H  1.26500 6.17000 21.16000
H  1.26100 12.24500 23.04300
H  2.08800 7.75600 30.23300
H  0.11400 5.65600 29.45000
H  1.79900 4.50400 30.34100
H  3.04200 5.67400 29.92700
H  2.63900 4.30600 28.91100
H  -0.87000 7.29900 30.34100
H  -0.19500 8.96700 30.29100
H  -0.46000 6.83100 32.28600
H  -0.24700 8.56400 32.49200
H  -0.33700 2.03000 24.86400
H  0.94200 2.37700 26.08000
H  1.34100 1.77000 24.51400
H  0.76900 1.27900 21.98600
H  -0.66300 1.80600 20.93600
H  -0.79700 1.82200 22.61100
H  0.27000 8.53700 20.26700
H  1.99200 10.83000 20.92700
H  2.93200 9.64300 19.62300
H  2.07600 8.27400 18.82800
H  3.26500 8.03100 20.11300
H  -0.39000 10.76400 19.68100
H  0.19100 12.16100 20.61500
H  -2.16800 10.45600 20.85400
H  -1.83900 11.96000 21.76800
H  -1.38400 10.44400 22.39900
H  0.96900 14.02100 24.60800
H  2.65200 14.09100 25.32700
H  1.32400 14.43800 26.23900
H  0.84800 10.84500 30.04800
H  4.31000 11.87400 32.01100
H  4.22300 10.16300 32.58200
H  3.39300 11.35000 33.43400
Mg -12.23100 37.49900 41.96200
C  -9.87300 34.86500 41.39700
C  -10.01900 39.62600 40.46100
C  -14.59000 39.78600 42.10700
C  -14.42500 34.98500 43.09200
N  -10.30800 37.21100 40.87400
C  -9.49100 36.15200 40.81800
C  -8.20400 36.44100 40.07400
C  -8.11400 38.00700 40.16000
C  -9.56900 38.29500 40.47300
C  -7.09800 38.60100 41.13900
C  -8.38500 35.94900 38.60100
C  -7.08000 35.25500 38.09100
H  -6.21200 36.02200 37.10700
N  -12.27100 39.45300 41.43700
C  -11.28900 40.17200 40.89600
C  -11.66400 41.52300 40.79000
C  -12.99900 41.63100 41.21400
C  -13.35700 40.24900 41.63600
C  -10.84800 42.69700 40.29800
C  -13.89300 42.91300 41.21700
O  -13.55700 44.00000 40.76100
C  -15.22900 42.83500 41.84000
N  -14.29000 37.37400 42.38500
C  -15.02300 38.49600 42.46000
C  -16.50300 38.11300 42.84500
C  -16.34100 36.58400 43.28300
C  -14.96600 36.28500 42.76800
C  -17.08900 39.02000 43.92700
C  -17.43800 35.59400 42.62100
C  -18.12700 34.69700 43.58700
N  -12.30000 35.29600 42.17000
C  -13.27100 34.45300 42.69000
C  -12.72700 33.16000 42.84100
C  -11.41700 33.19600 42.34100
C  -11.16900 34.58200 42.00400
C  -13.56900 31.92400 43.34600
C  -10.17800 32.47000 41.94800
O  -9.80900 31.31500 42.03500
C  -9.09900 33.55700 41.46800
C  -8.16100 33.63100 42.62900
O  -8.52600 34.01800 43.74700
O  -6.93600 33.18600 42.26400
C  -6.04500 32.96100 43.41700
H  -9.22700 40.26400 40.06500
H  -15.46900 40.43300 42.11800
H  -15.08100 34.27400 43.60000
H  -7.36000 35.99800 40.60300
H  -7.83600 38.44500 39.20200
H  -7.58700 39.50900 41.49300
H  -6.23100 38.88800 40.54500
H  -6.92800 37.86300 41.92300
H  -8.58400 36.82800 37.98800
H  -9.25000 35.28700 38.66200
H  -7.38300 34.35300 37.55900
H  -6.43600 34.95800 38.91900
H  -11.47300 43.19700 39.55800
H  -9.87700 42.34800 39.94700
H  -10.60900 43.48300 41.01500
H  -15.85700 42.37600 41.07700
H  -15.44600 43.90100 41.91100
H  -15.25000 42.33200 42.80700
H  -17.14700 38.16300 41.96700
H  -16.23700 36.48000 44.36300
H  -17.71900 39.78600 43.47400
H  -16.28100 39.46000 44.51300
H  -17.72000 38.38600 44.54900
H  -16.92500 34.94300 41.91300
H  -18.06600 36.22200 41.99000
H  -17.85600 33.66800 43.35000
H  -19.17700 34.98600 43.53300
H  -17.87900 35.01800 44.59800
H  -14.38000 31.63000 42.68000
H  -13.86700 31.95400 44.39400
H  -12.96600 31.01600 43.31700
H  -8.52900 33.38900 40.55400
H  -6.61200 32.36200 44.13100
H  -5.69500 33.94500 43.72700
H  -5.11300 32.44900 43.17900

