158

Mg -2.83900 17.17100 27.33200
C  -2.94900 15.17100 30.32000
C  -3.20700 19.97200 29.27100
C  -2.83600 18.86900 24.45800
C  -3.19600 14.11900 25.56400
N  -3.10500 17.49600 29.46800
C  -3.08000 16.54000 30.51700
C  -3.03500 17.27500 31.82900
C  -3.36200 18.78200 31.49900
C  -3.21500 18.76100 29.95700
C  -4.72700 19.25400 31.90600
C  -1.78100 17.06000 32.67000
C  -1.37100 18.07800 33.75100
H  -0.77600 17.41600 35.01700
N  -3.02800 19.11900 26.91900
C  -3.14400 20.15400 27.81400
C  -3.23500 21.40500 27.13200
C  -3.03400 21.11100 25.74300
C  -2.94400 19.64800 25.66200
C  -3.58200 22.64600 27.85200
C  -2.87400 22.06400 24.53100
O  -2.75200 21.68000 23.39900
C  -2.86000 23.57500 24.77200
N  -3.15900 16.59600 25.40700
C  -2.87700 17.47800 24.35600
C  -2.91600 16.83100 22.98700
C  -2.78300 15.34400 23.38200
C  -3.12500 15.32900 24.86100
C  -4.21000 17.21500 22.18800
C  -1.36000 14.78100 23.09600
C  -1.14900 14.45200 21.60600
N  -2.85200 15.11900 27.77700
C  -2.98200 14.03300 26.94700
C  -2.87100 12.79400 27.64800
C  -2.93500 13.20100 28.98100
C  -2.93500 14.64400 29.01400
C  -2.89300 11.45000 27.11500
C  -3.07000 12.69200 30.34200
O  -3.18400 11.60200 30.84500
C  -2.86100 13.97600 31.29600
C  -1.44500 13.88600 31.79300
O  -0.42100 14.35000 31.28600
O  -1.43100 13.11100 32.93300
C  -0.23500 12.97300 33.63800
H  -3.18600 20.86800 29.89400
H  -2.61500 19.39900 23.52900
H  -3.17700 13.19000 24.99100
H  -3.91500 16.89500 32.34900
H  -2.66200 19.44000 32.01400
H  -4.63400 20.32100 32.10900
H  -5.00100 18.73600 32.82500
H  -5.45600 18.91100 31.17300
H  -0.96700 16.88000 31.96800
H  -1.69200 16.11700 33.20900
H  -2.18400 18.68000 34.15800
H  -0.55200 18.62500 33.28400
H  -3.78200 23.48500 27.18500
H  -2.64200 22.91800 28.33300
H  -4.35400 22.52500 28.61100
H  -3.93400 23.76300 24.77900
H  -2.36400 24.27300 24.09700
H  -2.38400 23.73000 25.74000
H  -2.03900 17.21300 22.46600
H  -3.44800 14.72900 22.77500
H  -4.78400 17.70500 22.97500
H  -4.66300 16.30700 21.79100
H  -3.90700 17.94100 21.43300
H  -1.16100 13.91400 23.72600
H  -0.61500 15.55000 23.30100
H  -0.44000 15.12500 21.12500
H  -2.05800 14.40300 21.00600
H  -0.68000 13.46800 21.58500
H  -3.96700 11.30100 26.99600
H  -2.41800 10.74100 27.79200
H  -2.52100 11.49300 26.09100
H  -3.55200 14.08600 32.13200
H  -0.32900 13.39200 34.64000
H  0.61100 13.38100 33.08600
H  -0.00400 11.91300 33.74300
Mg -11.99800 37.48400 43.32300
C  -9.82100 35.08200 42.18900
C  -10.08300 39.77800 41.54400
C  -14.37900 39.89800 43.76700
C  -14.07900 35.03300 44.38200
N  -10.22300 37.37600 41.88600
C  -9.45500 36.30100 41.60800
C  -8.28600 36.56300 40.61800
C  -8.35900 38.12000 40.62700
C  -9.69200 38.48900 41.31300
C  -7.06000 38.77900 41.25700
C  -8.57900 35.84300 39.28900
C  -7.30500 35.27600 38.56800
H  -6.80200 36.06500 37.35500
N  -12.14800 39.58800 42.88600
C  -11.25800 40.30700 42.19000
C  -11.64800 41.71100 42.40700
C  -12.89100 41.77700 43.04300
C  -13.20700 40.35400 43.28500
C  -10.76900 42.83700 41.74500
C  -13.67700 43.02100 43.31600
O  -13.20000 44.11800 43.02000
C  -15.03200 43.11400 43.94600
N  -14.00800 37.49300 43.90300
C  -14.80100 38.58100 43.95400
C  -16.18200 38.22300 44.67100
C  -16.09400 36.63700 44.70600
C  -14.66900 36.30500 44.21200
C  -16.40500 38.86200 46.07800
C  -17.17000 35.86100 43.98500
C  -16.85900 35.03200 42.68900
N  -11.94900 35.51400 43.37700
C  -12.79100 34.66900 44.02200
C  -12.22400 33.38400 44.00800
C  -11.01100 33.52500 43.38100
C  -10.92500 34.82400 42.98500
C  -12.76500 32.12100 44.67100
C  -9.77100 32.85400 42.98700
O  -9.38800 31.71400 43.25700
C  -8.94700 33.80600 42.07900
C  -7.65200 34.01000 42.87700
O  -7.48600 34.70500 43.85800
O  -6.62700 33.37300 42.21800
C  -5.32500 33.48400 42.89100
H  -9.50200 40.57700 41.07900
H  -15.15600 40.66100 43.83700
H  -14.75200 34.27400 44.78600
H  -7.42800 36.12400 41.12700
H  -8.29500 38.53300 39.62000
H  -7.37200 39.42100 42.08000
H  -6.71200 39.48100 40.49900
H  -6.26300 38.11600 41.59300
H  -9.13300 36.54500 38.66500
H  -9.20700 34.99000 39.54400
H  -7.62000 34.27600 38.27200
H  -6.51300 35.07200 39.28900
H  -11.40700 43.54000 41.20900
H  -10.13900 42.45400 40.94200
H  -10.13900 43.35400 42.46800
H  -15.22100 44.17300 44.11900
H  -15.12600 42.36700 44.73500
H  -15.81200 42.82400 43.24200
H  -16.97200 38.56900 44.00500
H  -16.04200 36.32500 45.75000
H  -16.96000 39.76500 45.82400
H  -15.40000 39.10400 46.42500
H  -17.01000 38.26800 46.76200
H  -18.08100 36.43900 43.83300
H  -17.54700 35.19300 44.76000
H  -16.70200 33.99600 42.98700
H  -15.95300 35.40000 42.20900
H  -17.70900 35.12500 42.01200
H  -13.47700 32.40900 45.44400
H  -11.98100 31.61100 45.23000
H  -13.19400 31.51000 43.87700
H  -8.81700 33.37900 41.08400
H  -4.49600 33.20500 42.24000
H  -5.28900 32.66500 43.60900
H  -5.09000 34.40900 43.41800

