158

Mg 41.22200 8.82700 29.94200
C  43.35700 10.16600 32.50600
C  39.00700 8.02000 32.47600
C  39.27600 7.47400 27.68200
C  43.95200 8.97500 27.74600
N  41.29100 9.07100 32.24900
C  42.12800 9.81200 33.05100
C  41.51600 10.06600 34.41000
C  40.24600 9.13200 34.39400
C  40.11600 8.76600 32.93700
C  40.41000 7.90900 35.30800
C  41.39800 11.55900 34.86500
C  42.48000 12.08600 35.84700
H  42.00900 12.88700 37.09600
N  39.45100 7.89900 30.07700
C  38.62100 7.71000 31.15000
C  37.33900 7.10300 30.70900
C  37.38500 6.98300 29.32500
C  38.73200 7.48100 28.93500
C  36.31900 6.46700 31.62000
C  36.29500 6.46000 28.36000
O  36.59200 6.25100 27.21700
C  34.90400 6.21100 28.90700
N  41.59400 8.17800 28.08200
C  40.59700 7.71000 27.25400
C  40.96600 7.69600 25.77700
C  42.36200 8.40700 25.86000
C  42.65400 8.60900 27.30900
C  40.96600 6.28100 25.07300
C  42.53700 9.70100 25.03400
C  41.59400 10.81900 25.43400
N  43.18700 9.48600 30.02200
C  44.21600 9.46000 29.09400
C  45.38300 10.14300 29.62300
C  45.07100 10.52000 30.90800
C  43.74100 9.97600 31.13500
C  46.69000 10.25400 29.04900
C  45.58900 11.19800 32.11300
O  46.60800 11.81600 32.34400
C  44.43100 11.06600 33.18400
C  45.01200 10.42200 34.34200
O  45.08300 9.26300 34.57500
O  45.50400 11.41700 35.16900
C  46.75000 10.97800 35.87400
H  38.33100 7.81500 33.30800
H  38.58100 7.23100 26.87600
H  44.79600 9.17700 27.08300
H  42.25400 9.63400 35.08500
H  39.35600 9.68600 34.69400
H  40.49700 7.04100 34.65500
H  39.43800 7.77100 35.78000
H  41.19800 8.18600 36.00800
H  40.38700 11.62200 35.26800
H  41.49700 12.18500 33.97800
H  43.05400 12.71400 35.16500
H  43.14100 11.24300 36.04900
H  36.50100 6.79300 32.64400
H  36.36000 5.37800 31.57700
H  35.34100 6.89000 31.39200
H  34.38700 7.10600 29.25400
H  34.99300 5.41900 29.65000
H  34.30500 5.74600 28.12400
H  40.16800 8.34400 25.41300
H  43.17300 7.73800 25.57100
H  40.36800 6.42300 24.17200
H  40.59200 5.49800 25.73200
H  41.97800 6.01900 24.76500
H  42.34900 9.47000 23.98500
H  43.56000 10.06000 25.14600
H  42.11200 11.73300 25.72500
H  40.87700 10.57800 26.21900
H  41.04700 11.11700 24.54000
H  46.77700 9.68700 28.12300
H  47.43500 9.87500 29.74900
H  46.91200 11.30800 28.88400
H  44.09400 12.07800 33.41100
H  47.36000 10.40900 35.17300
H  46.59200 10.42400 36.79900
H  47.31500 11.86400 36.16500
Mg 6.73400 53.66100 40.55600
C  6.20300 50.19800 40.35700
C  10.03800 53.12100 39.75100
C  7.10500 57.02700 40.04700
C  3.22600 54.03100 40.81800
N  7.89600 51.86400 39.94200
C  7.45600 50.58700 40.01500
C  8.60600 49.63700 39.62000
C  9.86800 50.55300 39.89700
C  9.26400 51.99500 39.92300
C  10.80500 50.15900 41.09100
C  8.67700 49.10700 38.16300
C  8.07900 50.02800 36.97600
H  7.13700 49.43800 35.92800
N  8.42400 54.90500 40.00200
C  9.71600 54.51100 39.79800
C  10.51600 55.67100 39.62800
C  9.63600 56.83100 39.63300
C  8.28700 56.28600 39.89900
C  12.04500 55.60600 39.30000
C  10.09200 58.18900 39.36400
O  11.28100 58.48600 39.11300
C  9.16800 59.44700 39.53400
N  5.29700 55.30500 40.09900
C  5.83100 56.59400 40.27500
C  4.66000 57.57100 40.48700
C  3.40800 56.66200 40.57300
C  4.01000 55.22100 40.53300
C  4.85600 58.48200 41.77000
C  2.44400 56.91900 39.41500
C  1.47100 58.08300 39.63500
N  4.97600 52.42300 40.63500
C  3.66200 52.68500 40.77900
C  2.97000 51.51400 40.92500
C  3.86700 50.48500 40.82000
C  5.08800 51.08200 40.48600
C  1.50400 51.39000 41.19200
C  4.00100 49.06900 40.92000
O  3.18400 48.19400 41.19000
C  5.58300 48.80000 40.65400
C  5.59300 47.75900 39.58300
O  5.24800 47.94300 38.44600
O  5.80100 46.47700 40.10800
C  5.70300 45.43100 39.18500
H  11.10400 52.88700 39.72300
H  7.25800 58.10000 39.91600
H  2.18400 54.27700 41.02800
H  8.53200 48.82200 40.33900
H  10.46500 50.56500 38.98500
H  11.52300 49.36100 40.89900
H  10.08200 49.76500 41.80400
H  11.40300 51.00200 41.43900
H  8.33900 48.07200 38.21500
H  9.73400 49.10800 37.89700
H  8.91600 50.40500 36.38900
H  7.52800 50.89000 37.35200
H  12.17900 56.03100 38.30500
H  12.30200 54.55800 39.14800
H  12.72800 56.01600 40.04300
H  9.71400 60.37200 39.35000
H  8.86000 59.41600 40.57900
H  8.37200 59.41700 38.78900
H  4.60900 58.17200 39.58000
H  2.92000 56.76200 41.54300
H  5.83100 58.96700 41.73800
H  4.70500 57.89400 42.67600
H  4.14400 59.30400 41.69800
H  1.85400 56.00200 39.42800
H  3.03800 57.13800 38.52800
H  0.46600 57.66200 39.66500
H  1.68100 58.76800 38.81400
H  1.47600 58.59100 40.60000
H  1.12800 52.36700 41.49600
H  1.25000 50.73800 42.02800
H  0.98700 51.06200 40.29100
H  5.84300 48.35700 41.61500
H  6.11200 45.71700 38.21600
H  4.67700 45.08100 39.07400
H  6.30700 44.54700 39.39300

