158

Mg 48.60500 35.34200 26.30000
C  46.58200 34.11600 28.81300
C  48.84400 38.33600 27.97700
C  49.96000 36.71700 23.56200
C  47.53000 32.64500 24.31100
N  47.81100 36.16200 28.13600
C  47.16000 35.43700 29.11300
C  46.99600 36.25500 30.43900
C  47.30000 37.70500 29.93100
C  48.05900 37.41300 28.62900
C  46.08600 38.65100 29.80800
C  47.86400 35.67400 31.55200
C  47.32800 35.99800 33.01200
H  46.60600 37.35400 33.16000
N  49.42900 37.21300 25.92100
C  49.53600 38.26500 26.75200
C  50.22700 39.35900 26.05900
C  50.49900 38.92600 24.72100
C  49.93600 37.59200 24.67000
C  50.61300 40.63200 26.85400
C  51.22500 39.69700 23.63400
O  51.48300 39.15600 22.57400
C  51.65700 41.14600 23.77600
N  48.60000 34.83800 24.23700
C  49.40000 35.46300 23.42600
C  49.54700 34.77700 22.01800
C  48.81300 33.41600 22.28800
C  48.22200 33.62000 23.67700
C  48.89000 35.57500 20.83700
C  49.66800 32.03200 22.36800
C  49.17700 30.83700 21.51400
N  47.46700 33.64300 26.56300
C  47.14000 32.62200 25.63200
C  46.22600 31.71200 26.27900
C  45.93600 32.29200 27.56400
C  46.72100 33.44900 27.66700
C  45.60900 30.52400 25.75900
C  45.22000 32.07800 28.82200
O  44.48800 31.20600 29.19300
C  45.71200 33.24200 29.67400
C  46.38300 32.59200 30.80900
O  47.50000 32.02700 30.82900
O  45.62500 32.76900 31.96500
C  46.15100 31.99800 33.12600
H  48.96300 39.28400 28.50700
H  50.59600 36.94600 22.70400
H  47.27600 31.73800 23.75900
H  45.95300 36.14300 30.73400
H  48.01100 38.24000 30.56100
H  45.20500 38.10000 30.13700
H  45.74300 38.91800 28.80800
H  46.17200 39.47100 30.52000
H  48.78500 36.24700 31.44600
H  47.96800 34.59300 31.46500
H  48.19600 35.83100 33.64900
H  46.64700 35.23700 33.39300
H  51.46800 41.24200 26.56000
H  50.90800 40.29900 27.84900
H  49.78000 41.33000 26.93800
H  50.88300 41.78500 24.20200
H  51.72100 41.43300 22.72700
H  52.61500 41.48500 24.17000
H  50.60000 34.60500 21.79200
H  47.95300 33.25300 21.63900
H  48.08400 36.18900 21.24000
H  48.43600 34.85100 20.16100
H  49.56800 36.19800 20.25300
H  49.69500 31.66300 23.39300
H  50.63100 32.30400 21.93400
H  48.15700 31.06100 21.20000
H  49.24800 29.84100 21.95100
H  49.78800 30.86300 20.61200
H  45.43800 30.61100 24.68600
H  44.71200 30.19700 26.28400
H  46.41900 29.81300 25.92800
H  44.92500 33.82400 30.15500
H  46.15400 30.92000 32.96500
H  45.47900 32.16800 33.96600
H  47.18400 32.21700 33.39800
Mg -10.76500 17.01400 40.43700
C  -7.32900 16.07900 40.61200
C  -9.90800 20.25400 39.75000
C  -14.03600 17.59700 39.48800
C  -11.55400 13.52000 40.79300
N  -8.84100 17.96200 40.18000
C  -7.55000 17.43000 40.35900
C  -6.45700 18.53800 40.10300
C  -7.31600 19.88600 40.20200
C  -8.82200 19.32400 40.04400
C  -7.13200 20.85900 41.45900
C  -5.82800 18.31800 38.71700
C  -4.48500 17.59900 38.79000
H  -4.12800 16.37900 37.92300
N  -11.82800 18.70100 39.72400
C  -11.25000 19.98400 39.58200
C  -12.31700 20.89600 39.45900
C  -13.54900 20.17200 39.41900
C  -13.23100 18.76800 39.52700
C  -12.08600 22.42000 39.26600
C  -14.93500 20.88900 39.26100
O  -15.10700 22.09600 39.07600
C  -16.11800 20.04400 39.27500
N  -12.53200 15.77200 40.31400
C  -13.75200 16.30500 39.90200
C  -14.82400 15.25300 39.84900
C  -13.97100 13.92800 40.06400
C  -12.63700 14.39000 40.47400
C  -16.06800 15.43100 40.72700
C  -14.03900 12.85600 38.95200
C  -14.10600 11.36200 39.34000
N  -9.74100 15.17500 40.77900
C  -10.15400 13.86200 40.83400
C  -9.01700 12.99800 41.23000
C  -7.93000 13.79600 41.02800
C  -8.35900 15.12600 40.81900
C  -8.96200 11.53900 41.48400
C  -6.45700 13.77400 40.97500
O  -5.62400 12.89400 41.00100
C  -6.05800 15.31300 40.98800
C  -5.44700 15.56000 42.26600
O  -4.24600 15.75400 42.36900
O  -6.29800 15.56000 43.42200
C  -5.58800 15.66000 44.67400
H  -9.51100 21.26900 39.82700
H  -15.06100 17.71600 39.12900
H  -11.97400 12.51700 40.89200
H  -5.70400 18.46700 40.88700
H  -7.12900 20.49100 39.31600
H  -6.38400 20.30600 42.02800
H  -8.10400 20.94700 41.94300
H  -6.62200 21.73700 41.06100
H  -5.63800 19.14600 38.03400
H  -6.43900 17.65300 38.10800
H  -4.18400 17.40400 39.81900
H  -3.72500 18.33600 38.53100
H  -12.48300 22.79900 38.32400
H  -11.03000 22.68400 39.22100
H  -12.40800 22.99400 40.13500
H  -17.00700 20.63800 39.05900
H  -16.12500 19.50400 40.22100
H  -16.05500 19.42500 38.38000
H  -15.17500 15.22700 38.81700
H  -14.41900 13.40500 40.90900
H  -16.15100 16.46800 41.05400
H  -16.10700 14.71200 41.54600
H  -16.84600 15.26300 39.98300
H  -13.13300 12.89900 38.34800
H  -14.90800 13.08900 38.33700
H  -15.08000 10.93500 39.09800
H  -14.00300 11.28700 40.42200
H  -13.31600 10.82600 38.81400
H  -8.07500 11.24200 42.04500
H  -8.87100 11.04400 40.51800
H  -9.85700 11.32900 42.07000
H  -5.27100 15.34800 40.23400
H  -5.92500 16.47100 45.31900
H  -4.50600 15.53400 44.69800
H  -5.97900 14.86700 45.31300

