158

Mg 47.57900 24.57000 29.09400
C  48.45400 26.96400 31.53200
C  46.35500 22.60900 31.64100
C  46.77800 22.39800 26.78600
C  48.96000 26.58200 26.71000
N  47.42500 24.84400 31.32300
C  47.74800 25.88400 32.09400
C  47.30900 25.75100 33.59000
C  46.82000 24.20400 33.65500
C  46.89900 23.85000 32.14200
C  47.70100 23.31700 34.62500
C  46.15800 26.73700 33.96700
C  46.66200 27.71300 35.07900
H  47.08000 26.98100 36.41700
N  46.72300 22.69700 29.15200
C  46.25700 22.09700 30.35200
C  45.65100 20.85300 29.93600
C  45.59000 20.90200 28.47600
C  46.34300 22.05500 28.09100
C  45.06900 19.77600 30.91300
C  44.90900 19.89100 27.46300
O  45.10600 19.96000 26.23500
C  43.91600 18.84500 27.88700
N  48.09400 24.38000 27.10800
C  47.62100 23.39300 26.34300
C  48.09500 23.52300 24.87300
C  48.65500 24.98400 24.83500
C  48.57100 25.34600 26.31000
C  49.25800 22.50800 24.63400
C  47.89400 25.93000 23.97500
C  48.79500 27.01500 23.35200
N  48.53500 26.36500 29.03700
C  49.04300 27.11700 27.99600
C  49.48700 28.40700 28.39000
C  49.29800 28.33400 29.76900
C  48.72800 27.08000 30.13400
C  50.23700 29.39800 27.56900
C  49.63500 29.04400 30.97900
O  50.12000 30.15700 31.08700
C  49.04000 28.27700 32.14500
C  50.03000 27.98900 33.19800
O  50.81300 27.08800 33.31700
O  49.86300 28.98900 34.13500
C  50.62200 28.73800 35.42100
H  45.97800 21.92300 32.40200
H  46.39500 21.93600 25.87400
H  49.20600 27.27700 25.90400
H  48.26400 25.89900 34.09400
H  45.75100 24.23900 33.86800
H  48.57700 22.88700 34.13900
H  46.99100 22.58900 35.01700
H  47.98800 23.89500 35.50300
H  45.28000 26.18100 34.29600
H  45.91400 27.34200 33.09300
H  45.89600 28.48300 35.16600
H  47.53900 28.16800 34.61900
H  45.18800 18.77300 30.50200
H  44.01400 19.95600 31.12000
H  45.47200 19.92500 31.91500
H  43.11300 19.28300 28.48000
H  44.50500 18.16900 28.50700
H  43.51600 18.22000 27.08900
H  47.21700 23.20400 24.31100
H  49.72500 25.06600 24.64600
H  50.11000 23.11800 24.33500
H  48.90900 21.87600 23.81700
H  49.41500 21.98600 25.57800
H  47.03900 26.41600 24.44500
H  47.47000 25.36800 23.14300
H  48.37200 28.01900 23.40500
H  48.94700 26.76800 22.30100
H  49.83400 27.05900 23.67600
H  50.34400 30.29000 28.18600
H  49.76100 29.64000 26.61800
H  51.22000 28.99700 27.32300
H  48.11900 28.75000 32.48600
H  50.13100 27.95100 35.99300
H  50.72900 29.58700 36.09600
H  51.65800 28.44600 35.25500
Mg 17.06600 51.51200 26.78800
C  18.67600 50.14400 29.51900
C  14.64800 52.59900 28.99200
C  15.16000 52.23900 24.27400
C  19.40900 49.94000 24.66000
N  16.77100 51.45200 29.00100
C  17.58500 50.88200 29.96300
C  17.21300 51.22900 31.38100
C  15.81700 51.97300 31.14900
C  15.76400 52.15000 29.61600
C  14.66400 51.06600 31.71600
C  18.11000 52.16000 32.16700
C  17.60900 52.76400 33.55700
H  16.79600 51.86700 34.46700
N  15.17800 52.34300 26.62600
C  14.27200 52.68700 27.61500
C  13.05800 53.22900 27.05300
C  13.33400 53.30000 25.61700
C  14.65400 52.70400 25.43600
C  11.84400 53.75100 27.91400
C  12.45700 53.85000 24.48800
O  12.80900 53.78500 23.30500
C  11.11700 54.50700 24.75200
N  17.28500 51.19000 24.81400
C  16.33900 51.55100 23.95300
C  16.68700 51.22600 22.49800
C  18.09500 50.61400 22.70500
C  18.31200 50.61700 24.16400
C  15.63200 50.36900 21.66300
C  19.12800 51.35500 21.79000
C  19.75800 52.60000 22.20100
N  18.88600 50.41700 27.03600
C  19.71500 49.85900 26.12700
C  20.83100 49.16200 26.78600
C  20.42300 49.24300 28.13500
C  19.23200 49.98500 28.23700
C  21.88300 48.35800 26.08800
C  20.71900 48.79200 29.43600
O  21.68200 48.10600 29.85000
C  19.77900 49.50600 30.43900
C  19.21900 48.54300 31.37100
O  18.34100 47.73000 31.10100
O  19.87200 48.63200 32.59400
C  19.24200 47.79900 33.64500
H  13.98600 53.22300 29.59600
H  14.55000 52.39000 23.38000
H  20.13100 49.33700 24.10600
H  17.10100 50.29800 31.93800
H  15.82400 52.96700 31.59600
H  15.14100 50.33000 32.36300
H  14.12400 50.50700 30.95100
H  14.05400 51.72200 32.33700
H  18.47800 52.87900 31.43500
H  18.99400 51.58400 32.44100
H  17.05000 53.67100 33.32600
H  18.49000 53.07500 34.11800
H  10.88500 53.58500 27.42200
H  11.91600 54.83400 28.00400
H  11.86100 53.23100 28.87200
H  10.43400 53.65700 24.76300
H  10.84400 55.11000 23.88600
H  11.07800 55.11700 25.65400
H  16.79200 52.22700 22.08000
H  18.03600 49.57200 22.39300
H  15.36600 50.91900 20.76000
H  14.74800 50.17200 22.27000
H  16.05200 49.37300 21.52600
H  18.73900 51.46700 20.77800
H  19.90000 50.58600 21.77800
H  20.75400 52.32600 22.54900
H  19.27900 53.05600 23.06700
H  19.88500 53.29200 21.36900
H  21.53100 47.84900 25.19000
H  22.36100 47.56800 26.66700
H  22.61700 49.08600 25.74300
H  20.46100 50.21200 30.91200
H  18.80400 46.84000 33.36800
H  18.46100 48.49500 33.95200
H  20.00100 47.71400 34.42300

