158

Mg 47.03600 24.76700 27.99200
C  47.95300 26.96700 30.65700
C  46.27600 22.46400 30.46600
C  46.18200 22.80500 25.58100
C  48.25500 27.24100 25.70700
N  47.00900 24.78900 30.24200
C  47.35600 25.81200 31.13000
C  47.09800 25.44700 32.58800
C  46.80700 23.91300 32.42500
C  46.72500 23.65200 30.97400
C  47.87200 22.97400 33.15300
C  45.94300 26.18600 33.24900
C  46.36200 27.15600 34.38900
H  45.40500 27.15600 35.60000
N  46.33400 22.87500 27.97900
C  46.07500 22.06700 29.13500
C  45.62600 20.74800 28.64200
C  45.63200 20.82700 27.19700
C  46.03400 22.23300 26.86800
C  45.32700 19.57100 29.55500
C  45.35600 19.75300 26.15000
O  45.48100 19.96400 24.96000
C  44.90500 18.49100 26.64300
N  47.46100 24.79400 26.00200
C  46.78500 23.97200 25.21000
C  46.81200 24.29400 23.71200
C  47.18600 25.83000 23.81500
C  47.70200 25.99300 25.29200
C  47.75300 23.40900 22.82100
C  46.07300 26.87600 23.28400
C  46.38600 28.05300 22.37400
N  48.07800 26.60600 28.11800
C  48.51900 27.48200 27.09500
C  49.21300 28.60400 27.70000
C  48.95100 28.51500 29.10800
C  48.28600 27.23900 29.28300
C  50.00500 29.58100 26.89100
C  49.15800 29.18600 30.33100
O  49.75200 30.21200 30.67100
C  48.49700 28.24400 31.39800
C  49.49500 27.90400 32.41200
O  50.23500 26.93600 32.35300
O  49.41700 28.74800 33.46400
C  50.10400 28.39500 34.74300
H  45.93700 21.71500 31.18400
H  45.74100 22.22000 24.77100
H  48.37500 28.00300 24.93400
H  48.06500 25.64600 33.04900
H  45.88800 23.48100 32.82100
H  48.45600 23.56600 33.85700
H  48.58300 22.53500 32.45300
H  47.33700 22.17500 33.66500
H  45.11100 25.51600 33.46400
H  45.53200 26.86000 32.49700
H  46.30300 28.19900 34.07800
H  47.32300 26.85800 34.80900
H  44.29400 19.25300 29.41100
H  45.53500 19.67600 30.62000
H  45.97100 18.73700 29.27600
H  45.71700 17.99700 27.17800
H  44.72500 17.82300 25.80000
H  44.01900 18.61100 27.26600
H  45.80500 24.04700 23.37700
H  48.02500 25.92900 23.12600
H  47.78300 24.08000 21.96200
H  47.25000 22.45900 22.64400
H  48.77100 23.22200 23.16500
H  45.54800 27.24800 24.16300
H  45.35200 26.26700 22.73800
H  45.75600 27.77400 21.52900
H  47.44400 28.20100 22.16000
H  46.09400 29.04100 22.72900
H  50.09800 30.44500 27.54900
H  49.41900 29.93100 26.04200
H  50.99000 29.16500 26.68100
H  47.69300 28.72600 31.95400
H  49.36000 27.85700 35.33100
H  50.37300 29.32800 35.23900
H  51.01700 27.83300 34.54900
Mg 50.64700 45.10700 42.51900
C  47.34300 45.71800 41.33400
C  50.17300 41.84500 41.32200
C  53.76800 44.73500 42.88700
C  50.79300 48.53200 43.16100
N  48.92300 43.95200 41.44900
C  47.65200 44.40000 41.15100
C  46.81900 43.28100 40.47000
C  47.57200 41.99100 41.01100
C  49.03000 42.61100 41.23100
C  47.08300 41.26400 42.31100
C  46.59600 43.45300 38.95400
C  45.17100 43.31700 38.48000
H  44.84700 42.33700 37.33400
N  51.81900 43.45500 42.25600
C  51.44900 42.19300 41.82800
C  52.60400 41.36300 41.84700
C  53.66300 42.13400 42.39600
C  53.13600 43.52600 42.52700
C  52.53100 39.90500 41.45700
C  55.01900 41.62500 42.69700
O  55.21600 40.41800 42.72800
C  56.25500 42.52400 43.04800
N  52.07800 46.47500 42.78400
C  53.38200 46.04000 43.04800
C  54.26100 47.23800 43.38200
C  53.30900 48.39100 43.65100
C  51.92300 47.73200 43.24900
C  55.19600 46.93300 44.59800
C  53.48400 49.73600 42.90200
C  53.26700 51.06100 43.71600
N  49.40100 46.79200 42.32200
C  49.61100 48.12300 42.66900
C  48.46400 48.92800 42.37100
C  47.52800 48.01900 41.83100
C  48.13400 46.72300 41.84300
C  48.17900 50.43800 42.68600
C  46.20200 47.87600 41.37200
O  45.27800 48.70700 41.25600
C  46.07700 46.41800 40.95600
C  44.88700 45.88200 41.71600
O  44.96300 45.28500 42.78600
O  43.69800 46.13000 41.13400
C  42.55900 45.34700 41.62500
H  49.87300 40.83100 41.04900
H  54.85800 44.72700 42.95800
H  50.75200 49.60200 43.37200
H  45.87000 43.38800 40.99600
H  47.69600 41.23900 40.23200
H  47.81500 41.35600 43.11300
H  46.96900 40.18600 42.19800
H  46.05600 41.60900 42.43000
H  47.15300 42.57900 38.61600
H  47.03500 44.37500 38.57500
H  44.85500 44.30800 38.15400
H  44.61500 43.06800 39.38400
H  53.32300 39.54500 40.80100
H  51.63700 39.57100 40.93000
H  52.44100 39.42100 42.43000
H  56.20900 42.99400 44.03100
H  56.32900 43.23800 42.22800
H  57.11700 41.85600 43.07800
H  54.86100 47.30600 42.47400
H  53.29200 48.57400 44.72500
H  55.01600 46.04100 45.19800
H  55.13900 47.83800 45.20300
H  56.24000 46.87100 44.29000
H  52.74900 49.68900 42.09800
H  54.51300 49.65900 42.55100
H  52.98300 50.82000 44.74000
H  52.40800 51.64000 43.37900
H  54.12200 51.73300 43.78900
H  47.16400 50.56300 43.06100
H  48.27100 50.99300 41.75300
H  48.86500 50.86100 43.42000
H  45.93300 46.31400 39.88000
H  41.72800 45.32400 40.92100
H  42.12400 45.65300 42.57700
H  42.97200 44.35200 41.79500

