158

Mg 48.83000 16.24300 28.33200
C  46.69000 15.81300 31.12500
C  50.87800 18.20700 30.27300
C  50.90600 16.48400 25.76000
C  46.35500 14.52600 26.41600
N  48.78500 16.83400 30.47200
C  47.86900 16.53000 31.43500
C  48.18600 17.25200 32.72600
C  49.39200 18.15900 32.27400
C  49.71600 17.73900 30.95100
C  49.19200 19.72400 32.46600
C  48.52400 16.20100 33.82500
C  48.60100 16.67000 35.24300
H  48.44900 18.16700 35.57000
N  50.62100 17.24700 28.02300
C  51.34600 17.97500 28.94500
C  52.62300 18.41300 28.40700
C  52.64200 17.85700 27.06300
C  51.34400 17.22800 26.83600
C  53.61300 19.30300 29.15000
C  53.76800 17.77700 26.01900
O  53.74700 17.23500 24.93900
C  55.06100 18.46200 26.40500
N  48.64100 15.51400 26.42700
C  49.66000 15.75300 25.50900
C  49.34100 15.11700 24.17400
C  48.04100 14.19700 24.46500
C  47.59600 14.80900 25.78900
C  49.15700 16.19100 23.11400
C  48.38300 12.69400 24.55400
C  47.57400 11.77700 23.69700
N  46.84800 15.39700 28.63300
C  45.94900 14.72800 27.80500
C  44.85900 14.23100 28.54500
C  45.01900 14.64700 29.81500
C  46.31200 15.29800 29.85300
C  43.76900 13.36300 27.93500
C  44.51100 14.64800 31.15800
O  43.44600 14.19300 31.55100
C  45.56800 15.37500 32.12000
C  44.84300 16.42400 32.78600
O  44.54600 17.50800 32.33600
O  44.38700 15.85500 33.96500
C  43.46800 16.72200 34.71200
H  51.56700 18.89900 30.76300
H  51.51600 16.49700 24.85400
H  45.81200 13.79800 25.80900
H  47.31300 17.84800 32.99000
H  50.30200 17.94200 32.83300
H  49.25100 20.40400 31.61600
H  49.75300 20.08400 33.32800
H  48.13800 19.84100 32.71900
H  49.48400 15.80800 33.49000
H  47.98900 15.25500 33.74000
H  49.55300 16.31700 35.63900
H  47.80100 16.19800 35.81400
H  54.66900 19.13900 28.93100
H  53.52100 19.32000 30.23600
H  53.31400 20.32800 28.93100
H  54.84100 19.49900 26.65800
H  55.74000 18.37000 25.55800
H  55.57500 17.98500 27.23900
H  50.12900 14.42200 23.88600
H  47.19400 14.48500 23.84200
H  49.79300 16.00000 22.25100
H  49.45100 17.16900 23.49400
H  48.08800 16.24000 22.90700
H  48.30300 12.37200 25.59300
H  49.46200 12.58800 24.44300
H  48.19900 11.10600 23.10900
H  46.91900 12.30500 23.00400
H  46.93700 11.14700 24.31800
H  44.11500 12.90900 27.00700
H  42.90800 13.99100 27.70900
H  43.56600 12.57200 28.65800
H  45.89900 14.77100 32.96600
H  42.73300 16.10400 35.22900
H  42.93400 17.41000 34.05600
H  44.10800 17.22100 35.44000
Mg -5.40900 25.94000 26.46500
C  -4.27000 27.56100 29.24800
C  -7.28400 23.89500 28.39200
C  -6.28800 24.13600 23.63400
C  -3.32600 27.96900 24.45900
N  -5.69700 25.79400 28.55200
C  -5.19700 26.55600 29.55500
C  -5.74300 26.14800 30.90900
C  -6.46000 24.83200 30.60400
C  -6.42100 24.76000 29.09100
C  -5.89800 23.57400 31.24700
C  -6.66700 27.20900 31.50500
C  -6.72000 27.36000 33.03100
H  -6.22400 26.26600 33.93300
N  -6.68000 24.37000 26.05500
C  -7.33900 23.66400 26.98600
C  -8.20700 22.65400 26.35500
C  -7.93100 22.72600 24.95400
C  -6.84800 23.74900 24.80600
C  -9.17200 21.75000 27.20200
C  -8.46100 21.87100 23.80800
O  -8.11900 22.08000 22.68400
C  -9.48300 20.89600 24.07900
N  -4.78100 25.98900 24.36300
C  -5.31800 25.16400 23.37900
C  -4.79500 25.54900 21.97600
C  -4.14400 26.95600 22.17400
C  -4.09900 27.03000 23.76400
C  -3.85800 24.48600 21.32000
C  -4.83000 28.15300 21.39500
C  -3.86500 29.12500 20.63900
N  -4.05700 27.45500 26.73800
C  -3.25300 28.23300 25.84400
C  -2.51600 29.19900 26.62900
C  -2.95500 29.03300 27.94500
C  -3.84400 27.95900 27.97300
C  -1.52300 30.23700 26.09900
C  -2.74800 29.53100 29.28000
O  -2.02300 30.43700 29.71000
C  -3.56400 28.59400 30.22200
C  -2.65700 27.80100 31.13700
O  -2.05800 26.80000 30.84200
O  -2.63000 28.35300 32.43800
C  -1.72300 27.84900 33.47100
H  -7.93100 23.27200 29.01400
H  -6.52100 23.76200 22.63500
H  -2.75500 28.64600 23.82000
H  -4.92800 25.98800 31.61500
H  -7.48200 24.90100 30.97600
H  -5.16600 23.77900 32.02800
H  -5.49100 22.88600 30.50600
H  -6.63300 23.04300 31.85200
H  -7.66100 26.99300 31.11200
H  -6.32400 28.15600 31.08900
H  -7.77800 27.55700 33.20000
H  -6.17900 28.28900 33.21200
H  -10.20200 22.10800 27.19800
H  -8.79100 21.66500 28.22000
H  -9.19300 20.76600 26.73400
H  -9.15800 19.96800 24.54800
H  -9.90900 20.64500 23.10800
H  -10.27600 21.27100 24.72600
H  -5.71000 25.72200 21.41000
H  -3.12600 26.91800 21.78600
H  -2.83100 24.72300 21.04100
H  -4.40200 24.03400 20.49100
H  -3.69700 23.72800 22.08500
H  -5.42700 28.78200 22.05500
H  -5.53500 27.70000 20.69800
H  -4.24800 30.14500 20.59500
H  -3.55000 28.81100 19.64400
H  -2.96500 29.32800 21.21800
H  -0.97600 30.01000 25.18400
H  -0.86300 30.45400 26.93900
H  -1.97700 31.15500 25.72600
H  -4.16800 29.20500 30.89300
H  -0.81500 27.42700 33.04100
H  -2.17600 27.18800 34.20900
H  -1.29600 28.67900 34.03300

