158

Mg 25.01000 1.55000 29.40500
C  27.03100 1.55400 32.28700
C  22.27700 1.94500 31.43400
C  23.12800 1.21400 26.64400
C  27.82900 0.86600 27.50500
N  24.71700 1.67300 31.62700
C  25.72200 1.91300 32.60400
C  25.12200 2.21600 33.93800
C  23.52300 2.09200 33.67600
C  23.44300 1.91900 32.12800
C  22.82300 0.99500 34.54500
C  25.66100 3.58000 34.47900
C  26.36800 3.57500 35.83000
H  25.81900 4.63500 36.84700
N  23.00100 1.58500 29.12200
C  21.99300 1.70200 30.02300
C  20.67800 1.64500 29.43800
C  20.89800 1.45500 28.04500
C  22.41000 1.45400 27.84000
C  19.33100 1.82400 30.23500
C  19.82500 1.19600 26.98800
O  20.19200 1.17200 25.77100
C  18.44500 0.98900 27.42800
N  25.39900 1.06900 27.36900
C  24.47900 1.13700 26.37100
C  25.10300 1.43400 24.91900
C  26.60800 1.33300 25.21200
C  26.61300 1.02400 26.80000
C  24.53300 0.37600 23.93100
C  27.40500 2.53600 24.76900
C  27.31000 3.77500 25.50700
N  26.98100 1.07100 29.81000
C  27.98200 0.84300 28.95100
C  29.25400 0.68300 29.62700
C  28.94000 0.89000 31.01800
C  27.52000 1.11900 31.03200
C  30.51900 0.66600 29.02700
C  29.51800 1.04900 32.31700
O  30.64200 0.85000 32.82700
C  28.24800 1.56500 33.22100
C  28.28300 0.66200 34.41900
O  27.82300 -0.45100 34.41700
O  28.80500 1.36200 35.47100
C  29.14200 0.35700 36.53700
H  21.41600 2.18300 32.06200
H  22.53200 1.22500 25.72900
H  28.70500 0.86300 26.85300
H  25.31000 1.44600 34.68700
H  23.03000 2.98200 34.06700
H  23.53300 0.35600 35.07100
H  22.24700 0.29400 33.94200
H  22.15700 1.48400 35.25600
H  24.83700 4.28700 34.58100
H  26.39100 4.03500 33.81000
H  27.39400 3.76700 35.51600
H  26.49100 2.62900 36.35700
H  19.44600 2.09000 31.28500
H  18.86400 0.84600 30.35400
H  18.74300 2.64000 29.81400
H  18.32000 0.24200 28.21200
H  17.91400 0.77900 26.50000
H  18.13900 1.97300 27.78300
H  24.82200 2.40000 24.50000
H  26.99900 0.52900 24.58800
H  23.96100 0.95300 23.20400
H  23.95200 -0.41200 24.41100
H  25.36400 -0.06500 23.38100
H  27.00600 2.81700 23.79400
H  28.40700 2.11600 24.67900
H  26.72400 3.59800 26.40900
H  26.85400 4.67200 25.08600
H  28.34100 4.05700 25.72100
H  30.93100 -0.32800 28.85600
H  31.24800 1.14000 29.68400
H  30.53100 1.18400 28.06800
H  28.54600 2.57700 33.49300
H  28.26500 -0.13000 36.96400
H  29.72700 0.82700 37.32900
H  29.80900 -0.34100 36.03200
Mg -12.04400 38.10100 41.35500
C  -9.79400 35.53000 40.55200
C  -9.92400 40.31600 39.73300
C  -14.60500 40.28600 41.29200
C  -14.33900 35.73800 42.58000
N  -10.19200 37.94900 40.10700
C  -9.39800 36.78100 40.06300
C  -8.05400 37.01800 39.34800
C  -8.02800 38.66100 39.38700
C  -9.49300 39.00700 39.76900
C  -6.97700 39.07200 40.50500
C  -8.02600 36.31600 37.93300
C  -6.76400 35.39500 37.68900
H  -5.69400 35.90300 36.70400
N  -12.25100 40.06300 40.68600
C  -11.23200 40.81800 40.12400
C  -11.66600 42.18100 40.18900
C  -13.09600 42.17100 40.45900
C  -13.34500 40.83400 40.81400
C  -10.79600 43.41400 39.67300
C  -14.10200 43.33100 40.43300
O  -13.73200 44.49300 40.36100
C  -15.61400 43.20400 40.60100
N  -14.10500 38.08700 41.97100
C  -14.93100 39.08800 41.84700
C  -16.36300 38.86100 42.35800
C  -16.22600 37.39500 42.88200
C  -14.81500 37.04000 42.49300
C  -16.90800 39.83800 43.47000
C  -17.30400 36.40000 42.25000
C  -17.91800 35.38700 43.20500
N  -12.09300 35.98800 41.65200
C  -13.06600 35.19300 42.21600
C  -12.59100 33.81500 42.21900
C  -11.26600 33.89800 41.65200
C  -11.04000 35.22200 41.27500
C  -13.31400 32.68000 42.80500
C  -10.00700 33.22100 41.22500
O  -9.66800 32.06800 41.32800
C  -9.09200 34.20400 40.51300
C  -7.76500 34.24900 41.18600
O  -6.89400 33.47000 40.86700
O  -7.65300 35.25400 42.08100
C  -6.39400 35.25400 42.85700
H  -9.22200 41.05600 39.34500
H  -15.51000 40.88100 41.42900
H  -15.14500 35.12900 42.99200
H  -7.26600 36.55700 39.94400
H  -7.78100 39.09500 38.41800
H  -6.78000 38.24500 41.18800
H  -7.39200 39.88700 41.09800
H  -6.03500 39.44800 40.10500
H  -7.90900 37.03300 37.12000
H  -8.96200 35.79900 37.72100
H  -6.98200 34.39100 37.32300
H  -6.31200 35.12100 38.64200
H  -11.03100 43.51500 38.61400
H  -9.73400 43.20100 39.79300
H  -11.19200 44.30200 40.16600
H  -16.05400 44.14400 40.26600
H  -15.79700 42.98400 41.65300
H  -15.86200 42.35900 39.95900
H  -17.06500 38.92100 41.52600
H  -16.31300 37.21000 43.95200
H  -16.11800 40.45700 43.89400
H  -17.33800 39.28400 44.30400
H  -17.66200 40.45000 42.97300
H  -16.92700 35.95100 41.33200
H  -18.12000 36.98900 41.83100
H  -17.35400 35.34500 44.13700
H  -17.95200 34.36100 42.84000
H  -18.90400 35.80200 43.41600
H  -13.25300 31.79100 42.17800
H  -14.36400 32.93800 42.94700
H  -12.77200 32.53400 43.73900
H  -8.81000 33.91900 39.49900
H  -6.47800 35.89000 43.73800
H  -5.56300 35.62600 42.25700
H  -6.28400 34.26300 43.29800

