158

Mg 17.45300 -2.91200 28.11000
C  16.47700 -0.83000 30.73800
C  19.56500 -4.56300 30.12800
C  18.87600 -4.23400 25.33500
C  15.60500 -0.74600 25.88600
N  17.98400 -2.62000 30.19000
C  17.38200 -1.79100 31.13400
C  17.95700 -2.00700 32.49900
C  19.06500 -3.06600 32.17400
C  18.90300 -3.44300 30.72800
C  20.55700 -2.60400 32.47800
C  16.86700 -2.46600 33.59000
C  17.03500 -2.08300 35.03400
H  18.46000 -1.67800 35.51800
N  18.93100 -4.35300 27.82800
C  19.65900 -4.96600 28.73800
C  20.40800 -6.06600 28.17300
C  20.23900 -5.96400 26.71200
C  19.31700 -4.78900 26.55300
C  21.24500 -7.11400 28.96100
C  20.83200 -6.69200 25.54500
O  20.65600 -6.40200 24.34900
C  21.57100 -7.91500 25.88000
N  17.18600 -2.60200 26.01000
C  17.90100 -3.27200 25.12500
C  17.51800 -2.87600 23.64400
C  16.31900 -1.92200 23.86600
C  16.29500 -1.80900 25.34800
C  18.63300 -2.31600 22.74400
C  14.86900 -2.24100 23.30900
C  13.97800 -1.04100 22.72100
N  16.18200 -1.23700 28.26900
C  15.57300 -0.46700 27.29800
C  14.89900 0.72200 27.91700
C  15.24900 0.64700 29.26800
C  15.98900 -0.56900 29.45200
C  14.34600 1.93400 27.18300
C  15.14600 1.27000 30.60400
O  14.40700 2.18200 30.92000
C  15.80600 0.31100 31.59900
C  16.63500 1.17000 32.47200
O  17.68500 1.67300 32.23100
O  15.98100 1.31600 33.70100
C  16.52800 2.36500 34.58300
H  20.25800 -5.15500 30.73000
H  19.27500 -4.60000 24.38700
H  15.00100 -0.15000 25.19900
H  18.41700 -1.07500 32.82600
H  18.98100 -3.92400 32.84200
H  20.96600 -3.18700 33.30300
H  20.59400 -1.58100 32.85200
H  21.16000 -2.72100 31.57700
H  16.84200 -3.54900 33.47200
H  15.86000 -2.18100 33.28600
H  16.80700 -2.95300 35.65000
H  16.35500 -1.26900 35.28500
H  21.39200 -6.71800 29.96600
H  22.15000 -7.40600 28.42700
H  20.59600 -7.98800 29.01100
H  22.63400 -7.78100 26.08000
H  21.46800 -8.56500 25.01100
H  21.05300 -8.46900 26.66200
H  16.98200 -3.72600 23.22200
H  16.61800 -0.90400 23.61800
H  18.30900 -1.44200 22.17900
H  18.87000 -3.02000 21.94600
H  19.56700 -2.08000 23.25400
H  14.31200 -2.66800 24.14300
H  15.05600 -3.00300 22.55200
H  13.09400 -0.76200 23.29300
H  13.84000 -1.30200 21.67100
H  14.51300 -0.09200 22.73800
H  13.94200 1.61200 26.22300
H  15.16700 2.64900 27.14500
H  13.47600 2.28100 27.74100
H  15.00600 -0.15400 32.17500
H  16.23500 2.15700 35.61300
H  16.15700 3.35200 34.30800
H  17.61400 2.31000 34.65300
Mg -8.45400 40.63300 42.45100
C  -7.56400 37.31100 41.48400
C  -5.61700 41.77600 40.68200
C  -9.74500 43.71500 42.50600
C  -11.64300 39.20300 43.27400
N  -6.80500 39.58300 41.23200
C  -6.68300 38.26700 40.91900
C  -5.40700 37.99400 40.03500
C  -4.71100 39.45600 39.95600
C  -5.78100 40.37700 40.64800
C  -3.30400 39.54700 40.51900
C  -5.76000 37.32000 38.66000
C  -5.16500 35.94700 38.42200
H  -3.98900 35.93500 37.34700
N  -7.69800 42.52000 41.93200
C  -6.51200 42.77800 41.20400
C  -6.29300 44.22500 41.14000
C  -7.54500 44.78700 41.65200
C  -8.40000 43.63800 42.09400
C  -5.20600 44.98000 40.47400
C  -7.75000 46.30900 41.72100
O  -6.94200 47.11400 41.27900
C  -8.95000 46.87500 42.34900
N  -10.37900 41.32800 43.08200
C  -10.63900 42.69300 42.92200
C  -12.18900 42.98700 43.04900
C  -12.76200 41.51000 43.31300
C  -11.52000 40.60000 43.16500
C  -12.55200 44.04600 44.18400
C  -13.90200 41.14900 42.34800
C  -15.13900 40.52500 42.93100
N  -9.35800 38.61900 42.54500
C  -10.62800 38.24100 42.91500
C  -10.69400 36.81800 43.06800
C  -9.44400 36.36000 42.51400
C  -8.74600 37.50100 42.18800
C  -11.86600 36.02700 43.62000
C  -8.56100 35.21800 42.25700
O  -8.77900 34.02100 42.43500
C  -7.30500 35.78400 41.58700
C  -6.10500 35.52000 42.36300
O  -5.71900 36.17100 43.36200
O  -5.39800 34.43900 41.80100
C  -4.27500 33.96200 42.52000
H  -4.80400 42.16400 40.06400
H  -10.38200 44.56100 42.23800
H  -12.64000 38.86900 43.56900
H  -4.76600 37.32300 40.60600
H  -4.69100 39.70900 38.89600
H  -3.17800 38.70800 41.20300
H  -3.11100 40.53500 40.93900
H  -2.55800 39.44100 39.73100
H  -5.48900 37.95700 37.81900
H  -6.83800 37.17300 38.59300
H  -5.91300 35.23200 38.07900
H  -4.86300 35.51100 39.37400
H  -4.65600 45.52600 41.24000
H  -5.60600 45.59000 39.66300
H  -4.42800 44.30300 40.12000
H  -8.92100 47.90400 42.70500
H  -9.05700 46.36800 43.30800
H  -9.77700 46.76200 41.64700
H  -12.69800 43.30900 42.14000
H  -13.12100 41.50900 44.34200
H  -11.56500 44.39900 44.48400
H  -13.18200 43.71900 45.01100
H  -12.97900 44.96300 43.77600
H  -13.30400 40.63100 41.59900
H  -14.30500 42.05100 41.88800
H  -15.51600 40.96300 43.85500
H  -15.03200 39.45300 43.09900
H  -16.01800 40.57600 42.28900
H  -12.18700 36.20200 44.64600
H  -11.53800 34.98800 43.65600
H  -12.71700 36.08400 42.94100
H  -7.22000 35.44200 40.55500
H  -4.31800 32.87300 42.55300
H  -4.35200 34.26300 43.56500
H  -3.37600 34.19000 41.94800

