158

Mg 16.53300 -1.45000 27.99200
C  15.73400 0.39800 30.82500
C  18.71600 -3.37900 30.01500
C  17.96700 -2.99700 25.29600
C  14.80600 0.74900 25.98200
N  17.22200 -1.40500 30.13900
C  16.65000 -0.68200 31.16100
C  17.37800 -0.79400 32.50800
C  18.37300 -1.96700 32.17500
C  18.06200 -2.27200 30.69400
C  19.89600 -1.77400 32.42900
C  16.35200 -1.08800 33.66900
C  16.82900 -1.75500 34.95600
H  17.23900 -0.89000 36.12500
N  18.00700 -3.19900 27.65900
C  18.70400 -3.84100 28.63100
C  19.39600 -4.95300 28.06800
C  19.12100 -4.90300 26.69600
C  18.35600 -3.69800 26.45800
C  20.28100 -5.92300 28.81400
C  19.64400 -5.75900 25.52300
O  19.42700 -5.37400 24.35600
C  20.45900 -7.07500 25.71700
N  16.43800 -1.14700 25.94500
C  17.12300 -1.89500 25.02900
C  16.75700 -1.42300 23.65800
C  15.56800 -0.40300 23.84100
C  15.61300 -0.24400 25.30800
C  18.02000 -0.86800 22.88200
C  14.10200 -0.68800 23.42800
C  13.86500 -0.17300 21.97500
N  15.38000 0.12600 28.27500
C  14.72800 0.92500 27.36100
C  13.91100 1.87800 28.05900
C  14.30900 1.73400 29.41600
C  15.20600 0.63300 29.51900
C  13.11900 2.88300 27.46600
C  14.08400 2.29600 30.70800
O  13.32700 3.23000 31.03300
C  14.99900 1.41300 31.78300
C  15.88600 2.35100 32.50300
O  16.83000 3.03000 32.10400
O  15.46000 2.49100 33.76600
C  15.94700 3.61900 34.53500
H  19.47500 -3.78500 30.68800
H  18.39700 -3.33900 24.35300
H  14.19100 1.38500 25.34100
H  17.88300 0.13700 32.76200
H  18.09200 -2.85300 32.74500
H  20.13900 -1.15000 33.28900
H  20.33300 -1.29800 31.55200
H  20.33700 -2.74500 32.65500
H  15.58200 -1.76400 33.29900
H  15.89000 -0.13800 33.93800
H  17.76800 -2.28800 34.80300
H  16.06300 -2.34800 35.45400
H  20.16400 -5.80500 29.89100
H  21.35000 -5.86300 28.60800
H  20.08400 -6.96300 28.55400
H  19.73700 -7.70900 26.23300
H  21.31400 -7.00500 26.39000
H  20.86100 -7.52600 24.81000
H  16.40900 -2.23100 23.01500
H  15.81500 0.57600 23.43100
H  18.87700 -0.75800 23.54700
H  17.73500 0.09900 22.46900
H  18.30800 -1.48900 22.03300
H  13.40700 -0.21500 24.12200
H  13.93900 -1.76500 23.40800
H  14.84700 0.06100 21.56400
H  13.33700 0.76400 22.15300
H  13.32900 -0.93700 21.41100
H  13.41400 3.21900 26.47200
H  13.17600 3.81700 28.02400
H  12.11900 2.45000 27.43500
H  14.25800 1.02500 32.48200
H  15.04100 3.96700 35.03100
H  16.28300 4.50400 33.99400
H  16.75000 3.19600 35.13900
Mg 41.21000 9.17200 30.02400
C  43.23400 10.34900 32.62200
C  38.97700 8.03500 32.43300
C  39.43300 7.79000 27.62900
C  43.78900 10.06500 27.75400
N  41.24400 9.10100 32.25400
C  42.09600 9.74000 33.09600
C  41.66500 9.78300 34.57700
C  40.43900 8.78100 34.46300
C  40.16400 8.59200 32.92700
C  40.70600 7.37100 35.05500
C  41.38000 11.22000 35.04900
C  40.43000 11.39700 36.25600
H  40.77100 12.41300 37.44100
N  39.38800 8.25300 29.96800
C  38.56200 7.88200 31.06300
C  37.38200 7.30900 30.55100
C  37.48900 7.24400 29.18500
C  38.81700 7.80400 28.86400
C  36.25000 6.82600 31.45000
C  36.49300 6.78500 28.15600
O  36.66800 6.70300 26.98500
C  35.09600 6.52400 28.53800
N  41.62100 8.85600 27.94600
C  40.67600 8.26900 27.16700
C  41.09500 8.24200 25.70300
C  42.55700 8.88800 25.71000
C  42.67500 9.42900 27.14700
C  40.84200 7.07400 24.76200
C  42.75400 9.89100 24.56100
C  42.38700 11.35200 24.95000
N  43.10500 10.00600 30.12800
C  44.04400 10.31900 29.08500
C  45.23200 10.94300 29.76300
C  44.89300 11.07100 31.13700
C  43.63800 10.40800 31.30000
C  46.47400 11.43100 29.09200
C  45.32700 11.57300 32.35800
O  46.26200 12.25500 32.63700
C  44.32000 11.00800 33.39200
C  45.02700 10.10500 34.27500
O  45.44200 9.01300 33.96700
O  44.79300 10.52300 35.52100
C  45.07500 9.66600 36.63600
H  38.21400 7.80300 33.17800
H  38.87000 7.52700 26.73100
H  44.61000 10.27000 27.06200
H  42.47300 9.39900 35.20000
H  39.61500 9.16600 35.06300
H  40.48200 6.56000 34.36200
H  40.13700 7.27500 35.97900
H  41.78100 7.39300 35.23600
H  40.83700 11.70700 34.23900
H  42.28900 11.81500 35.13600
H  40.23700 10.48700 36.82300
H  39.45200 11.70800 35.88900
H  36.57500 6.60700 32.46700
H  35.91300 5.84300 31.12000
H  35.59000 7.66600 31.23700
H  35.06700 5.87300 29.41200
H  34.61400 6.00300 27.71100
H  34.44900 7.38700 28.69600
H  40.48100 8.99000 25.20100
H  43.29000 8.08200 25.68100
H  41.75700 6.94900 24.18300
H  40.03200 7.40300 24.11200
H  40.58300 6.21300 25.37800
H  42.37100 9.43300 23.64900
H  43.81400 9.75000 24.35400
H  43.27200 11.98600 24.99900
H  41.93200 11.44400 25.93600
H  41.67000 11.65300 24.18600
H  47.13600 10.64900 28.72100
H  47.12200 12.00300 29.75600
H  46.26400 12.02900 28.20600
H  43.97700 11.90500 33.90800
H  45.21600 8.62400 36.35200
H  44.32500 9.91700 37.38700
H  46.06600 9.90700 37.02000

