158

Mg 42.77500 41.65000 26.15300
C  41.69500 43.91700 28.60800
C  43.93400 39.64200 28.69800
C  43.65500 39.43800 23.87000
C  41.81600 43.91800 23.73000
N  42.65000 41.77300 28.38000
C  42.24000 42.75300 29.19500
C  42.09600 42.26200 30.64100
C  42.83200 40.89600 30.63300
C  43.22500 40.80100 29.13400
C  44.01400 40.83600 31.58900
C  40.62800 42.12100 31.20400
C  40.45000 41.66200 32.67800
H  39.70200 42.63800 33.60400
N  43.70600 39.81700 26.28500
C  44.08700 39.13300 27.42900
C  44.74200 37.88300 27.00900
C  44.53900 37.78300 25.61500
C  43.95900 39.04900 25.20800
C  45.13700 36.86500 28.04900
C  44.85300 36.60100 24.75500
O  44.78400 36.57400 23.51700
C  45.07200 35.32300 25.45700
N  42.61500 41.62000 24.08800
C  43.07300 40.59900 23.32900
C  42.92100 40.85400 21.78700
C  42.03900 42.15800 21.87100
C  42.16700 42.63800 23.27300
C  44.20500 41.08100 21.16300
C  40.56600 41.94600 21.44500
C  40.22700 42.24900 19.97500
N  42.10100 43.63300 26.08200
C  41.81000 44.44700 25.02600
C  41.31900 45.74400 25.48400
C  41.29500 45.58500 26.92300
C  41.83800 44.28300 27.19000
C  40.82500 46.77600 24.64700
C  40.80300 46.13700 28.17400
O  40.33900 47.24500 28.49900
C  41.05200 45.01400 29.29200
C  41.98700 45.59800 30.34400
O  43.08300 46.03000 30.23200
O  41.27200 45.54400 31.53200
C  42.00000 45.96300 32.75100
H  44.34000 39.01800 29.49700
H  43.78000 38.68300 23.09100
H  41.48000 44.50800 22.87400
H  42.60700 42.96300 31.30200
H  42.14800 40.07900 30.86400
H  43.96100 39.91900 32.17500
H  43.96000 41.67600 32.28200
H  44.95500 40.82600 31.03900
H  40.05000 41.46600 30.55200
H  40.08800 43.02900 30.93300
H  41.43200 41.55500 33.13800
H  39.97800 40.68900 32.53500
H  45.13400 37.17300 29.09400
H  46.15400 36.60000 27.76000
H  44.51300 35.97800 27.93600
H  45.97900 35.41000 26.05600
H  45.05300 34.56500 24.67400
H  44.19900 35.10200 26.07000
H  42.30000 40.06400 21.36500
H  42.42200 42.82600 21.10000
H  44.97500 40.66600 21.81400
H  44.54000 42.09600 20.94900
H  44.19400 40.51200 20.23400
H  39.97500 42.60200 22.08600
H  40.20500 40.91900 21.48800
H  39.85900 41.31300 19.55600
H  41.10000 42.66200 19.46800
H  39.45600 43.01800 19.91700
H  40.25400 46.43400 23.78300
H  41.54900 47.50300 24.28100
H  40.08900 47.33500 25.22500
H  40.01600 44.88900 29.60500
H  41.58400 45.53900 33.66500
H  41.82800 47.02300 32.94200
H  43.08300 45.86500 32.66800
Mg -5.24000 24.95000 26.41200
C  -3.75600 26.40500 29.19700
C  -6.94300 22.78000 28.49800
C  -5.96400 22.89900 23.75600
C  -3.11400 26.85900 24.33400
N  -5.32400 24.64800 28.57600
C  -4.66100 25.37300 29.56500
C  -5.09800 24.96100 30.99100
C  -6.14800 23.73200 30.74200
C  -6.10800 23.69700 29.19500
C  -5.71500 22.40000 31.37700
C  -5.64000 26.10800 31.88300
C  -5.52800 26.11800 33.40700
H  -5.17000 24.80000 34.08400
N  -6.45400 23.29800 26.14800
C  -7.14100 22.60700 27.09600
C  -8.09400 21.67800 26.46900
C  -7.76100 21.64300 25.10000
C  -6.69800 22.65800 24.92300
C  -9.33400 21.04500 27.19700
C  -8.40300 20.82300 24.01400
O  -8.08100 21.00600 22.87200
C  -9.39000 19.71200 24.35700
N  -4.54500 24.81500 24.34800
C  -5.02400 23.87500 23.49400
C  -4.40900 24.08800 22.05300
C  -3.62700 25.42800 22.32000
C  -3.80400 25.76000 23.73600
C  -3.61400 22.81600 21.63800
C  -4.12500 26.64600 21.33200
C  -3.05600 27.44500 20.59700
N  -3.79900 26.42000 26.70900
C  -3.03900 27.14700 25.74300
C  -2.08400 27.95300 26.42900
C  -2.33800 27.76300 27.79100
C  -3.41700 26.78100 27.88600
C  -1.00000 28.75300 25.81700
C  -1.94100 28.02700 29.13700
O  -1.10500 28.88700 29.55600
C  -2.83600 27.14300 30.11000
C  -1.95000 26.13400 30.84700
O  -1.53600 25.08700 30.40700
O  -1.73200 26.52400 32.20000
C  -0.86000 25.66700 32.93800
H  -7.53600 22.12300 29.13800
H  -6.06100 22.15900 22.95800
H  -2.50800 27.52400 23.71600
H  -4.22200 24.59000 31.52300
H  -7.18200 23.93900 31.01800
H  -6.60500 21.80700 31.58900
H  -5.13800 22.54800 32.28900
H  -5.16400 21.78300 30.66700
H  -6.69600 25.89400 31.72100
H  -5.12600 27.00100 31.52900
H  -6.48000 26.45100 33.82000
H  -4.86300 26.87100 33.82900
H  -10.14400 21.18800 26.48200
H  -9.64900 21.71400 27.99900
H  -9.24600 20.01900 27.55200
H  -9.16400 19.23800 25.31200
H  -9.47500 19.03400 23.50800
H  -10.37100 20.18500 24.39400
H  -5.32800 24.19500 21.47700
H  -2.55700 25.26200 22.19400
H  -2.68100 22.96500 21.09400
H  -4.27900 22.24200 20.99300
H  -3.35200 22.26700 22.54300
H  -4.80000 27.28500 21.90200
H  -4.73300 26.09000 20.61800
H  -2.04300 27.05200 20.68000
H  -3.06300 28.43400 21.05400
H  -3.28100 27.40300 19.53200
H  -0.15500 28.09900 25.60400
H  -0.72100 29.46400 26.59500
H  -1.18700 29.18600 24.83400
H  -3.35700 27.79600 30.81000
H  0.15900 26.04100 33.04200
H  -0.88100 24.65500 32.53400
H  -1.19300 25.53200 33.96800

