158

Mg 24.97900 1.32300 29.28400
C  27.18100 1.20700 32.11900
C  22.35400 1.59100 31.53600
C  22.96900 1.48300 26.73900
C  27.77300 0.90200 27.28700
N  24.76600 1.15700 31.55800
C  25.81600 1.26200 32.46000
C  25.27200 1.43600 33.88600
C  23.72700 1.58000 33.67100
C  23.63100 1.47700 32.13600
C  22.72800 0.64800 34.49500
C  26.03500 2.62300 34.67300
C  25.30700 3.22200 35.91400
H  26.11500 3.78900 37.06200
N  22.90300 1.39200 29.13800
C  21.98900 1.56200 30.14800
C  20.73200 1.77300 29.58800
C  20.90000 1.67900 28.12400
C  22.30100 1.46500 27.94000
C  19.50600 2.09300 30.40800
C  19.85100 1.68900 26.98900
O  20.02500 1.59100 25.75300
C  18.46600 1.68300 27.53600
N  25.33200 1.00500 27.30100
C  24.31300 1.37300 26.45500
C  24.85700 1.44000 24.98300
C  26.33600 1.16400 25.10900
C  26.52100 1.08200 26.64400
C  24.15600 0.44500 23.98600
C  27.14100 2.31900 24.52200
C  26.86200 3.70200 25.19900
N  27.03800 1.16600 29.58300
C  28.02400 0.85800 28.66800
C  29.24900 0.54100 29.34100
C  28.94100 0.74100 30.68100
C  27.61600 1.06400 30.74100
C  30.58100 0.30900 28.73800
C  29.58100 0.79900 32.02900
O  30.74200 0.60900 32.37700
C  28.42000 1.24400 32.97500
C  28.29100 0.29800 34.11000
O  27.56300 -0.69200 34.26000
O  29.16500 0.68300 35.09900
C  28.98400 0.12100 36.53900
H  21.50400 1.92700 32.13200
H  22.32000 1.81800 25.92800
H  28.61700 0.82600 26.59900
H  25.49800 0.49900 34.39600
H  23.44800 2.61500 33.87000
H  22.27100 -0.11600 33.86600
H  22.02100 1.35700 34.92600
H  23.26100 0.08500 35.26200
H  25.96000 3.39300 33.90500
H  27.05200 2.36100 34.96500
H  24.57200 2.45400 36.15200
H  24.74600 4.09800 35.58800
H  18.69000 1.37300 30.33700
H  19.12900 3.00700 29.94900
H  19.69800 2.25300 31.46800
H  17.83500 1.33200 26.71900
H  18.16600 2.62800 27.98900
H  18.35900 0.80100 28.16700
H  24.57400 2.40600 24.56500
H  26.60700 0.20000 24.67900
H  24.69000 -0.50200 23.90300
H  24.16200 0.95800 23.02400
H  23.16400 0.10700 24.28500
H  26.85900 2.48100 23.48200
H  28.15100 1.92500 24.63800
H  27.78900 3.94500 25.71800
H  25.96200 3.78200 25.80800
H  26.81100 4.40100 24.36400
H  31.39100 0.80500 29.27300
H  30.59700 0.58900 27.68500
H  30.70900 -0.76100 28.90300
H  28.41800 2.24300 33.41100
H  28.85400 -0.95400 36.41000
H  28.09300 0.55500 36.99200
H  29.82000 0.38900 37.18500
Mg -5.54500 24.66600 26.16500
C  -4.26700 26.31700 29.11200
C  -7.90700 23.20000 28.01200
C  -6.39200 23.07400 23.37100
C  -3.15300 26.59500 24.39300
N  -5.96500 24.63000 28.30400
C  -5.35200 25.40200 29.32500
C  -6.10300 25.18900 30.67300
C  -7.22600 24.11700 30.29700
C  -7.05100 24.02800 28.75100
C  -7.00300 22.67400 31.01000
C  -6.89600 26.46200 31.20100
C  -6.78900 26.64700 32.79700
H  -6.16400 25.50600 33.59900
N  -6.90800 23.26600 25.74600
C  -7.84700 22.81600 26.63600
C  -8.73100 21.92000 25.98500
C  -8.30400 21.85300 24.65300
C  -7.14600 22.76800 24.52100
C  -9.89800 21.27500 26.70100
C  -8.81200 20.93200 23.59600
O  -8.24300 20.89100 22.50200
C  -9.87700 19.87100 23.86600
N  -4.94400 24.89300 24.17700
C  -5.41400 24.02200 23.18800
C  -4.60000 24.28400 21.97200
C  -3.89300 25.67700 22.17800
C  -3.94400 25.71300 23.68800
C  -3.66100 23.07300 21.65500
C  -4.67500 26.86400 21.57500
C  -3.98800 27.61300 20.40000
N  -3.89700 25.96700 26.61300
C  -3.07700 26.65400 25.77000
C  -2.31600 27.64000 26.45500
C  -2.73200 27.43900 27.79100
C  -3.63000 26.44400 27.87400
C  -1.31200 28.60700 25.88200
C  -2.44600 27.97100 29.04900
O  -1.60200 28.76500 29.47900
C  -3.46900 27.29400 29.96100
C  -2.72500 26.59900 31.10500
O  -2.13000 25.59700 31.02500
O  -2.77700 27.47300 32.14900
C  -2.10200 27.00600 33.34600
H  -8.71900 22.81000 28.63000
H  -6.66100 22.40200 22.55300
H  -2.55200 27.23900 23.74600
H  -5.31000 24.71700 31.25400
H  -8.24600 24.48200 30.42400
H  -7.92400 22.40800 31.53000
H  -6.17000 22.60200 31.70900
H  -6.75700 21.89000 30.29500
H  -7.94500 26.44000 30.90500
H  -6.56600 27.33400 30.63600
H  -7.79800 26.90400 33.11700
H  -6.16500 27.49800 33.07200
H  -10.69400 21.38000 25.96300
H  -10.13600 21.73300 27.66100
H  -9.76700 20.20700 26.87000
H  -10.80900 20.41600 24.01300
H  -9.46200 19.36300 24.73600
H  -9.90000 19.18000 23.02300
H  -5.30000 24.45200 21.15300
H  -2.86000 25.62800 21.83400
H  -3.86900 22.26400 22.35600
H  -2.65000 23.40400 21.89000
H  -3.82800 22.66900 20.65700
H  -4.79300 27.69800 22.26600
H  -5.64700 26.55600 21.19000
H  -3.58900 28.55900 20.76800
H  -4.74500 27.70600 19.62200
H  -3.22300 26.92800 20.03600
H  -0.73100 28.97100 26.72900
H  -1.85500 29.41200 25.38600
H  -0.68700 28.10800 25.14100
H  -4.16600 27.90700 30.53200
H  -1.37900 27.75100 33.67700
H  -1.67700 26.00400 33.39500
H  -2.80000 27.09100 34.17900

