158

Mg 7.09200 2.87500 27.91900
C  8.62000 1.90000 30.75700
C  5.27800 5.24400 29.82200
C  5.40000 3.78500 25.13800
C  8.60100 0.40000 26.12000
N  6.80300 3.35100 30.05900
C  7.71100 2.93000 31.05000
C  7.56700 3.74100 32.34700
C  6.42700 4.77500 32.02000
C  6.05500 4.34100 30.56900
C  5.16000 4.79300 32.95000
C  8.80000 4.38800 33.02600
C  9.10300 3.82400 34.41100
H  8.76000 4.75000 35.56600
N  5.64400 4.36500 27.54100
C  5.08100 5.24400 28.38600
C  4.36100 6.20600 27.59100
C  4.23000 5.66500 26.30300
C  5.13800 4.56900 26.28300
C  3.58400 7.34200 28.20700
C  3.50700 6.22500 25.13700
O  3.46600 5.55700 24.13000
C  2.80900 7.48000 25.06700
N  6.95100 2.16800 25.96100
C  6.21400 2.68300 25.01400
C  6.26000 1.78400 23.69600
C  7.65300 1.07300 23.89000
C  7.73600 1.17000 25.40900
C  5.00500 0.84200 23.58000
C  8.90300 1.67200 23.04300
C  10.16000 2.11000 23.83000
N  8.34800 1.38200 28.33600
C  8.86200 0.42600 27.50800
C  9.72900 -0.48700 28.22600
C  9.67900 0.11700 29.50900
C  8.73800 1.18100 29.55500
C  10.56800 -1.60500 27.76300
C  10.28100 0.04500 30.80400
O  11.11600 -0.70800 31.23900
C  9.57100 1.18600 31.64400
C  8.87700 0.55600 32.72500
O  7.76900 0.03400 32.66400
O  9.71800 0.50000 33.83500
C  9.13800 -0.07100 35.09600
H  4.78400 6.07000 30.33800
H  5.00100 3.91900 24.13100
H  9.08100 -0.37500 25.51800
H  7.09300 3.02600 33.01900
H  6.87400 5.76900 32.00000
H  4.31900 4.34300 32.42100
H  4.83900 5.76700 33.31900
H  5.32700 4.27800 33.89600
H  8.74600 5.47700 33.01400
H  9.66300 4.11200 32.42000
H  10.18500 3.70300 34.46200
H  8.70500 2.83500 34.63900
H  2.54900 7.20000 27.89500
H  3.85700 8.36000 27.92900
H  3.61100 7.32800 29.29600
H  2.03900 7.46000 25.83900
H  2.32800 7.48900 24.08900
H  3.50900 8.30200 25.21300
H  6.37100 2.54200 22.92100
H  7.55100 0.04600 23.53900
H  4.35300 1.04100 24.43000
H  5.25600 -0.21600 23.65500
H  4.39100 0.95400 22.68600
H  8.53100 2.51600 22.46200
H  9.29100 0.84200 22.45300
H  9.80800 2.60100 24.73800
H  10.74600 2.89500 23.35200
H  10.70200 1.17200 23.94900
H  11.26600 -1.31300 26.97900
H  9.91700 -2.42600 27.46100
H  11.24200 -1.90300 28.56600
H  10.30200 1.88800 32.04300
H  8.78900 0.69200 35.79100
H  9.95900 -0.60900 35.57000
H  8.34600 -0.76300 34.80800
Mg 36.79600 49.66500 25.67300
C  37.21200 47.48200 28.37700
C  35.41000 51.97700 27.87300
C  35.78700 51.52400 23.13800
C  38.07100 47.35900 23.52100
N  36.26900 49.58500 27.88000
C  36.67000 48.66300 28.81000
C  36.32300 49.14900 30.23400
C  35.65100 50.53800 30.00300
C  35.63300 50.71900 28.45600
C  34.18600 50.64700 30.61300
C  37.61800 49.23100 31.08300
C  37.57200 48.68700 32.51000
H  36.29200 49.13500 33.25700
N  35.79200 51.55000 25.50200
C  35.48900 52.38500 26.52000
C  35.15000 53.80100 25.97800
C  35.33700 53.64900 24.55800
C  35.63100 52.20600 24.32800
C  34.68400 54.92400 26.87400
C  35.13200 54.65600 23.49500
O  35.21600 54.47700 22.30400
C  34.78900 56.04800 23.81700
N  36.90400 49.43200 23.64800
C  36.21400 50.24000 22.79200
C  36.33200 49.77000 21.37500
C  37.39600 48.65400 21.42200
C  37.49800 48.47500 22.92500
C  34.97900 49.44700 20.61900
C  38.72100 48.94400 20.80700
C  39.55500 47.77100 20.07500
N  37.53100 47.81000 25.82500
C  38.01600 46.99600 24.85800
C  38.53200 45.82200 25.46100
C  38.25900 45.97000 26.82200
C  37.52900 47.15100 27.03100
C  39.14400 44.59400 24.82800
C  38.39200 45.32700 28.08600
O  38.96800 44.33100 28.53900
C  37.73200 46.31800 29.14500
C  36.65700 45.64900 29.90900
O  35.49300 45.51300 29.59400
O  37.19300 45.37300 31.13900
C  36.31100 45.07100 32.24100
H  34.98500 52.80000 28.45100
H  35.42300 52.13100 22.30600
H  38.51500 46.63200 22.83700
H  35.50700 48.53000 30.60700
H  36.28800 51.29200 30.46600
H  33.55500 50.18300 29.85500
H  33.97900 51.71400 30.70000
H  34.04900 50.20000 31.59700
H  38.06300 50.22400 31.02700
H  38.33400 48.68500 30.46800
H  38.43700 49.18900 32.94300
H  37.74500 47.61300 32.57500
H  35.46300 55.64400 27.12300
H  34.40800 54.61900 27.88400
H  33.90200 55.49900 26.37800
H  33.71200 56.18800 23.91200
H  35.06900 56.71000 22.99700
H  35.25500 56.42800 24.72600
H  36.80900 50.61400 20.87700
H  36.93100 47.78200 20.96200
H  34.90400 50.10900 19.75600
H  34.12500 49.66900 21.25900
H  34.93500 48.42700 20.23600
H  39.40800 49.23100 21.60300
H  38.69800 49.68700 20.00900
H  40.06500 47.13600 20.79800
H  40.38200 48.13900 19.46700
H  38.83600 47.14800 19.54200
H  38.53900 44.47500 23.92900
H  39.25900 43.74100 25.49700
H  40.14000 44.83400 24.45500
H  38.63200 46.61700 29.68300
H  35.46000 44.50600 31.85700
H  35.79600 45.94900 32.62900
H  36.80200 44.52500 33.04700

