158

Mg 3.35000 0.76000 44.07900
C  6.35400 2.58900 43.97500
C  1.87200 3.54600 42.54500
C  0.73100 -1.06400 43.47400
C  5.28300 -2.04000 44.94100
N  4.10700 2.70600 43.09400
C  5.31900 3.23400 43.31400
C  5.42100 4.62200 42.78800
C  3.93900 4.94800 42.33500
C  3.22500 3.71100 42.69600
C  3.32800 6.23600 42.89600
C  6.51800 4.80600 41.71300
C  6.85400 3.67000 40.73800
H  7.15800 4.11100 39.26700
N  1.46300 1.20400 43.21900
C  1.05700 2.42300 42.76200
C  -0.28800 2.28800 42.37500
C  -0.65400 0.91000 42.53700
C  0.51200 0.25900 43.03500
C  -1.05900 3.37900 41.73400
C  -2.02300 0.40200 42.23900
O  -2.87400 1.14400 41.84300
C  -2.38700 -1.06700 42.32900
N  3.10500 -1.37600 43.92300
C  1.87000 -1.83500 43.76800
C  1.79800 -3.34500 44.12300
C  3.29100 -3.68300 44.57400
C  3.93700 -2.25800 44.56400
C  0.65200 -3.89600 45.18600
C  4.20100 -4.66800 43.77100
C  4.83600 -5.95600 44.36900
N  5.36400 0.30200 44.52800
C  5.96000 -0.80600 44.96700
C  7.30000 -0.53300 45.36200
C  7.51300 0.82000 45.03000
C  6.29300 1.28400 44.51400
C  8.33200 -1.50300 45.89400
C  8.50400 1.89800 45.03300
O  9.68400 1.99200 45.39800
C  7.74800 3.14900 44.31800
C  7.71600 4.34900 45.22700
O  8.58200 5.19100 45.19900
O  6.61000 4.38700 46.11000
C  6.56400 5.51600 46.98900
H  1.43700 4.41500 42.04700
H  -0.21700 -1.60100 43.55400
H  5.66200 -2.94100 45.42900
H  5.58900 5.40800 43.52400
H  3.83500 5.00600 41.25200
H  4.14000 6.85200 43.28200
H  2.56600 6.00200 43.63900
H  2.89700 6.77300 42.05100
H  7.38300 5.11100 42.30000
H  6.17300 5.65300 41.12000
H  5.99800 3.02600 40.53700
H  7.84300 3.28100 40.98000
H  -1.99500 3.45200 42.28800
H  -1.13800 3.28200 40.65200
H  -0.70500 4.40400 41.84000
H  -2.53400 -1.19200 43.40200
H  -1.56100 -1.63400 41.89800
H  -3.25100 -1.34200 41.72400
H  1.66400 -3.76500 43.12600
H  3.22000 -4.18500 45.53900
H  0.38500 -2.95000 45.65700
H  0.96100 -4.70800 45.84500
H  -0.19000 -4.35800 44.66900
H  5.03000 -4.11500 43.32900
H  3.54000 -5.12400 43.03500
H  4.72500 -6.80200 43.69000
H  4.48100 -6.29600 45.34200
H  5.91400 -5.85200 44.48700
H  8.21800 -1.48800 46.97800
H  9.29500 -1.06800 45.62700
H  8.19900 -2.49500 45.46000
H  8.41200 3.29800 43.46600
H  7.48900 6.07700 47.12300
H  6.45900 4.97900 47.93200
H  5.71100 6.15600 46.76700
Mg 40.62400 41.75600 26.51300
C  39.94600 43.85400 29.39200
C  41.70000 39.32500 28.80600
C  41.49000 39.67600 23.90800
C  40.00200 44.34500 24.46000
N  40.85400 41.70400 28.83900
C  40.38900 42.55700 29.81300
C  40.38700 42.05600 31.24300
C  40.98400 40.60100 31.05600
C  41.18500 40.52900 29.46700
C  42.32100 40.44900 31.79200
C  38.96400 42.02900 31.88900
C  38.81300 41.19400 33.12500
H  38.10500 41.88400 34.32200
N  41.55100 39.85600 26.40800
C  41.84500 39.03700 27.46600
C  42.21300 37.71400 26.99300
C  42.17900 37.72800 25.54600
C  41.81100 39.13700 25.20900
C  42.55300 36.51300 27.94100
C  42.52300 36.69600 24.53700
O  42.69600 36.93500 23.30800
C  42.73400 35.23400 25.06500
N  40.69100 41.98900 24.48700
C  40.98700 40.96800 23.56400
C  41.11800 41.53400 22.14200
C  40.35000 42.91300 22.33900
C  40.43700 43.15600 23.87900
C  42.61500 41.64700 21.78300
C  38.90500 42.77000 21.93600
C  38.27600 44.07800 21.33800
N  39.96500 43.63300 26.77800
C  39.67800 44.60700 25.84100
C  39.20000 45.83800 26.47300
C  39.26800 45.59500 27.85900
C  39.67800 44.25800 28.01900
C  38.96800 47.13500 25.72000
C  39.06200 46.19000 29.18900
O  38.81300 47.34200 29.54100
C  39.34300 45.01100 30.16000
C  40.33700 45.47700 31.12900
O  41.47800 45.72000 30.91800
O  39.68900 45.85000 32.30100
C  40.52800 46.43400 33.36200
H  41.64700 38.57000 29.59300
H  41.62200 38.94400 23.10800
H  39.72200 45.12800 23.75100
H  41.06300 42.62900 31.87800
H  40.49000 39.72000 31.46500
H  43.09100 40.27100 31.04000
H  42.15900 39.60000 32.45600
H  42.58900 41.16000 32.57300
H  38.28800 41.60900 31.14400
H  38.70800 43.04500 32.18900
H  39.77000 40.78500 33.44800
H  38.21000 40.32200 32.87000
H  43.53100 36.17000 27.60100
H  41.85900 35.67300 27.95000
H  42.61600 36.78800 28.99400
H  41.87700 34.89300 25.64600
H  43.68500 35.16800 25.59200
H  42.84100 34.61900 24.17100
H  40.57500 40.86900 21.47000
H  40.81300 43.75900 21.83000
H  43.17500 41.08800 22.53200
H  42.94800 42.68400 21.79500
H  42.83900 41.11900 20.85600
H  38.40300 42.42100 22.83800
H  38.67000 42.05100 21.15200
H  37.60000 43.69700 20.57200
H  39.00200 44.82700 21.02400
H  37.60500 44.52800 22.06900
H  38.99100 48.04500 26.31900
H  37.98500 47.16500 25.25000
H  39.79200 47.24700 25.01400
H  38.50300 44.64100 30.74800
H  41.42800 45.83200 33.48300
H  39.96800 46.48600 34.29600
H  40.74100 47.48900 33.18900

