158

Mg 50.43100 46.83300 43.10100
C  47.21400 47.36800 41.74100
C  50.53100 43.79800 41.84400
C  53.70300 46.97400 43.70400
C  50.38600 50.40400 43.85500
N  48.99500 45.77700 41.94900
C  47.76400 46.11900 41.43900
C  47.08800 44.82800 40.86900
C  48.01900 43.70800 41.22400
C  49.27500 44.47500 41.75000
C  47.52800 42.67900 42.27700
C  46.72700 44.92300 39.33600
C  45.27200 44.65700 38.95900
H  45.01000 43.48800 37.99700
N  51.96300 45.58700 42.78900
C  51.77500 44.32500 42.29600
C  53.02500 43.62300 42.22600
C  54.00100 44.53800 42.86400
C  53.28000 45.76500 43.14800
C  53.15000 42.30800 41.51000
C  55.48000 44.14600 43.06300
O  55.95900 43.11900 42.66500
C  56.39000 44.94100 44.01900
N  51.73400 48.44400 43.88800
C  53.05200 48.15100 44.03100
C  53.89400 49.41000 44.41700
C  52.75600 50.47600 44.66100
C  51.58400 49.77000 43.99300
C  54.80800 49.30700 45.63800
C  53.09600 51.89400 43.99400
C  52.40800 53.11300 44.61400
N  49.03500 48.53400 42.93500
C  49.18000 49.85900 43.36100
C  47.93100 50.59500 43.09400
C  47.09000 49.60000 42.44500
C  47.84400 48.41200 42.40500
C  47.69100 52.07700 43.35400
C  45.78700 49.33700 41.90600
O  44.80300 50.02900 41.81800
C  45.79700 47.85200 41.42800
C  44.76700 47.22600 42.28200
O  44.58700 47.30100 43.49500
O  43.86600 46.66400 41.35300
C  42.56300 46.25200 41.87900
H  50.55900 42.76800 41.48200
H  54.79200 46.98800 43.78100
H  50.35200 51.44300 44.18900
H  46.14500 44.77400 41.41200
H  48.25500 43.25500 40.26100
H  46.44000 42.62800 42.29900
H  47.88800 42.71900 43.30500
H  47.80400 41.70900 41.86200
H  47.42100 44.33800 38.73200
H  46.77400 45.97200 39.04300
H  44.92100 45.52900 38.40600
H  44.65400 44.57400 39.85200
H  54.05700 42.40500 40.91400
H  52.33700 42.11900 40.80900
H  53.34800 41.48200 42.19200
H  56.76500 45.91300 43.69800
H  57.28500 44.34800 44.20800
H  56.07400 45.03500 45.05800
H  54.51900 49.65000 43.55700
H  52.46100 50.62600 45.70000
H  55.77900 49.70500 45.34200
H  55.00700 48.29600 45.99300
H  54.43000 49.88800 46.48000
H  52.87600 51.80300 42.93000
H  54.14700 52.12400 44.16800
H  53.16100 53.75700 45.06800
H  51.51800 52.87500 45.19800
H  52.08500 53.80400 43.83600
H  48.60500 52.63000 43.56800
H  46.85500 52.06200 44.05300
H  47.33500 52.50600 42.41800
H  45.65300 47.75600 40.35200
H  42.65700 45.43100 42.58900
H  41.89900 45.98700 41.05700
H  42.13500 47.02200 42.52000
Mg 17.04400 52.28800 26.13500
C  18.85900 50.89800 28.69000
C  14.55800 53.13800 28.29800
C  15.03700 53.25200 23.50600
C  19.28100 50.87400 23.78700
N  16.73600 51.97800 28.21900
C  17.69900 51.59500 29.12300
C  17.30900 52.00300 30.50300
C  15.73700 52.05800 30.29400
C  15.62700 52.51500 28.84600
C  15.04000 50.67900 30.39600
C  18.09800 53.29400 31.05000
C  18.27400 53.34600 32.57300
H  17.42800 52.40400 33.41400
N  15.08700 53.21700 25.93100
C  14.24400 53.47400 26.96200
C  13.07500 54.10500 26.41700
C  13.19700 54.17300 25.01400
C  14.49100 53.56500 24.73200
C  11.84900 54.51300 27.25400
C  12.26500 54.76000 23.97200
O  12.44900 54.69700 22.75600
C  11.08100 55.50100 24.38900
N  17.07500 51.93700 23.88300
C  16.21200 52.61400 23.06000
C  16.56300 52.38500 21.57700
C  18.01800 51.75400 21.68900
C  18.14200 51.48100 23.19300
C  15.50500 51.42900 20.86700
C  19.10400 52.70500 21.20300
C  19.15600 54.11100 21.88300
N  18.69200 51.10200 26.14500
C  19.46000 50.55500 25.11700
C  20.58500 49.87400 25.78000
C  20.41200 49.94100 27.16700
C  19.24000 50.69800 27.33100
C  21.79500 49.29100 25.13700
C  20.91800 49.61700 28.52600
O  21.89300 49.03600 28.85600
C  19.86300 50.25600 29.56600
C  19.51700 49.11800 30.52400
O  19.03300 48.06100 30.12400
O  19.83300 49.41500 31.84700
C  19.50900 48.40300 32.77400
H  13.73200 53.26400 29.00000
H  14.60900 53.74200 22.62900
H  20.10400 50.57100 23.13600
H  17.43300 51.11800 31.12700
H  15.13500 52.72300 30.91300
H  14.16100 50.81100 31.02700
H  15.67900 49.91500 30.83900
H  14.72800 50.29000 29.42700
H  17.53400 54.20900 30.86900
H  19.04200 53.36700 30.51000
H  18.05100 54.32500 32.99700
H  19.30800 53.08900 32.80500
H  11.67500 55.58500 27.16500
H  11.97000 54.36600 28.32700
H  10.93500 54.00200 26.94900
H  10.46900 55.92100 23.59100
H  11.47300 56.37200 24.91500
H  10.52800 54.78900 25.00200
H  16.58500 53.29300 20.97400
H  17.99500 50.75100 21.26100
H  14.77200 51.02500 21.56600
H  16.05300 50.57100 20.47800
H  14.93700 51.99300 20.12800
H  18.81500 52.93400 20.17800
H  20.06400 52.18900 21.23000
H  19.83200 54.82400 21.41100
H  19.78000 53.92100 22.75600
H  18.19000 54.57700 22.07400
H  21.70000 48.20900 25.04800
H  22.57300 49.57200 25.84600
H  21.91000 49.77800 24.16900
H  20.46100 50.96400 30.14000
H  18.49100 48.05600 32.59200
H  19.63700 48.76300 33.79400
H  20.26700 47.62000 32.79200

