158

Mg 6.11400 53.67200 41.72600
C  5.67400 50.31500 40.87400
C  9.25100 53.56000 40.51000
C  6.10100 57.05300 41.58800
C  2.57100 53.83100 42.57800
N  7.17200 52.09900 40.58300
C  6.90900 50.78100 40.43700
C  8.02400 50.05000 39.91200
C  9.25500 51.00000 40.16700
C  8.54700 52.33000 40.46900
C  10.26000 50.45400 41.32600
C  7.93200 49.58300 38.43500
C  7.14700 50.45800 37.41200
H  7.18700 49.95600 35.95200
N  7.53600 55.13200 41.16900
C  8.80100 54.86900 40.78100
C  9.55300 56.08500 40.64700
C  8.73700 57.14100 41.12100
C  7.39300 56.46500 41.35700
C  10.92500 56.09600 40.01900
C  9.10100 58.62100 41.23600
O  10.25700 58.95100 41.17400
C  8.07400 59.60000 41.56500
N  4.52200 55.24200 42.02100
C  4.87200 56.50600 41.87900
C  3.61200 57.39100 42.13600
C  2.51100 56.38700 42.63000
C  3.18100 55.04900 42.30500
C  3.80400 58.73300 42.90400
C  1.05000 56.64800 42.20900
C  0.00800 56.29000 43.27400
N  4.49600 52.36800 41.90900
C  3.17900 52.58200 42.30500
C  2.61300 51.22500 42.47200
C  3.48700 50.33800 41.87900
C  4.64400 51.10000 41.50700
C  1.38200 50.87000 43.36500
C  3.76000 48.92800 41.57500
O  3.05300 47.99100 41.89300
C  5.14300 48.86600 40.88700
C  5.02800 48.09100 39.59600
O  4.44800 48.46100 38.60600
O  5.60700 46.81200 39.72400
C  5.45900 45.95600 38.59900
H  10.29500 53.47800 40.19900
H  6.08600 58.13400 41.43300
H  1.52300 53.92700 42.86900
H  8.11900 49.13300 40.49400
H  9.95600 51.09000 39.33700
H  10.42600 51.25700 42.04400
H  11.23900 50.23700 40.89800
H  9.99000 49.56000 41.88800
H  7.37100 48.66000 38.28900
H  8.95800 49.36600 38.13900
H  7.67600 51.41000 37.45900
H  6.14800 50.78600 37.69800
H  10.94500 56.11900 38.92900
H  11.40400 55.18400 40.37600
H  11.47300 56.95300 40.41200
H  8.60800 60.53000 41.76000
H  7.70800 59.27100 42.53800
H  7.34000 59.70900 40.76700
H  3.41400 57.79700 41.14400
H  2.67900 56.59400 43.68700
H  3.38600 59.58100 42.36100
H  4.86500 58.97800 42.94200
H  3.49000 58.69500 43.94700
H  0.80000 56.00500 41.36600
H  1.14300 57.67500 41.85400
H  -0.56200 57.20900 43.40400
H  0.55800 56.05500 44.18500
H  -0.70700 55.53700 42.94100
H  0.94000 49.98300 42.91200
H  0.64900 51.67000 43.46900
H  1.76200 50.63200 44.35800
H  5.79700 48.24400 41.49800
H  4.95100 45.04600 38.91800
H  6.44300 45.61900 38.27100
H  4.94200 46.36300 37.73000
Mg 16.51300 53.27200 26.50300
C  18.65500 51.81900 28.87700
C  14.27100 53.94600 29.09400
C  14.63800 54.90600 24.28800
C  18.87300 52.44300 24.03800
N  16.49500 52.98200 28.71600
C  17.52800 52.38400 29.51100
C  17.27400 52.40200 31.02700
C  15.77100 52.80900 30.96400
C  15.50600 53.32900 29.50600
C  14.74700 51.80300 31.41500
C  18.13800 53.43000 31.79300
C  18.37400 53.13700 33.31600
H  17.33400 52.36600 34.08200
N  14.71400 54.21200 26.63300
C  13.90100 54.29200 27.76200
C  12.70900 54.97800 27.45300
C  12.88300 55.46800 26.13000
C  14.10200 54.87600 25.61100
C  11.73000 55.36600 28.48600
C  12.03800 56.48100 25.35400
O  12.21300 56.68200 24.19600
C  10.75700 56.93700 25.93800
N  16.70100 53.59700 24.52100
C  15.77100 54.30300 23.77000
C  16.08700 54.23600 22.24600
C  17.49800 53.64700 22.21100
C  17.72300 53.17600 23.68200
C  15.15200 53.24500 21.52700
C  18.72100 54.56300 21.66900
C  19.63700 55.26100 22.78000
N  18.37700 52.30600 26.38200
C  19.22100 52.04200 25.30800
C  20.45700 51.45000 25.84700
C  20.22200 51.29800 27.19500
C  18.98600 51.88900 27.51400
C  21.64400 50.90900 25.16700
C  20.82800 50.78700 28.41300
O  21.92400 50.29800 28.63000
C  19.84100 51.19700 29.56500
C  19.48300 50.09600 30.49000
O  18.63500 49.21900 30.32900
O  20.32700 50.10400 31.63800
C  19.97700 49.08100 32.61800
H  13.62500 54.21200 29.93400
H  14.12300 55.54400 23.56600
H  19.66400 52.29700 23.29900
H  17.38400 51.43500 31.51800
H  15.60200 53.65900 31.62500
H  13.79200 52.21400 31.74300
H  15.10800 51.28600 32.30400
H  14.57200 51.07500 30.62300
H  17.59300 54.37400 31.79300
H  19.11100 53.54400 31.31600
H  18.50700 54.06700 33.86800
H  19.26000 52.50500 33.38000
H  10.71800 55.17400 28.12900
H  11.85700 56.42000 28.73300
H  11.71500 54.81900 29.42800
H  10.26700 57.61100 25.23500
H  10.77000 57.61800 26.78900
H  10.12200 56.06600 26.10100
H  16.09600 55.24100 21.82500
H  17.58800 52.84300 21.48100
H  14.77100 53.71700 20.62100
H  14.36800 52.79900 22.13900
H  15.65400 52.36400 21.12700
H  18.25300 55.38900 21.13300
H  19.29300 54.09500 20.86800
H  20.61200 54.77800 22.72600
H  19.24400 55.11700 23.78700
H  19.59500 56.33200 22.58300
H  21.49500 50.10600 24.44400
H  22.43700 50.58300 25.84000
H  22.18500 51.65500 24.58500
H  20.44200 51.90900 30.13100
H  20.26100 48.05000 32.40800
H  18.90200 49.09500 32.79700
H  20.48900 49.40600 33.52400

