158

Mg 46.42300 16.36900 28.78500
C  44.19500 15.97000 31.48600
C  48.52000 17.96800 30.83100
C  48.23800 17.19200 26.02000
C  43.82000 15.12100 26.60900
N  46.33600 16.72800 30.85400
C  45.37300 16.54800 31.80500
C  45.75900 17.10400 33.21200
C  47.07500 17.90200 32.90300
C  47.34600 17.51800 31.41700
C  47.22900 19.37300 33.42000
C  45.91500 15.88900 34.10100
C  45.48000 16.03000 35.61900
H  45.24600 17.46400 36.23900
N  48.14200 17.39300 28.46700
C  48.98500 17.90900 29.46900
C  50.12900 18.50000 28.85100
C  49.98500 18.38100 27.39500
C  48.77400 17.55800 27.26600
C  51.17000 19.35700 29.52300
C  50.83100 18.94800 26.21200
O  50.46300 18.97500 25.05400
C  52.13800 19.53800 26.56300
N  46.00100 16.33700 26.59900
C  46.97400 16.68700 25.67500
C  46.36100 16.56800 24.24300
C  45.14100 15.57300 24.41100
C  44.99900 15.60200 25.97900
C  46.11600 17.97300 23.55600
C  45.28500 14.03100 23.97400
C  44.34100 13.60000 22.93200
N  44.44400 15.64700 28.93000
C  43.58700 15.11400 28.04100
C  42.32200 14.75700 28.64800
C  42.54500 14.96900 30.07100
C  43.81600 15.59400 30.16700
C  41.02600 14.32900 27.94800
C  41.98400 14.99900 31.38500
O  40.87300 14.69800 31.73200
C  43.07600 15.49400 32.37100
C  42.45000 16.67700 32.94500
O  42.41500 17.76700 32.43600
O  42.06800 16.50500 34.20600
C  41.35700 17.65300 34.86200
H  49.09200 18.56700 31.54200
H  48.85900 17.34400 25.13500
H  43.06400 14.61600 26.00300
H  44.98900 17.77700 33.59200
H  47.84000 17.41100 33.50500
H  47.89500 19.41000 34.28300
H  46.26800 19.86800 33.56500
H  47.88100 19.85100 32.68900
H  46.97300 15.65900 34.22100
H  45.47300 14.99000 33.67000
H  46.25900 15.46000 36.12400
H  44.53000 15.50700 35.73100
H  52.00500 18.65700 29.54700
H  50.91800 19.64600 30.54400
H  51.36700 20.30700 29.02700
H  51.95500 20.43600 27.15400
H  52.62000 19.77300 25.61400
H  52.71700 18.75500 27.05300
H  47.17000 16.02900 23.74900
H  44.29700 16.09700 23.96200
H  46.61400 18.81500 24.03800
H  45.04400 18.16500 23.58800
H  46.37600 17.94000 22.49800
H  45.18400 13.29600 24.77300
H  46.33300 13.94600 23.68800
H  43.70700 12.78400 23.27800
H  44.84000 13.11000 22.09600
H  43.65900 14.36300 22.55800
H  40.73600 15.10000 27.23500
H  40.20000 14.30500 28.65900
H  41.08600 13.31100 27.56300
H  43.28300 14.71500 33.10500
H  40.39300 17.82600 34.38300
H  41.83800 18.63000 34.82000
H  41.10900 17.36700 35.88400
Mg 47.34100 25.08600 29.20200
C  48.27000 27.24900 31.82900
C  46.02200 22.93900 31.64300
C  46.71900 22.88400 26.66900
C  48.82500 27.16600 26.92300
N  47.26800 25.05200 31.58400
C  47.63000 26.09800 32.36600
C  47.23200 25.87800 33.83900
C  46.73600 24.38900 33.74900
C  46.52200 24.13200 32.22100
C  47.62800 23.37600 34.36400
C  46.07300 26.80500 34.24500
C  46.30100 27.64700 35.49300
H  46.85600 26.93600 36.71300
N  46.48400 23.22800 29.11400
C  46.03700 22.49900 30.28100
C  45.47400 21.18600 29.76600
C  45.62000 21.20200 28.35100
C  46.36700 22.50000 28.02800
C  44.96300 20.19600 30.75200
C  45.09400 20.13300 27.29500
O  45.23300 20.29600 26.11000
C  44.37400 18.99600 27.87400
N  48.02200 24.86600 27.14100
C  47.50700 23.96800 26.34000
C  47.99400 24.15900 24.91700
C  48.30700 25.65200 24.85100
C  48.42500 25.92900 26.36900
C  49.20800 23.25700 24.50300
C  47.14400 26.46100 24.26900
C  47.63000 27.83600 23.75100
N  48.26600 26.82300 29.33300
C  48.84100 27.63300 28.29500
C  49.32700 28.81100 28.85100
C  49.11300 28.67400 30.24300
C  48.49800 27.43800 30.51200
C  50.16300 29.78600 28.10300
C  49.32500 29.37500 31.52000
O  49.83600 30.43000 31.71800
C  48.80000 28.46300 32.59700
C  49.84700 28.10700 33.50700
O  50.75900 27.25800 33.35100
O  49.70500 28.81400 34.69500
C  50.87300 28.93300 35.63100
H  45.51900 22.37400 32.43100
H  46.42000 22.21600 25.85800
H  49.00600 28.00800 26.25100
H  48.09300 25.98900 34.49900
H  45.78000 24.29800 34.26600
H  48.66800 23.60200 34.12700
H  47.45400 22.39700 33.91900
H  47.52000 23.38800 35.44900
H  45.14900 26.22800 34.28400
H  45.91400 27.44500 33.37700
H  45.39700 28.23200 35.66400
H  46.94900 28.49800 35.28300
H  43.92300 20.48500 30.89900
H  45.41600 20.28900 31.74000
H  45.05100 19.14600 30.47200
H  45.13200 18.45800 28.44400
H  44.11800 18.36900 27.02000
H  43.43200 19.31100 28.32300
H  47.18500 23.86600 24.24800
H  49.29300 25.87900 24.44600
H  50.10000 23.88100 24.46100
H  49.13200 22.80700 23.51300
H  49.30600 22.49200 25.27300
H  46.35200 26.58900 25.00700
H  46.80400 25.96400 23.36000
H  48.71600 27.86400 23.67000
H  47.23400 28.75200 24.19000
H  47.23900 27.86000 22.73400
H  49.57200 30.45800 27.48100
H  50.93800 29.31800 27.49700
H  50.58700 30.38700 28.90700
H  48.00300 29.05500 33.04800
H  51.68900 28.25000 35.39600
H  50.54200 28.55600 36.59800
H  51.18800 29.96400 35.79600

