158

Mg 44.43400 4.81400 45.81900
C  42.54800 7.80800 45.84300
C  41.37800 3.14000 45.24200
C  46.18200 1.93300 45.03700
C  47.23000 6.59200 46.26400
N  42.17800 5.45900 45.43000
C  41.70500 6.65800 45.52000
C  40.13700 6.62800 45.36400
C  39.77400 5.13900 45.47900
C  41.19900 4.51400 45.39600
C  38.92400 4.81500 46.74500
C  39.48700 7.43800 44.12100
C  40.41700 7.82600 42.94800
H  40.42800 6.84100 41.71400
N  43.92900 2.83200 45.19600
C  42.59400 2.38400 45.06900
C  42.71800 0.97900 44.80400
C  44.02400 0.61000 44.46600
C  44.82100 1.79600 44.89000
C  41.46700 0.04500 44.72100
C  44.52100 -0.77300 43.95200
O  43.77500 -1.64400 43.77700
C  45.94500 -0.95800 43.62400
N  46.43700 4.38400 45.45200
C  46.90600 3.12600 45.36400
C  48.47200 3.07700 45.70000
C  48.81200 4.59100 45.98900
C  47.41500 5.29700 45.82100
C  48.88200 2.03100 46.71100
C  49.97100 5.13200 45.03400
C  49.52700 5.56500 43.59900
N  44.88900 6.81400 45.81500
C  46.09400 7.38500 46.22800
C  45.88400 8.77100 46.50000
C  44.47900 8.98500 46.34400
C  43.94400 7.75000 45.95800
C  46.99900 9.67400 46.84600
C  43.42900 9.99200 46.41400
O  43.45400 11.16200 46.68700
C  42.05800 9.26500 46.07700
C  41.16500 9.36000 47.28000
O  41.23800 8.67700 48.33400
O  40.17100 10.29300 47.06400
C  39.05500 10.31600 48.01100
H  40.41600 2.62400 45.25200
H  46.91500 1.15900 44.80100
H  48.20600 7.07200 46.35800
H  39.75600 7.17200 46.22800
H  39.21900 4.69700 44.65100
H  39.60300 4.61300 47.57300
H  38.42500 3.89600 46.43900
H  38.28900 5.62500 47.10600
H  38.91500 8.29700 44.47100
H  38.72900 6.73900 43.76700
H  41.47500 7.90400 43.19800
H  40.12200 8.82900 42.63800
H  41.50200 -0.39700 43.72500
H  40.51900 0.57700 44.80000
H  41.48000 -0.73400 45.48300
H  46.18400 -1.94400 43.22600
H  46.53700 -0.88000 44.53600
H  46.15500 -0.22000 42.84900
H  49.00900 2.85700 44.77700
H  49.03000 4.83900 47.02800
H  48.09700 2.09300 47.46500
H  49.85400 2.34500 47.09300
H  48.76800 1.08100 46.19000
H  50.67400 4.33800 44.78300
H  50.53200 5.96200 45.46300
H  48.97600 6.50500 43.62200
H  48.76500 4.88900 43.20900
H  50.39100 5.57800 42.93500
H  47.08700 9.80700 47.92400
H  46.64700 10.61800 46.42800
H  47.93700 9.43900 46.34200
H  41.54400 9.69300 45.21600
H  39.38500 10.53300 49.02700
H  38.67600 9.29500 48.04700
H  38.39700 11.07000 47.58000
Mg 49.20200 47.45100 43.43000
C  45.85100 47.38000 42.81400
C  49.47400 44.35900 41.80400
C  52.59500 47.70000 43.55000
C  48.94200 50.75400 44.47600
N  47.80700 46.04400 42.29500
C  46.49000 46.23900 42.26300
C  45.79400 45.06900 41.55700
C  46.96400 43.99400 41.47600
C  48.15400 44.80000 41.88100
C  46.77200 42.73000 42.24700
C  45.15600 45.45100 40.13900
C  43.64800 45.34000 39.86900
H  43.17000 45.21300 38.40800
N  50.83800 46.12600 42.79000
C  50.71500 44.91600 42.15900
C  52.04700 44.33100 41.98200
C  52.95900 45.28700 42.45900
C  52.17500 46.47300 42.99000
C  52.21200 42.98100 41.30700
C  54.46400 45.14200 42.45400
O  54.95800 44.26200 41.75700
C  55.48300 46.09100 43.15700
N  50.56700 48.98100 43.90900
C  51.88700 48.83700 43.86300
C  52.61100 49.99400 44.55400
C  51.46000 51.07400 44.64100
C  50.21800 50.20200 44.33700
C  53.14900 49.48000 45.87500
C  51.65700 52.35800 43.74200
C  51.88400 53.73500 44.38600
N  47.68600 48.84000 43.77500
C  47.69100 50.11800 44.20600
C  46.27500 50.55600 44.29800
C  45.52500 49.51800 43.82600
C  46.43600 48.51700 43.43200
C  45.90500 51.94900 44.76000
C  44.18100 48.99600 43.63100
O  43.08300 49.45300 43.89900
C  44.31000 47.69000 42.78500
C  43.52300 46.57500 43.31800
O  43.79600 45.91700 44.31000
O  42.32400 46.50800 42.66100
C  41.52600 45.31300 42.87700
H  49.67900 43.38700 41.34900
H  53.68300 47.78900 43.57900
H  48.82000 51.74100 44.92800
H  45.04600 44.60500 42.20100
H  47.03900 43.68000 40.43500
H  47.36400 42.77200 43.16200
H  47.27500 41.91500 41.72700
H  45.78400 42.52300 42.65900
H  45.68000 44.94100 39.33000
H  45.35600 46.51000 39.97500
H  43.25300 46.30500 40.18700
H  43.15600 44.68200 40.58500
H  52.26000 43.17800 40.23600
H  51.41600 42.30400 41.61700
H  53.16700 42.49600 41.50800
H  55.52900 47.07600 42.69100
H  56.49300 45.68500 43.21500
H  55.03200 46.16300 44.14600
H  53.34700 50.41200 43.86700
H  51.44600 51.30000 45.70700
H  52.54800 49.55900 46.78100
H  54.06600 50.05600 46.00000
H  53.32600 48.41600 45.72300
H  50.69700 52.52600 43.25500
H  52.39300 52.13200 42.97100
H  51.07100 54.43100 44.18000
H  52.86100 54.14100 44.12500
H  51.90200 53.39400 45.42100
H  46.00200 52.03300 45.84300
H  44.85400 52.08800 44.50700
H  46.51200 52.71700 44.28200
H  43.93500 47.94700 41.79400
H  42.18500 44.47000 43.09000
H  40.97100 45.00200 41.99200
H  40.83200 45.43400 43.70900

