158

Mg 25.06400 2.20700 30.44000
C  27.17300 2.18400 33.12500
C  22.41600 2.46200 32.50100
C  22.96400 1.99600 27.80500
C  27.74400 1.72200 28.31600
N  24.85800 2.19100 32.61900
C  25.83700 2.32000 33.50700
C  25.23700 2.76800 34.83100
C  23.71600 2.66000 34.60400
C  23.65500 2.43500 33.09300
C  23.06500 1.58600 35.55500
C  25.82900 4.10300 35.48200
C  26.12600 3.89000 37.01400
H  25.41500 4.84900 37.97800
N  23.01300 2.14200 30.17600
C  22.04900 2.24600 31.17600
C  20.75900 2.16900 30.61900
C  20.92100 2.06800 29.22600
C  22.34300 2.12200 28.99600
C  19.49500 2.30100 31.46500
C  19.88900 2.05200 28.13000
O  20.14300 1.75900 26.96700
C  18.43700 1.96300 28.54400
N  25.24700 1.64600 28.39700
C  24.28300 1.83300 27.49600
C  24.89100 1.86200 26.07100
C  26.41200 1.91900 26.22300
C  26.49600 1.76000 27.73100
C  24.33500 0.82100 25.01300
C  27.06300 3.24100 25.58000
C  26.72100 4.59600 26.24800
N  27.12300 1.83200 30.66900
C  28.10100 1.63000 29.72800
C  29.35500 1.45100 30.42900
C  29.06100 1.70800 31.75800
C  27.69800 1.97400 31.80600
C  30.66900 1.12900 29.74900
C  29.62100 1.76900 33.01900
O  30.77500 1.63700 33.38800
C  28.44200 2.21800 33.95600
C  28.32900 1.30100 35.12300
O  27.70500 0.23000 35.07900
O  28.93800 1.79800 36.25800
C  28.86800 1.14800 37.48400
H  21.51200 2.58300 33.10100
H  22.28400 1.97700 26.95100
H  28.56400 1.72900 27.59500
H  25.53500 1.92100 35.44900
H  23.29100 3.63800 34.83100
H  23.77800 1.27900 36.32000
H  22.74500 0.72100 34.97400
H  22.10900 1.97900 35.90000
H  25.24300 5.01200 35.35000
H  26.71400 4.25700 34.86300
H  27.19300 4.08100 37.12800
H  25.90600 2.89400 37.39800
H  18.88200 3.15300 31.17200
H  19.54600 2.29100 32.55400
H  19.04500 1.31400 31.35900
H  18.20300 2.77100 29.23700
H  18.28400 1.05600 29.12800
H  17.74000 2.03600 27.70900
H  24.63700 2.85200 25.69100
H  26.71000 1.03200 25.66500
H  23.68900 0.07400 25.47300
H  25.15400 0.28400 24.53500
H  23.78000 1.36000 24.24500
H  26.70900 3.29500 24.55100
H  28.15000 3.15600 25.58800
H  26.57700 4.45100 27.31900
H  25.93900 5.09000 25.67200
H  27.59100 5.22800 26.06700
H  31.46000 1.59200 30.33900
H  30.72200 1.58100 28.75800
H  30.84500 0.07300 29.54500
H  28.51300 3.22400 34.37000
H  27.82100 1.34200 37.71700
H  29.56000 1.55900 38.21900
H  29.06900 0.08200 37.37200
Mg 47.77700 16.48200 28.06200
C  45.62700 16.96600 30.98700
C  50.22800 18.22300 30.00400
C  49.44800 16.81900 25.39100
C  44.97100 15.36900 26.37000
N  47.94600 17.33200 30.37900
C  46.90300 17.47000 31.26300
C  47.51100 17.93200 32.67000
C  48.82000 18.62500 32.18400
C  49.07300 18.03100 30.78800
C  48.79300 20.19400 32.24700
C  47.83000 16.68900 33.52100
C  47.86200 16.90200 35.10700
H  47.80900 18.26800 35.63400
N  49.72000 17.19900 27.75900
C  50.51900 17.87700 28.63900
C  51.77600 17.92000 27.92600
C  51.56500 17.69500 26.53200
C  50.17800 17.18100 26.49000
C  53.06700 18.28500 28.61600
C  52.48400 17.76100 25.32600
O  52.12500 17.60500 24.15300
C  53.95900 18.02400 25.49100
N  47.21900 16.22600 26.11800
C  48.13500 16.35300 25.14300
C  47.57700 15.90700 23.75300
C  46.23000 15.25200 24.12600
C  46.08200 15.61500 25.62400
C  47.40900 16.97700 22.70800
C  46.28800 13.71500 23.85400
C  45.37500 13.30000 22.71500
N  45.68900 16.25600 28.47800
C  44.72500 15.73000 27.68000
C  43.53000 15.66100 28.38600
C  43.81600 16.09600 29.64400
C  45.17800 16.44900 29.71200
C  42.20600 15.08000 27.92700
C  43.27300 16.26600 31.04500
O  42.14600 16.03100 31.50500
C  44.47900 16.73500 31.96100
C  44.03100 17.94000 32.67800
O  43.96600 19.04400 32.29400
O  43.47700 17.59500 33.83000
C  42.87200 18.56300 34.74500
H  51.04600 18.81800 30.41700
H  50.01700 16.72200 24.46400
H  44.18500 14.83500 25.83300
H  46.81700 18.63800 33.12600
H  49.69800 18.31400 32.75100
H  49.15800 20.72600 31.36800
H  49.45000 20.49800 33.06200
H  47.81000 20.66400 32.29100
H  48.78000 16.25900 33.20300
H  47.01700 16.00500 33.27800
H  48.77300 16.38500 35.40900
H  47.01400 16.42300 35.59600
H  53.01800 17.88000 29.62700
H  53.25600 19.35900 28.64000
H  53.95100 17.88400 28.12000
H  54.51700 17.33900 26.12900
H  54.24100 19.04800 25.73600
H  54.28200 17.70000 24.50200
H  48.26900 15.17300 23.33900
H  45.39700 15.67100 23.56200
H  46.47500 17.48100 22.46200
H  47.85300 16.66700 21.76100
H  47.89100 17.87300 23.09900
H  45.98300 13.08100 24.68700
H  47.28000 13.29300 23.69200
H  45.17300 14.15900 22.07500
H  44.46100 12.92100 23.17300
H  45.85200 12.54500 22.09000
H  42.37900 14.02800 27.69900
H  41.99000 15.54200 26.96400
H  41.37200 15.19900 28.61800
H  44.79800 16.01500 32.71500
H  43.60100 18.75000 35.53400
H  42.04200 18.07000 35.25100
H  42.49600 19.43300 34.20600

