158

Mg 8.81000 2.70300 27.88100
C  10.17700 1.16700 30.80600
C  7.01300 4.77300 29.93100
C  7.64100 4.19900 25.14600
C  10.45400 0.32800 25.91700
N  8.70400 2.98500 30.18600
C  9.40000 2.32400 31.13400
C  9.04300 2.86100 32.50100
C  7.96300 3.91100 32.18200
C  7.73800 3.78600 30.67200
C  6.60600 3.65100 32.91400
C  10.27400 3.27600 33.30200
C  10.10200 4.11700 34.55800
H  10.94500 3.65400 35.77000
N  7.42200 4.25500 27.57500
C  6.79500 4.99400 28.52600
C  5.95900 6.06100 27.91500
C  6.09100 5.91200 26.51800
C  7.11100 4.76800 26.35100
C  5.25000 7.12200 28.70700
C  5.39400 6.71100 25.36400
O  5.68700 6.54500 24.17400
C  4.22300 7.51200 25.70700
N  9.05400 2.33100 25.83100
C  8.43700 3.14100 24.84900
C  8.88500 2.73600 23.41900
C  9.54700 1.33200 23.67900
C  9.78700 1.32900 25.21300
C  7.67000 2.51400 22.44500
C  10.95900 1.13300 22.93000
C  11.03100 0.34500 21.62300
N  9.95700 0.99800 28.23500
C  10.64900 0.21600 27.32900
C  11.27900 -0.89000 28.04800
C  11.20000 -0.46500 29.39800
C  10.37200 0.64500 29.52300
C  12.08300 -2.10500 27.55800
C  11.69400 -0.76800 30.74300
O  12.49600 -1.55600 31.16200
C  11.00400 0.25900 31.73000
C  10.00900 -0.48300 32.59100
O  9.11800 -1.29200 32.17500
O  10.39900 -0.45700 33.89600
C  9.74100 -1.34800 34.80300
H  6.69100 5.64800 30.50000
H  7.45900 4.83800 24.28000
H  10.79500 -0.41400 25.19200
H  8.57300 2.09900 33.12200
H  8.38100 4.87000 32.48800
H  5.80100 3.52800 32.19000
H  6.33600 4.51700 33.51900
H  6.65100 2.82100 33.61900
H  10.86700 3.84500 32.58500
H  10.95500 2.45900 33.53800
H  9.10400 4.34200 34.93600
H  10.50700 5.07800 34.24300
H  5.39600 8.11500 28.28200
H  5.40200 7.07100 29.78500
H  4.19900 6.85700 28.59100
H  4.48600 8.42000 26.24800
H  3.64000 6.90900 26.40300
H  3.54400 7.81700 24.91000
H  9.56800 3.43000 22.92900
H  8.97300 0.44700 23.40400
H  7.56000 1.45400 22.21700
H  7.68900 3.29600 21.68500
H  6.73700 2.75600 22.95600
H  11.62900 0.72600 23.68800
H  11.37500 2.10300 22.65500
H  10.07800 0.48900 21.11300
H  11.06700 -0.73300 21.78300
H  11.93000 0.48000 21.02200
H  13.12100 -1.80900 27.71200
H  11.89900 -2.00600 26.48800
H  11.72900 -3.03700 27.99800
H  11.73400 0.81800 32.31600
H  9.02000 -0.77600 35.38700
H  10.56500 -1.54300 35.48800
H  9.40200 -2.28300 34.35600
Mg 35.96000 48.61400 25.72600
C  36.35000 46.89200 28.75600
C  34.51600 51.09500 27.55900
C  35.46200 50.24500 22.91600
C  36.81400 45.80100 23.99700
N  35.50000 48.99100 28.00200
C  35.88100 48.21800 29.01300
C  35.49800 48.78000 30.40200
C  34.69600 50.09000 29.96200
C  34.88500 50.10500 28.45600
C  33.17700 50.18300 30.35600
C  36.75400 49.05400 31.29900
C  36.65500 48.81000 32.79000
H  35.31000 49.02700 33.39400
N  35.15200 50.42200 25.31700
C  34.68600 51.33600 26.22500
C  34.45500 52.57200 25.55600
C  34.68900 52.34100 24.13900
C  35.13500 50.97500 24.08600
C  34.04400 53.87400 26.24400
C  34.43300 53.33200 22.97000
O  34.53900 52.93100 21.86400
C  33.99600 54.73700 23.18100
N  35.97600 48.03800 23.69000
C  35.83300 48.92200 22.67600
C  36.23600 48.29700 21.32600
C  36.87300 46.90900 21.77700
C  36.51900 46.93500 23.25000
C  35.08900 48.11700 20.28400
C  38.33700 46.75900 21.39800
C  39.40400 47.69400 21.92900
N  36.48100 46.73900 26.23600
C  36.82000 45.69300 25.38600
C  37.27600 44.59700 26.21400
C  37.00700 44.95200 27.52900
C  36.59400 46.30800 27.46200
C  37.92700 43.25100 25.83200
C  37.09300 44.55800 28.85900
O  37.43400 43.54800 29.37700
C  36.62100 45.82800 29.73600
C  35.37900 45.52500 30.47600
O  34.31400 45.19900 29.94200
O  35.61200 45.53400 31.87200
C  34.41000 45.11900 32.68200
H  34.18000 51.93600 28.16800
H  35.46200 50.73700 21.94100
H  37.13400 44.94000 23.40500
H  34.80700 48.17400 30.98800
H  35.20000 50.89000 30.50400
H  32.51900 49.74700 29.60500
H  33.01500 51.25600 30.46400
H  33.03800 49.70600 31.32600
H  37.15500 50.05700 31.15000
H  37.45800 48.31700 30.91400
H  37.45400 49.32100 33.32700
H  36.92000 47.75600 32.86800
H  34.93800 54.49700 26.23900
H  33.75500 53.75600 27.28800
H  33.22100 54.40500 25.76400
H  32.92000 54.71300 23.35700
H  34.21300 55.14600 22.19400
H  34.48700 55.34800 23.93800
H  36.99900 48.98700 20.96400
H  36.35300 46.06100 21.33300
H  34.16000 48.26100 20.83400
H  34.96400 47.11000 19.88700
H  35.03200 48.81200 19.44600
H  38.47000 47.01600 20.34700
H  38.69600 45.74000 21.54300
H  39.98000 47.13200 22.66500
H  38.98500 48.63800 22.27500
H  40.02900 48.01400 21.09500
H  38.40900 42.87800 26.73500
H  38.67200 43.58800 25.11100
H  37.23600 42.53000 25.39400
H  37.29800 46.04200 30.56300
H  34.42800 45.51300 33.69800
H  34.35500 44.03900 32.82100
H  33.44900 45.40200 32.25200

