158

Mg 34.72000 3.10200 30.26600
C  32.22500 3.96500 32.40000
C  37.01600 3.14300 32.82200
C  37.20100 2.48900 27.95600
C  32.50900 3.29900 27.56600
N  34.61600 3.21000 32.41100
C  33.51200 3.73300 33.00300
C  33.77100 3.84400 34.55800
C  35.34000 3.81000 34.65700
C  35.66400 3.41800 33.20000
C  36.09500 5.08100 35.11500
C  33.13400 2.63600 35.23700
C  32.37800 3.09000 36.47500
H  33.14900 4.00700 37.50900
N  36.75400 2.74500 30.39600
C  37.52700 2.80100 31.55900
C  38.87800 2.42000 31.25700
C  38.98400 2.29800 29.82600
C  37.61800 2.55000 29.33000
C  40.01800 2.42000 32.32700
C  40.24800 1.96000 29.01100
O  40.22600 1.65100 27.82000
C  41.58600 1.79500 29.65800
N  34.87500 2.83000 28.06800
C  35.99400 2.66200 27.37700
C  35.77900 2.67100 25.87100
C  34.22100 2.59600 25.84200
C  33.82400 2.81500 27.26400
C  36.48800 3.88100 25.24200
C  33.62400 1.26700 25.23200
C  34.23400 0.84500 23.93600
N  32.80900 3.52200 29.96300
C  32.08900 3.69200 28.85800
C  30.76300 4.13000 29.18400
C  30.79600 4.29900 30.62100
C  32.03900 3.84000 30.99700
C  29.61200 4.32000 28.27400
C  29.98900 4.62500 31.82000
O  28.80500 4.85100 31.90800
C  30.95400 4.44300 33.04700
C  31.23800 5.84100 33.51600
O  32.06700 6.63000 33.10200
O  30.51700 6.11000 34.65400
C  30.82400 7.41200 35.25200
H  37.69500 2.95100 33.65500
H  37.93000 2.07600 27.25500
H  31.82300 3.26000 26.71700
H  33.41000 4.79500 34.95100
H  35.67800 3.03500 35.34400
H  36.81200 4.82700 35.89600
H  35.50600 5.94900 35.41100
H  36.67100 5.48800 34.28300
H  33.90500 1.96600 35.61800
H  32.41500 2.20100 34.54400
H  32.16100 2.11900 36.92100
H  31.48100 3.65600 36.22500
H  40.99100 2.82600 32.05000
H  40.35600 1.38400 32.35600
H  39.66300 2.73400 33.30800
H  42.29500 1.23800 29.04500
H  41.43600 1.04200 30.43100
H  41.87900 2.77600 30.03100
H  36.16300 1.77700 25.38000
H  33.79700 3.34700 25.17600
H  35.71700 4.56600 24.88900
H  37.13300 3.43500 24.48500
H  37.14900 4.38700 25.94500
H  32.56400 1.40900 25.02400
H  33.71200 0.35400 25.82100
H  33.41400 0.26500 23.51100
H  35.10600 0.24700 24.20200
H  34.54000 1.74000 23.39400
H  29.90300 4.93700 27.42300
H  28.74800 4.84700 28.68000
H  29.35300 3.28300 28.05700
H  30.51200 3.74900 33.76200
H  30.59400 8.19900 34.53300
H  31.88100 7.45900 35.51200
H  30.13400 7.50000 36.09200
Mg 43.22000 42.57700 26.42000
C  41.96200 44.93500 28.98100
C  44.72600 40.82100 28.98300
C  44.32000 40.59600 24.10800
C  41.93100 44.86500 24.04100
N  43.41000 42.86200 28.70800
C  42.68600 43.80000 29.53600
C  42.68300 43.32500 31.06700
C  43.70100 42.08900 31.01800
C  43.97400 41.91100 29.51300
C  44.94900 42.17400 31.93400
C  41.28200 43.07200 31.54900
C  41.11800 42.33400 32.85200
H  40.49000 42.91500 34.03300
N  44.38300 40.97600 26.50700
C  44.94000 40.39800 27.61400
C  45.65000 39.20300 27.19300
C  45.61300 39.17700 25.79600
C  44.75000 40.33100 25.43800
C  46.30700 38.18300 28.16600
C  46.28900 38.17500 24.83800
O  46.22700 38.22800 23.61700
C  47.10800 37.02000 25.36500
N  43.21900 42.79100 24.34000
C  43.59800 41.71700 23.64600
C  43.37300 41.96200 22.23800
C  42.33000 43.13800 22.20600
C  42.50600 43.65200 23.61200
C  44.66700 42.36300 21.48100
C  40.92100 42.63100 21.93500
C  40.43700 41.58500 22.87900
N  42.38500 44.58100 26.40900
C  41.91900 45.36600 25.38500
C  41.44900 46.64500 25.85200
C  41.35500 46.44800 27.22200
C  42.00500 45.21900 27.58700
C  40.96400 47.86100 25.08500
C  40.91700 47.08600 28.45300
O  40.39000 48.20900 28.59900
C  41.30000 46.12300 29.66000
C  42.21500 46.77300 30.67900
O  43.20900 47.46200 30.47000
O  41.66400 46.58400 31.91700
C  42.46200 47.11100 33.01400
H  45.12600 40.18400 29.77400
H  44.46900 39.80800 23.36700
H  41.35200 45.48700 23.35500
H  43.16600 44.09800 31.66600
H  43.17000 41.17100 31.27100
H  45.00900 43.19000 32.32400
H  45.80400 41.89100 31.32000
H  44.77600 41.44400 32.72500
H  40.72700 42.52500 30.78700
H  40.96100 44.11300 31.57700
H  42.14900 42.15300 33.15500
H  40.69700 41.35700 32.61700
H  45.77100 37.23400 28.15700
H  46.22200 38.49700 29.20600
H  47.35700 38.06600 27.89800
H  46.56000 36.31600 25.99200
H  47.95800 37.48000 25.86900
H  47.40800 36.43400 24.49600
H  42.80100 41.10500 21.88400
H  42.69400 43.93200 21.55500
H  45.50300 41.98900 22.07200
H  44.88800 43.41300 21.28900
H  44.75300 41.85400 20.52000
H  40.91700 42.41700 20.86700
H  40.26800 43.50300 21.95200
H  39.71800 42.04400 23.55700
H  41.15100 41.01800 23.47700
H  39.88500 40.80700 22.35300
H  41.31900 48.06200 24.07500
H  41.26300 48.72300 25.68200
H  39.88500 47.90300 24.93900
H  40.39800 45.65900 30.05900
H  42.15300 46.72300 33.98400
H  42.37500 48.18700 33.16100
H  43.48900 46.78800 32.84200

