158

Mg 16.78800 -2.21600 27.87900
C  15.47100 -0.10800 30.41800
C  18.88500 -3.60100 30.25300
C  18.53500 -3.64600 25.36800
C  15.27900 -0.03800 25.58600
N  17.21200 -1.75500 30.05900
C  16.42200 -1.04200 30.88400
C  16.84700 -1.23700 32.39600
C  18.04400 -2.20400 32.23500
C  18.04300 -2.55700 30.72300
C  19.40900 -1.63600 32.58600
C  15.71300 -1.75700 33.35100
C  15.99400 -1.61600 34.80300
H  17.20400 -0.90300 35.32500
N  18.20500 -3.72100 27.79200
C  18.96600 -4.13100 28.87800
C  19.81500 -5.20600 28.41000
C  19.78500 -5.31900 26.97200
C  18.83000 -4.14800 26.63700
C  20.74900 -5.98100 29.43600
C  20.46900 -6.18600 25.92800
O  20.39800 -5.98500 24.72400
C  21.42200 -7.39300 26.48000
N  17.00700 -1.74600 25.78700
C  17.69400 -2.61200 24.94900
C  17.35800 -2.42500 23.43900
C  16.13800 -1.46000 23.55400
C  16.10300 -1.11200 25.05700
C  18.52400 -1.71100 22.74700
C  14.75600 -1.93600 22.94800
C  13.71700 -2.47500 23.88800
N  15.55100 -0.40000 27.88100
C  15.01100 0.32100 26.86600
C  14.14300 1.26900 27.37900
C  14.30700 1.22400 28.81800
C  15.21100 0.13300 29.05500
C  13.20800 2.13800 26.55800
C  13.86900 1.79700 30.07700
O  13.05100 2.65600 30.30800
C  14.62900 0.98600 31.15300
C  15.39800 1.93000 31.89300
O  16.27500 2.63600 31.47400
O  15.04600 1.92100 33.21100
C  15.87800 2.76500 34.09600
H  19.61700 -3.99500 30.96000
H  19.17100 -4.19700 24.67200
H  14.82100 0.54800 24.78600
H  17.19000 -0.23800 32.66700
H  17.90600 -3.09500 32.84800
H  19.29300 -0.75900 33.22400
H  20.01900 -1.38400 31.71900
H  19.92300 -2.42800 33.13000
H  15.62000 -2.81700 33.11400
H  14.79500 -1.26900 33.02500
H  15.86800 -2.61300 35.22400
H  15.15800 -1.09700 35.27300
H  20.25600 -6.93900 29.59800
H  20.95200 -5.57200 30.42600
H  21.78100 -6.13700 29.12200
H  20.89800 -8.09500 27.12800
H  22.22000 -7.05400 27.14100
H  21.87400 -7.88900 25.62100
H  17.09000 -3.37200 22.97000
H  16.22800 -0.51600 23.01700
H  19.49600 -1.92700 23.19000
H  18.47300 -0.62300 22.70900
H  18.49400 -2.04200 21.70900
H  14.98500 -2.64200 22.14900
H  14.31100 -1.05600 22.48300
H  14.15700 -2.69200 24.86200
H  13.14900 -3.27500 23.41400
H  12.97000 -1.69400 24.02800
H  13.63700 2.77300 25.78200
H  12.75200 2.87200 27.22300
H  12.48900 1.41400 26.17400
H  13.91200 0.62500 31.89000
H  15.74200 2.48400 35.14000
H  15.72400 3.84400 34.06300
H  16.93700 2.76500 33.83700
Mg 27.01000 50.69700 26.62500
C  24.85000 51.58800 29.24100
C  29.39500 49.80200 29.00800
C  29.02300 49.91900 24.17600
C  24.66200 51.90400 24.34000
N  27.07900 50.80900 28.82000
C  26.00700 50.93400 29.70000
C  26.40400 50.63900 31.18600
C  27.95900 50.40700 31.04700
C  28.14200 50.26200 29.49900
C  28.87500 51.39000 31.76500
C  25.58400 49.42100 31.85100
C  24.57400 49.76100 33.01800
H  24.63100 48.99700 34.32400
N  28.91600 49.95700 26.63700
C  29.77400 49.67700 27.67000
C  31.01100 49.27700 27.20700
C  30.95600 49.29700 25.77300
C  29.55400 49.76600 25.47000
C  32.15200 48.88400 28.07500
C  32.04900 49.07900 24.70500
O  31.89800 49.18500 23.44700
C  33.48300 48.82400 25.11900
N  26.84500 50.90300 24.55700
C  27.80900 50.44700 23.72200
C  27.34400 50.35300 22.25700
C  25.96900 51.02200 22.39100
C  25.81600 51.26200 23.86200
C  28.29800 50.96100 21.23000
C  24.77400 50.18900 21.83300
C  25.00300 49.53700 20.36600
N  25.15100 51.66500 26.70600
C  24.35700 52.07100 25.68000
C  23.19300 52.71200 26.26200
C  23.38100 52.54800 27.66600
C  24.58400 51.95000 27.84600
C  22.04000 53.32500 25.58400
C  22.74200 52.76300 28.97200
O  21.73100 53.39300 29.30900
C  23.61600 52.07600 30.02100
C  23.93000 53.14200 30.88600
O  24.60400 54.16700 30.60000
O  23.59400 52.77700 32.16000
C  24.31200 53.65700 33.11500
H  30.11500 49.51500 29.77700
H  29.71800 49.73600 23.35300
H  23.80100 52.06200 23.68700
H  26.20000 51.48200 31.84700
H  28.17000 49.39800 31.40100
H  28.29000 52.26800 32.04100
H  29.69700 51.73700 31.14000
H  29.28100 50.97700 32.68900
H  26.23600 48.61000 32.17700
H  24.94500 49.03600 31.05600
H  23.63100 49.66100 32.48100
H  24.55200 50.82400 33.25800
H  32.12300 49.09600 29.14400
H  32.92900 49.59300 27.79100
H  32.60100 47.92300 27.82300
H  34.09800 48.48300 24.28600
H  33.47700 47.95300 25.77400
H  33.82300 49.68300 25.69800
H  27.14400 49.32300 21.95800
H  25.97700 51.98000 21.87200
H  28.88100 50.20400 20.70600
H  29.06200 51.65800 21.57500
H  27.78900 51.54300 20.46200
H  23.83300 50.73800 21.81700
H  24.60900 49.37800 22.54200
H  25.01900 48.45400 20.49200
H  25.95400 49.80900 19.90800
H  24.21300 49.76500 19.65100
H  22.06000 54.40400 25.43100
H  21.14100 53.03500 26.12800
H  21.91600 52.91700 24.58100
H  23.03100 51.27900 30.48100
H  25.19500 53.06700 33.36200
H  23.68200 53.67200 34.00400
H  24.56900 54.68300 32.85000

