158

Mg 47.33300 15.81900 27.33300
C  45.56100 16.07600 30.35700
C  49.94500 17.68500 28.90000
C  49.10200 15.89400 24.50400
C  44.68000 14.33400 25.80600
N  47.80100 16.52500 29.56400
C  46.84700 16.56200 30.56100
C  47.49200 17.11400 31.82600
C  48.79000 17.83200 31.23200
C  48.88600 17.31500 29.79000
C  48.84100 19.42500 31.30500
C  47.69700 16.10400 33.01300
C  47.24400 16.54200 34.42600
H  47.23300 18.04600 34.85700
N  49.31600 16.71500 26.77300
C  50.13900 17.40500 27.54800
C  51.37300 17.59700 26.85700
C  51.15100 17.17600 25.50900
C  49.81400 16.60600 25.48500
C  52.53600 18.28700 27.51300
C  52.08900 17.21800 24.31400
O  51.77900 16.72900 23.21800
C  53.40900 17.96500 24.41500
N  46.97800 15.03700 25.45700
C  47.93300 15.20600 24.45300
C  47.33700 14.49100 23.16300
C  45.90500 13.89900 23.54500
C  45.84100 14.38100 25.03500
C  47.16900 15.32600 21.85500
C  45.84200 12.34400 23.54800
C  45.34000 11.71000 22.23600
N  45.50200 15.30300 27.89100
C  44.50500 14.73300 27.14800
C  43.27900 14.68800 27.96000
C  43.67000 15.05500 29.25600
C  45.02100 15.53100 29.15400
C  41.88800 14.24400 27.48600
C  43.25500 15.29600 30.56700
O  42.16200 14.99300 31.04700
C  44.48300 15.80500 31.35200
C  44.10500 16.93200 32.22400
O  44.16600 18.11100 31.92000
O  43.54700 16.46500 33.38300
C  43.36400 17.50100 34.42100
H  50.63900 18.39500 29.35500
H  49.66100 15.86500 23.56600
H  43.78100 13.97600 25.30100
H  46.94200 17.95600 32.24700
H  49.66800 17.60000 31.83500
H  47.97000 19.80700 31.83800
H  48.91600 19.80800 30.28700
H  49.76400 19.79900 31.74700
H  48.74000 15.78800 33.00700
H  47.10400 15.26100 32.66000
H  47.84100 15.98000 35.14400
H  46.25500 16.17900 34.70700
H  52.77600 17.55200 28.28200
H  52.27900 19.27500 27.89500
H  53.43500 18.59200 26.97800
H  53.31300 18.98200 24.79500
H  53.80600 18.04900 23.40400
H  54.14400 17.36200 24.95000
H  47.95000 13.64800 22.84600
H  45.06400 14.39700 23.06200
H  47.87300 16.15800 21.89400
H  46.23200 15.88200 21.85400
H  47.40300 14.77400 20.94400
H  45.22900 11.99300 24.37800
H  46.83900 11.94100 23.72500
H  44.40600 11.18400 22.43400
H  46.07900 11.04300 21.79100
H  45.06900 12.47300 21.50600
H  41.06600 14.50800 28.15100
H  42.03400 13.16400 27.44400
H  41.66100 14.66500 26.50700
H  44.76100 14.96900 31.99400
H  44.20200 17.25800 35.07300
H  42.40900 17.41900 34.94000
H  43.42500 18.56700 34.20100
Mg 29.79700 58.10300 41.23700
C  26.85200 56.55800 39.81100
C  31.53400 55.37100 39.92000
C  32.39700 59.98700 41.33800
C  27.60500 60.78200 42.21600
N  29.22200 56.22700 39.80100
C  27.96800 55.78000 39.49400
C  28.03800 54.54500 38.66000
C  29.46900 53.95800 39.09100
C  30.16000 55.19800 39.75000
C  29.31800 52.85200 40.25100
C  27.83600 54.88700 37.12900
C  27.12400 53.88700 36.31700
H  27.60300 53.90800 34.82900
N  31.75200 57.70800 40.78000
C  32.29300 56.52200 40.27200
C  33.75700 56.64000 40.28300
C  34.05900 58.02100 40.54000
C  32.74300 58.66000 40.89400
C  34.75800 55.55400 39.92800
C  35.39100 58.69100 40.36700
O  36.30900 58.05300 39.91200
C  35.49700 60.21200 40.65700
N  29.98700 60.09100 41.74700
C  31.19600 60.64300 41.65900
C  31.23300 62.02300 42.30600
C  29.74300 62.28200 42.52300
C  29.03900 60.99000 42.11400
C  32.15400 62.18900 43.52400
C  29.25500 63.36900 41.61900
C  28.14700 64.26400 42.26400
N  27.72400 58.60000 41.12500
C  27.00300 59.63900 41.67400
C  25.61400 59.42600 41.42300
C  25.53000 58.23400 40.74400
C  26.82300 57.78200 40.53000
C  24.42100 60.26900 41.76900
C  24.62700 57.36500 40.08600
O  23.42600 57.34400 39.95200
C  25.46000 56.23100 39.39100
C  24.88700 54.99100 39.91000
O  25.35000 54.37900 40.83000
O  23.78500 54.59100 39.17400
C  23.02900 53.42200 39.62900
H  32.09900 54.50900 39.55800
H  33.23700 60.65400 41.53800
H  27.04600 61.69200 42.44600
H  27.28600 53.81700 38.96400
H  30.10000 53.51300 38.32200
H  29.52300 53.15000 41.28000
H  29.99900 52.03600 40.00900
H  28.35000 52.36000 40.16000
H  28.79600 55.03300 36.63300
H  27.34300 55.85600 37.05200
H  26.11200 54.28800 36.28200
H  26.99300 52.91500 36.79300
H  35.04300 55.53200 38.87600
H  34.31800 54.60400 40.23100
H  35.61600 55.70700 40.58300
H  36.53300 60.48700 40.46100
H  35.26300 60.35900 41.71100
H  34.77200 60.77000 40.06400
H  31.73000 62.70200 41.61300
H  29.51300 62.53300 43.55800
H  32.49800 61.25800 43.97400
H  31.74200 62.82700 44.30600
H  32.99700 62.72000 43.08200
H  28.90700 62.98400 40.66000
H  29.94800 64.18000 41.39400
H  28.44200 65.29300 42.05900
H  28.06200 64.09000 43.33700
H  27.22600 64.02000 41.73500
H  23.95500 59.83000 42.65100
H  23.70500 60.34200 40.94900
H  24.60100 61.31400 42.02200
H  25.33700 56.38500 38.32000
H  22.60500 52.80200 38.83800
H  22.21400 53.76700 40.26600
H  23.61800 52.72400 40.22300

