158

Mg 46.65500 25.53300 29.04100
C  48.02300 27.77400 31.53700
C  46.03500 23.43300 31.76600
C  46.03600 23.14400 26.85700
C  47.92900 27.68900 26.74700
N  46.92800 25.67200 31.43800
C  47.39500 26.69500 32.16200
C  47.14300 26.48700 33.67400
C  46.79400 24.96100 33.73400
C  46.52100 24.71000 32.21800
C  47.74300 24.08400 34.50300
C  46.10400 27.35400 34.28500
C  46.43800 27.99200 35.62000
H  45.44300 28.00900 36.82400
N  45.94000 23.62200 29.28900
C  45.80400 22.93900 30.44600
C  45.30100 21.58600 30.13000
C  45.29100 21.53100 28.73400
C  45.77300 22.80400 28.19500
C  44.70100 20.69000 31.10500
C  45.05500 20.34500 27.84600
O  45.12800 20.36500 26.64800
C  44.64000 19.05200 28.42100
N  46.91700 25.43300 27.02800
C  46.55200 24.36000 26.26600
C  46.79900 24.71800 24.81700
C  47.17100 26.16900 24.80100
C  47.40800 26.41500 26.29500
C  47.79700 23.74400 24.06600
C  46.10500 27.17000 24.21700
C  46.51000 27.83600 22.87500
N  47.70100 27.41400 29.05600
C  48.12700 28.18100 28.05000
C  48.70600 29.41900 28.52700
C  48.66700 29.28500 29.91900
C  48.14600 28.04000 30.15000
C  49.33500 30.54200 27.72100
C  48.96200 29.89700 31.10900
O  49.46400 30.99500 31.42400
C  48.58200 28.98400 32.23200
C  49.72200 28.47900 33.08100
O  50.47300 27.58300 32.88100
O  49.63400 29.17500 34.26300
C  50.45500 28.72800 35.40500
H  45.96800 22.70400 32.57600
H  45.62600 22.58000 26.01600
H  48.16000 28.35600 25.91400
H  48.12100 26.66800 34.12000
H  45.84700 24.87400 34.26600
H  47.30800 23.58300 35.36700
H  48.60300 24.59300 34.93800
H  48.15700 23.29300 33.87800
H  45.15400 26.83200 34.40300
H  45.82100 28.11000 33.55200
H  46.42200 29.02000 35.25600
H  47.46800 27.81200 35.92800
H  45.55800 20.08300 31.39500
H  43.82500 20.14600 30.75100
H  44.55300 21.15900 32.07800
H  43.56400 19.09800 28.59100
H  45.25900 18.77600 29.27400
H  44.87800 18.29000 27.67900
H  45.81200 24.58400 24.37400
H  48.14300 26.32800 24.33500
H  48.66400 24.30900 23.72300
H  47.28000 23.46700 23.14800
H  48.11100 22.88500 24.65900
H  46.00500 27.97700 24.94300
H  45.12200 26.71900 24.08600
H  47.55900 27.65300 22.64200
H  46.32300 28.90900 22.91100
H  45.88000 27.37200 22.11600
H  50.23900 30.12700 27.27600
H  49.62000 31.45200 28.24900
H  48.64400 30.71700 26.89600
H  47.89400 29.60000 32.81100
H  51.47900 29.10100 35.38900
H  50.56400 27.64300 35.43300
H  50.14600 29.16300 36.35500
Mg 36.28700 49.77500 24.72500
C  36.48500 47.85200 27.74500
C  34.82100 52.17500 26.48200
C  35.31600 51.01800 21.70700
C  37.44700 46.90500 23.06100
N  35.57000 49.90500 26.94900
C  35.90800 49.12400 27.93300
C  35.71900 49.84100 29.34000
C  35.04000 51.25000 28.82500
C  35.23500 51.15200 27.35700
C  33.55300 51.50500 29.23400
C  37.06900 50.15900 30.09800
C  37.06400 49.88000 31.61500
H  35.67600 49.85000 32.37000
N  35.29300 51.44200 24.11700
C  34.81500 52.31000 25.01100
C  34.20800 53.39800 24.30600
C  34.38800 53.19800 22.87600
C  34.98200 51.84200 22.85800
C  33.52900 54.60300 25.02500
C  33.93400 54.09000 21.72600
O  33.92900 53.58800 20.64500
C  33.35400 55.51900 21.95400
N  36.12700 48.95300 22.67900
C  35.72800 49.66700 21.66100
C  35.98900 48.98400 20.31400
C  36.92000 47.78400 20.74400
C  36.84800 47.85800 22.22800
C  34.66800 48.61300 19.52300
C  38.43200 47.92500 20.19400
C  39.54000 48.70700 20.98200
N  37.04100 47.83300 25.22800
C  37.50700 46.79400 24.48300
C  37.98000 45.72700 25.34800
C  37.53500 46.08200 26.58500
C  36.94100 47.30500 26.48600
C  38.56200 44.42300 24.87900
C  37.30700 45.65300 27.96000
O  37.58700 44.52600 28.38000
C  36.74900 46.80200 28.79300
C  35.52400 46.36300 29.49000
O  34.46900 46.00300 29.01000
O  35.87400 46.36900 30.80200
C  34.91500 45.92900 31.79500
H  34.33200 52.97600 27.04100
H  35.00000 51.56800 20.81800
H  37.70700 46.03400 22.45600
H  35.00000 49.19400 29.84200
H  35.61500 52.12700 29.12400
H  33.30900 50.95900 30.14500
H  32.83600 51.20400 28.47100
H  33.40700 52.56400 29.44600
H  37.36200 51.18200 29.86600
H  37.79400 49.48400 29.64200
H  37.66500 50.67400 32.05700
H  37.65000 48.97800 31.79000
H  34.13100 55.48500 24.80700
H  33.41600 54.52900 26.10600
H  32.54600 54.83200 24.61600
H  33.32300 56.00900 20.98100
H  33.86100 56.18400 22.65300
H  32.31400 55.46000 22.27400
H  36.62000 49.66000 19.73900
H  36.50600 46.80000 20.52300
H  34.76200 47.58700 19.16600
H  34.46200 49.25800 18.66900
H  33.78100 48.68700 20.15200
H  38.43400 48.14400 19.12600
H  38.70100 46.87400 20.09600
H  39.02200 49.27400 21.75500
H  39.97300 49.31900 20.19100
H  40.27700 47.96900 21.29900
H  39.38400 44.09600 25.51600
H  38.89100 44.37600 23.84100
H  37.79500 43.64800 24.84900
H  37.52200 47.08400 29.50700
H  34.98800 44.87000 32.04100
H  33.96400 46.34200 31.45600
H  35.23200 46.34400 32.75100

