158

Mg 43.35900 3.76300 47.91700
C  40.89900 6.12800 47.19700
C  40.99500 1.23000 47.53300
C  45.80500 1.26500 48.02600
C  45.76900 6.23400 47.95100
N  41.23800 3.74300 47.26500
C  40.35400 4.84500 47.24100
C  38.85100 4.39300 47.15400
C  39.00100 2.85500 47.50300
C  40.47500 2.57200 47.38900
C  38.24700 2.31900 48.71300
C  38.31100 4.77300 45.73100
C  36.96400 5.53900 45.62700
H  36.82900 6.51600 44.53600
N  43.39000 1.62400 47.82300
C  42.29900 0.80900 47.62800
C  42.64800 -0.54700 47.56000
C  44.04800 -0.58800 47.66600
C  44.51800 0.78900 47.86000
C  41.68100 -1.69000 47.24900
C  44.88200 -1.81200 47.58000
O  44.40100 -2.86500 47.24200
C  46.41900 -1.88200 47.84700
N  45.52000 3.73300 47.73900
C  46.25700 2.60300 47.98400
C  47.77800 2.92000 48.04800
C  47.69200 4.45600 48.33000
C  46.25300 4.85200 47.94900
C  48.68000 2.12900 49.14000
C  48.74300 5.37600 47.51300
C  49.97000 5.91200 48.28300
N  43.39100 5.73900 47.65700
C  44.46200 6.64900 47.71000
C  43.94500 7.96300 47.61100
C  42.60100 7.77800 47.32600
C  42.26300 6.39100 47.34400
C  44.61000 9.26500 47.58800
C  41.27900 8.52800 47.16500
O  41.00400 9.65500 47.32600
C  40.19600 7.45600 46.90300
C  39.04100 7.76900 47.89100
O  39.19700 7.61800 49.10500
O  37.97500 8.43000 47.22400
C  36.80700 8.61600 48.08600
H  40.14600 0.54500 47.48500
H  46.55200 0.46900 47.98400
H  46.55200 6.89800 48.32300
H  38.32800 4.97900 47.91000
H  38.48300 2.33800 46.69500
H  37.86800 3.14700 49.31200
H  38.84400 1.65500 49.33700
H  37.47500 1.59100 48.46300
H  38.38500 3.84400 45.16600
H  39.08000 5.38100 45.25400
H  36.77600 5.99300 46.60100
H  36.21800 4.75100 45.52900
H  40.62700 -1.43800 47.36400
H  41.93800 -2.50100 47.93100
H  41.81800 -2.15400 46.27300
H  46.90700 -1.37700 47.01200
H  46.69900 -2.93500 47.83000
H  46.58300 -1.55500 48.87400
H  48.14600 2.76800 47.03400
H  47.72600 4.63600 49.40500
H  48.18000 1.38700 49.76200
H  49.20500 2.76100 49.85600
H  49.39500 1.58100 48.52500
H  48.26100 6.28000 47.14000
H  49.11200 4.87500 46.61800
H  50.93900 5.41600 48.22000
H  49.78200 5.82600 49.35300
H  50.06900 6.92100 47.88300
H  45.05600 9.35300 48.57800
H  43.99600 10.13000 47.33800
H  45.39600 9.16000 46.83900
H  39.82400 7.55600 45.88300
H  35.97900 8.17900 47.52900
H  36.74200 9.68800 48.27100
H  36.87100 8.18000 49.08300
Mg 46.58000 24.63200 28.08200
C  47.02900 27.20200 30.40800
C  46.00500 22.44000 30.58100
C  46.28600 22.20900 25.71700
C  47.81400 26.81100 25.53500
N  46.45700 24.85100 30.16200
C  46.65300 25.99600 30.92300
C  46.45900 25.70100 32.37600
C  46.28200 24.14000 32.43100
C  46.32000 23.72900 30.97400
C  47.20500 23.30200 33.31800
C  45.37000 26.50300 33.20700
C  45.12200 25.89300 34.59700
H  45.21300 26.79200 35.87700
N  45.98700 22.67000 28.15600
C  45.86800 21.89200 29.26100
C  45.63400 20.52200 28.92500
C  45.68500 20.45900 27.52100
C  45.92500 21.81800 27.02800
C  45.41700 19.37500 29.93700
C  45.66400 19.23300 26.59600
O  45.77700 19.26800 25.36000
C  45.63500 17.91500 27.22100
N  46.73000 24.59800 25.93400
C  46.60800 23.44800 25.19000
C  47.07600 23.64900 23.71100
C  47.01700 25.25300 23.62300
C  47.27300 25.58900 25.09600
C  48.53200 23.09700 23.61100
C  45.81500 26.01300 22.94400
C  44.61700 26.50800 23.76600
N  47.30500 26.55700 27.93300
C  47.72100 27.33400 26.86800
C  48.18400 28.62200 27.32900
C  47.90500 28.58300 28.71400
C  47.32700 27.38800 29.01600
C  48.90500 29.72800 26.67400
C  48.13800 29.28900 29.92700
O  48.78300 30.36800 30.06700
C  47.46800 28.52700 31.12300
C  48.63300 28.36300 32.11800
O  49.67400 27.72300 31.99400
O  48.35100 29.00400 33.28000
C  49.34600 28.80300 34.33100
H  45.83000 21.70300 31.36800
H  46.24500 21.38800 24.99800
H  48.04200 27.60500 24.82000
H  47.43100 26.03500 32.73700
H  45.34300 23.81400 32.87800
H  47.87300 22.54500 32.90600
H  46.70300 22.65600 34.03800
H  47.77600 24.02200 33.90400
H  44.42000 26.50900 32.67200
H  45.67200 27.54000 33.35000
H  45.80000 25.05300 34.74900
H  44.11800 25.47000 34.59700
H  46.32200 18.76900 29.89100
H  44.65300 18.69100 29.56900
H  45.05400 19.71900 30.90500
H  46.36800 17.79500 28.01800
H  45.92900 17.06300 26.60800
H  44.60000 17.74100 27.51700
H  46.32700 23.20400 23.05500
H  47.92800 25.56600 23.11400
H  48.49100 22.12700 23.11500
H  49.11000 23.00600 24.53000
H  49.16200 23.77400 23.03400
H  45.35500 25.28300 22.27700
H  46.14000 26.86100 22.34200
H  44.00900 25.61000 23.87200
H  44.07400 27.32600 23.29400
H  44.80400 26.83800 24.78800
H  49.62800 30.20100 27.33900
H  48.21100 30.54600 26.48200
H  49.42400 29.42700 25.76400
H  46.67300 29.13600 31.55400
H  49.14500 27.90000 34.90700
H  49.19000 29.62700 35.02800
H  50.41300 28.91700 34.13800

