158

Mg 17.33000 -0.54700 27.70500
C  15.97100 1.35800 30.31400
C  19.02900 -2.40400 29.97900
C  18.90600 -2.11500 25.13700
C  15.47200 1.34000 25.53900
N  17.36200 -0.54600 29.90300
C  16.80100 0.31300 30.78800
C  17.12500 -0.00800 32.22700
C  18.16900 -1.03700 32.10000
C  18.21200 -1.37700 30.58700
C  19.61100 -0.70600 32.66200
C  15.87700 -0.33300 33.08900
C  15.89200 0.27200 34.44000
H  17.22800 0.60700 34.98100
N  18.70700 -2.14100 27.55500
C  19.26100 -2.76800 28.62400
C  20.16200 -3.80700 28.16600
C  20.19200 -3.69100 26.76800
C  19.26400 -2.63400 26.42700
C  20.90000 -4.73400 29.17200
C  20.98300 -4.52000 25.71500
O  20.95300 -4.23200 24.49500
C  21.83600 -5.65100 26.17400
N  17.25200 -0.33000 25.66100
C  18.04000 -1.06500 24.80200
C  17.89400 -0.56600 23.35900
C  16.64100 0.32900 23.52600
C  16.38800 0.45700 24.98700
C  19.12600 0.13500 22.78200
C  15.33400 0.12800 22.66300
C  14.09500 -0.44400 23.33300
N  15.98400 1.06700 27.79800
C  15.27500 1.71400 26.84700
C  14.57200 2.85500 27.41500
C  14.86100 2.83500 28.81000
C  15.59200 1.60500 28.96200
C  13.58100 3.82300 26.76300
C  14.70400 3.48200 30.04000
O  14.06700 4.49500 30.34400
C  15.39600 2.51000 31.07600
C  16.37000 3.29400 31.91600
O  17.61800 3.31900 31.71300
O  15.74200 3.83100 33.03500
C  16.55000 4.58500 33.98100
H  19.63300 -2.90700 30.73700
H  19.39500 -2.58100 24.27900
H  14.91200 1.85200 24.75400
H  17.57200 0.92200 32.58000
H  17.84900 -1.94000 32.62000
H  19.88600 0.34600 32.72700
H  20.39400 -1.27200 32.15700
H  19.67500 -1.09100 33.68000
H  15.79200 -1.40200 33.28500
H  15.04300 0.08500 32.52600
H  15.38800 -0.49200 35.03000
H  15.13500 1.05500 34.38300
H  21.15200 -4.33100 30.15300
H  21.75800 -5.14100 28.63800
H  20.31700 -5.61900 29.42700
H  21.15900 -6.20200 26.82700
H  22.61200 -5.12800 26.73400
H  22.14100 -6.25200 25.31700
H  17.53600 -1.42000 22.78300
H  16.93100 1.30500 23.13900
H  19.87400 0.21700 23.57100
H  18.79200 1.13800 22.52000
H  19.44500 -0.40400 21.89000
H  15.55100 -0.66900 21.95300
H  15.01200 1.00600 22.10300
H  13.50500 0.37500 23.74300
H  14.35700 -1.21800 24.05400
H  13.50600 -0.95300 22.56900
H  14.17200 4.62200 26.31600
H  12.69500 4.19500 27.27600
H  13.14400 3.30500 25.90900
H  14.60700 2.18500 31.75500
H  16.23700 5.62800 34.03100
H  17.62700 4.49900 33.83800
H  16.21200 4.20200 34.94400
Mg -10.91900 16.66400 40.50700
C  -7.44200 16.53000 40.52500
C  -10.66700 20.07600 39.91700
C  -14.34300 16.89000 39.92000
C  -10.99700 13.26800 40.09500
N  -9.30900 18.08900 40.38200
C  -7.96700 17.84900 40.39800
C  -7.12900 19.08500 40.16400
C  -8.16300 20.22200 40.54000
C  -9.46900 19.42600 40.22300
C  -8.10000 20.75800 42.08300
C  -6.63300 19.08900 38.70100
C  -5.08700 19.00800 38.43900
H  -4.68200 18.23000 37.21800
N  -12.33500 18.35300 40.03500
C  -12.06500 19.65600 39.86600
C  -13.22400 20.50300 39.68600
C  -14.31900 19.58700 39.91400
C  -13.71900 18.19300 39.95200
C  -13.09200 22.02100 39.35900
C  -15.76600 19.97600 39.88900
O  -15.93700 21.20100 39.84900
C  -16.96300 19.07300 40.01300
N  -12.43900 15.30300 40.12900
C  -13.72800 15.59000 39.91400
C  -14.59600 14.38500 39.76800
C  -13.49900 13.22400 39.67300
C  -12.23700 13.97100 40.01700
C  -15.71400 14.26800 40.84900
C  -13.44000 12.62400 38.23100
C  -12.70300 11.19000 38.10900
N  -9.56000 15.16700 40.56100
C  -9.74000 13.79500 40.33800
C  -8.40100 13.11900 40.23400
C  -7.52400 14.18200 40.28500
C  -8.23200 15.34200 40.48700
C  -8.13300 11.69600 40.00300
C  -6.09600 14.46700 40.24500
O  -5.11300 13.70300 40.04500
C  -6.03100 15.96700 40.55800
C  -5.22600 16.08600 41.81400
O  -5.34800 15.39500 42.83500
O  -4.36700 17.21000 41.66300
C  -3.58300 17.56900 42.88000
H  -10.52100 21.14300 39.73500
H  -15.43500 16.89200 39.93600
H  -11.05200 12.20000 39.87500
H  -6.24800 19.26600 40.78000
H  -8.02900 21.08300 39.88600
H  -8.93700 20.35500 42.65300
H  -7.98300 21.83800 42.16700
H  -7.15000 20.50400 42.55300
H  -6.99700 20.01600 38.25800
H  -7.01200 18.24900 38.11900
H  -4.61300 18.57200 39.31800
H  -4.61900 19.97900 38.27800
H  -13.12700 22.03600 38.27000
H  -12.13000 22.46700 39.61400
H  -13.80700 22.70200 39.82200
H  -17.82300 19.71900 40.18800
H  -16.87200 18.36600 40.83700
H  -16.94600 18.62100 39.02100
H  -15.11900 14.40800 38.81200
H  -13.57400 12.50200 40.48600
H  -15.93000 13.20000 40.79800
H  -16.62600 14.72900 40.46800
H  -15.28800 14.45600 41.83400
H  -12.84100 13.33500 37.66100
H  -14.41600 12.46500 37.77300
H  -12.94600 10.76700 39.08300
H  -11.65700 11.22500 37.80400
H  -13.20300 10.44600 37.48900
H  -8.25100 11.10100 40.90900
H  -7.09200 11.55300 39.71400
H  -8.72000 11.15500 39.26000
H  -5.37900 16.27700 39.74100
H  -2.72100 18.03300 42.39900
H  -3.22800 16.68400 43.40800
H  -3.92400 18.31300 43.59900

