158

Mg 26.41800 50.77400 26.41700
C  24.03400 51.72500 28.97700
C  28.44200 49.72000 29.04600
C  28.80800 50.24600 24.21500
C  24.37200 52.29900 24.16700
N  26.18700 50.62500 28.69900
C  25.11600 51.06200 29.54100
C  25.43500 50.80700 31.07100
C  26.91300 50.22100 31.04900
C  27.17700 50.07300 29.54700
C  27.89500 51.17100 31.83500
C  24.45300 49.82300 31.68800
C  24.04700 50.07000 33.20700
H  24.99000 50.75800 34.22800
N  28.38200 50.12400 26.56300
C  28.96900 49.67600 27.71300
C  30.22900 48.99700 27.38200
C  30.43900 49.33600 26.01400
C  29.18100 49.94200 25.54000
C  31.04800 48.16900 28.34500
C  31.70900 49.09300 25.14100
O  31.86800 49.43800 24.00200
C  32.90200 48.36600 25.81700
N  26.56200 51.35700 24.53900
C  27.57300 50.80600 23.76100
C  27.24500 51.02500 22.26000
C  25.71400 51.38600 22.26900
C  25.53600 51.72000 23.72300
C  28.09500 52.15600 21.59700
C  24.65900 50.36800 21.86200
C  23.58600 50.65900 20.82000
N  24.58800 51.80000 26.48000
C  23.89400 52.31700 25.48400
C  22.61000 52.91600 25.91700
C  22.61300 52.67100 27.30200
C  23.84900 51.97800 27.59100
C  21.54900 53.62000 25.05000
C  21.90700 52.91000 28.50700
O  20.86800 53.51000 28.69800
C  22.81000 52.32300 29.62400
C  23.27800 53.50100 30.45800
O  24.10700 54.32600 30.13600
O  22.75300 53.35500 31.76900
C  23.00200 54.55000 32.61100
H  29.05100 49.35500 29.87600
H  29.40600 49.97000 23.34400
H  23.61200 52.53700 23.41900
H  25.36200 51.80600 31.50200
H  26.95300 49.25700 31.55500
H  28.76100 51.50200 31.26200
H  28.13100 50.54200 32.69300
H  27.36500 52.02600 32.25400
H  24.83100 48.80400 31.76200
H  23.59100 49.73900 31.02700
H  23.70800 49.11700 33.61300
H  23.14100 50.67500 33.16700
H  30.63700 48.23400 29.35200
H  32.04600 48.59800 28.43400
H  31.12200 47.13300 28.01600
H  33.75600 48.31800 25.14100
H  32.69600 47.30900 25.98400
H  33.20900 48.85900 26.73900
H  27.34600 50.11400 21.66900
H  25.52500 52.34300 21.78300
H  28.98700 52.38100 22.18000
H  27.53500 53.09000 21.53700
H  28.40400 51.84100 20.60000
H  24.14000 49.90700 22.70200
H  25.32300 49.58200 21.50200
H  23.77600 50.26200 19.82300
H  23.46200 51.74100 20.79900
H  22.73200 50.08200 21.17800
H  20.64100 53.04900 25.24500
H  21.90400 53.73300 24.02500
H  21.44300 54.65600 25.37100
H  22.28400 51.59300 30.23900
H  23.10900 55.47000 32.03500
H  23.84100 54.43300 33.29800
H  22.08100 54.62200 33.19000
Mg 6.54600 54.89000 41.29000
C  5.87900 51.40900 41.31600
C  9.52300 54.29800 39.95900
C  6.72000 58.23800 40.39100
C  2.98900 55.30900 41.66800
N  7.50900 53.05900 40.70600
C  7.19800 51.71400 40.90500
C  8.37700 50.76100 40.48900
C  9.57100 51.75600 40.36400
C  8.84000 53.13500 40.33100
C  10.57100 51.76100 41.53800
C  8.11100 50.00300 39.15100
C  7.68100 50.85200 37.91600
H  6.44700 50.57700 37.01900
N  8.01600 56.06400 40.35700
C  9.26000 55.60700 39.95300
C  10.04900 56.75100 39.57700
C  9.18300 57.88600 39.64100
C  7.93300 57.46500 40.15700
C  11.50800 56.60400 39.09900
C  9.63400 59.32300 39.35100
O  10.78400 59.47500 38.93500
C  8.73600 60.50300 39.44600
N  5.08100 56.54300 40.98600
C  5.47200 57.81300 40.86200
C  4.28900 58.79900 40.90200
C  3.09000 57.78000 40.78400
C  3.74100 56.43600 41.21000
C  4.28300 59.81200 42.13900
C  2.46800 57.82000 39.34200
C  1.20400 58.71700 39.31700
N  4.84500 53.73900 41.73600
C  3.52800 54.01500 42.00800
C  2.90700 52.82600 42.54600
C  3.76500 51.72500 42.23600
C  4.87900 52.37900 41.67900
C  1.54300 52.76200 43.19700
C  3.96800 50.27200 42.34900
O  3.19000 49.35900 42.72400
C  5.33400 50.02700 41.54800
C  4.91000 49.41700 40.28600
O  4.32600 50.00300 39.37600
O  5.28900 48.09400 40.23800
C  5.02300 47.37500 38.97300
H  10.50400 54.12900 39.50900
H  6.72800 59.29200 40.10500
H  1.93300 55.51400 41.85500
H  8.46000 50.04200 41.30400
H  10.14700 51.52800 39.46700
H  10.72400 50.73800 41.88300
H  10.29200 52.43600 42.34700
H  11.55100 51.99000 41.12100
H  7.32100 49.25600 39.21800
H  9.00100 49.42200 38.91100
H  8.59800 50.76000 37.33500
H  7.69700 51.88300 38.27100
H  11.62000 56.57300 38.01500
H  11.89500 55.67000 39.50700
H  12.20100 57.33700 39.51200
H  9.35100 61.36600 39.19300
H  8.26600 60.67400 40.41400
H  7.97400 60.34400 38.68300
H  4.42200 59.45100 40.03900
H  2.24900 58.07000 41.41400
H  3.44600 59.53000 42.77800
H  4.11700 60.85000 41.84900
H  5.16700 59.77100 42.77500
H  2.23500 56.81300 38.99700
H  3.13700 58.14000 38.54200
H  0.31300 58.11100 39.15500
H  1.28000 59.43500 38.50200
H  1.18000 59.41500 40.15400
H  1.83000 52.56300 44.22900
H  0.96200 51.94700 42.76400
H  1.13200 53.77100 43.15800
H  6.05500 49.43300 42.11100
H  4.47100 47.86900 38.17300
H  4.38700 46.53900 39.26200
H  5.97100 46.96200 38.62800

