158

Mg 2.74800 -2.44700 43.68600
C  6.04300 -1.48800 43.11000
C  1.58600 0.03800 41.51900
C  -0.24400 -3.95500 43.58900
C  4.04300 -5.35400 45.17700
N  3.73300 -0.94200 42.48000
C  5.15000 -0.68000 42.37700
C  5.44000 0.49100 41.40800
C  3.95100 0.97000 41.08300
C  2.99600 -0.06000 41.69400
C  3.60400 2.34500 41.62100
C  6.40700 -0.03400 40.23200
C  7.71600 0.78800 40.06600
H  8.30400 0.97200 38.66100
N  0.84600 -1.79000 42.96500
C  0.59200 -0.76600 42.08700
C  -0.80600 -0.67700 41.83200
C  -1.35700 -1.88000 42.34300
C  -0.30400 -2.60400 43.01800
C  -1.39000 0.59500 41.07700
C  -2.82700 -2.27500 42.16300
O  -3.57800 -1.47900 41.52000
C  -3.49700 -3.54600 42.54700
N  2.06500 -4.44600 44.17000
C  0.72500 -4.74800 44.16100
C  0.43200 -6.23600 44.58800
C  1.74600 -6.51800 45.34700
C  2.72000 -5.43100 44.81600
C  -0.88300 -6.37500 45.44200
C  2.34200 -7.95900 45.12600
C  2.94200 -8.79300 46.27700
N  4.59800 -3.22500 44.25400
C  4.97800 -4.40400 44.82100
C  6.41500 -4.40300 45.11700
C  6.80500 -3.18800 44.49900
C  5.69000 -2.62600 43.88900
C  7.18800 -5.45100 45.88000
C  7.96000 -2.40600 44.21100
O  9.10900 -2.62600 44.51900
C  7.48500 -1.23900 43.35500
C  7.72200 0.02700 44.13800
O  7.26000 0.25300 45.24500
O  8.46800 0.86800 43.32400
C  8.63400 2.17200 43.84400
H  1.18500 0.84100 40.89600
H  -1.21900 -4.44300 43.52900
H  4.37300 -6.19500 45.79000
H  6.00300 1.24600 41.95700
H  3.81400 1.08800 40.00800
H  4.53000 2.90300 41.76200
H  3.03200 2.24000 42.54300
H  3.01900 2.88500 40.87700
H  5.90900 0.18300 39.28700
H  6.63500 -1.09600 40.31800
H  8.41700 0.24300 40.69800
H  7.53300 1.79100 40.44900
H  -2.40900 0.76900 41.42300
H  -1.34200 0.45700 39.99600
H  -0.81400 1.51500 41.17300
H  -3.43100 -3.92500 43.56600
H  -3.02400 -4.28300 41.89900
H  -4.57700 -3.43000 42.45800
H  0.31300 -6.77200 43.64700
H  1.64400 -6.29800 46.41000
H  -1.21900 -5.34100 45.51200
H  -0.71900 -6.95900 46.34800
H  -1.72900 -6.82500 44.92300
H  3.04200 -7.91000 44.29200
H  1.48900 -8.56600 44.82500
H  3.04200 -8.17100 47.16600
H  3.98300 -8.96900 46.00600
H  2.31300 -9.64800 46.52200
H  8.20200 -5.05800 45.79600
H  7.02100 -6.39900 45.36900
H  6.87900 -5.47900 46.92500
H  7.99400 -1.28700 42.39200
H  8.66300 2.79300 42.94900
H  9.43900 2.21600 44.57800
H  7.87900 2.60700 44.49900
Mg 23.90100 -6.24700 45.64400
C  26.51300 -4.01500 44.52900
C  21.82300 -4.53000 43.63700
C  21.74200 -8.81100 46.01000
C  26.40300 -8.09800 47.35900
N  24.20600 -4.52000 44.29400
C  25.24200 -3.69800 44.06900
C  24.78300 -2.40500 43.30300
C  23.21200 -2.50300 43.30900
C  23.09900 -3.93300 43.76400
C  22.52800 -1.55200 44.28300
C  25.38500 -2.31800 41.89000
C  25.45600 -1.02600 41.11800
H  24.76400 -0.91200 39.75400
N  22.09400 -6.52900 44.93300
C  21.31900 -5.68900 44.15600
C  20.03300 -6.25500 43.90500
C  19.94400 -7.49800 44.52800
C  21.34300 -7.68500 45.18300
C  18.85500 -5.52800 43.21800
C  18.71800 -8.35500 44.62400
O  17.65800 -7.89100 44.24700
C  18.74900 -9.74800 45.05700
N  24.11900 -8.28400 46.41400
C  23.00300 -9.05500 46.60100
C  23.29400 -10.32600 47.42700
C  24.73700 -10.03800 48.05000
C  25.15600 -8.71800 47.22800
C  22.23800 -10.73300 48.56900
C  25.54500 -11.31000 47.66800
C  26.58000 -11.70500 48.83700
N  25.99000 -5.99100 46.14600
C  26.85600 -6.83300 46.78500
C  28.20100 -6.27900 46.82300
C  28.05600 -5.15700 45.93700
C  26.73800 -5.05800 45.53400
C  29.47800 -6.79200 47.42400
C  28.76400 -4.01700 45.38800
O  29.85900 -3.61300 45.71400
C  27.76700 -3.20600 44.46800
C  27.60300 -1.87800 45.00700
O  27.53200 -1.52000 46.23000
O  27.75200 -1.00200 44.00500
C  27.56900 0.43600 44.40700
H  21.09400 -3.97200 43.04500
H  21.12200 -9.63700 46.36700
H  27.25700 -8.58900 47.83000
H  25.14300 -1.54600 43.86900
H  22.78600 -2.33000 42.32100
H  21.56900 -1.20200 43.90200
H  23.16500 -0.68500 44.45500
H  22.28600 -2.07900 45.20600
H  24.96400 -3.04900 41.19900
H  26.42600 -2.63200 41.97100
H  26.47500 -0.69000 40.92400
H  25.04100 -0.24300 41.75300
H  18.60000 -6.11500 42.33600
H  19.22300 -4.57400 42.84100
H  18.01400 -5.41400 43.90200
H  17.92500 -10.30000 44.60400
H  18.62800 -9.93500 46.12400
H  19.65100 -10.19200 44.63700
H  23.34900 -11.10100 46.66200
H  24.74000 -9.81600 49.11700
H  22.82600 -10.71000 49.48800
H  21.86200 -11.75600 48.56800
H  21.39000 -10.05200 48.50000
H  26.16900 -11.07800 46.80500
H  24.90900 -12.19100 47.58500
H  26.51600 -12.78000 49.00600
H  26.56600 -11.11400 49.75200
H  27.57000 -11.43700 48.46800
H  29.94000 -7.49000 46.72500
H  29.28200 -7.24700 48.39400
H  30.25400 -6.02900 47.49600
H  28.21900 -3.18400 43.47600
H  26.61700 0.50800 44.93300
H  27.40300 0.92500 43.44700
H  28.48400 0.73300 44.92000

