158

Mg 0.87000 43.04100 26.03400
C  3.14500 43.38200 28.68800
C  -1.65600 42.46400 28.20400
C  -0.93800 42.06200 23.38700
C  3.65100 43.46900 23.78500
N  0.82000 42.78800 28.22200
C  1.84700 43.13000 29.10300
C  1.34000 43.00500 30.56300
C  -0.16500 42.58900 30.35100
C  -0.39000 42.69700 28.86500
C  -0.48100 41.24200 30.96000
C  1.48500 44.35100 31.33600
C  1.41000 44.28600 32.88900
H  1.32000 42.97400 33.72100
N  -1.05700 42.32800 25.82700
C  -2.02000 42.26300 26.86400
C  -3.28800 41.87600 26.29000
C  -3.08200 41.83300 24.86600
C  -1.65300 42.05400 24.63300
C  -4.51800 41.55900 27.15900
C  -4.12200 41.43400 23.77500
O  -3.83200 41.38900 22.58800
C  -5.56200 41.12600 24.12700
N  1.22700 42.88100 23.92400
C  0.38000 42.46500 23.04400
C  0.88900 42.45700 21.56100
C  2.24900 43.23900 21.79700
C  2.38300 43.27500 23.29100
C  0.94800 41.07600 20.81300
C  2.22500 44.65300 21.07000
C  1.74000 45.84700 22.02700
N  2.92800 43.52400 26.08700
C  3.90600 43.60900 25.10300
C  5.16900 43.84600 25.76000
C  4.92800 43.65800 27.13700
C  3.54000 43.51400 27.33400
C  6.48800 43.96800 25.04300
C  5.53200 43.57700 28.47600
O  6.70700 43.55800 28.70900
C  4.34800 43.50900 29.57400
C  4.55000 42.40300 30.53500
O  4.17800 41.29800 30.41100
O  5.14200 42.88500 31.62400
C  5.28900 41.97300 32.80300
H  -2.47300 42.38400 28.92400
H  -1.55500 41.89600 22.50100
H  4.47000 43.56700 23.06900
H  1.85800 42.19100 31.07100
H  -0.89600 43.22000 30.85700
H  -1.29100 40.79400 30.38500
H  -0.74100 41.30300 32.01700
H  0.39700 40.59700 30.94100
H  0.64700 44.97200 31.02100
H  2.35000 44.85300 30.90300
H  0.55200 44.91500 33.12900
H  2.33300 44.76200 33.21900
H  -4.72600 40.49400 27.25600
H  -5.42100 42.05400 26.80200
H  -4.34100 42.05700 28.11300
H  -6.18900 41.00300 23.24400
H  -5.97300 41.96400 24.69000
H  -5.65800 40.18000 24.66000
H  0.19500 42.98200 20.90500
H  3.02100 42.60100 21.36800
H  0.59200 40.30300 21.49300
H  2.00400 40.84500 20.67200
H  0.35100 40.99800 19.90500
H  1.71400 44.59700 20.10900
H  3.22800 45.05300 20.92000
H  2.57200 45.97500 22.72000
H  0.87900 45.62500 22.65700
H  1.46600 46.76300 21.50300
H  6.32700 44.08300 23.97100
H  7.10000 43.06800 25.10400
H  7.02800 44.88500 25.28100
H  4.43600 44.43300 30.14600
H  4.74100 41.03100 32.79800
H  4.94300 42.54600 33.66300
H  6.35300 41.74700 32.88100
Mg -2.26200 34.62400 26.80500
C  -3.57900 32.81600 29.53100
C  -1.07100 36.90700 28.94600
C  -1.44500 36.42000 24.05000
C  -3.77800 32.29800 24.73000
N  -2.35400 34.80400 29.00400
C  -2.83000 33.92800 29.92700
C  -2.40000 34.27500 31.35600
C  -1.67900 35.63700 31.12400
C  -1.66800 35.82900 29.59900
C  -2.33400 36.83600 31.89900
C  -1.59300 33.15800 32.03000
C  -2.19600 32.46200 33.26900
H  -1.16200 32.33000 34.43800
N  -1.37900 36.39000 26.56400
C  -0.95500 37.21300 27.56000
C  -0.24200 38.35700 27.00800
C  -0.01800 38.03700 25.61100
C  -0.97700 36.88900 25.38400
C  0.34400 39.43800 27.73200
C  0.80600 38.63700 24.61000
O  0.83700 38.20500 23.43400
C  1.63500 39.88100 24.92800
N  -2.71700 34.48500 24.64400
C  -2.25500 35.37200 23.72300
C  -2.55400 35.04900 22.31600
C  -2.88500 33.48600 22.55000
C  -3.11800 33.35900 24.06800
C  -3.69600 35.90800 21.81700
C  -1.78900 32.49300 21.91600
C  -0.54800 32.17800 22.68500
N  -3.47200 32.94600 27.03300
C  -3.99000 32.11800 26.08200
C  -4.83200 31.04000 26.74600
C  -4.61900 31.27000 28.06300
C  -3.82300 32.39500 28.23300
C  -5.56200 30.03200 25.96900
C  -5.02900 30.77000 29.39500
O  -5.74400 29.87700 29.72600
C  -4.29800 31.77300 30.40200
C  -5.43400 32.37500 31.17200
O  -6.24800 33.14600 30.72300
O  -5.39100 31.83700 32.44700
C  -6.57700 32.01900 33.28300
H  -0.66800 37.68200 29.60100
H  -1.07700 36.98700 23.19300
H  -4.25800 31.61700 24.02300
H  -3.33400 34.30300 31.91600
H  -0.63100 35.72200 31.41300
H  -2.87500 37.40800 31.14500
H  -1.55000 37.41700 32.38400
H  -3.05000 36.58000 32.68000
H  -0.60600 33.53000 32.30700
H  -1.43400 32.40100 31.26100
H  -2.35500 31.40800 33.04100
H  -3.17600 32.82700 33.57700
H  1.43300 39.41000 27.78400
H  -0.04900 39.40200 28.74800
H  0.09800 40.39500 27.27300
H  2.22900 39.85200 25.84100
H  0.92600 40.70700 24.87100
H  2.26600 39.94400 24.04100
H  -1.64900 35.14500 21.71600
H  -3.82000 33.20700 22.06500
H  -4.61600 35.42400 21.49100
H  -3.30000 36.63100 21.10400
H  -4.19800 36.43100 22.63100
H  -1.34900 32.91800 21.01300
H  -2.26300 31.55800 21.61700
H  -0.67300 32.56000 23.69800
H  0.40300 32.55700 22.30900
H  -0.45200 31.09200 22.66900
H  -6.51400 30.49700 25.71600
H  -5.70000 29.26200 26.72800
H  -4.90100 29.77300 25.14300
H  -3.66400 31.37500 31.19500
H  -6.81800 31.05200 33.72300
H  -7.38200 32.30800 32.60700
H  -6.35500 32.80400 34.00700

