158

Mg 1.16600 -2.04600 42.88000
C  4.48800 -1.61700 41.89700
C  0.37800 0.87900 41.15300
C  -2.00800 -2.86500 43.09600
C  2.08900 -5.20200 44.11800
N  2.28600 -0.60400 41.55300
C  3.61600 -0.63000 41.35800
C  4.13000 0.65400 40.67100
C  2.72200 1.43200 40.46600
C  1.76100 0.52600 41.15500
C  2.71500 2.84200 41.12700
C  4.96100 0.39100 39.32800
C  4.46000 -0.79800 38.50700
H  5.18600 -1.06800 37.13600
N  -0.56800 -1.10200 42.42300
C  -0.68800 0.11000 41.67600
C  -2.08600 0.40800 41.51300
C  -2.84900 -0.60900 42.03400
C  -1.81800 -1.59300 42.56400
C  -2.64400 1.68300 40.81900
C  -4.37200 -0.63300 42.09700
O  -5.03400 0.17200 41.51100
C  -5.08600 -1.71400 42.85100
N  0.20500 -3.85700 43.44600
C  -1.12600 -3.91900 43.43900
C  -1.62500 -5.30800 43.97000
C  -0.36200 -5.92100 44.58500
C  0.77000 -4.96100 44.09500
C  -2.88900 -5.30800 44.81700
C  -0.08500 -7.36400 44.13900
C  0.39100 -8.34900 45.23800
N  2.95800 -3.15600 43.12500
C  3.14600 -4.35500 43.68200
C  4.56300 -4.60600 43.80900
C  5.18400 -3.53800 43.12700
C  4.10300 -2.75000 42.65700
C  5.20200 -5.72400 44.49700
C  6.42700 -2.94500 42.67800
O  7.58900 -3.28200 42.86900
C  6.07900 -1.64100 41.94600
C  6.76700 -0.46000 42.56400
O  7.64200 0.20400 42.10200
O  6.26400 -0.35000 43.80900
C  6.58800 0.84000 44.65100
H  0.14600 1.81700 40.64300
H  -3.03100 -3.23700 43.18800
H  2.31600 -6.22600 44.42100
H  4.72800 1.15600 41.43200
H  2.36100 1.50600 39.44000
H  3.65100 3.16100 41.58500
H  1.94700 2.86000 41.90000
H  2.21500 3.46700 40.38600
H  6.01200 0.23800 39.57300
H  4.88100 1.27500 38.69500
H  3.39500 -0.61100 38.37100
H  4.66000 -1.70200 39.08200
H  -3.13700 1.46600 39.87200
H  -1.76700 2.29400 40.60400
H  -3.33800 2.21700 41.46800
H  -6.07800 -1.41900 43.19300
H  -4.52300 -1.91300 43.76300
H  -5.22400 -2.55800 42.17500
H  -1.89300 -5.88900 43.08800
H  -0.36300 -5.83400 45.67200
H  -3.79000 -5.66900 44.32100
H  -3.13400 -4.32300 45.21400
H  -2.64700 -6.05900 45.57000
H  0.72800 -7.28100 43.41700
H  -1.00300 -7.70200 43.66000
H  1.27000 -8.89400 44.89300
H  -0.48500 -8.96900 45.43200
H  0.59500 -7.89600 46.20900
H  4.75600 -6.01800 45.44700
H  6.24000 -5.41800 44.62600
H  5.05100 -6.50600 43.75300
H  6.57000 -1.63100 40.97300
H  6.10600 0.96600 45.62100
H  6.36200 1.70800 44.03200
H  7.65000 0.73600 44.87200
Mg 34.80700 2.68700 30.56200
C  32.48600 3.60800 32.90200
C  37.37900 3.05300 32.71500
C  36.93400 1.68700 28.11600
C  32.10500 2.77900 28.21400
N  34.87400 3.16700 32.50700
C  33.82700 3.52100 33.34100
C  34.24600 3.64800 34.76100
C  35.81500 3.70700 34.65100
C  36.08600 3.32600 33.15100
C  36.35900 5.21400 35.02400
C  33.68100 2.43200 35.60900
C  33.76900 2.63500 37.09900
H  34.17400 4.00400 37.67600
N  36.86300 2.41900 30.39800
C  37.78900 2.63300 31.41000
C  39.11600 2.16600 31.03600
C  39.00300 1.89200 29.65900
C  37.58800 2.04000 29.34000
C  40.26100 2.02300 32.00900
C  40.12700 1.58900 28.68000
O  39.84800 1.41200 27.46800
C  41.63100 1.59600 29.14600
N  34.57900 2.35300 28.49700
C  35.63700 1.92600 27.74600
C  35.21300 1.94200 26.22200
C  33.70300 2.08000 26.36900
C  33.44700 2.49400 27.86000
C  35.84000 3.11100 25.45800
C  32.91400 0.82000 25.99500
C  32.60800 0.67600 24.51500
N  32.75300 3.19200 30.47300
C  31.80200 3.13700 29.48200
C  30.48400 3.47400 30.00200
C  30.72200 3.65300 31.36600
C  32.10900 3.55800 31.57600
C  29.20000 3.56300 29.32100
C  30.01800 4.03300 32.54300
O  28.81100 4.10700 32.71600
C  31.14200 3.92400 33.64000
C  31.11000 5.07100 34.52100
O  31.76700 6.09800 34.37100
O  30.22900 4.88200 35.60100
C  30.25500 5.89300 36.63600
H  38.20400 3.27700 33.39500
H  37.54700 1.20900 27.34900
H  31.33200 2.79300 27.44200
H  33.93600 4.59700 35.19900
H  36.26400 3.00600 35.35400
H  36.94200 5.03700 35.92800
H  35.64600 5.98200 35.32600
H  37.05200 5.64800 34.30300
H  34.35900 1.63900 35.29400
H  32.66800 2.08800 35.40300
H  34.45000 1.92600 37.56900
H  32.78300 2.35000 37.46600
H  41.09800 2.64000 31.68100
H  40.49000 0.95700 32.01800
H  39.99600 2.31900 33.02400
H  41.87000 0.86900 29.92200
H  41.73300 2.63300 29.46700
H  42.26700 1.40700 28.28200
H  35.47400 1.05800 25.64100
H  33.34000 2.95900 25.83600
H  36.48900 2.62000 24.73300
H  36.27500 3.83400 26.14800
H  35.19900 3.65200 24.76200
H  31.97400 0.81700 26.54700
H  33.46300 -0.08500 26.25700
H  33.39900 1.06600 23.87400
H  31.70600 1.18000 24.16800
H  32.53600 -0.40800 24.43400
H  29.34800 3.16900 28.31600
H  28.84100 4.59200 29.34300
H  28.52400 2.89200 29.85100
H  30.80700 3.13600 34.31400
H  29.61800 6.69600 36.26500
H  31.25600 6.28700 36.81200
H  29.85500 5.59100 37.60500

