158

Mg 1.66000 -1.90900 44.06900
C  5.15700 -1.40000 43.46700
C  1.00500 0.83300 42.26700
C  -1.36200 -3.08200 43.88200
C  2.78600 -5.10900 45.42600
N  2.95700 -0.55500 42.97900
C  4.30700 -0.37900 42.97600
C  4.82100 0.98400 42.39800
C  3.45800 1.69800 42.20000
C  2.37500 0.63100 42.52100
C  3.16600 3.01200 43.10400
C  5.86800 0.92800 41.20600
C  5.86100 -0.25700 40.26100
H  5.54700 0.06100 38.73800
N  -0.02100 -1.19500 43.28100
C  -0.09300 0.01800 42.63300
C  -1.51800 0.26800 42.39700
C  -2.26100 -0.87700 42.83000
C  -1.21000 -1.76500 43.38400
C  -1.94000 1.56500 41.84400
C  -3.84500 -1.02600 42.71700
O  -4.55100 -0.14000 42.27100
C  -4.55600 -2.18800 43.39500
N  0.87700 -3.84600 44.55900
C  -0.46900 -4.04000 44.39300
C  -0.99100 -5.44500 44.96500
C  0.30700 -5.96700 45.70900
C  1.41600 -4.94900 45.15100
C  -2.31300 -5.35800 45.86000
C  0.64500 -7.52100 45.49900
C  1.12300 -8.21100 46.76200
N  3.53700 -2.97100 44.59500
C  3.81800 -4.24300 45.14900
C  5.21100 -4.40400 45.33700
C  5.80000 -3.28500 44.74800
C  4.75300 -2.48500 44.24600
C  5.91700 -5.54800 46.08600
C  7.04000 -2.69000 44.50500
O  8.20000 -3.01900 44.77300
C  6.68000 -1.38800 43.72300
C  6.98200 -0.22100 44.56200
O  6.28700 0.31600 45.37500
O  8.24700 0.20700 44.24700
C  8.57900 1.58900 44.75900
H  0.73400 1.68900 41.64500
H  -2.38300 -3.46900 43.87700
H  3.25700 -5.99700 45.85200
H  5.32700 1.58400 43.15400
H  3.39100 1.92800 41.13600
H  2.82300 3.84000 42.48300
H  4.08400 3.26900 43.63200
H  2.36300 2.93100 43.83600
H  6.90700 1.06000 41.50700
H  5.61600 1.81700 40.62800
H  5.21500 -1.08700 40.54900
H  6.85300 -0.70600 40.19500
H  -1.88500 1.66500 40.76000
H  -1.39000 2.42000 42.23900
H  -2.97900 1.66900 42.15900
H  -5.63300 -2.02100 43.36600
H  -4.12900 -2.18900 44.39700
H  -4.30500 -3.13000 42.90800
H  -1.29300 -6.01700 44.08700
H  0.29900 -5.84600 46.79200
H  -2.00800 -5.67400 46.85700
H  -3.04300 -6.11100 45.56300
H  -2.75600 -4.37300 45.70900
H  1.38900 -7.78400 44.74700
H  -0.31600 -7.92900 45.18700
H  0.33300 -8.70100 47.33300
H  1.63100 -7.53800 47.45200
H  1.91000 -8.90600 46.46900
H  5.84000 -6.48400 45.53300
H  5.61800 -5.74100 47.11600
H  6.99300 -5.37200 46.12000
H  7.20400 -1.28500 42.77300
H  7.90700 2.06100 45.47600
H  8.41900 2.30200 43.95100
H  9.64200 1.61400 44.99800
Mg 23.77400 -5.75800 45.91600
C  25.88000 -3.38300 44.14400
C  21.16100 -4.78300 43.93400
C  22.08900 -8.60300 46.66500
C  26.72300 -7.05100 47.36300
N  23.53200 -4.20800 44.31000
C  24.53000 -3.36400 43.67800
C  23.92100 -2.60300 42.50000
C  22.40800 -2.83200 42.69700
C  22.34600 -4.02600 43.67000
C  21.70400 -1.60900 43.19800
C  24.46000 -2.97000 41.07500
C  25.13100 -1.79900 40.27700
H  25.94800 -2.19100 38.99100
N  21.84300 -6.46100 45.57200
C  20.91500 -5.83800 44.79600
C  19.60200 -6.51200 45.00600
C  19.92000 -7.81500 45.65200
C  21.34500 -7.65200 45.98500
C  18.35600 -5.96700 44.48600
C  18.86100 -8.86700 46.11200
O  17.66000 -8.65200 45.86700
C  19.20200 -9.97900 46.90700
N  24.29700 -7.48600 46.91400
C  23.43200 -8.52500 47.12400
C  24.07600 -9.62600 47.93900
C  25.39500 -8.95200 48.38000
C  25.52200 -7.75200 47.45200
C  23.13400 -10.20800 49.07300
C  26.64200 -9.95600 48.36900
C  27.16200 -10.19400 46.89900
N  25.84800 -5.26000 45.90900
C  26.92900 -5.88600 46.48700
C  28.07800 -5.16000 46.31700
C  27.76400 -4.19600 45.36500
C  26.34400 -4.29200 45.15300
C  29.39300 -5.43100 46.98000
C  28.24200 -3.11300 44.50300
O  29.32700 -2.71900 44.27400
C  27.08400 -2.57600 43.66800
C  26.98100 -1.11900 43.99400
O  26.35100 -0.61700 44.89300
O  27.67400 -0.38400 43.12400
C  27.79800 1.02200 43.33100
H  20.25100 -4.47500 43.41500
H  21.67000 -9.56700 46.95800
H  27.54600 -7.37300 48.00400
H  24.13000 -1.56800 42.77100
H  21.96100 -3.00800 41.71900
H  21.69100 -1.50700 44.28300
H  20.66800 -1.68000 42.86700
H  22.09300 -0.68300 42.77600
H  23.60900 -3.29500 40.47700
H  25.12600 -3.81300 41.25900
H  25.73900 -1.31900 41.04400
H  24.30500 -1.16400 39.95900
H  18.17900 -6.49900 43.55100
H  18.47300 -4.92400 44.19000
H  17.52500 -6.19700 45.15200
H  18.28000 -10.55700 46.97700
H  19.59900 -9.58300 47.84200
H  19.93900 -10.62600 46.43200
H  24.22700 -10.51100 47.32100
H  25.20600 -8.51500 49.36000
H  22.34500 -9.46700 49.19800
H  23.65200 -10.57200 49.96000
H  22.61600 -11.11200 48.75200
H  26.33600 -10.93800 48.72800
H  27.44500 -9.69600 49.05900
H  26.86000 -11.22600 46.72000
H  28.24900 -10.26300 46.87900
H  26.81300 -9.51900 46.11800
H  29.88700 -6.21600 46.40700
H  29.19800 -5.68300 48.02200
H  29.96800 -4.50600 46.93400
H  27.19500 -2.48100 42.58800
H  28.27800 1.10900 44.30600
H  26.84800 1.55200 43.39300
H  28.56100 1.47200 42.69600

