158

Mg 42.70000 41.35100 26.22100
C  41.92200 43.92200 28.55100
C  43.62800 39.38300 28.66300
C  43.78200 39.25500 23.77600
C  41.99500 43.77700 23.68000
N  42.57500 41.59200 28.37000
C  42.26900 42.68400 29.12200
C  42.21800 42.26600 30.61700
C  43.01700 40.92100 30.58900
C  43.11900 40.60700 29.11100
C  44.41000 40.94500 31.32100
C  40.76900 42.27400 31.26700
C  40.58800 43.18100 32.45400
H  40.19200 42.59900 33.78600
N  43.35500 39.58500 26.20000
C  43.73700 38.91700 27.34900
C  44.36400 37.59600 26.96100
C  44.02400 37.42800 25.59100
C  43.70300 38.79000 25.09000
C  44.96800 36.68400 28.06300
C  43.98800 36.24600 24.72000
O  43.37500 36.35300 23.66600
C  44.47900 34.91500 25.14900
N  42.95100 41.52900 24.00800
C  43.44600 40.53100 23.29300
C  43.32000 40.73300 21.73800
C  42.63600 42.13300 21.72600
C  42.46500 42.49300 23.21300
C  44.70500 40.57000 20.92900
C  41.20200 42.13500 21.13600
C  40.67100 43.32900 20.31000
N  42.00000 43.40000 26.11900
C  41.73200 44.19000 25.02200
C  41.11100 45.41300 25.48400
C  41.17200 45.36500 26.83100
C  41.74200 44.16300 27.17000
C  40.67000 46.55600 24.51700
C  40.87500 46.14300 28.05600
O  40.25200 47.15500 28.17300
C  41.32200 45.22200 29.25400
C  42.38600 45.77700 30.11800
O  43.59800 45.59300 29.96700
O  41.83400 46.60800 31.06200
C  42.80800 47.26000 31.83800
H  43.94000 38.71000 29.46500
H  44.08900 38.66400 22.91100
H  41.72000 44.56800 22.98000
H  42.87200 43.03800 31.02300
H  42.41200 40.19900 31.13600
H  44.44300 40.09400 32.00100
H  44.48400 41.85600 31.91500
H  45.22200 40.98800 30.59400
H  40.58600 41.24600 31.58000
H  39.97800 42.48500 30.54800
H  39.75700 43.78400 32.08900
H  41.33800 43.96100 32.58400
H  45.30300 37.25900 28.92600
H  45.86000 36.20900 27.65600
H  44.25500 35.92500 28.38400
H  45.54800 35.04700 25.31500
H  44.44000 34.15500 24.36900
H  44.05100 34.60600 26.10300
H  42.54300 40.05400 21.38900
H  43.05800 42.94200 21.12900
H  45.27400 39.72700 21.32200
H  45.28200 41.47700 20.75000
H  44.43900 40.21800 19.93300
H  40.53500 42.08000 21.99700
H  40.93700 41.36500 20.41200
H  40.24000 44.07400 20.98000
H  39.93600 42.85200 19.66000
H  41.48400 43.81700 19.77300
H  40.14200 46.24900 23.61400
H  41.55900 47.16500 24.34800
H  39.97400 47.20100 25.05200
H  40.46100 44.99600 29.88300
H  43.54500 47.77200 31.22000
H  43.33500 46.60900 32.53500
H  42.33700 48.06500 32.40200
Mg -12.02400 16.16200 42.52600
C  -8.86000 14.69700 41.86900
C  -10.63100 19.11300 41.50300
C  -15.14800 17.42600 42.42200
C  -13.22800 12.98700 43.37800
N  -9.94200 16.78100 41.57700
C  -8.83000 16.04300 41.53200
C  -7.61100 16.85100 41.24700
C  -8.20200 18.25100 41.54500
C  -9.66400 18.07900 41.51900
C  -7.63000 18.73600 42.97300
C  -7.08500 16.76300 39.79600
C  -5.60700 16.32100 39.60900
H  -5.31700 15.16700 38.60300
N  -12.76700 17.99100 41.98300
C  -12.00900 19.10500 41.58300
C  -12.86700 20.14600 41.27700
C  -14.22400 19.82400 41.66300
C  -14.09800 18.38300 42.05100
C  -12.42100 21.39000 40.54900
C  -15.47600 20.74800 41.62800
O  -15.40800 21.92700 41.26600
C  -16.76200 20.25300 42.11000
N  -13.98700 15.32500 42.93800
C  -15.11400 16.06100 42.76500
C  -16.29700 15.20700 42.94700
C  -15.75700 13.72100 43.24100
C  -14.21200 14.00400 43.20400
C  -17.26800 15.65300 44.11800
C  -16.27900 12.70900 42.18000
C  -17.59400 12.12900 42.54800
N  -11.23900 14.20000 42.66100
C  -11.81100 13.03000 43.07600
C  -10.79400 11.96300 43.18000
C  -9.64200 12.57100 42.64300
C  -9.91600 13.92000 42.40900
C  -10.96100 10.53700 43.66300
C  -8.25500 12.31500 42.26200
O  -7.62900 11.29400 42.34500
C  -7.72600 13.66800 41.78700
C  -6.69500 14.03100 42.83400
O  -6.99100 14.11700 44.06200
O  -5.47600 14.25200 42.26400
C  -4.38000 14.78800 43.14000
H  -10.20600 20.11500 41.41500
H  -16.20200 17.71300 42.43500
H  -13.68900 12.04100 43.67100
H  -6.82700 16.61300 41.96600
H  -7.96100 18.99700 40.78800
H  -8.44600 18.47700 43.64800
H  -7.48600 19.81600 42.95300
H  -6.73600 18.24000 43.35100
H  -7.12200 17.69100 39.22500
H  -7.71400 16.06200 39.24900
H  -5.09200 16.12200 40.54900
H  -5.00900 17.19600 39.35400
H  -12.93000 21.47700 39.58900
H  -11.34400 21.55400 40.50500
H  -12.62800 22.25300 41.18200
H  -17.23600 19.53300 41.44300
H  -17.47100 21.08000 42.11300
H  -16.46300 19.87800 43.08900
H  -16.87900 15.36000 42.03800
H  -15.99200 13.35100 44.24000
H  -18.03600 16.33100 43.74400
H  -16.72000 16.17800 44.90000
H  -17.72800 14.78400 44.58800
H  -15.48700 11.98200 42.00300
H  -16.43900 13.28700 41.26900
H  -17.52200 11.44600 43.39400
H  -18.01800 11.55900 41.72200
H  -18.31300 12.93000 42.72100
H  -11.26700 10.47600 44.70700
H  -10.01800 10.06200 43.39300
H  -11.68800 9.91400 43.14100
H  -7.23500 13.74000 40.81600
H  -3.55900 14.07100 43.15200
H  -4.73300 14.96200 44.15700
H  -3.93700 15.74500 42.86600

