158

Mg 17.42300 -1.38600 27.93500
C  16.44700 0.48300 30.70700
C  19.57400 -3.23900 29.92300
C  18.60000 -2.72500 25.08600
C  15.40100 0.68600 25.94400
N  18.10600 -1.23400 30.02600
C  17.47000 -0.43800 30.98600
C  17.97700 -0.83500 32.36400
C  19.21500 -1.79900 32.10400
C  19.00000 -2.07800 30.55900
C  20.66300 -1.26500 32.34500
C  16.80300 -1.57600 33.08000
C  16.38800 -1.25300 34.51600
H  17.31100 -0.46700 35.38200
N  18.79400 -2.84500 27.61200
C  19.61200 -3.49700 28.51500
C  20.48000 -4.37700 27.83400
C  20.18400 -4.27200 26.37800
C  19.16200 -3.22800 26.29300
C  21.43200 -5.37300 28.51700
C  20.68500 -5.15900 25.28300
O  20.21500 -5.08300 24.18700
C  21.80100 -6.14400 25.48000
N  17.01900 -1.03000 25.85000
C  17.70400 -1.69000 24.89700
C  17.33900 -1.15700 23.50500
C  16.14500 -0.26100 23.79800
C  16.17600 -0.22000 25.29000
C  18.57500 -0.47100 22.76600
C  14.76700 -0.87500 23.20900
C  14.10700 -0.10100 22.04700
N  16.21400 0.21900 28.17200
C  15.40500 0.87300 27.32700
C  14.60000 1.84000 28.07100
C  14.92800 1.71400 29.40200
C  15.92700 0.74600 29.38800
C  13.58400 2.81700 27.52800
C  14.70900 2.23700 30.72100
O  13.97800 3.15600 31.05400
C  15.62000 1.37700 31.60500
C  16.56300 2.20500 32.27300
O  17.68700 2.48800 31.87900
O  15.92500 2.71100 33.35200
C  16.70100 3.65800 34.23500
H  20.32500 -3.75400 30.52700
H  19.07800 -3.08000 24.17100
H  14.76500 1.38200 25.39300
H  18.45900 -0.03100 32.92000
H  19.09700 -2.74900 32.62400
H  20.47600 -0.54300 33.14000
H  21.09200 -0.80400 31.45600
H  21.39600 -1.97600 32.72600
H  17.11400 -2.61400 33.19700
H  15.90700 -1.57000 32.45900
H  16.13600 -2.10600 35.14600
H  15.46800 -0.67100 34.47700
H  21.02700 -6.38200 28.43500
H  21.47200 -5.17600 29.58900
H  22.38200 -5.26500 27.99400
H  21.32200 -6.91000 26.09000
H  22.60400 -5.63500 26.01400
H  22.05300 -6.62900 24.53800
H  16.99600 -2.05800 22.99500
H  16.11500 0.78800 23.50000
H  18.25700 0.55200 22.56200
H  18.84500 -0.93500 21.81800
H  19.42900 -0.37800 23.43600
H  14.05800 -0.93900 24.03400
H  14.93200 -1.88300 22.82900
H  13.19700 -0.63100 21.76900
H  14.72400 -0.19900 21.15300
H  13.80800 0.92600 22.25800
H  13.09400 2.28800 26.71000
H  14.16200 3.64800 27.12400
H  13.01300 3.24400 28.35200
H  14.96600 0.77300 32.23400
H  16.49500 4.70000 33.99000
H  17.76300 3.47100 34.08000
H  16.44700 3.42500 35.26900
Mg 40.81000 9.09400 29.33400
C  42.70700 10.25800 32.16400
C  38.66500 7.76900 31.72500
C  39.24500 7.80200 26.80500
C  43.48700 10.17400 27.33800
N  40.70600 8.96900 31.73600
C  41.49000 9.72700 32.56800
C  40.87700 9.61000 34.00200
C  39.51700 8.82400 33.84100
C  39.64500 8.44600 32.34700
C  39.42800 7.58300 34.81900
C  40.72800 11.07400 34.70200
C  41.03800 11.08300 36.19400
H  41.37000 12.44400 36.88800
N  39.12900 8.05200 29.23700
C  38.36300 7.57000 30.30800
C  37.18800 6.97900 29.73800
C  37.28300 7.07000 28.31100
C  38.58100 7.67000 28.05500
C  36.03900 6.49300 30.61700
C  36.30100 6.74400 27.20300
O  36.43400 6.86700 26.04000
C  34.99100 6.41900 27.70500
N  41.44500 8.89200 27.34800
C  40.53600 8.35600 26.46100
C  40.98400 8.61300 25.01100
C  42.37500 9.33500 25.15400
C  42.43800 9.56400 26.65700
C  41.11100 7.34200 24.09800
C  42.65400 10.59600 24.28300
C  42.20200 11.95500 24.80300
N  42.74100 9.98700 29.67200
C  43.66900 10.34600 28.74900
C  44.90000 10.77200 29.42100
C  44.51000 10.81000 30.72000
C  43.21000 10.31700 30.81800
C  46.16600 11.20500 28.84100
C  44.92000 11.18400 32.06300
O  45.91200 11.76900 32.36000
C  43.77400 11.00900 33.01600
C  44.18800 10.24700 34.22600
O  44.51000 9.04800 34.20300
O  44.26700 11.07600 35.35000
C  44.60900 10.37400 36.58500
H  37.90200 7.30300 32.35200
H  38.77500 7.43900 25.88800
H  44.35200 10.43900 26.72700
H  41.72600 9.02300 34.35500
H  38.65700 9.48900 33.92000
H  38.37600 7.63200 35.09700
H  40.01200 7.75600 35.72300
H  39.66600 6.62300 34.36200
H  39.70700 11.45200 34.64500
H  41.37400 11.77300 34.17000
H  41.79600 10.32200 36.38400
H  40.11400 10.79900 36.69800
H  36.30100 6.37700 31.66900
H  35.87300 5.49400 30.21300
H  35.12500 7.02000 30.34200
H  34.20700 6.44000 26.94800
H  34.86800 7.34600 28.26400
H  34.87300 5.58700 28.40000
H  40.30500 9.34800 24.57800
H  43.25300 8.70100 25.02700
H  40.42200 6.58100 24.46500
H  42.10600 6.90400 24.01500
H  40.84100 7.50500 23.05500
H  42.00100 10.48300 23.41700
H  43.66600 10.64300 23.88200
H  42.97300 12.69700 25.01400
H  41.56700 11.87800 25.68500
H  41.58400 12.38900 24.01700
H  46.26700 12.29000 28.81900
H  46.19100 10.75700 27.84700
H  46.97000 10.84100 29.48000
H  43.46200 12.02700 33.24900
H  44.56800 9.28700 36.65200
H  44.03100 10.85900 37.37200
H  45.61900 10.72400 36.80000

