158

Mg 35.82000 2.06900 29.69400
C  33.43700 3.13500 32.19200
C  38.10800 2.23400 32.27100
C  38.19600 1.75400 27.38900
C  33.25700 2.16600 27.30100
N  35.73000 2.40100 31.92100
C  34.60100 2.67700 32.75600
C  35.04000 2.79700 34.22400
C  36.57400 2.86700 34.13000
C  36.83600 2.42700 32.74200
C  37.29100 4.19600 34.52600
C  34.42500 1.61300 34.99700
C  34.29200 1.58200 36.52200
H  34.70700 2.86100 37.30700
N  37.91700 1.88700 29.82200
C  38.67600 2.01600 30.97200
C  40.03900 1.74200 30.69000
C  40.13000 1.70600 29.22700
C  38.71500 1.82900 28.71300
C  41.17400 1.58700 31.69300
C  41.39900 1.52900 28.34700
O  41.35000 1.45700 27.11300
C  42.78200 1.32400 29.04500
N  35.72900 1.89600 27.67100
C  36.85600 1.72800 26.94600
C  36.51800 1.45500 25.45600
C  34.99500 1.28700 25.52100
C  34.55000 1.73300 26.93200
C  37.00700 2.51300 24.32700
C  34.42700 -0.13500 25.19200
C  33.91500 -0.45100 23.79400
N  33.77200 2.59300 29.61500
C  32.85600 2.60400 28.60500
C  31.56500 3.16800 29.12400
C  31.75000 3.40000 30.44900
C  33.10100 2.97100 30.75300
C  30.38600 3.50100 28.31100
C  31.18200 3.82600 31.70800
O  30.00700 4.18700 31.91700
C  32.18400 3.75300 32.86400
C  32.44400 5.08500 33.42300
O  33.16500 5.92400 32.92200
O  31.73100 5.23000 34.64400
C  31.66100 6.49200 35.38600
H  38.91000 2.26400 33.01200
H  38.85000 1.47400 26.56100
H  32.45100 2.10800 26.56600
H  34.63000 3.75100 34.55700
H  36.91000 2.07600 34.80100
H  37.08900 5.01500 33.83600
H  38.34000 3.90900 34.58700
H  37.03200 4.65800 35.47900
H  34.79600 0.69600 34.54000
H  33.35200 1.52700 34.82700
H  34.87800 0.74200 36.89500
H  33.28900 1.24000 36.77700
H  41.75400 2.48500 31.48100
H  41.79600 0.70900 31.51800
H  40.70700 1.52800 32.67600
H  43.62800 1.37500 28.35900
H  42.83700 0.46900 29.71800
H  42.79800 2.20700 29.68400
H  36.92600 0.49800 25.13300
H  34.46200 2.00900 24.90200
H  37.68500 3.23700 24.77900
H  36.14800 3.04400 23.91800
H  37.67100 2.04700 23.59900
H  33.66400 -0.27900 25.95600
H  35.15100 -0.84200 25.59600
H  33.90500 0.49500 23.25400
H  32.91400 -0.87800 23.72500
H  34.57300 -1.09800 23.21400
H  30.68300 3.37400 27.27000
H  30.02100 4.50900 28.50800
H  29.51400 2.87700 28.50800
H  31.79900 3.05300 33.60500
H  30.68500 6.81200 35.75000
H  31.96200 7.30500 34.72600
H  32.26400 6.38400 36.28800
Mg 46.91300 24.77700 28.70400
C  47.71900 27.19200 31.17800
C  45.76900 22.77500 31.22000
C  46.41700 22.45900 26.51400
C  48.26000 26.87900 26.26500
N  46.76400 24.97300 30.87900
C  47.07800 26.02600 31.69200
C  46.83700 25.81900 33.17500
C  46.32600 24.35800 33.20000
C  46.34500 23.93700 31.69800
C  47.22100 23.26700 33.88600
C  45.69800 26.73700 33.72400
C  45.77200 27.28800 35.14300
H  46.01800 26.40700 36.35900
N  46.13100 22.90800 28.78100
C  45.68100 22.26300 29.90300
C  45.18500 20.94200 29.54200
C  45.32100 20.83100 28.13600
C  45.94000 22.06900 27.72400
C  44.63600 19.87000 30.52100
C  44.79800 19.66100 27.22700
O  45.06400 19.63200 26.06000
C  44.10000 18.51700 27.86000
N  47.47200 24.62700 26.57400
C  47.00600 23.59100 25.88900
C  47.22500 23.78300 24.38500
C  47.55700 25.28300 24.30500
C  47.74300 25.67100 25.83600
C  48.29100 22.80300 23.92200
C  46.54100 26.28500 23.64300
C  45.04800 25.93200 23.60400
N  47.80100 26.63600 28.63000
C  48.30500 27.37900 27.57400
C  48.81600 28.67000 28.08500
C  48.62100 28.62300 29.50100
C  48.02800 27.36000 29.77800
C  49.32600 29.69900 27.23400
C  48.78000 29.38300 30.78800
O  49.25900 30.50000 30.97700
C  48.19600 28.42400 31.90200
C  49.31500 28.22400 32.91800
O  50.38800 27.60000 32.72600
O  48.96200 28.74900 34.10300
C  49.84200 28.59000 35.26600
H  45.43600 22.15400 32.05500
H  46.14700 21.64400 25.83900
H  48.68400 27.61800 25.58200
H  47.68600 26.13900 33.77800
H  45.33800 24.14600 33.61000
H  47.81300 23.87300 34.57200
H  47.76000 22.50200 33.32800
H  46.61500 22.66400 34.56200
H  44.76000 26.18500 33.67900
H  45.59900 27.56700 33.02400
H  44.76400 27.67600 35.29400
H  46.38000 28.18400 35.27500
H  45.06400 18.87000 30.44800
H  43.55900 19.70000 30.52200
H  44.77000 20.14000 31.56800
H  44.80800 17.82300 28.31300
H  43.57300 17.94700 27.09500
H  43.29400 18.69500 28.57200
H  46.37100 23.47300 23.78400
H  48.50200 25.41300 23.77700
H  48.40400 22.06000 24.71100
H  49.22500 23.26000 23.59300
H  47.92500 22.30300 23.02600
H  46.93400 26.46900 22.64300
H  46.67900 27.20300 24.21300
H  44.79100 25.04200 24.17900
H  44.77300 25.68400 22.57900
H  44.39400 26.70200 24.01300
H  49.08100 29.58800 26.17800
H  50.38900 29.70800 27.47700
H  48.94500 30.67700 27.52700
H  47.42000 28.90500 32.49700
H  50.31000 29.54800 35.49300
H  50.59400 27.87400 34.93500
H  49.28100 28.15800 36.09500

