158

Mg 17.10500 52.21900 26.55500
C  18.89400 50.86300 29.36000
C  14.60800 53.08500 28.81300
C  15.56700 53.34100 24.07500
C  19.64600 50.88300 24.51600
N  16.81800 52.12300 28.83900
C  17.64600 51.51900 29.72800
C  17.17900 51.79100 31.14300
C  15.69800 52.24400 30.95100
C  15.69700 52.51100 29.48500
C  14.53800 51.25600 31.31700
C  18.17400 52.88700 31.81700
C  18.22500 52.71100 33.38000
H  17.10900 51.99700 34.11900
N  15.34400 53.15100 26.44900
C  14.44000 53.40500 27.46700
C  13.25100 54.02900 26.87700
C  13.47400 54.15100 25.43800
C  14.83800 53.51400 25.23100
C  12.17900 54.59900 27.72400
C  12.60200 54.71400 24.31200
O  13.05700 54.78600 23.14800
C  11.24100 55.28700 24.59900
N  17.52800 51.99600 24.53600
C  16.74800 52.80400 23.72100
C  17.40000 53.00900 22.33900
C  18.79700 52.21300 22.50900
C  18.69600 51.67700 23.94900
C  16.51100 52.64700 21.09000
C  20.03700 53.02000 22.40800
C  21.29300 52.17800 21.92300
N  18.94100 51.00200 26.84200
C  19.81500 50.59500 25.90200
C  20.95200 49.95800 26.55000
C  20.60100 50.00300 27.94200
C  19.39200 50.68100 28.06200
C  22.16300 49.40600 25.78500
C  21.02700 49.63100 29.27500
O  22.08200 49.09600 29.72200
C  19.99300 50.29300 30.25200
C  19.45300 49.27600 31.16700
O  18.70800 48.36900 30.83400
O  19.90200 49.53400 32.44500
C  19.42700 48.63200 33.56600
H  13.70100 53.29600 29.38300
H  15.08500 53.84300 23.23300
H  20.53500 50.50600 24.00500
H  17.32800 50.84400 31.66200
H  15.55200 53.15400 31.53200
H  15.04200 50.38100 31.72900
H  14.05600 51.03200 30.36600
H  13.82400 51.65300 32.03900
H  17.64900 53.80700 31.56300
H  19.16900 52.84200 31.37300
H  18.31900 53.76300 33.65200
H  19.18700 52.23200 33.56300
H  11.41100 55.29500 27.38700
H  12.66500 55.02400 28.60200
H  11.68900 53.72500 28.15400
H  10.56700 54.53500 25.01000
H  10.82300 55.60200 23.64300
H  11.12000 56.14100 25.26600
H  17.53200 54.08700 22.25200
H  18.81800 51.32800 21.87400
H  16.91700 51.98400 20.32600
H  16.03600 53.53600 20.67500
H  15.65000 52.14600 21.53300
H  20.31100 53.33000 23.41700
H  19.97500 53.78600 21.63400
H  22.13900 52.45200 22.55200
H  21.35700 52.48400 20.87900
H  21.25300 51.09900 21.76800
H  22.29000 49.76000 24.76200
H  22.06700 48.32500 25.88800
H  23.05200 49.70700 26.33900
H  20.51600 51.02800 30.86500
H  20.13900 47.83500 33.78100
H  18.44500 48.21500 33.34200
H  19.24200 49.25000 34.44500
Mg 0.19800 44.20800 25.34500
C  2.14500 43.91600 28.27100
C  -2.53100 43.13100 27.16900
C  -1.51800 43.87800 22.46200
C  3.12800 44.64000 23.57700
N  -0.14700 43.65900 27.45600
C  0.77000 43.70800 28.46500
C  0.10200 43.39200 29.81700
C  -1.41700 43.22500 29.42600
C  -1.36500 43.31800 27.93700
C  -2.10600 41.86000 29.98100
C  0.26200 44.71200 30.71400
C  1.05500 44.60900 32.06200
H  0.55800 43.43400 33.01100
N  -1.79500 43.59100 24.86500
C  -2.74700 43.22900 25.78200
C  -3.93800 43.01900 25.03800
C  -3.67700 43.00100 23.69500
C  -2.28900 43.52100 23.58800
C  -5.25600 42.67600 25.74200
C  -4.63500 42.72700 22.50500
O  -4.20900 42.92500 21.33900
C  -6.12000 42.44100 22.74900
N  0.69800 44.51400 23.27400
C  -0.13900 44.19500 22.29100
C  0.54200 44.20800 20.94600
C  1.99800 44.69700 21.34300
C  1.96600 44.63400 22.84200
C  0.51400 42.94100 20.12000
C  2.32800 46.08300 20.59000
C  1.62600 47.33600 21.13500
N  2.24600 44.34000 25.73400
C  3.31300 44.53800 24.91500
C  4.53900 44.66300 25.69400
C  4.10300 44.38000 26.97900
C  2.69200 44.22000 27.03500
C  5.99100 44.88200 25.26100
C  4.61600 44.15000 28.30100
O  5.72700 44.20200 28.75100
C  3.33500 43.97000 29.24500
C  3.54500 42.69100 29.99800
O  3.58600 41.56100 29.51400
O  3.80600 43.00600 31.29000
C  4.44700 41.98300 32.07200
H  -3.42000 42.86200 27.74300
H  -1.98500 43.78600 21.47900
H  4.06100 44.78200 23.02700
H  0.48200 42.49100 30.29700
H  -2.07300 44.00300 29.81500
H  -2.93800 42.17700 30.61000
H  -1.44700 41.21500 30.56100
H  -2.52300 41.27700 29.16000
H  -0.69300 45.15300 31.00200
H  0.66900 45.43900 30.01200
H  0.84300 45.54900 32.57100
H  2.13800 44.56600 31.95000
H  -5.53000 41.62900 25.61800
H  -6.00100 43.27900 25.22400
H  -5.21900 42.95800 26.79500
H  -6.60700 43.31600 23.18100
H  -6.08700 41.55600 23.38500
H  -6.69100 42.14600 21.86800
H  0.03100 44.94900 20.33200
H  2.69700 43.93500 20.99800
H  0.19800 42.14600 20.79700
H  1.49000 42.58600 19.79000
H  -0.23300 42.97400 19.32700
H  2.12000 46.09600 19.52000
H  3.41400 46.13200 20.65900
H  0.67300 47.12400 21.61900
H  1.44200 47.99500 20.28700
H  2.31100 47.87400 21.79000
H  6.49600 45.42200 26.06200
H  6.13000 45.45300 24.34300
H  6.43400 43.89500 25.12700
H  3.05900 44.76800 29.93500
H  5.26400 41.49400 31.54100
H  3.69700 41.23600 32.33400
H  4.72600 42.43800 33.02200

