158

Mg 8.30100 3.01600 27.87600
C  9.84100 1.40100 30.66600
C  6.40100 4.73800 29.83500
C  6.89200 4.27700 25.07800
C  9.62300 0.40400 25.80700
N  8.29300 3.09300 29.95800
C  8.97200 2.45800 30.98800
C  8.61900 3.05100 32.33500
C  7.33500 3.96300 32.08100
C  7.29200 3.93500 30.48800
C  6.04300 3.45300 32.71100
C  9.82800 3.93700 32.93700
C  10.31500 3.51900 34.36400
H  10.51800 4.68400 35.44400
N  6.88300 4.42700 27.49200
C  6.19500 4.99900 28.47700
C  5.28000 6.00300 27.81500
C  5.51400 5.98000 26.42400
C  6.44300 4.88900 26.28100
C  4.23300 6.77100 28.57600
C  4.81600 6.73800 25.30700
O  4.87800 6.43300 24.09200
C  4.00900 8.02500 25.69700
N  8.30900 2.40000 25.79900
C  7.60900 3.13400 24.84000
C  7.81600 2.64300 23.45000
C  8.67400 1.37300 23.70100
C  8.87300 1.35800 25.15600
C  6.41400 2.31800 22.79200
C  9.97200 1.41400 22.86100
C  10.12800 0.25300 21.84600
N  9.68700 1.32700 28.11200
C  10.02700 0.35400 27.16700
C  10.84300 -0.70100 27.86800
C  10.86600 -0.28500 29.21900
C  10.07200 0.90200 29.32800
C  11.44100 -1.90100 27.19900
C  11.38700 -0.57300 30.63400
O  12.16800 -1.43700 31.04200
C  10.75800 0.60600 31.59700
C  10.08200 -0.23000 32.69000
O  9.32400 -1.10800 32.43800
O  10.50300 0.18500 33.86900
C  9.99200 -0.45200 35.02100
H  5.96900 5.51200 30.47100
H  6.58600 4.83600 24.19000
H  9.94200 -0.43200 25.18100
H  8.48000 2.25900 33.07100
H  7.53500 4.99800 32.35900
H  6.21900 2.69700 33.47600
H  5.38600 3.01000 31.96300
H  5.45900 4.22400 33.21400
H  9.51600 4.96600 33.11700
H  10.64400 4.12200 32.23800
H  11.34300 3.18700 34.22500
H  9.64500 2.73100 34.71100
H  4.19500 7.83500 28.34200
H  4.44200 6.81400 29.64500
H  3.26000 6.30200 28.43200
H  2.97200 7.88000 26.00300
H  3.89800 8.62000 24.79100
H  4.49500 8.65700 26.44000
H  8.21900 3.32900 22.70500
H  8.19900 0.41400 23.49800
H  5.73500 2.12000 23.62000
H  6.55700 1.51100 22.07300
H  6.00200 3.17000 22.25000
H  10.83500 1.47600 23.52400
H  10.01300 2.37200 22.34300
H  11.00600 -0.36000 22.04900
H  10.35800 0.72900 20.89300
H  9.17700 -0.27900 21.86200
H  11.75500 -1.75200 26.16600
H  10.74200 -2.73500 27.26700
H  12.28600 -2.22500 27.80600
H  11.54500 1.20500 32.05500
H  8.90600 -0.53300 34.98500
H  10.33900 0.06600 35.91500
H  10.27000 -1.50200 35.10700
Mg 45.19200 4.17700 47.14500
C  43.04600 6.91100 47.01100
C  42.56800 2.02500 46.72700
C  47.41900 1.73800 46.37700
C  47.97300 6.47800 47.26800
N  43.07500 4.44300 46.88700
C  42.37500 5.63600 46.95200
C  40.83800 5.33400 46.87700
C  40.75800 3.82200 46.86800
C  42.21600 3.39900 46.84800
C  39.93900 3.08800 48.01500
C  40.12700 6.11100 45.67800
C  40.86800 6.21200 44.32500
H  40.04500 6.40100 43.06100
N  45.02700 2.11100 46.67100
C  43.84200 1.43300 46.54000
C  44.19700 0.08500 46.36800
C  45.56300 -0.01700 46.08800
C  46.08000 1.31400 46.38700
C  43.25800 -1.03000 46.32800
C  46.26200 -1.25800 45.61700
O  45.60600 -2.30900 45.61000
C  47.67800 -1.36400 45.07500
N  47.44500 4.14900 46.98000
C  48.04700 3.00800 46.65500
C  49.61400 3.26400 46.45700
C  49.71900 4.71500 46.77100
C  48.30200 5.15700 47.07200
C  50.53400 2.30900 47.19800
C  50.37400 5.60700 45.64600
C  51.74500 5.09600 45.16700
N  45.47500 6.27500 47.17300
C  46.62800 7.04800 47.25600
C  46.13800 8.44900 47.21300
C  44.79400 8.40700 47.25300
C  44.42200 7.04700 47.19500
C  46.95400 9.60200 47.07400
C  43.62200 9.20000 47.26300
O  43.49100 10.42600 47.55500
C  42.45300 8.27300 47.11500
C  41.57800 8.44300 48.29600
O  41.58300 7.78000 49.31500
O  40.62400 9.40200 48.11400
C  39.64600 9.72800 49.17400
H  41.68100 1.38800 46.72300
H  48.08200 0.92600 46.07300
H  48.81600 7.17000 47.20700
H  40.29400 5.65400 47.76600
H  40.44900 3.45700 45.88800
H  39.21000 3.80400 48.39300
H  40.59000 2.84400 48.85400
H  39.36500 2.23100 47.66100
H  39.94300 7.13600 46.00200
H  39.16500 5.60000 45.63900
H  41.46900 5.30800 44.22400
H  41.61800 7.00200 44.35300
H  42.28700 -0.60600 46.58500
H  43.63300 -1.87600 46.90400
H  43.10600 -1.42600 45.32400
H  47.88400 -2.39100 44.77400
H  48.30800 -1.14200 45.93600
H  47.83600 -0.62100 44.29300
H  49.69000 3.11800 45.37900
H  50.28900 4.85100 47.69000
H  49.97400 1.80600 47.98700
H  51.33600 2.90000 47.63900
H  50.78200 1.46100 46.56000
H  50.49300 6.65000 45.94000
H  49.62000 5.63600 44.85900
H  52.46500 5.91300 45.19000
H  51.72100 4.66700 44.16500
H  52.15400 4.39400 45.89400
H  47.14300 10.13200 48.00700
H  46.45900 10.38000 46.49300
H  47.95200 9.44200 46.66500
H  42.01500 8.55000 46.15600
H  38.69200 10.10300 48.80500
H  40.00400 10.54100 49.80600
H  39.43600 8.91500 49.86900

