158

Mg 35.49200 1.54900 29.58900
C  33.57700 3.03600 32.09400
C  38.24400 2.02000 31.63800
C  37.43400 0.75200 26.98600
C  32.74700 1.95000 27.47900
N  35.79300 2.22900 31.68900
C  34.82000 2.65500 32.56600
C  35.34900 2.88700 34.00500
C  36.90300 2.50800 33.80800
C  37.01500 2.29100 32.27100
C  37.93300 3.58900 34.34000
C  34.60800 1.99400 35.09900
C  34.06900 2.73400 36.30800
H  34.85500 3.97100 36.73700
N  37.50900 1.17800 29.36900
C  38.45500 1.45000 30.35800
C  39.80800 1.11500 29.79700
C  39.59000 0.68000 28.45200
C  38.15400 0.96700 28.22900
C  41.16000 1.13700 30.49300
C  40.58800 0.00400 27.44900
O  40.13900 -0.38900 26.31000
C  42.12500 -0.01000 27.65200
N  35.17000 1.42400 27.51200
C  36.08500 0.86400 26.66300
C  35.51300 0.76300 25.25300
C  33.93700 0.86300 25.52100
C  33.95400 1.39600 26.92400
C  35.98800 1.88100 24.17000
C  33.20400 -0.53700 25.39400
C  32.17000 -0.73500 24.23000
N  33.60800 2.42600 29.61600
C  32.61300 2.51600 28.71500
C  31.38400 3.18300 29.15200
C  31.76200 3.33900 30.50900
C  33.07000 2.90000 30.74700
C  30.13200 3.49300 28.34800
C  31.24900 3.92300 31.69900
O  30.17300 4.42100 31.86900
C  32.30500 3.60000 32.77000
C  32.54200 4.90200 33.47500
O  33.39000 5.66800 33.22300
O  31.52200 5.12600 34.35300
C  31.51400 6.39600 35.09600
H  39.14100 2.07900 32.25800
H  37.97300 0.27100 26.16700
H  31.92000 1.85600 26.77100
H  35.31000 3.95100 34.23900
H  37.18500 1.57100 34.28900
H  37.29600 4.37500 34.74600
H  38.52000 4.00200 33.52000
H  38.58000 3.09400 35.06400
H  35.16100 1.12500 35.45700
H  33.70600 1.58100 34.64800
H  33.90000 2.05400 37.14300
H  33.13300 3.17600 35.96700
H  41.80000 2.01000 30.36800
H  41.62900 0.17100 30.30400
H  41.04100 1.08700 31.57500
H  42.69900 0.33500 26.79200
H  42.47400 -0.97700 28.01400
H  42.42700 0.78500 28.33500
H  35.76400 -0.23300 24.88900
H  33.45200 1.58100 24.86000
H  35.24400 2.60600 23.84100
H  36.34000 1.37500 23.27200
H  36.85200 2.35200 24.63800
H  32.71400 -0.70500 26.35400
H  34.01300 -1.24900 25.23300
H  32.43200 -1.52700 23.52900
H  31.99900 0.13200 23.59100
H  31.19800 -0.97400 24.66100
H  30.39700 4.23200 27.59300
H  29.23600 3.72000 28.92500
H  29.86600 2.64700 27.71400
H  31.73200 2.91200 33.39100
H  32.35100 7.04400 34.83600
H  31.70800 6.23300 36.15600
H  30.63600 7.03500 35.00800
Mg 30.78800 57.73700 40.36400
C  27.88200 56.03000 39.40700
C  32.60500 55.20200 39.13200
C  33.40900 59.82600 40.55900
C  28.70500 60.63800 40.94900
N  30.30600 55.81900 39.55700
C  29.07100 55.25700 39.35500
C  29.18600 53.76300 38.93900
C  30.68100 53.53800 38.77800
C  31.26100 54.95000 39.29100
C  31.27400 52.34100 39.52800
C  28.36900 53.41500 37.63600
C  28.42800 54.51600 36.58700
H  28.90200 54.18600 35.16800
N  32.74000 57.50100 40.00400
C  33.33300 56.40200 39.41000
C  34.70300 56.63000 39.11300
C  34.92700 57.94300 39.59600
C  33.63100 58.47600 40.10600
C  35.61600 55.56300 38.48400
C  36.35000 58.58400 39.61200
O  37.24600 58.03200 38.95500
C  36.83500 59.96500 40.25800
N  31.05200 59.92300 40.74900
C  32.23700 60.50100 40.77200
C  32.15300 62.00800 41.10400
C  30.61600 62.27600 41.40500
C  30.06700 60.87300 41.04200
C  33.26300 62.70400 41.89500
C  30.03700 63.48300 40.67200
C  29.06900 64.32700 41.52800
N  28.75400 58.33900 40.05800
C  28.07800 59.44100 40.46100
C  26.70500 59.25200 40.23800
C  26.52100 57.91900 39.88900
C  27.81000 57.38100 39.70400
C  25.57500 60.19800 40.38300
C  25.57100 56.85700 39.61300
O  24.36800 56.84200 39.61100
C  26.38400 55.60800 39.22500
C  26.06200 54.54100 40.23400
O  26.60400 54.57100 41.32700
O  25.29700 53.50300 39.67300
C  25.09400 52.34200 40.56000
H  33.19500 54.38400 38.71500
H  34.35100 60.36100 40.69800
H  27.97100 61.36300 41.30700
H  28.78200 53.18600 39.77100
H  30.91600 53.28400 37.74400
H  32.16200 52.64300 40.08300
H  31.72400 51.57300 38.89800
H  30.59200 51.84500 40.21900
H  27.34000 53.23200 37.94400
H  28.71600 52.46700 37.22600
H  29.08100 55.34000 36.87600
H  27.41300 54.88400 36.43500
H  35.06400 54.71200 38.08600
H  36.33900 55.22900 39.22800
H  36.19800 55.93000 37.63800
H  36.54800 59.76000 41.28900
H  36.13800 60.69900 39.85400
H  37.89200 60.21100 40.15100
H  32.37200 62.33400 40.08700
H  30.50200 62.35100 42.48600
H  32.79000 63.23100 42.72400
H  33.67300 63.44800 41.21200
H  33.99200 62.00600 42.30800
H  29.61300 62.99600 39.79300
H  30.91400 64.09800 40.47000
H  28.67200 63.72600 42.34600
H  28.21700 64.69000 40.95300
H  29.68800 65.13400 41.92100
H  25.25800 59.95800 41.39700
H  24.87100 60.03500 39.56600
H  25.86700 61.24600 40.31400
H  26.16800 55.20800 38.23400
H  26.10700 51.97000 40.71300
H  24.49200 51.60600 40.02900
H  24.76200 52.67100 41.54400

