158

Mg -0.26900 7.50000 26.71100
C  0.85100 9.73400 29.05300
C  -0.63200 5.11600 29.28100
C  -1.03200 5.18200 24.43200
C  0.38300 9.78600 24.25400
N  0.12500 7.45400 28.81600
C  0.52500 8.50400 29.59000
C  0.42300 8.20700 31.05300
C  0.46000 6.64000 31.07100
C  -0.00300 6.37400 29.58600
C  1.83600 5.98200 31.41100
C  -0.86100 8.86900 31.78900
C  -0.88900 8.80000 33.33800
H  0.32300 8.36600 34.15300
N  -0.84200 5.40000 26.87700
C  -0.93500 4.63300 27.99100
C  -1.36200 3.21200 27.59300
C  -1.47800 3.25700 26.18600
C  -1.09200 4.59200 25.73500
C  -1.46000 2.00000 28.52600
C  -1.74900 2.03700 25.18900
O  -1.54900 2.12000 23.98600
C  -2.19900 0.71400 25.80600
N  -0.37600 7.52800 24.66100
C  -0.75000 6.44600 23.89900
C  -0.97000 6.81100 22.42100
C  -0.75700 8.39700 22.43100
C  -0.19000 8.59500 23.89300
C  -0.04900 6.11300 21.40800
C  -2.08200 9.22000 22.18700
C  -2.17800 10.08600 20.91300
N  0.52200 9.38700 26.63700
C  0.71700 10.19900 25.57500
C  1.27400 11.46800 25.95400
C  1.31400 11.41000 27.38500
C  0.90400 10.11300 27.68000
C  1.58600 12.55800 24.93600
C  1.64900 12.13200 28.62500
O  2.09100 13.22300 28.86100
C  1.32300 11.03700 29.74900
C  2.56000 10.80200 30.59300
O  3.50200 10.14800 30.20800
O  2.34100 11.37200 31.83800
C  3.43300 10.99300 32.71800
H  -0.62500 4.29400 30.00000
H  -1.36100 4.44700 23.69400
H  0.53900 10.57500 23.51500
H  1.24700 8.70700 31.56300
H  -0.38100 6.14600 31.55700
H  2.44800 5.64900 30.57300
H  1.63500 5.13700 32.07000
H  2.49300 6.67500 31.93700
H  -1.72300 8.30800 31.42800
H  -0.82300 9.89100 31.41100
H  -1.66400 8.06400 33.55400
H  -1.18300 9.76200 33.75700
H  -0.94400 1.06900 28.28800
H  -2.53700 1.83100 28.51800
H  -1.36800 2.20400 29.59300
H  -2.54300 0.13900 24.94600
H  -3.06800 0.77500 26.46100
H  -1.40400 0.22700 26.37000
H  -1.98500 6.58100 22.09900
H  -0.04800 8.81800 21.71800
H  0.91900 5.87500 21.84800
H  0.13100 6.90500 20.68200
H  -0.56800 5.22100 21.05800
H  -2.24800 9.92700 23.00000
H  -2.92700 8.55200 22.35400
H  -1.38400 9.89600 20.19000
H  -2.00500 11.12300 21.20000
H  -3.19100 10.05500 20.51100
H  0.89500 12.54900 24.09300
H  2.52900 12.22700 24.50100
H  1.53700 13.55000 25.38400
H  0.50300 11.40300 30.36600
H  3.47500 9.93900 32.99200
H  3.27400 11.60400 33.60700
H  4.43600 11.30000 32.41900
Mg -10.73100 16.75200 40.65000
C  -7.39300 16.09900 41.14800
C  -10.00800 19.98300 39.84700
C  -13.86700 17.06600 39.45900
C  -11.24900 13.19700 40.71600
N  -8.86600 17.84500 40.53600
C  -7.62600 17.42700 40.74100
C  -6.61400 18.55100 40.53100
C  -7.54300 19.85000 40.57100
C  -8.90300 19.21600 40.36700
C  -7.64300 20.64000 41.94800
C  -5.95500 18.41600 39.08700
C  -4.48500 17.94300 39.07000
H  -4.19300 16.69200 38.27300
N  -11.86300 18.28200 39.90200
C  -11.34700 19.52900 39.60900
C  -12.40900 20.31900 38.96500
C  -13.60800 19.58700 38.97800
C  -13.12300 18.26000 39.46400
C  -12.15100 21.59000 38.38700
C  -15.00400 20.00200 38.59900
O  -15.17700 21.16900 38.34300
C  -16.17300 19.09800 38.78000
N  -12.24900 15.28900 39.94500
C  -13.51300 15.71700 39.77300
C  -14.50600 14.59700 39.90300
C  -13.61700 13.30200 39.96800
C  -12.28700 13.94400 40.25500
C  -15.59200 14.79300 41.10200
C  -13.69100 12.33500 38.76300
C  -13.79800 10.85000 39.08200
N  -9.54100 14.92500 40.88600
C  -9.99000 13.65100 41.01900
C  -8.75800 12.85700 41.38600
C  -7.70600 13.74900 41.48200
C  -8.29300 14.99000 41.15400
C  -8.73500 11.45100 41.78800
C  -6.30000 13.93600 41.75300
O  -5.38800 13.09600 41.96700
C  -6.07600 15.47400 41.63100
C  -5.73800 15.98100 42.95400
O  -6.45400 16.10700 43.94200
O  -4.36100 16.20000 43.02800
C  -3.82100 16.54200 44.35700
H  -9.62400 20.97500 39.60000
H  -14.89100 17.10500 39.08300
H  -11.37800 12.12000 40.84900
H  -5.89900 18.49900 41.35200
H  -7.33000 20.61900 39.82900
H  -7.68300 21.69900 41.69400
H  -6.75300 20.38600 42.52400
H  -8.53400 20.40700 42.53000
H  -6.04300 19.43100 38.70200
H  -6.60200 17.75300 38.51300
H  -4.25100 17.76200 40.11900
H  -3.88100 18.74800 38.65200
H  -12.00500 21.48500 37.31200
H  -11.24100 22.04400 38.78000
H  -12.87200 22.39800 38.51400
H  -16.94200 19.86000 38.90900
H  -16.07300 18.45800 39.65700
H  -16.41600 18.52300 37.88700
H  -15.12600 14.48700 39.01200
H  -13.77000 12.72200 40.87800
H  -16.04700 15.72600 40.76900
H  -15.24000 15.07400 42.09500
H  -16.33100 14.02700 41.33600
H  -12.82300 12.44700 38.11400
H  -14.51300 12.60900 38.10100
H  -13.38400 10.56700 40.05000
H  -13.22900 10.26700 38.35800
H  -14.81500 10.50400 38.89700
H  -7.97300 11.22100 42.53200
H  -8.49500 10.88700 40.88600
H  -9.72600 11.12100 42.09900
H  -5.15700 15.65300 41.07200
H  -2.78200 16.84900 44.24100
H  -3.89200 15.77100 45.12400
H  -4.32400 17.42000 44.76400

