158

Mg 45.20200 5.80800 48.52800
C  42.75100 8.28300 48.08400
C  42.58600 3.43500 47.75000
C  47.45600 3.22100 48.13900
C  47.71100 8.09800 48.12200
N  43.02900 5.84300 47.75200
C  42.26500 6.95600 47.88100
C  40.71500 6.62100 47.77200
C  40.71700 5.10200 47.48900
C  42.17500 4.77100 47.77900
C  39.64200 4.47700 48.46800
C  39.88400 7.49100 46.72900
C  40.52800 7.73600 45.32700
H  39.79800 7.05000 44.18000
N  45.01200 3.58800 48.18100
C  43.88100 2.86300 47.93400
C  44.23300 1.47000 47.69500
C  45.63200 1.38000 47.84500
C  46.11300 2.80200 48.06100
C  43.19900 0.39900 47.64300
C  46.44000 0.04900 47.78000
O  45.92100 -0.96400 47.37000
C  47.81600 -0.06600 48.27400
N  47.25100 5.68900 48.17000
C  47.92400 4.46600 48.09400
C  49.53400 4.78200 48.01800
C  49.48900 6.32300 48.19100
C  48.12900 6.72600 48.12000
C  50.43700 4.06100 49.03100
C  50.35400 7.11300 47.21500
C  51.14000 8.33200 47.81500
N  45.26300 7.74800 48.32800
C  46.33300 8.65200 48.18500
C  45.78400 9.98300 48.22100
C  44.38600 9.91400 48.19400
C  44.13000 8.49900 48.15300
C  46.70200 11.18700 48.32400
C  43.18600 10.71700 48.30000
O  43.00800 11.91900 48.39700
C  42.05900 9.65500 48.07600
C  41.11300 9.71000 49.22400
O  41.04500 9.01400 50.23900
O  40.25400 10.71400 48.96400
C  39.20400 11.07700 49.96400
H  41.88400 2.62000 47.56400
H  48.24100 2.54100 47.80000
H  48.59400 8.73500 48.03300
H  40.38300 6.92200 48.76500
H  40.41300 4.82700 46.47900
H  40.03500 4.35900 49.47800
H  39.18500 3.53600 48.16300
H  38.76300 5.11100 48.58100
H  39.57000 8.42800 47.18900
H  38.88900 7.05800 46.62600
H  41.46100 7.18200 45.42300
H  40.66200 8.81400 45.23900
H  42.16000 0.70400 47.76800
H  43.37900 -0.24200 48.50600
H  43.40300 -0.24200 46.78600
H  48.18400 -1.09200 48.29200
H  47.86300 0.45500 49.23000
H  48.37600 0.42400 47.47800
H  49.72800 4.53300 46.97500
H  49.89400 6.55000 49.17700
H  50.79600 3.10000 48.66200
H  49.92100 3.92800 49.98100
H  51.35800 4.62900 49.16000
H  49.80400 7.47700 46.34800
H  51.17100 6.43600 46.96300
H  52.21800 8.17700 47.78600
H  50.89100 8.61700 48.83700
H  50.83200 9.07900 47.08300
H  46.03500 11.99200 48.01600
H  47.59200 11.17200 47.69500
H  46.95400 11.24100 49.38300
H  41.45300 9.81600 47.18400
H  39.18400 10.41700 50.83200
H  38.23100 11.07600 49.47300
H  39.43200 12.07500 50.33700
Mg 9.37000 48.34100 25.73300
C  7.12600 49.09100 28.37300
C  11.92300 49.23500 27.69900
C  11.36200 47.88600 23.04300
C  6.54800 48.20000 23.57400
N  9.47300 49.18200 27.79000
C  8.46600 49.22300 28.73400
C  9.05800 49.46300 30.17200
C  10.53000 49.87700 29.81600
C  10.66900 49.36000 28.36900
C  10.88800 51.38800 29.91800
C  8.75000 48.21300 31.13900
C  9.78500 48.01700 32.27500
H  9.41600 47.07800 33.41000
N  11.37600 48.52700 25.40200
C  12.29500 48.87000 26.36800
C  13.61800 48.62700 25.87000
C  13.44400 48.13000 24.55000
C  12.04100 48.20400 24.22400
C  14.90700 48.90600 26.64300
C  14.53600 47.67200 23.61000
O  14.36900 47.18100 22.51100
C  15.98300 47.83300 24.03500
N  8.99100 47.93900 23.67400
C  10.01400 47.73500 22.76400
C  9.32900 47.30600 21.44300
C  7.81000 47.45300 21.65700
C  7.81000 48.01100 22.97000
C  9.90900 48.02400 20.21700
C  7.15600 46.16400 21.49300
C  7.44300 45.00600 22.44600
N  7.25000 48.54500 25.88800
C  6.24500 48.37700 24.95900
C  4.95000 48.49100 25.64000
C  5.31400 48.79700 26.99700
C  6.68200 48.77200 27.08600
C  3.56800 48.26400 25.01000
C  4.75400 49.13600 28.27400
O  3.60500 49.29000 28.65200
C  5.88500 49.13900 29.26700
C  5.54000 47.89000 30.15500
O  5.62300 46.72000 29.77800
O  5.05200 48.31500 31.34700
C  4.26800 47.26400 32.11500
H  12.76500 49.54900 28.31900
H  11.99000 47.79300 22.15500
H  5.70500 48.09300 22.88900
H  8.53900 50.31700 30.60700
H  11.19000 49.21000 30.37000
H  10.12000 51.94200 30.45800
H  10.90200 51.64300 28.85900
H  11.87000 51.48100 30.38200
H  8.82200 47.32000 30.51800
H  7.72000 48.19700 31.49400
H  10.05800 48.86300 32.90600
H  10.66500 47.48100 31.92100
H  14.71200 49.15700 27.68600
H  15.42100 49.80400 26.30100
H  15.66900 48.12700 26.60200
H  16.08900 47.05700 24.79300
H  16.18300 48.84500 24.39000
H  16.61100 47.68700 23.15700
H  9.67500 46.27400 21.38600
H  7.43500 48.13700 20.89500
H  10.45300 47.33800 19.56700
H  10.56900 48.82000 20.56300
H  9.11700 48.48400 19.62600
H  7.43800 45.84500 20.49000
H  6.07600 46.31000 21.45400
H  8.10900 44.37200 21.86300
H  6.49500 44.50400 22.64000
H  7.93400 45.32500 23.36600
H  2.82500 47.65300 25.52300
H  3.72800 47.85300 24.01400
H  3.21700 49.28400 24.85500
H  5.75900 50.02900 29.88400
H  3.44700 46.82600 31.54800
H  3.87900 47.64300 33.06000
H  4.98400 46.46900 32.32300

