158

Mg 48.72900 35.06700 26.19200
C  47.14100 33.51200 28.98200
C  49.23500 37.80800 28.02800
C  50.25200 36.25000 23.55000
C  48.17700 32.01600 24.44100
N  48.13500 35.60600 28.31500
C  47.70700 34.76900 29.30900
C  48.05200 35.32200 30.64700
C  48.38600 36.79700 30.29100
C  48.60800 36.80100 28.76800
C  47.28600 37.83400 30.58000
C  49.15800 34.58600 31.41100
C  49.20200 34.66900 32.94300
H  48.04000 35.34700 33.75800
N  49.56200 36.83800 25.81800
C  49.62700 37.88800 26.67500
C  50.31000 39.01000 25.89900
C  50.70200 38.53800 24.62000
C  50.20800 37.12700 24.63200
C  50.61000 40.33000 26.68400
C  51.46000 39.23100 23.52000
O  51.92100 38.68400 22.53300
C  51.65800 40.75700 23.52100
N  49.21500 34.16300 24.24000
C  49.89500 34.91200 23.35300
C  50.18300 34.05500 22.07200
C  49.46500 32.66100 22.31400
C  48.97800 32.89500 23.79500
C  49.71100 34.79000 20.77300
C  50.45900 31.47300 22.22200
C  51.52800 31.49900 21.08200
N  47.78800 33.22300 26.52000
C  47.66400 32.10400 25.72200
C  46.94400 31.07400 26.42600
C  46.70500 31.57500 27.72500
C  47.24300 32.87500 27.70600
C  46.63100 29.66100 25.91600
C  46.16500 31.27100 29.05300
O  45.78900 30.20600 29.49600
C  46.26800 32.57200 29.81000
C  46.89800 32.18700 31.15000
O  48.05500 31.87400 31.37000
O  45.94600 32.17800 32.15800
C  46.38700 31.83500 33.52000
H  49.38000 38.71400 28.62000
H  50.69700 36.77600 22.70300
H  48.15800 31.06300 23.90900
H  47.19400 35.26800 31.31600
H  49.32700 37.06100 30.77400
H  47.42900 38.40600 31.49700
H  46.35300 37.28600 30.70800
H  47.07500 38.52600 29.76400
H  50.06000 35.16600 31.21100
H  49.48800 33.64400 30.97300
H  50.17400 35.07500 33.22500
H  49.25700 33.60600 33.18000
H  51.65100 40.33300 27.00700
H  49.87600 40.36900 27.48800
H  50.55000 41.18800 26.01400
H  52.03400 41.20300 22.60100
H  52.41900 41.05700 24.24200
H  50.71600 41.24900 23.76500
H  51.25200 33.86800 21.97000
H  48.64000 32.52300 21.61600
H  49.41800 34.23600 19.88100
H  50.50300 35.36200 20.29000
H  48.79300 35.35500 20.93000
H  49.83000 30.58900 22.12100
H  51.01700 31.24700 23.13000
H  52.46000 31.77300 21.57600
H  51.18800 32.04400 20.20100
H  51.60900 30.50400 20.64500
H  45.60000 29.48400 25.60900
H  46.95500 28.94900 26.67500
H  47.33300 29.43000 25.11500
H  45.33300 33.06900 30.07000
H  47.43500 31.54600 33.44500
H  45.79200 31.05400 33.99400
H  46.21400 32.81100 33.97400
Mg 9.17600 48.70800 26.16600
C  6.81000 48.96600 28.82000
C  11.39300 50.41800 28.18900
C  11.30100 48.72500 23.60700
C  6.50300 47.93700 23.95900
N  9.08100 49.67700 28.18000
C  8.10000 49.56200 29.19400
C  8.56500 50.10800 30.55600
C  9.88600 50.75400 30.08600
C  10.15600 50.33900 28.74100
C  9.89800 52.30200 30.20600
C  8.88700 48.97800 31.63400
C  7.99900 49.16800 32.87400
H  8.60800 49.70100 34.15100
N  11.15500 49.30000 25.95100
C  11.88000 49.94700 26.94600
C  13.24900 50.07200 26.45200
C  13.26700 49.64700 25.10800
C  11.86600 49.14500 24.81500
C  14.36100 50.72500 27.21000
C  14.33900 49.46200 24.09800
O  14.16500 48.95300 23.00300
C  15.73000 49.70300 24.44000
N  8.94600 48.43500 24.08700
C  9.96200 48.49000 23.20900
C  9.60000 48.04600 21.76900
C  8.06500 47.69300 21.96400
C  7.80500 48.06900 23.37200
C  9.71500 49.13800 20.77000
C  7.75600 46.21800 21.70400
C  8.25800 45.13700 22.63600
N  7.12200 48.40000 26.28300
C  6.19300 48.11300 25.35000
C  4.88300 47.95300 26.01400
C  5.04800 48.13600 27.38300
C  6.44500 48.54500 27.52200
C  3.61400 47.58600 25.28700
C  4.49200 48.10700 28.74700
O  3.35000 47.92700 29.17700
C  5.59700 48.61700 29.68900
C  5.83200 47.45700 30.58100
O  6.46300 46.45100 30.30800
O  5.14300 47.66400 31.77700
C  5.39900 46.58200 32.65800
H  12.07800 50.92800 28.87000
H  11.85700 48.77600 22.66900
H  5.64100 47.85300 23.29400
H  7.97700 50.89200 31.03300
H  10.71600 50.45800 30.72800
H  10.86800 52.63500 30.57400
H  9.04900 52.62000 30.81100
H  9.71700 52.82900 29.26900
H  9.95600 49.00800 31.84700
H  8.71200 48.03900 31.10800
H  7.61000 48.17000 33.07900
H  7.15800 49.84300 32.71600
H  14.97000 51.34400 26.55100
H  14.89300 50.06800 27.89900
H  14.01100 51.61100 27.73900
H  15.83300 49.27200 25.43600
H  15.87500 50.78100 24.49400
H  16.49700 49.36000 23.74600
H  10.09100 47.12800 21.44500
H  7.29300 48.30100 21.49200
H  10.12600 49.98100 21.32600
H  8.74000 49.45900 20.40500
H  10.37400 48.86600 19.94600
H  8.22500 46.10000 20.72700
H  6.68000 46.19000 21.53300
H  8.61900 45.39800 23.63100
H  9.02300 44.59700 22.07700
H  7.50100 44.36300 22.76200
H  3.58000 47.91300 24.24700
H  2.80900 48.01300 25.88500
H  3.52000 46.50300 25.36800
H  5.34900 49.50700 30.26800
H  4.60100 45.84900 32.54700
H  5.30100 46.83800 33.71300
H  6.39400 46.14100 32.59100

