158

Mg -1.63000 16.55200 26.55900
C  -2.31400 14.21400 29.18600
C  -2.06100 19.06700 28.72500
C  -1.55500 18.63800 23.98200
C  -1.87800 13.80200 24.27100
N  -2.24800 16.59200 28.74900
C  -2.23300 15.55500 29.62400
C  -2.22800 16.14900 31.12800
C  -2.13600 17.66500 30.88300
C  -2.13600 17.83900 29.37300
C  -3.31100 18.54200 31.49700
C  -1.05100 15.55800 32.00600
C  -0.54700 16.42700 33.15100
H  -0.58700 15.76000 34.59500
N  -1.63500 18.61000 26.37600
C  -1.80600 19.51100 27.39500
C  -1.72400 20.85800 26.91100
C  -1.34700 20.75000 25.56000
C  -1.55800 19.29200 25.23800
C  -1.84300 21.97700 27.90000
C  -0.89100 21.85800 24.64700
O  -0.47000 21.63000 23.53000
C  -0.72900 23.22900 25.12300
N  -1.86500 16.25200 24.39100
C  -1.76600 17.29400 23.55500
C  -1.66000 16.84500 22.05700
C  -1.75900 15.26300 22.18200
C  -1.74800 15.05600 23.69300
C  -2.63700 17.46000 21.01000
C  -0.58500 14.44300 21.56300
C  0.80500 14.87500 22.18100
N  -2.01800 14.48200 26.68600
C  -2.05200 13.51600 25.67100
C  -2.30900 12.21800 26.26600
C  -2.45500 12.41500 27.63900
C  -2.17200 13.83200 27.85100
C  -2.48500 10.87600 25.59300
C  -2.61200 11.69800 28.89900
O  -2.76000 10.50600 29.24300
C  -2.49800 12.89300 29.93500
C  -1.41800 12.52500 30.83900
O  -0.19300 12.77300 30.75400
O  -1.93200 11.75100 31.80200
C  -1.03200 11.26000 32.88400
H  -2.15700 19.96300 29.34200
H  -1.52200 19.30200 23.11600
H  -2.03800 12.93800 23.62400
H  -3.10500 15.83700 31.69500
H  -1.17500 18.09200 31.17000
H  -3.95500 19.01600 30.75600
H  -2.93900 19.35200 32.12500
H  -4.00600 17.98100 32.12200
H  -0.17500 15.49900 31.36100
H  -1.28900 14.55900 32.37300
H  -1.17300 17.31400 33.25600
H  0.41100 16.87700 32.89000
H  -2.48700 21.84400 28.76800
H  -2.24100 22.77400 27.27200
H  -0.86400 22.30500 28.24900
H  -1.67200 23.73100 25.33600
H  -0.20100 23.87200 24.41900
H  -0.09700 23.24300 26.01100
H  -0.67400 16.97500 21.61000
H  -2.63200 14.82100 21.70300
H  -3.22600 18.10500 21.66200
H  -3.25400 16.68200 20.56200
H  -2.08200 18.05400 20.28400
H  -0.62300 14.57000 20.48100
H  -0.75900 13.37600 21.70600
H  1.33000 15.45200 21.42000
H  1.24300 13.88100 22.27400
H  0.70900 15.46800 23.09000
H  -3.36900 10.76000 24.96600
H  -2.60400 10.17600 26.42000
H  -1.64200 10.35600 25.13900
H  -3.40500 12.84800 30.53900
H  -0.40200 12.06100 33.27100
H  -0.29200 10.62800 32.39400
H  -1.69600 10.88100 33.66000
Mg 39.84800 9.81600 30.24900
C  41.90000 10.67700 33.04200
C  37.58300 8.42200 32.60600
C  38.30200 8.34300 27.82200
C  42.34300 10.90500 28.09900
N  39.73200 9.59600 32.53700
C  40.66500 10.05000 33.41700
C  40.13800 10.02800 34.82100
C  38.80800 9.17900 34.74400
C  38.68200 9.03400 33.23500
C  38.68500 7.79500 35.43600
C  40.00000 11.45800 35.39700
C  39.29100 11.60800 36.73300
H  39.98200 10.99900 37.92100
N  38.05500 8.72700 30.18300
C  37.34000 8.22900 31.19600
C  36.19300 7.51000 30.66000
C  36.37700 7.52800 29.26200
C  37.63400 8.20600 29.01500
C  35.21400 6.74900 31.49100
C  35.54400 6.95700 28.12800
O  35.92800 7.02100 26.92500
C  34.23300 6.36100 28.35300
N  40.33200 9.44700 28.22700
C  39.41800 8.94400 27.42100
C  39.76000 9.25400 25.91300
C  40.96200 10.24200 26.02900
C  41.16700 10.31300 27.59900
C  39.92900 7.92000 24.97600
C  40.63000 11.65500 25.41400
C  39.69500 12.57200 26.05300
N  41.75100 10.63300 30.46300
C  42.63200 11.02500 29.47600
C  43.78400 11.51100 30.16800
C  43.50700 11.38600 31.54200
C  42.28700 10.85200 31.69600
C  45.13200 11.82000 29.48900
C  44.04700 11.69400 32.79400
O  45.13400 12.20000 33.02600
C  43.01100 11.20900 33.84500
C  43.59200 10.12100 34.72700
O  43.78100 8.93800 34.42500
O  43.90400 10.58600 35.91200
C  44.34400 9.77000 37.00800
H  36.84500 8.11800 33.35200
H  38.03600 7.73800 26.95200
H  43.18900 11.20700 27.47800
H  40.90100 9.52000 35.41100
H  37.88100 9.60800 35.12300
H  37.67200 7.44500 35.63600
H  39.30500 7.78000 36.33200
H  39.13400 7.09200 34.73300
H  39.64700 12.13600 34.62000
H  41.01500 11.76000 35.65400
H  38.25100 11.28600 36.68300
H  39.27400 12.68800 36.88300
H  35.41500 5.68000 31.42600
H  34.27200 7.09000 31.06100
H  35.20700 6.99700 32.55300
H  33.61100 6.44000 27.46100
H  33.74900 6.90000 29.16700
H  34.33200 5.32400 28.67500
H  38.86300 9.76300 25.56200
H  41.87400 9.83800 25.58900
H  40.93200 7.85600 24.55500
H  39.24600 7.98600 24.12900
H  39.71300 7.00000 25.51900
H  40.10200 11.36700 24.50500
H  41.54200 12.20700 25.18900
H  38.75500 12.53800 25.50200
H  40.00400 13.61600 26.08600
H  39.42100 12.18000 27.03200
H  45.23000 12.83300 29.09700
H  45.41200 11.10300 28.71700
H  45.90500 11.80400 30.25800
H  42.76700 12.13500 34.36600
H  43.92800 10.13200 37.94800
H  45.42600 9.87000 37.08300
H  44.12200 8.70300 36.98700

