158

Mg 49.53700 45.62000 41.45800
C  46.17900 45.72200 40.32600
C  49.55900 42.17500 40.57000
C  52.89000 45.61600 41.47300
C  49.44600 49.17200 41.60100
N  48.04900 44.18200 40.50200
C  46.82200 44.49200 40.15000
C  46.19900 43.30100 39.47700
C  46.91200 42.12900 40.14100
C  48.29600 42.87400 40.40900
C  46.23500 41.42500 41.31100
C  46.23800 43.36500 37.83800
C  44.88600 43.24300 37.16900
H  44.68800 44.26200 36.02100
N  51.00900 44.09000 41.07000
C  50.86300 42.72100 40.81200
C  52.11900 42.06700 40.79000
C  53.06500 43.05200 41.08600
C  52.33100 44.37600 41.17800
C  52.24700 40.62100 40.49200
C  54.53100 42.74500 41.12700
O  54.95600 41.61800 40.82800
C  55.51500 43.78100 41.52100
N  50.99600 47.22300 41.49600
C  52.32400 46.90600 41.64600
C  53.17400 48.15500 41.71400
C  52.06500 49.30800 41.81500
C  50.75000 48.59500 41.62800
C  54.17000 48.05400 42.87800
C  52.27300 50.52900 40.90000
C  52.13900 51.93500 41.56500
N  48.09800 47.13900 41.37700
C  48.19900 48.56900 41.51000
C  46.87900 49.15900 41.40500
C  46.09400 48.04800 40.89800
C  46.82500 46.84900 40.97500
C  46.65700 50.68000 41.45500
C  44.75500 47.69200 40.39300
O  43.75900 48.40700 40.13200
C  44.78300 46.17500 40.02200
C  43.71200 45.61600 40.84400
O  43.61700 45.52000 42.06000
O  42.68000 45.32000 39.93400
C  41.38200 45.16800 40.52300
H  49.38200 41.10800 40.42100
H  53.98000 45.60800 41.41900
H  49.50800 50.24700 41.78400
H  45.19600 43.36800 39.89800
H  47.13600 41.30700 39.46200
H  45.19000 41.71800 41.21600
H  46.62300 41.70100 42.29100
H  46.16400 40.35400 41.11800
H  46.78600 42.50400 37.45500
H  46.80200 44.24700 37.53500
H  44.13500 43.54000 37.90000
H  44.60400 42.23900 36.85200
H  52.73500 40.60200 39.51800
H  51.31500 40.06100 40.42500
H  52.92800 40.05800 41.13200
H  55.15200 44.20800 42.45600
H  55.64900 44.57900 40.79100
H  56.51000 43.33800 41.56400
H  53.74700 48.32900 40.80300
H  52.09000 49.72200 42.82300
H  54.02100 47.07700 43.33800
H  54.24200 48.92900 43.52300
H  55.11500 48.22500 42.36200
H  51.53200 50.60400 40.10500
H  53.23700 50.43100 40.40100
H  53.14000 52.12800 41.95000
H  51.49200 51.85600 42.43900
H  51.86100 52.72500 40.86800
H  46.54800 51.08900 42.45900
H  45.67500 50.72100 40.98500
H  47.45600 51.13900 40.87300
H  44.77200 46.07100 38.93700
H  41.31000 44.27800 41.14900
H  40.65300 45.04200 39.72200
H  41.18100 46.03600 41.15000
Mg 17.27000 52.56500 25.73500
C  19.01700 50.99400 28.42700
C  14.88600 53.44200 27.81700
C  15.37900 53.29500 23.00700
C  19.58200 50.88100 23.45100
N  17.05900 52.29900 27.90300
C  17.95700 51.80900 28.79700
C  17.40600 51.95700 30.22700
C  15.93300 52.51400 29.96800
C  16.00300 52.86900 28.52300
C  14.73800 51.59000 30.43200
C  18.30200 52.81300 31.05500
C  18.01200 52.89800 32.57800
H  16.92900 52.01000 33.29700
N  15.44500 53.50500 25.49100
C  14.60000 53.76700 26.48100
C  13.37500 54.46300 25.97900
C  13.55400 54.40000 24.50300
C  14.85700 53.74000 24.26300
C  12.22400 54.92500 26.83100
C  12.63500 54.88700 23.43900
O  12.88900 54.90300 22.27000
C  11.28100 55.46700 23.83100
N  17.52500 52.12300 23.56100
C  16.55000 52.59800 22.67800
C  16.95200 52.36400 21.22500
C  18.36200 51.80400 21.40200
C  18.52600 51.62100 22.93200
C  16.05400 51.51300 20.31100
C  19.45400 52.66400 20.86600
C  20.64900 52.03800 20.03000
N  18.99100 51.15100 25.86100
C  19.80600 50.57000 24.85600
C  20.85100 49.80300 25.52600
C  20.59600 49.92500 26.91500
C  19.41800 50.71900 27.06500
C  22.04700 49.13700 24.90700
C  21.04100 49.55000 28.26100
O  22.05900 48.98900 28.63200
C  19.92800 50.11200 29.20700
C  19.16300 49.00600 29.78400
O  18.15300 48.43900 29.37800
O  19.56700 48.83700 31.08500
C  18.69900 48.01900 31.94200
H  14.04700 53.65600 28.48300
H  14.77500 53.50200 22.12100
H  20.29800 50.38900 22.78900
H  17.43900 50.96900 30.68500
H  15.84500 53.42200 30.56500
H  14.12700 51.31200 29.57300
H  14.12400 52.18600 31.10700
H  15.12600 50.67400 30.87900
H  17.99500 53.81200 30.74700
H  19.37900 52.64300 31.04900
H  17.94400 53.94900 32.85700
H  18.96300 52.52100 32.95500
H  12.51800 54.79900 27.87400
H  11.33200 54.31800 26.68200
H  11.91800 55.96900 26.75600
H  11.40400 56.43400 24.31800
H  10.65400 54.77900 24.39900
H  10.67000 55.69300 22.95700
H  17.03200 53.26800 20.62100
H  18.40300 50.79000 21.00300
H  15.62500 50.65500 20.82700
H  16.65000 51.17200 19.46400
H  15.21100 52.08500 19.92200
H  19.83300 53.33400 21.63800
H  18.94600 53.24400 20.09600
H  21.47300 52.64500 20.40400
H  20.51600 52.30800 18.98300
H  20.67800 50.95800 20.17600
H  22.94600 49.75300 24.91900
H  21.89600 48.67100 23.93300
H  22.24800 48.30500 25.58200
H  20.34500 50.66000 30.05200
H  18.71100 48.41600 32.95700
H  19.17300 47.03800 31.98000
H  17.67900 47.90800 31.57500

