158

Mg 40.82000 41.08800 27.45500
C  39.92400 43.51100 29.87800
C  41.47800 38.86500 29.96700
C  41.85200 38.99000 25.04200
C  40.27800 43.51300 25.04900
N  40.90400 41.31500 29.77200
C  40.35500 42.31700 30.50300
C  40.34100 42.01200 32.03300
C  40.76200 40.50700 32.00300
C  40.99600 40.10700 30.49600
C  41.87200 39.96200 32.95700
C  39.02400 42.31500 32.79600
C  38.50200 41.43600 33.88900
H  37.79600 42.09900 35.11700
N  41.46200 39.14400 27.47700
C  41.63900 38.35600 28.63100
C  41.92800 37.02400 28.22800
C  41.91300 37.00500 26.79700
C  41.76400 38.41300 26.35000
C  42.22600 35.87900 29.18500
C  41.99000 35.84700 25.87900
O  41.80300 35.97100 24.66000
C  42.00000 34.45100 26.41800
N  41.20600 41.33800 25.39900
C  41.51400 40.29000 24.64100
C  41.32100 40.60100 23.13300
C  40.70700 42.03200 23.10900
C  40.76200 42.35900 24.61000
C  42.74500 40.50800 22.41100
C  39.28500 42.04100 22.45900
C  38.12500 41.48400 23.26400
N  40.28700 43.08600 27.45800
C  40.09900 43.92200 26.37500
C  39.59000 45.23300 26.80200
C  39.42600 45.08900 28.15200
C  39.92000 43.80200 28.54000
C  39.31200 46.50000 26.05800
C  39.03300 45.74300 29.41200
O  38.66300 46.88300 29.57500
C  39.31900 44.78900 30.47300
C  40.19900 45.47300 31.50300
O  41.32400 45.78300 31.30800
O  39.57300 45.60700 32.72800
C  40.46000 46.04500 33.86100
H  41.75800 38.09900 30.69300
H  42.15800 38.33200 24.22500
H  40.05200 44.27600 24.30100
H  41.19000 42.62700 32.33000
H  39.80400 40.05100 32.25200
H  42.70700 39.59300 32.36200
H  41.52000 39.15400 33.59800
H  42.30000 40.73900 33.59100
H  38.24200 42.63800 32.10900
H  39.38000 43.19600 33.33000
H  39.36100 40.84800 34.21400
H  37.73500 40.69500 33.66700
H  41.34800 35.24000 29.09200
H  42.27300 36.14200 30.24200
H  43.06700 35.22100 28.96700
H  41.24000 34.49700 27.19700
H  42.96900 34.18100 26.83700
H  41.76300 33.78300 25.58900
H  40.62400 39.87200 22.71900
H  41.38400 42.75800 22.66000
H  43.27400 39.73300 22.96500
H  43.25300 41.45300 22.21500
H  42.46000 40.16500 21.41700
H  39.30600 41.51800 21.50300
H  39.04800 43.08700 22.26600
H  38.53400 40.76500 23.97400
H  37.43900 41.00400 22.56600
H  37.61200 42.24700 23.85000
H  38.69900 46.22700 25.19900
H  40.24100 47.03600 25.86300
H  38.80300 47.13100 26.78600
H  38.37500 44.53400 30.95600
H  41.51800 45.81300 33.73500
H  40.07800 45.42500 34.67300
H  40.40000 47.10800 34.09200
Mg 0.16500 43.17500 25.81200
C  2.65300 43.01300 28.23600
C  -2.02300 42.12900 27.99500
C  -2.05500 42.97900 23.25100
C  2.68900 43.38200 23.41100
N  0.34600 42.72500 27.88500
C  1.37400 42.90400 28.72200
C  1.00900 42.88200 30.14400
C  -0.41100 42.19300 30.08400
C  -0.74600 42.31300 28.60100
C  -0.46200 40.67700 30.46900
C  0.96500 44.28500 30.84500
C  0.91900 44.26900 32.42200
H  0.83400 42.91500 33.06200
N  -1.78000 42.69400 25.67500
C  -2.50600 42.28900 26.68400
C  -3.89300 41.98600 26.24300
C  -3.99400 42.36400 24.88200
C  -2.54900 42.67800 24.53200
C  -4.98600 41.48700 27.13200
C  -5.14000 42.25600 23.91000
O  -5.01600 42.48500 22.67500
C  -6.60200 41.86000 24.35800
N  0.35000 43.32100 23.60900
C  -0.74600 43.14900 22.79900
C  -0.44300 43.61400 21.37000
C  1.08300 43.67200 21.37900
C  1.44500 43.54500 22.87100
C  -1.06700 42.69400 20.25500
C  1.56500 45.02000 20.75000
C  1.60200 46.20100 21.72100
N  2.29400 43.14600 25.81900
C  3.14600 43.26600 24.77400
C  4.50400 43.21300 25.24900
C  4.41200 43.03900 26.64900
C  3.04400 43.06600 26.89500
C  5.76300 43.22200 24.38200
C  5.16600 42.87200 27.90700
O  6.36400 42.75900 28.17200
C  3.99300 42.88700 28.97400
C  4.08300 41.60400 29.74700
O  3.48800 40.55700 29.64000
O  5.05900 41.97900 30.67000
C  5.00300 41.12100 31.78600
H  -2.80500 41.73800 28.64900
H  -2.76700 43.06000 22.42700
H  3.46800 43.52400 22.65900
H  1.77000 42.20300 30.52900
H  -1.08900 42.80100 30.68200
H  0.38300 40.33800 31.06700
H  -0.53300 40.02000 29.60300
H  -1.40200 40.50000 30.99200
H  0.10600 44.79000 30.40300
H  1.83400 44.84400 30.49600
H  0.12900 44.88800 32.84900
H  1.87600 44.73700 32.65100
H  -5.76100 42.22600 27.33700
H  -4.65000 40.94800 28.01800
H  -5.56500 40.79000 26.52600
H  -6.94400 42.48900 25.18000
H  -6.47700 40.80700 24.61300
H  -7.28700 41.91500 23.51300
H  -0.86300 44.60900 21.22600
H  1.40500 42.71800 20.96100
H  -1.46000 41.73500 20.59400
H  -0.17200 42.40000 19.70500
H  -1.80400 43.13800 19.58600
H  0.93200 45.38000 19.93900
H  2.60700 44.96700 20.43300
H  2.65600 46.32200 21.97100
H  1.03000 45.94000 22.61100
H  1.15800 47.06200 21.22000
H  5.48300 43.30000 23.33100
H  6.31900 42.30800 24.59000
H  6.40200 44.05300 24.67900
H  4.27800 43.75600 29.56700
H  5.15900 40.08800 31.47500
H  3.97400 41.15300 32.14300
H  5.47800 41.48900 32.69600

