158

Mg 17.22800 -0.01600 28.24400
C  16.00600 1.73200 30.97700
C  18.99000 -2.02400 30.34600
C  18.27200 -1.76100 25.55500
C  14.94700 1.92500 26.13300
N  17.50200 -0.00200 30.40400
C  16.86400 0.70900 31.33700
C  17.11700 0.17200 32.78500
C  18.22700 -0.85900 32.52800
C  18.24400 -1.01300 30.99700
C  19.56100 -0.45400 33.27300
C  15.83300 -0.38100 33.54300
C  15.29500 0.37800 34.76900
H  16.36000 0.88100 35.73500
N  18.60500 -1.60000 28.00600
C  19.16400 -2.33500 28.99000
C  19.97000 -3.42300 28.38500
C  19.75800 -3.30600 26.99200
C  18.84300 -2.19300 26.76600
C  20.71700 -4.41100 29.23200
C  20.28000 -4.22900 25.82800
O  20.01200 -4.03700 24.63900
C  21.13700 -5.37000 26.09900
N  16.64400 0.12900 26.09800
C  17.28000 -0.78100 25.21600
C  16.84500 -0.42300 23.79600
C  15.55300 0.56600 24.01100
C  15.70600 0.91600 25.48000
C  18.08900 0.25400 23.02200
C  14.21300 -0.08400 23.56300
C  13.49500 0.66800 22.32100
N  15.88800 1.61100 28.46300
C  15.02200 2.30700 27.51700
C  14.33700 3.32300 28.25000
C  14.68900 3.11000 29.61900
C  15.67800 2.11100 29.62900
C  13.43500 4.31600 27.63100
C  14.34700 3.51400 30.97000
O  13.48200 4.25300 31.35500
C  15.25600 2.66700 31.90100
C  16.16500 3.62200 32.59300
O  17.17200 4.14900 32.10300
O  15.76900 3.81000 33.90900
C  16.43600 4.96700 34.62100
H  19.62900 -2.70500 30.91200
H  18.50700 -2.29900 24.63500
H  14.30600 2.58000 25.53900
H  17.49800 1.05100 33.30400
H  17.94700 -1.85400 32.87300
H  19.46600 0.15200 34.17400
H  20.21600 0.04300 32.55700
H  20.07400 -1.33800 33.65300
H  15.95100 -1.39900 33.91500
H  15.00200 -0.32700 32.84000
H  14.71100 -0.33100 35.35500
H  14.70200 1.26500 34.54700
H  20.45700 -4.33400 30.28800
H  21.79800 -4.38400 29.09100
H  20.31100 -5.35200 28.86100
H  20.53700 -6.10200 26.64000
H  21.97100 -5.04000 26.71800
H  21.41700 -5.78800 25.13200
H  16.59700 -1.27900 23.16800
H  15.70300 1.44900 23.39000
H  18.18600 -0.23800 22.05400
H  19.00000 0.03300 23.57800
H  17.90200 1.30500 22.80000
H  13.45200 -0.02000 24.34000
H  14.21400 -1.12800 23.25100
H  12.61200 1.18900 22.68900
H  13.12600 -0.10100 21.64200
H  14.27400 1.23400 21.81000
H  12.54700 3.78600 27.28900
H  13.94200 4.78900 26.79000
H  13.10400 4.98100 28.42900
H  14.66000 2.19800 32.68400
H  16.64700 5.81600 33.97100
H  17.21100 4.41900 35.15600
H  15.71400 5.29200 35.37000
Mg 48.34800 24.42900 27.98100
C  48.99100 26.81900 30.36300
C  47.40800 22.24800 30.57500
C  47.36800 22.29500 25.63900
C  49.16900 26.81900 25.46800
N  48.38200 24.53800 30.29700
C  48.51700 25.70000 31.02200
C  48.32900 25.43100 32.51000
C  47.75800 23.92600 32.53400
C  47.85800 23.54600 31.03600
C  48.46000 22.97700 33.45200
C  47.58700 26.51300 33.26300
C  47.94900 26.75700 34.76700
H  46.95700 26.71300 35.94700
N  47.54600 22.49200 28.05900
C  47.24000 21.77800 29.23100
C  46.73900 20.48000 28.70600
C  46.66200 20.51600 27.26200
C  47.20200 21.74700 26.93300
C  46.31500 19.45500 29.71200
C  46.38800 19.39000 26.34700
O  46.63900 19.47300 25.13100
C  45.42700 18.32500 26.75900
N  48.57500 24.44800 25.74400
C  48.00900 23.43300 25.06000
C  47.97800 23.72100 23.57900
C  48.27300 25.27700 23.59000
C  48.67700 25.56800 25.00200
C  49.00000 22.82800 22.79900
C  47.07400 26.14300 23.08500
C  45.69000 25.80300 23.68300
N  49.10500 26.26500 27.87100
C  49.38700 27.15600 26.80200
C  49.90400 28.43500 27.28500
C  49.76500 28.33200 28.67500
C  49.21700 27.02800 28.96000
C  50.42100 29.63200 26.57400
C  50.01800 29.04400 29.88500
O  50.51600 30.10400 30.09900
C  49.52400 28.07200 31.08400
C  50.59900 27.84500 32.08900
O  51.27800 26.84300 32.06600
O  50.58700 28.87000 32.98200
C  51.43900 28.63700 34.11400
H  47.04100 21.76400 31.48300
H  47.23300 21.51000 24.89200
H  49.27400 27.60500 24.71700
H  49.33500 25.47700 32.92600
H  46.73800 24.16900 32.83200
H  48.81200 23.51200 34.33500
H  49.23600 22.42500 32.92200
H  47.75700 22.25200 33.86200
H  46.55400 26.18600 33.37900
H  47.51400 27.45200 32.71500
H  48.47700 27.69900 34.91200
H  48.67100 25.96300 34.95400
H  45.24100 19.32400 29.84600
H  46.58400 19.68400 30.74400
H  46.81400 18.53500 29.40900
H  44.49000 18.58200 27.25300
H  45.85200 17.62700 27.48100
H  45.20700 17.77000 25.84700
H  47.00500 23.48700 23.14700
H  49.18600 25.55900 23.06600
H  48.62200 22.28900 21.93100
H  49.41700 22.07200 23.46400
H  49.73700 23.50100 22.36000
H  46.87200 25.85100 22.05400
H  47.26900 27.21200 23.17400
H  45.09000 25.41800 22.85900
H  45.15700 26.71600 23.94700
H  45.61300 25.06400 24.48000
H  51.47800 29.71400 26.82700
H  49.88400 30.50200 26.95200
H  50.39100 29.38600 25.51200
H  48.78000 28.71900 31.54900
H  50.73700 28.11700 34.76600
H  51.73800 29.60100 34.52700
H  52.33800 28.08600 33.83600

