158

Mg 40.88700 8.83600 29.37600
C  42.59500 10.18800 32.18600
C  38.51300 7.72600 31.54900
C  39.27200 7.81200 26.64200
C  43.48700 10.06400 27.39500
N  40.59600 8.97100 31.62200
C  41.34600 9.66700 32.55000
C  40.70700 9.58200 33.90200
C  39.44100 8.67300 33.68400
C  39.51300 8.43900 32.21900
C  39.37900 7.45200 34.59500
C  40.36400 10.99500 34.49600
C  39.87800 10.97300 35.95900
H  40.69600 11.78000 37.05900
N  39.17800 7.80500 29.13700
C  38.33200 7.45000 30.16200
C  37.05600 6.87100 29.48500
C  37.14100 7.01600 28.06300
C  38.55800 7.52600 27.90600
C  36.14500 6.00100 30.26800
C  36.13300 6.68300 27.01800
O  36.39100 6.76400 25.81600
C  34.78800 6.30800 27.46300
N  41.41900 8.62100 27.36100
C  40.54000 8.22900 26.42000
C  41.12100 8.43200 25.00600
C  42.22200 9.46100 25.26800
C  42.43200 9.37500 26.72800
C  41.64400 7.13200 24.39200
C  41.71600 10.84600 24.90000
C  42.10600 11.36400 23.53900
N  42.75600 9.69200 29.70300
C  43.64500 10.20500 28.76500
C  44.81700 10.75800 29.43000
C  44.49900 10.66900 30.79700
C  43.17300 10.14300 30.89200
C  46.07000 11.32700 28.91500
C  44.88500 11.11000 32.12000
O  45.91500 11.64800 32.51700
C  43.63200 10.84800 33.03100
C  44.14600 9.94800 34.08300
O  44.83400 8.96000 33.92000
O  43.78100 10.41900 35.31300
C  44.21500 9.70200 36.47300
H  37.70300 7.47500 32.23800
H  38.69700 7.50700 25.76600
H  44.13900 10.67000 26.76200
H  41.43400 9.14200 34.58400
H  38.48000 9.16000 33.85100
H  38.40600 7.45400 35.08500
H  40.12600 7.38900 35.38600
H  39.41200 6.66600 33.84100
H  39.61300 11.33200 33.78100
H  41.35800 11.42000 34.35500
H  40.02500 9.92300 36.21000
H  38.83600 11.29000 36.01200
H  36.44100 6.09100 31.31400
H  36.12200 4.95400 29.96700
H  35.13000 6.38900 30.36100
H  34.79200 5.34100 27.96600
H  34.11600 6.30800 26.60400
H  34.47700 7.06400 28.18500
H  40.25100 8.74800 24.43000
H  43.17100 9.23900 24.78000
H  42.71600 6.94700 24.45400
H  41.36200 6.95300 23.35400
H  41.17800 6.29000 24.90500
H  42.00600 11.53700 25.69200
H  40.63500 10.92800 25.01600
H  41.17200 11.56900 23.01600
H  42.59800 10.48100 23.12900
H  42.76800 12.22500 23.63000
H  46.81900 11.18700 29.69500
H  45.97000 12.36700 28.60500
H  46.49200 10.69900 28.13100
H  43.23800 11.78900 33.41500
H  45.25100 10.01700 36.59600
H  44.16800 8.63100 36.27700
H  43.56800 10.15200 37.22600
Mg 47.05500 25.12900 28.53100
C  48.07500 27.41600 31.05200
C  46.19200 22.88900 30.94000
C  46.50700 22.95000 26.09700
C  48.56600 27.39100 26.20900
N  47.12900 25.12400 30.81900
C  47.49800 26.15800 31.62200
C  47.28200 25.74500 33.08700
C  47.09700 24.21800 32.98300
C  46.70500 24.05100 31.47100
C  48.27700 23.28700 33.28900
C  46.14300 26.55700 33.81400
C  46.60200 27.02500 35.22300
H  45.54700 27.41500 36.24100
N  46.41000 23.11400 28.55500
C  46.04100 22.40200 29.62400
C  45.52600 21.11600 29.16300
C  45.68700 21.07300 27.70800
C  46.24100 22.42100 27.36300
C  45.03000 20.06300 30.07500
C  45.39600 19.94800 26.76400
O  45.46900 20.09400 25.60400
C  44.99500 18.53800 27.16800
N  47.32300 25.20600 26.46100
C  46.91700 24.13700 25.62200
C  47.03500 24.55100 24.16100
C  47.95600 25.84200 24.21400
C  47.97300 26.21000 25.70500
C  47.59200 23.37200 23.29500
C  47.47600 27.07200 23.38400
C  47.66400 26.99300 21.81000
N  48.14700 27.00700 28.55800
C  48.68800 27.78000 27.55100
C  49.26000 28.97000 28.12600
C  49.01400 28.87900 29.44200
C  48.38100 27.64500 29.69700
C  49.95700 30.02400 27.34400
C  49.20700 29.59600 30.73500
O  49.74800 30.66400 30.97300
C  48.55900 28.63700 31.78100
C  49.51000 28.21500 32.81100
O  50.35500 27.32200 32.65000
O  49.37900 28.93700 33.96600
C  50.15900 28.42700 35.02800
H  46.07100 22.07100 31.65300
H  46.10800 22.33000 25.29100
H  49.02600 28.09200 25.50900
H  48.19800 25.90600 33.65600
H  46.27900 23.85000 33.60100
H  48.09100 22.76300 34.22600
H  49.18300 23.84600 33.52100
H  48.58000 22.57600 32.52100
H  45.24500 25.99400 34.06900
H  45.79700 27.35200 33.15300
H  47.17000 27.93200 35.01500
H  47.22900 26.25600 35.67400
H  45.78700 19.28000 30.11300
H  44.10900 19.76300 29.57600
H  44.76200 20.27700 31.11000
H  45.65900 17.99300 27.83900
H  44.84000 17.86500 26.32500
H  44.00800 18.77100 27.56900
H  46.03200 24.79500 23.81100
H  48.96300 25.57500 23.89400
H  47.96600 22.57300 23.93500
H  48.36000 23.62900 22.56500
H  46.76200 22.96600 22.71700
H  47.95200 28.00400 23.69100
H  46.40600 27.18700 23.56300
H  48.22700 27.78300 21.31200
H  46.64800 26.83800 21.44700
H  48.27500 26.13100 21.54400
H  50.35800 29.75900 26.36600
H  50.81100 30.23800 27.98700
H  49.37600 30.94700 27.35400
H  47.68200 29.08300 32.25100
H  51.16300 28.84100 34.93700
H  50.34800 27.35300 35.04900
H  49.67500 28.67500 35.97300

