158

Mg 17.20100 -2.25900 27.47900
C  16.54900 -0.00500 30.19100
C  19.13500 -4.09600 29.54400
C  18.51800 -3.77100 24.71700
C  15.70700 0.19900 25.36400
N  17.83600 -2.00700 29.58000
C  17.37200 -1.12000 30.58800
C  17.97400 -1.38000 31.98700
C  18.94900 -2.60200 31.64000
C  18.66200 -2.91200 30.16500
C  20.53700 -2.47600 31.88600
C  16.93100 -1.65400 33.07500
C  17.38200 -1.29500 34.47500
H  18.90200 -1.44700 34.81900
N  18.51200 -3.84200 27.16900
C  19.17500 -4.53800 28.16400
C  19.98900 -5.53900 27.57500
C  19.72600 -5.53000 26.16300
C  18.86400 -4.37700 25.96200
C  20.82100 -6.48100 28.43400
C  20.08400 -6.48700 25.06500
O  19.94700 -6.26500 23.85600
C  20.84500 -7.68100 25.37900
N  16.99200 -1.92100 25.44200
C  17.68700 -2.63600 24.46700
C  17.48100 -2.02300 23.01000
C  16.38900 -0.94800 23.32800
C  16.25700 -0.92500 24.79400
C  18.79000 -1.53600 22.28500
C  15.05300 -1.19700 22.67100
C  14.42800 0.02300 21.99800
N  16.28000 -0.34400 27.64200
C  15.64600 0.51700 26.71900
C  15.04100 1.65200 27.38900
C  15.30600 1.48700 28.73200
C  16.11500 0.28200 28.86100
C  14.03100 2.60700 26.70100
C  15.06600 2.02200 30.01200
O  14.31800 2.95900 30.35600
C  15.86500 1.04500 31.02500
C  16.75600 1.83800 31.93900
O  17.90400 2.17500 31.67600
O  16.09300 2.07600 33.14700
C  16.79700 2.96900 34.08900
H  19.72400 -4.70900 30.22900
H  19.13800 -4.11700 23.88700
H  15.16900 0.88000 24.70100
H  18.55100 -0.49400 32.25300
H  18.64200 -3.39500 32.32200
H  21.05600 -3.39700 32.15000
H  20.72300 -1.69600 32.62500
H  20.90100 -2.18500 30.90000
H  16.76000 -2.73000 33.03900
H  15.95700 -1.21400 32.86400
H  16.90600 -2.06900 35.07800
H  16.97000 -0.36500 34.86700
H  21.27900 -5.89300 29.23000
H  21.63100 -7.00900 27.93100
H  20.25800 -7.18300 29.05000
H  20.24300 -8.24600 26.09100
H  21.76700 -7.28400 25.80300
H  21.16900 -8.39300 24.62000
H  17.04500 -2.80300 22.38500
H  16.69400 0.04600 23.00100
H  18.57800 -0.56600 21.83500
H  18.98900 -2.25000 21.48500
H  19.67300 -1.43100 22.91500
H  14.31800 -1.50600 23.41400
H  15.00300 -1.99400 21.93000
H  13.72300 -0.32400 21.24200
H  15.18900 0.62800 21.50400
H  13.91800 0.65500 22.72500
H  14.36300 2.97000 25.72900
H  14.10000 3.47300 27.36000
H  13.03700 2.17300 26.58800
H  15.10400 0.60200 31.66800
H  17.70000 2.58700 34.56400
H  16.07700 3.17200 34.88200
H  16.96700 3.88600 33.52400
Mg 9.05600 47.02000 25.04100
C  6.99600 47.07100 27.90000
C  11.62400 48.28000 26.92700
C  10.87000 47.42500 22.25500
C  6.04900 47.02000 23.01400
N  9.26500 47.62000 27.18300
C  8.34800 47.40900 28.15600
C  8.95700 47.80200 29.51300
C  10.18500 48.62000 29.07500
C  10.43600 48.09100 27.67300
C  9.89300 50.13800 29.06100
C  9.25800 46.53200 30.37300
C  9.59500 46.76100 31.83000
H  9.00200 45.69400 32.78400
N  11.08800 47.48200 24.70900
C  11.97700 47.96000 25.60900
C  13.27900 48.02000 24.94400
C  13.13000 47.59300 23.55900
C  11.63600 47.47300 23.42200
C  14.63000 48.40600 25.65400
C  14.14200 47.42500 22.54400
O  13.85600 47.16400 21.38900
C  15.63900 47.69500 22.76600
N  8.48600 47.23100 22.92900
C  9.48700 47.44000 22.04700
C  8.88800 47.68100 20.68100
C  7.36200 47.35900 20.88000
C  7.25400 47.21200 22.38600
C  9.06500 49.18900 20.29500
C  6.76800 46.15400 20.20500
C  5.66700 46.42900 19.19700
N  6.93800 46.98300 25.35400
C  5.87300 46.95500 24.46600
C  4.65100 46.73200 25.27100
C  4.98500 46.77000 26.63600
C  6.42700 46.83400 26.64400
C  3.25000 46.87600 24.68400
C  4.51200 46.75800 28.06200
O  3.40100 46.95600 28.56500
C  5.90000 46.94600 28.89300
C  5.97900 45.69700 29.70000
O  6.33600 44.58300 29.26000
O  5.34700 45.91300 30.91600
C  5.27900 44.75000 31.74700
H  12.34800 48.74000 27.60300
H  11.43600 47.56600 21.33300
H  5.10400 47.21700 22.50300
H  8.23900 48.41400 30.06000
H  11.08200 48.35600 29.63500
H  10.13000 50.67700 29.97800
H  8.84200 50.35800 28.87300
H  10.57300 50.61500 28.35500
H  10.20600 46.21800 29.93800
H  8.47900 45.80600 30.13500
H  9.33600 47.73600 32.24300
H  10.67400 46.65800 31.93900
H  14.39800 48.50900 26.71400
H  14.79900 49.42900 25.31700
H  15.41800 47.68800 25.42800
H  15.93900 48.53700 23.38900
H  16.10300 47.84300 21.79000
H  15.87700 46.74100 23.23800
H  9.39500 47.09200 19.91600
H  6.71600 48.21600 20.69000
H  9.37200 49.65600 21.23100
H  8.23100 49.78100 19.91900
H  9.91900 49.29100 19.62600
H  6.25000 45.50000 20.90600
H  7.55500 45.64100 19.65200
H  5.44600 47.47900 19.00700
H  4.76200 45.91000 19.51200
H  6.02300 46.17000 18.20000
H  2.74800 47.82200 24.89000
H  2.66400 46.13900 25.23300
H  3.22700 46.55500 23.64300
H  5.68800 47.81900 29.51100
H  6.20400 44.18100 31.84800
H  4.46700 44.13700 31.35600
H  4.95900 45.00900 32.75600

