158

Mg 25.30700 1.67000 30.66000
C  27.58500 1.73200 33.40800
C  22.68800 2.09500 32.86400
C  23.18100 1.45700 28.11000
C  27.91300 0.79900 28.60800
N  25.17600 2.04600 32.84800
C  26.23500 1.94600 33.77100
C  25.71900 2.24800 35.17700
C  24.11900 2.23000 35.02500
C  23.96100 2.03700 33.51900
C  23.45900 1.15800 35.87500
C  26.44800 3.54700 35.68500
C  27.51100 3.49300 36.76600
H  27.37900 4.30800 38.07500
N  23.22300 1.86000 30.49300
C  22.35200 2.04900 31.52600
C  21.04300 2.19300 30.99800
C  21.16200 2.06800 29.57900
C  22.56700 1.80600 29.27200
C  19.81900 2.63100 31.74900
C  20.14600 2.03100 28.51600
O  20.41800 1.99000 27.34800
C  18.67700 1.99800 28.92100
N  25.45200 0.80100 28.74300
C  24.42400 0.98100 27.86200
C  24.87000 0.77000 26.35700
C  26.44500 0.63700 26.55900
C  26.63500 0.65000 28.09400
C  24.22700 -0.35700 25.50700
C  27.12900 1.59200 25.58900
C  27.46600 3.04900 26.03500
N  27.37600 1.35800 30.79800
C  28.34200 0.97500 29.93900
C  29.63800 0.99500 30.53500
C  29.39500 1.19300 31.92100
C  27.99000 1.44000 32.09100
C  30.91100 0.68000 29.86800
C  30.06900 1.36700 33.23500
O  31.23700 1.20800 33.65000
C  28.90600 1.62400 34.24900
C  28.82200 0.44000 35.17900
O  28.18800 -0.61400 35.06600
O  29.67600 0.67600 36.20600
C  29.71500 -0.38400 37.30700
H  21.92200 2.24600 33.62700
H  22.60400 1.62300 27.19700
H  28.74700 0.67100 27.91500
H  25.97300 1.47900 35.90600
H  23.73300 3.19900 35.34400
H  22.64600 1.67400 36.38700
H  24.12200 0.70400 36.61200
H  23.03400 0.42100 35.19300
H  25.63200 4.18700 36.02100
H  26.76700 4.04100 34.76800
H  28.46900 3.76300 36.32100
H  27.64000 2.48600 37.16300
H  19.12100 1.79400 31.75800
H  19.42700 3.48400 31.19500
H  20.01500 2.75400 32.81500
H  18.53000 1.24100 29.69100
H  18.08500 1.76600 28.03600
H  18.33100 2.87500 29.46700
H  24.69700 1.72500 25.86200
H  26.86300 -0.36200 26.43500
H  24.74900 -1.31400 25.52400
H  24.15600 0.16600 24.55300
H  23.26100 -0.59100 25.95400
H  26.39100 1.71200 24.79500
H  28.05000 1.18200 25.17500
H  27.23500 3.68500 25.18100
H  28.53500 3.02500 26.24500
H  26.86600 3.28300 26.91400
H  30.79800 1.04800 28.84900
H  31.06200 -0.39900 29.89400
H  31.69600 1.19900 30.41800
H  29.23500 2.48200 34.83500
H  29.31700 0.06700 38.21600
H  30.77100 -0.54800 37.52200
H  29.34800 -1.40800 37.24600
Mg -4.36100 25.09800 25.49000
C  -3.15100 26.43500 28.48600
C  -6.52000 23.16700 27.36500
C  -5.18600 23.20800 22.72700
C  -2.06800 26.88700 23.73300
N  -4.67700 24.68900 27.67300
C  -4.17700 25.51000 28.66000
C  -4.85300 25.25900 29.98000
C  -5.66600 23.90700 29.70900
C  -5.60100 23.89000 28.15100
C  -4.92000 22.64400 30.25800
C  -5.86700 26.46300 30.40900
C  -5.94900 26.76800 31.88200
H  -5.22800 25.88600 32.90900
N  -5.66700 23.38600 25.10900
C  -6.54600 22.87300 26.00300
C  -7.41000 21.98800 25.30700
C  -6.91800 21.83100 23.96900
C  -5.86800 22.79500 23.88000
C  -8.56000 21.22800 26.11100
C  -7.40200 20.86800 22.86500
O  -6.92100 20.83800 21.75200
C  -8.44600 19.90600 23.09200
N  -3.72800 25.03800 23.59100
C  -4.24700 24.23500 22.63100
C  -3.68100 24.58400 21.27000
C  -2.77100 25.78700 21.58900
C  -2.85500 25.92100 23.08100
C  -2.96400 23.39300 20.58500
C  -3.22400 27.07000 20.91000
C  -2.73100 27.21300 19.41500
N  -2.90500 26.49700 25.98900
C  -2.00300 27.20600 25.08300
C  -1.11600 28.01400 25.91300
C  -1.51500 27.75800 27.23300
C  -2.66400 26.84200 27.21100
C  -0.04500 28.94700 25.40700
C  -1.25300 28.04900 28.67600
O  -0.40500 28.80700 29.16600
C  -2.28500 27.23000 29.52200
C  -1.53800 26.39900 30.54100
O  -1.28800 25.18400 30.39000
O  -1.26000 27.23100 31.56600
C  -0.58500 26.64000 32.77100
H  -7.18500 22.53300 27.95500
H  -5.50400 22.66400 21.83500
H  -1.50400 27.61200 23.14200
H  -4.06300 24.99700 30.68400
H  -6.67200 23.80500 30.11600
H  -4.08700 22.90500 30.91000
H  -4.57800 22.13600 29.35600
H  -5.65400 22.21100 30.93700
H  -6.86900 26.26700 30.02800
H  -5.57800 27.40100 29.93500
H  -6.97100 26.71800 32.25600
H  -5.63500 27.80700 31.98100
H  -7.98800 20.69300 26.86900
H  -9.26900 20.67400 25.49500
H  -9.18200 22.03300 26.50200
H  -8.87400 19.51200 22.17100
H  -9.18500 20.60200 23.48700
H  -8.27500 19.05200 23.74800
H  -4.46900 24.87300 20.57500
H  -1.73500 25.55600 21.34000
H  -3.20200 22.55900 21.24500
H  -1.87800 23.46500 20.64000
H  -3.21800 23.20000 19.54300
H  -2.85200 27.97100 21.39800
H  -4.29300 27.22800 20.76700
H  -3.52500 26.84000 18.76800
H  -1.79300 26.69200 19.22200
H  -2.59800 28.27200 19.19500
H  -0.60100 29.66600 24.80500
H  0.71700 28.38500 24.86700
H  0.52500 29.35300 26.24200
H  -2.88500 27.92000 30.11600
H  -0.36300 25.57900 32.65700
H  -1.29400 26.55700 33.59500
H  0.32100 27.17800 33.05100

