158

Mg -2.66200 16.88400 26.46700
C  -2.93000 14.86700 29.28800
C  -2.96600 19.65600 28.63200
C  -2.74600 19.00000 23.71900
C  -2.90500 14.20000 24.33300
N  -2.63200 17.21800 28.73900
C  -2.95700 16.22000 29.69300
C  -3.12000 16.81700 31.10000
C  -2.97900 18.37300 30.85200
C  -2.89300 18.44000 29.29700
C  -4.13700 19.27200 31.52700
C  -2.01200 16.17200 32.13600
C  -1.33600 17.09700 33.18200
H  -0.96400 16.46600 34.49900
N  -2.74500 19.04500 26.20000
C  -2.95500 20.02000 27.21400
C  -3.00200 21.31900 26.60900
C  -2.73500 21.11100 25.19000
C  -2.73400 19.66800 24.94000
C  -3.17900 22.62500 27.37800
C  -2.55400 22.15800 24.14400
O  -2.00300 22.05900 23.07700
C  -3.05900 23.49300 24.44100
N  -2.93000 16.61500 24.36800
C  -2.86900 17.62600 23.45700
C  -2.84500 17.13200 21.96300
C  -2.86300 15.55500 22.15100
C  -2.94200 15.38800 23.71600
C  -4.03200 17.73800 21.08100
C  -1.81800 14.74800 21.24300
C  -2.44600 13.90300 20.18700
N  -2.93300 14.93500 26.75100
C  -2.96800 13.97300 25.70600
C  -3.15500 12.71800 26.34300
C  -3.04600 13.00000 27.72700
C  -2.95400 14.38300 27.93000
C  -3.27600 11.41800 25.66600
C  -3.10400 12.37500 29.02200
O  -3.06900 11.21100 29.31800
C  -3.09700 13.59300 30.08700
C  -2.00100 13.36100 31.02900
O  -0.80500 13.58500 30.83100
O  -2.46500 12.77200 32.14700
C  -1.45500 12.19500 33.10300
H  -2.99500 20.53000 29.28700
H  -2.71700 19.60500 22.81000
H  -2.96900 13.40800 23.58400
H  -4.03100 16.47900 31.59300
H  -2.05000 18.79300 31.23800
H  -4.88400 18.69100 32.06900
H  -4.63400 19.73100 30.67100
H  -3.79600 20.05500 32.20300
H  -1.26100 15.86900 31.40600
H  -2.35700 15.28200 32.66300
H  -2.02000 17.93500 33.31500
H  -0.43500 17.50900 32.72700
H  -4.17900 23.02100 27.20000
H  -2.38700 23.35300 27.19700
H  -3.16300 22.49000 28.45900
H  -4.08700 23.55600 24.79700
H  -2.91000 24.01500 23.49500
H  -2.34600 23.96100 25.12000
H  -1.87600 17.29600 21.49200
H  -3.81800 15.24000 21.73000
H  -3.83800 17.93000 20.02500
H  -4.30600 18.66000 21.59200
H  -4.99300 17.22700 21.13800
H  -1.24400 14.13600 21.93900
H  -1.17300 15.44900 20.71200
H  -2.22200 12.93300 20.63000
H  -1.95600 14.14900 19.24400
H  -3.52100 14.05500 20.08900
H  -4.27600 11.21600 25.28400
H  -3.06500 10.60800 26.36400
H  -2.52000 11.34000 24.88400
H  -4.04300 13.59700 30.62900
H  -0.65800 12.87500 33.40300
H  -0.96400 11.31200 32.69200
H  -1.97400 11.75900 33.95600
Mg 47.40000 25.75500 29.18800
C  48.24100 28.04600 31.67500
C  46.12000 23.77000 31.67400
C  46.85300 23.48100 26.85500
C  49.06300 27.65300 26.78500
N  47.01800 26.09200 31.40100
C  47.45400 27.08400 32.21400
C  47.13300 26.92100 33.69900
C  46.81500 25.35900 33.67500
C  46.57900 25.07700 32.16100
C  47.67400 24.40300 34.52800
C  45.91600 27.77300 34.25000
C  46.21400 28.50400 35.47700
H  45.35300 28.19100 36.76300
N  46.49200 23.91600 29.22600
C  46.05900 23.32300 30.31100
C  45.47200 22.06700 29.91900
C  45.58000 21.96600 28.50800
C  46.33100 23.12900 28.12800
C  44.80700 21.16200 30.92700
C  45.08000 20.94200 27.53200
O  45.24900 20.95100 26.30200
C  44.34700 19.85800 28.13500
N  47.98100 25.54500 27.12800
C  47.63400 24.48700 26.43300
C  48.08700 24.53800 25.00100
C  48.41800 26.04400 24.85500
C  48.47800 26.45500 26.33000
C  49.21000 23.51500 24.63200
C  47.26100 26.82500 24.14700
C  47.72300 28.33800 23.88200
N  48.60200 27.45400 29.22000
C  49.24300 28.07500 28.20000
C  49.81800 29.29200 28.69900
C  49.47000 29.32200 30.06400
C  48.71000 28.16000 30.32600
C  50.56000 30.27300 27.89900
C  49.65600 30.01300 31.30700
O  50.20300 31.05700 31.45200
C  48.79700 29.25700 32.35400
C  49.61600 29.05600 33.58000
O  50.31800 28.07800 33.74800
O  49.47500 30.10300 34.46200
C  50.09400 29.93300 35.75300
H  45.95500 22.98100 32.41000
H  46.53000 22.89900 25.98900
H  49.37800 28.27600 25.94500
H  47.96700 27.02500 34.39300
H  45.84500 25.16700 34.13200
H  48.05400 23.63100 33.85800
H  47.04600 23.84800 35.22600
H  48.41200 24.89500 35.16200
H  45.06000 27.15600 34.52300
H  45.51600 28.47200 33.51500
H  46.07800 29.51400 35.09100
H  47.26400 28.38800 35.74700
H  43.89300 20.74600 30.50400
H  44.51400 21.49300 31.92300
H  45.36000 20.22600 31.01200
H  44.98200 19.55300 28.96700
H  44.19900 19.08000 27.38600
H  43.36500 20.20000 28.46300
H  47.30100 24.44100 24.25200
H  49.43200 26.20800 24.49000
H  49.22600 22.96900 25.57600
H  50.20200 23.94800 24.51000
H  48.98000 22.86900 23.78500
H  46.45200 26.88600 24.87600
H  46.89800 26.49000 23.17500
H  47.37700 28.86200 24.77300
H  47.15400 28.84800 23.10500
H  48.78100 28.31500 23.62100
H  51.43200 29.75400 27.50000
H  50.89800 31.03300 28.60300
H  49.95300 30.64000 27.07200
H  47.94700 29.91700 32.53100
H  51.16600 29.90000 35.55800
H  49.90000 28.99300 36.27000
H  50.02300 30.82500 36.37500

