158

Mg 17.60900 -1.32700 27.88900
C  16.53800 0.33600 30.74500
C  19.60700 -3.33700 29.82300
C  18.78500 -2.69800 25.11200
C  15.90500 0.98000 25.92700
N  18.10700 -1.34500 30.02900
C  17.44700 -0.67000 31.06000
C  17.88200 -1.15600 32.37700
C  19.08700 -2.01700 32.00900
C  18.90200 -2.37300 30.56500
C  20.50400 -1.33400 32.33300
C  16.79100 -1.88700 33.22400
C  16.66400 -1.34500 34.64000
H  17.98100 -1.24100 35.48200
N  18.87600 -2.86600 27.54400
C  19.56100 -3.63400 28.45600
C  20.18000 -4.78600 27.82400
C  19.94900 -4.67300 26.43000
C  19.15500 -3.37500 26.29400
C  20.99500 -5.80000 28.54500
C  20.30400 -5.53100 25.28600
O  20.08100 -5.30700 24.12700
C  20.93400 -6.94200 25.55700
N  17.36300 -0.89400 25.73900
C  18.01000 -1.54300 24.81000
C  17.81900 -1.03600 23.35200
C  16.87200 0.24700 23.64300
C  16.74000 0.15700 25.20200
C  19.13100 -0.63900 22.64900
C  15.51400 0.18200 22.89700
C  15.60600 0.54600 21.42400
N  16.42000 0.39600 28.21200
C  15.82400 1.26100 27.36100
C  15.15000 2.29700 28.13600
C  15.35700 1.98700 29.45700
C  16.18200 0.87200 29.45400
C  14.37700 3.49100 27.63900
C  15.05100 2.24100 30.76800
O  14.38700 3.15600 31.26500
C  15.83000 1.28000 31.68300
C  16.68600 2.10900 32.61400
O  17.81600 2.50400 32.35100
O  15.95800 2.50600 33.71000
C  16.35800 3.82100 34.20100
H  20.34100 -3.84800 30.45000
H  19.10600 -3.26100 24.23300
H  15.29100 1.67200 25.34800
H  18.21600 -0.35900 33.04200
H  19.12400 -3.00500 32.46900
H  21.15000 -1.06400 31.49800
H  21.12500 -2.06800 32.84700
H  20.48000 -0.40700 32.90600
H  16.97400 -2.95800 33.31600
H  15.81200 -1.87600 32.74600
H  15.97200 -1.97800 35.19600
H  16.24300 -0.34000 34.59400
H  20.72600 -6.80800 28.23000
H  20.80600 -5.74200 29.61700
H  22.08300 -5.75000 28.48500
H  21.74300 -6.61400 26.20900
H  21.25400 -7.33700 24.59300
H  20.22400 -7.62100 26.03100
H  17.16700 -1.67500 22.75600
H  17.19900 1.26500 23.43100
H  19.88700 -0.22200 23.31500
H  18.91700 0.02800 21.81400
H  19.47100 -1.53800 22.13400
H  14.85500 0.94300 23.31500
H  15.10600 -0.82300 23.00800
H  15.28200 -0.28900 20.80200
H  16.58800 0.87700 21.08700
H  14.92500 1.35300 21.15600
H  13.96000 3.96700 28.52600
H  13.52500 3.09900 27.08300
H  15.06100 4.06200 27.01100
H  15.03300 0.76200 32.21500
H  15.56700 4.25700 34.81200
H  16.46300 4.60200 33.44800
H  17.15500 3.70100 34.93400
Mg 41.88400 42.33000 26.41100
C  41.19000 44.56200 28.94100
C  42.70100 39.91100 28.85100
C  42.57700 40.12800 24.01600
C  41.29800 44.86100 24.04100
N  41.77500 42.21400 28.62600
C  41.46800 43.26200 29.40700
C  41.55800 42.78100 30.93600
C  42.28200 41.40300 30.89200
C  42.34900 41.19200 29.40600
C  43.60100 41.19600 31.60900
C  40.09500 42.72400 31.50000
C  39.95500 43.37300 32.86900
H  39.28700 42.58900 33.93700
N  42.56300 40.32500 26.43700
C  42.62900 39.53000 27.54800
C  43.10100 38.16800 27.04900
C  42.99500 38.17500 25.60900
C  42.69800 39.57500 25.29600
C  43.54900 37.06300 27.94900
C  42.99200 37.04900 24.59500
O  42.63100 37.22100 23.46300
C  43.28000 35.64800 25.02500
N  41.97400 42.46400 24.36200
C  42.24100 41.40700 23.61300
C  42.11800 41.79000 22.12500
C  41.44400 43.22400 22.14400
C  41.68300 43.58400 23.61100
C  43.53300 41.62700 21.56200
C  39.91100 43.25500 21.84400
C  39.02700 42.20400 22.47600
N  41.39400 44.29900 26.41500
C  41.09500 45.19100 25.39200
C  40.65400 46.42700 25.96200
C  40.66100 46.19100 27.38000
C  41.13600 44.91700 27.56300
C  40.29400 47.69200 25.19900
C  40.37800 46.81000 28.62300
O  39.95500 47.92900 28.96800
C  40.63700 45.73900 29.69700
C  41.62200 46.30400 30.69700
O  42.69900 46.89200 30.36400
O  41.27200 46.14800 31.99700
C  42.15300 46.86200 32.90600
H  42.80100 39.16700 29.64400
H  42.93600 39.49700 23.20100
H  40.93200 45.63600 23.36500
H  42.12500 43.52000 31.50300
H  41.62700 40.63900 31.31200
H  44.46100 41.12000 30.94400
H  43.51300 40.27000 32.17700
H  43.69800 42.06200 32.26400
H  39.67800 41.71700 31.53300
H  39.54300 43.31500 30.76900
H  39.50500 44.36400 32.81300
H  40.94600 43.52000 33.29900
H  42.91400 36.20600 27.72300
H  43.34700 37.33200 28.98500
H  44.56500 36.74700 27.71100
H  42.42600 35.15700 25.49200
H  44.22900 35.63900 25.56000
H  43.48100 34.87000 24.28900
H  41.46500 41.06300 21.64200
H  41.96900 43.97100 21.54800
H  43.50800 40.90000 20.75000
H  44.25600 41.27100 22.29600
H  43.93800 42.59200 21.25800
H  39.73900 43.07200 20.78400
H  39.49700 44.24800 22.02100
H  38.24200 42.83800 22.88700
H  39.48300 41.70100 23.33000
H  38.59900 41.53800 21.72700
H  39.54600 47.46600 24.44000
H  41.20700 47.81000 24.61500
H  40.04100 48.53900 25.83600
H  39.73700 45.55000 30.28100
H  42.24600 47.89000 32.55500
H  43.12800 46.37600 32.94000
H  41.70200 46.73700 33.89100

