158

Mg 41.24300 8.51800 29.38900
C  43.34000 9.36000 32.17600
C  39.18200 7.11500 31.60800
C  39.42200 7.61700 26.76800
C  43.89900 9.45900 27.19900
N  41.32500 8.20500 31.62600
C  42.16700 8.66800 32.52700
C  41.61100 8.51800 33.95500
C  40.56000 7.44000 33.77800
C  40.28900 7.57900 32.27100
C  41.00000 6.00500 34.06100
C  41.25000 9.90400 34.65700
C  40.79200 9.87100 36.18800
H  41.76700 10.40300 37.25300
N  39.54700 7.55100 29.25800
C  38.81700 7.01500 30.27700
C  37.53000 6.48900 29.73600
C  37.47300 6.81600 28.37700
C  38.84300 7.34700 28.06900
C  36.41800 5.78100 30.59200
C  36.34800 6.66000 27.30000
O  36.64100 6.79500 26.03700
C  34.92800 6.28400 27.64200
N  41.76400 8.27200 27.22300
C  40.72500 7.97700 26.41400
C  41.14300 8.33900 24.96200
C  42.57800 9.00800 25.10600
C  42.73600 8.92100 26.63700
C  41.21700 7.09500 24.14500
C  42.55500 10.50600 24.66900
C  43.70000 10.71500 23.57800
N  43.20600 9.18800 29.56500
C  44.16800 9.56200 28.60500
C  45.24500 10.19100 29.33700
C  44.96200 10.15100 30.65400
C  43.74300 9.50800 30.76600
C  46.49100 10.73300 28.65300
C  45.45900 10.45200 31.96600
O  46.49600 10.97900 32.26200
C  44.42600 9.99200 32.99800
C  45.05500 9.07800 33.96900
O  44.89600 7.88500 33.95600
O  45.78900 9.73800 34.90800
C  46.40900 8.84700 35.89900
H  38.46100 6.72600 32.33000
H  38.71700 7.56300 25.93600
H  44.62800 9.81900 26.46900
H  42.41600 8.10800 34.56600
H  39.66500 7.53800 34.39200
H  42.07600 5.85800 33.97400
H  40.48000 5.25800 33.46000
H  40.71500 5.69200 35.06500
H  40.49100 10.37000 34.02800
H  42.13700 10.53600 34.67300
H  40.47800 8.87600 36.50200
H  39.90600 10.49700 36.29700
H  36.69100 5.50400 31.61100
H  36.09100 4.88400 30.06700
H  35.53800 6.42300 30.63200
H  34.13500 6.60100 26.96400
H  34.73100 6.65000 28.65000
H  35.00600 5.19900 27.70200
H  40.36100 8.92600 24.48000
H  43.34900 8.36800 24.67700
H  41.15500 6.15300 24.69000
H  42.12000 7.06100 23.53500
H  40.43600 7.03500 23.38600
H  42.63600 11.03600 25.61800
H  41.58300 10.92500 24.40800
H  44.25300 9.80000 23.36400
H  44.37700 11.49000 23.93600
H  43.18500 11.01700 22.66600
H  46.19600 11.59600 28.05500
H  46.94000 10.00100 27.98200
H  47.17100 11.20100 29.36400
H  44.15500 10.96500 33.40800
H  46.92700 7.99900 35.45000
H  45.57100 8.59200 36.54700
H  47.17100 9.36800 36.47900
Mg 47.17800 24.67600 28.21000
C  48.39500 26.86700 30.60000
C  46.66100 22.38000 30.83100
C  46.04900 22.40400 25.91600
C  48.11800 26.76200 25.77600
N  47.48900 24.60000 30.48500
C  47.89200 25.69500 31.18900
C  47.64900 25.44700 32.66100
C  47.39400 23.92900 32.80900
C  47.23400 23.56600 31.28700
C  48.54200 23.14700 33.46800
C  46.57100 26.43900 33.13600
C  46.90500 27.19800 34.51300
H  45.87900 27.14900 35.59200
N  46.31100 22.75900 28.37800
C  46.30600 21.97100 29.54300
C  45.88300 20.69000 29.19300
C  45.58900 20.67000 27.75800
C  45.95200 22.00100 27.28100
C  45.65400 19.56300 30.19400
C  45.08800 19.56400 26.95300
O  44.79300 19.68100 25.80900
C  44.78100 18.18800 27.59700
N  47.31500 24.44900 26.10700
C  46.75800 23.48000 25.35000
C  46.98400 23.83900 23.84000
C  47.41100 25.32700 23.89300
C  47.63400 25.52400 25.37000
C  47.91500 22.93300 22.90000
C  46.45000 26.33700 23.17900
C  46.81100 26.90300 21.69800
N  48.01700 26.44000 28.20000
C  48.33800 27.22600 27.08900
C  48.95700 28.45200 27.51300
C  48.99600 28.31900 28.89900
C  48.42200 27.11700 29.22500
C  49.45500 29.56300 26.65200
C  49.39400 29.02100 30.12300
O  49.97600 30.03400 30.30300
C  48.77800 28.16000 31.26900
C  49.73900 28.07500 32.37900
O  50.77200 27.44000 32.36400
O  49.22400 28.80700 33.45800
C  49.97800 28.82500 34.70600
H  46.42800 21.66300 31.62200
H  45.53400 21.81800 25.15200
H  48.35800 27.45700 24.96800
H  48.65200 25.67200 33.02200
H  46.50000 23.68500 33.38400
H  49.47200 23.71100 33.54100
H  48.86800 22.36500 32.78300
H  48.20500 22.58700 34.34100
H  45.59600 26.00500 33.35900
H  46.27200 27.14200 32.35900
H  46.96800 28.24800 34.22900
H  47.87700 26.77600 34.77000
H  44.59700 19.29700 30.19100
H  46.02400 19.70700 31.20900
H  46.08900 18.69200 29.70400
H  45.76400 17.86900 27.94400
H  44.54400 17.51200 26.77600
H  43.92300 18.18700 28.26900
H  45.98200 23.80500 23.41100
H  48.35000 25.67900 23.46600
H  48.79400 23.45100 22.51700
H  47.32900 22.63700 22.02900
H  48.27800 22.14700 23.56100
H  46.31500 27.21900 23.80500
H  45.44200 25.92500 23.13100
H  47.67900 26.38900 21.28500
H  47.02400 27.96400 21.82700
H  45.99100 27.00600 20.98700
H  49.63900 29.18400 25.64600
H  50.30600 30.05400 27.12300
H  48.62700 30.26800 26.58500
H  47.84600 28.61700 31.60100
H  51.04900 28.66100 34.59000
H  49.62200 28.06000 35.39600
H  49.93900 29.86700 35.02400

