158

Mg 1.48500 -1.84400 43.42800
C  4.82400 -0.79700 43.18800
C  0.66700 0.83000 41.50200
C  -1.62500 -3.04600 43.24100
C  2.57500 -4.80800 44.93800
N  2.65800 -0.10100 42.59400
C  3.98500 0.14100 42.59100
C  4.29000 1.37500 41.67000
C  2.87200 2.05300 41.59200
C  1.99400 0.80900 41.92000
C  2.63100 3.15600 42.65600
C  5.03300 1.13800 40.33900
C  6.18500 2.11600 40.15700
H  6.19000 2.86400 38.87300
N  -0.27400 -1.09900 42.48900
C  -0.43100 0.01800 41.73200
C  -1.84400 0.29000 41.45100
C  -2.51800 -0.88300 42.00100
C  -1.49400 -1.74600 42.64300
C  -2.41800 1.49100 40.74200
C  -3.92400 -1.02200 41.93900
O  -4.70900 -0.19200 41.48400
C  -4.58200 -2.16000 42.48900
N  0.60600 -3.67400 43.96500
C  -0.72100 -3.90300 43.88600
C  -1.14100 -5.27900 44.54200
C  0.14300 -5.80000 45.14400
C  1.18900 -4.70400 44.68700
C  -2.28400 -5.01400 45.56600
C  0.65300 -7.26500 44.70300
C  0.49100 -8.41300 45.79300
N  3.28100 -2.72900 43.84800
C  3.60600 -3.92500 44.48000
C  5.06400 -4.01700 44.76000
C  5.57400 -2.86500 44.13900
C  4.42600 -2.08700 43.76800
C  5.85900 -5.17500 45.35000
C  6.78200 -2.20900 43.81600
O  7.96500 -2.56200 43.94500
C  6.35800 -0.80400 43.16600
C  7.02700 0.35700 43.83700
O  6.99200 0.50700 45.04300
O  7.79400 1.05900 42.92600
C  8.55300 2.17200 43.54400
H  0.28900 1.67100 40.91600
H  -2.64200 -3.44600 43.23100
H  2.85000 -5.65400 45.57200
H  4.87700 2.06200 42.28000
H  2.70900 2.46600 40.59700
H  3.55200 3.58800 43.04600
H  2.15900 2.80700 43.57500
H  2.01200 3.86900 42.11100
H  4.36600 1.23600 39.48300
H  5.38900 0.11100 40.41700
H  7.17700 1.66300 40.15800
H  6.28200 2.83900 40.96600
H  -2.80700 2.16700 41.50300
H  -3.28300 1.20800 40.14100
H  -1.68900 2.04000 40.14700
H  -5.63800 -2.05200 42.24400
H  -4.38500 -2.25500 43.55700
H  -4.25100 -3.01000 41.89000
H  -1.46900 -5.94900 43.74800
H  0.16700 -5.74300 46.23200
H  -2.19400 -3.98600 45.91800
H  -2.09000 -5.70100 46.38900
H  -3.24800 -5.27200 45.12700
H  1.71400 -7.23800 44.45600
H  0.19700 -7.61200 43.77600
H  -0.35700 -8.97200 45.39700
H  0.16100 -7.97800 46.73700
H  1.40600 -8.99800 45.87700
H  6.78300 -5.38700 44.81400
H  5.26400 -6.08000 45.23000
H  6.06100 -5.06800 46.41600
H  6.68200 -0.82100 42.12500
H  7.95900 3.08500 43.51300
H  9.37100 2.23300 42.82600
H  8.95400 2.13100 44.55700
Mg 55.31500 24.81800 44.49600
C  52.62800 26.69200 43.53000
C  54.04700 22.06900 42.93500
C  58.41700 23.44000 44.53100
C  56.84800 27.91700 45.64900
N  53.60300 24.50300 43.25500
C  52.59800 25.36100 43.03700
C  51.44200 24.73000 42.28700
C  51.75000 23.22200 42.45400
C  53.18700 23.22100 42.97300
C  50.68700 22.43600 43.33500
C  51.41600 25.10900 40.74200
C  49.98500 25.40700 40.21500
H  49.47100 24.54400 39.09100
N  56.14900 22.96700 43.97700
C  55.39200 21.91600 43.39400
C  56.25900 20.78700 43.32300
C  57.56600 21.13700 43.86000
C  57.39100 22.56600 44.22300
C  55.69600 19.44100 42.74000
C  58.74100 20.19100 44.00000
O  58.66100 19.00900 43.56400
C  60.06700 20.66200 44.61300
N  57.39000 25.59100 45.07100
C  58.45500 24.83100 44.80400
C  59.75900 25.54500 45.25400
C  59.24600 27.09000 45.24300
C  57.73200 26.85100 45.38000
C  60.44300 24.94700 46.48900
C  59.63500 27.87200 43.89800
C  60.40100 29.17400 44.09300
N  54.80500 26.87700 44.72500
C  55.44100 27.97200 45.28100
C  54.48100 29.07300 45.38300
C  53.34400 28.59700 44.75300
C  53.63400 27.26500 44.23000
C  54.70900 30.41600 46.08800
C  51.97700 28.91800 44.41700
O  51.35300 29.92200 44.68300
C  51.48100 27.77500 43.61500
C  51.03400 28.33300 42.32600
O  51.79900 28.90700 41.50300
O  49.68100 28.21700 42.13800
C  49.07200 28.89100 41.00700
H  53.54300 21.20000 42.50800
H  59.41800 23.00800 44.48000
H  57.34100 28.78400 46.09300
H  50.53900 24.99900 42.83400
H  51.69600 22.74400 41.47700
H  50.25500 21.62300 42.75100
H  49.93300 23.05400 43.82100
H  51.36200 22.06000 44.10400
H  51.89300 24.31800 40.16400
H  52.08300 25.96300 40.62900
H  49.90500 26.44400 39.88900
H  49.20000 25.25300 40.95600
H  54.66300 19.50800 42.39800
H  55.80000 18.80900 43.62300
H  56.28100 19.05300 41.90600
H  60.51400 21.44100 43.99500
H  60.74400 19.80800 44.59400
H  59.94300 21.00000 45.64200
H  60.57100 25.47200 44.53100
H  59.58100 27.56100 46.16800
H  61.34100 24.47600 46.09000
H  59.86900 24.10200 46.86900
H  60.89500 25.62200 47.21600
H  58.73000 28.18000 43.37400
H  60.18800 27.22900 43.21300
H  59.75100 30.01300 44.33900
H  60.88300 29.53600 43.18600
H  61.17200 29.00500 44.84500
H  53.72300 30.67900 46.47100
H  55.01700 31.07500 45.27600
H  55.59700 30.19400 46.68000
H  50.61800 27.38100 44.15200
H  49.78600 28.95000 40.18600
H  48.75500 29.91300 41.21700
H  48.25200 28.35500 40.53000

