158

Mg 1.63100 -1.84300 44.36900
C  5.06700 -1.41300 43.72700
C  0.92300 0.63700 41.99400
C  -1.60800 -2.75700 44.30800
C  2.50000 -4.91800 45.91900
N  2.88000 -0.57500 43.02700
C  4.24100 -0.54400 43.00300
C  4.73100 0.57900 42.00200
C  3.48600 1.39800 41.82000
C  2.33000 0.44400 42.33800
C  3.35700 2.81700 42.49900
C  5.43000 -0.12700 40.71800
C  6.53600 0.69700 40.00900
H  6.61000 0.73400 38.46200
N  -0.13700 -1.15000 43.28100
C  -0.24200 -0.09600 42.40100
C  -1.62000 0.16200 42.04900
C  -2.43500 -0.75700 42.84000
C  -1.44100 -1.59900 43.51900
C  -2.10300 1.13300 40.97900
C  -3.90100 -0.81300 42.83600
O  -4.58900 -0.02000 42.20900
C  -4.57500 -2.03600 43.48500
N  0.64500 -3.63100 45.09600
C  -0.72600 -3.62900 44.96700
C  -1.25700 -5.00700 45.55700
C  0.04100 -5.73300 46.04200
C  1.13600 -4.70700 45.71500
C  -2.32100 -4.93600 46.69900
C  0.22900 -7.19300 45.53200
C  0.84500 -8.13500 46.52900
N  3.42700 -2.83200 45.02800
C  3.65100 -4.05600 45.62500
C  5.05100 -4.25800 45.84300
C  5.66000 -3.21500 45.14200
C  4.60900 -2.36800 44.65000
C  5.68400 -5.42500 46.55800
C  6.98000 -2.67200 44.70000
O  8.12300 -3.00500 44.88600
C  6.66500 -1.44300 43.75400
C  7.35500 -0.26700 44.25300
O  8.25500 0.34300 43.77200
O  6.70800 0.18800 45.39200
C  7.12700 1.57700 45.73000
H  0.69100 1.47500 41.33400
H  -2.60200 -3.20200 44.38000
H  2.72400 -5.77200 46.56100
H  5.57000 1.02000 42.54100
H  3.45500 1.44200 40.73100
H  4.01400 3.05600 43.33500
H  2.41400 2.92000 43.03600
H  3.25800 3.57800 41.72500
H  4.61800 -0.11600 39.99100
H  5.49900 -1.19500 40.92500
H  7.46500 0.28800 40.40700
H  6.57400 1.74200 40.31600
H  -3.02800 0.84200 40.48000
H  -1.44100 1.22300 40.11800
H  -2.14800 2.14600 41.38000
H  -4.52900 -2.06100 44.57400
H  -4.27400 -2.97000 43.01000
H  -5.62600 -1.94100 43.21500
H  -1.76000 -5.59100 44.78700
H  -0.10400 -5.84200 47.11700
H  -2.40900 -5.85300 47.28000
H  -3.30300 -4.62600 46.34000
H  -1.85500 -4.13300 47.27100
H  0.85400 -7.18400 44.63900
H  -0.70800 -7.61700 45.17100
H  0.29600 -9.07700 46.50900
H  0.75800 -7.83800 47.57500
H  1.89900 -8.30000 46.30700
H  6.74100 -5.17400 46.65100
H  5.55600 -6.38300 46.05200
H  5.22100 -5.44500 47.54400
H  7.06500 -1.63400 42.75800
H  6.71200 1.88600 46.68900
H  6.75500 2.29100 44.99600
H  8.20200 1.75200 45.70000
Mg 30.56400 58.23800 40.60000
C  27.93700 56.07400 39.61800
C  32.76100 55.87400 39.32100
C  32.98400 60.58500 40.64800
C  28.21200 60.83400 40.69800
N  30.32900 56.14300 39.61700
C  29.23600 55.47300 39.30900
C  29.55700 54.13900 38.56500
C  31.04500 53.97200 38.96500
C  31.40100 55.39900 39.37300
C  31.31800 53.07000 40.24400
C  29.35000 54.29400 37.04800
C  28.25700 53.32200 36.46700
H  27.33200 53.92400 35.40700
N  32.64900 58.22300 40.02500
C  33.31800 57.18500 39.44900
C  34.65900 57.61700 39.21400
C  34.76400 58.99800 39.55200
C  33.38700 59.32900 40.10300
C  35.69500 56.79700 38.58300
C  36.01700 59.87200 39.34400
O  37.07000 59.31200 38.95400
C  36.07500 61.40700 39.52800
N  30.53200 60.50900 40.63600
C  31.68800 61.11400 40.88400
C  31.49700 62.55100 41.39800
C  29.93900 62.69400 41.28100
C  29.50800 61.24000 40.88200
C  32.15700 62.80200 42.80700
C  29.42500 63.81700 40.32200
C  28.76200 64.94800 41.13300
N  28.48400 58.44600 40.43800
C  27.66400 59.56100 40.47100
C  26.29900 59.18200 40.38400
C  26.28400 57.77400 40.05000
C  27.69700 57.39300 40.05000
C  25.19500 60.15400 40.42600
C  25.53800 56.61100 39.63900
O  24.33400 56.38400 39.45800
C  26.55100 55.39900 39.52800
C  26.28200 54.43600 40.59500
O  26.11500 54.74300 41.77000
O  26.11200 53.19800 40.09200
C  25.65900 52.15900 40.96400
H  33.40000 55.11900 38.85800
H  33.85900 61.16100 40.95800
H  27.41100 61.56100 40.84000
H  29.06600 53.25700 38.97600
H  31.67400 53.71400 38.11300
H  30.41100 53.14000 40.84500
H  32.21300 53.39300 40.77600
H  31.62500 52.04400 40.04500
H  30.21400 54.12000 36.40700
H  29.00500 55.31000 36.85600
H  27.60600 53.03500 37.29200
H  28.81300 52.54900 35.93800
H  36.72700 57.07700 38.79400
H  35.49200 56.84900 37.51300
H  35.63800 55.73600 38.82300
H  36.28900 61.63900 40.57200
H  35.05700 61.77700 39.40600
H  36.85400 61.98900 39.03600
H  32.15300 63.17900 40.79500
H  29.44200 62.84000 42.24000
H  32.73400 61.91100 43.05500
H  31.28900 62.94700 43.45100
H  32.70800 63.74000 42.74200
H  28.65500 63.46600 39.63500
H  30.27200 64.20400 39.75700
H  28.64100 65.79500 40.45800
H  29.35900 65.21000 42.00700
H  27.74600 64.65000 41.39200
H  25.12900 60.50700 41.45500
H  24.34700 59.51400 40.18500
H  25.22800 61.02200 39.76700
H  26.55200 54.84800 38.58700
H  25.49600 51.31700 40.29100
H  24.80200 52.58400 41.48600
H  26.43300 51.81900 41.65100

