158

Mg 36.13200 49.46700 24.76300
C  36.40500 47.58900 27.75700
C  34.69400 52.04900 26.59400
C  35.64100 50.96900 21.84000
C  37.20800 46.58700 23.06900
N  35.50400 49.64400 26.94800
C  35.81200 48.81800 27.99300
C  35.59600 49.61100 29.30800
C  34.84400 50.89800 28.92100
C  35.00600 50.90300 27.40700
C  33.40100 51.01200 29.40200
C  36.87200 49.81000 30.13200
C  36.84700 49.62100 31.64000
H  35.54600 49.56800 32.42000
N  35.40300 51.28100 24.31800
C  34.89200 52.23100 25.20800
C  34.45300 53.41600 24.38400
C  34.74100 53.11700 23.00200
C  35.28800 51.74800 23.04500
C  33.65400 54.60300 24.95000
C  34.32700 53.90000 21.68800
O  34.57600 53.44400 20.59400
C  33.64200 55.31900 21.80700
N  36.12000 48.76400 22.77000
C  36.00300 49.63800 21.77300
C  36.46400 49.08200 20.41100
C  37.08200 47.69900 20.80800
C  36.83800 47.70300 22.30700
C  35.49300 48.79200 19.32200
C  38.55300 47.38200 20.33700
C  39.67900 48.23600 20.94800
N  36.74200 47.50900 25.22900
C  37.12200 46.47600 24.44400
C  37.50600 45.39200 25.24300
C  37.23900 45.77600 26.54400
C  36.79400 47.09400 26.48800
C  38.20800 44.17800 24.75500
C  37.33900 45.32700 27.92300
O  37.72300 44.28800 28.38800
C  36.80800 46.57700 28.76700
C  35.71600 46.18900 29.73200
O  34.50600 46.14600 29.53900
O  36.23600 45.65500 30.82100
C  35.46600 45.06800 31.95200
H  34.22000 52.93200 27.02800
H  35.69900 51.48700 20.88100
H  37.74700 45.76600 22.59200
H  34.97800 49.03600 29.99900
H  35.38000 51.69000 29.44400
H  32.87200 50.77200 28.47900
H  33.22400 52.04000 29.71700
H  33.11300 50.28200 30.15800
H  37.28500 50.80100 29.94500
H  37.59100 49.11000 29.70500
H  37.50800 50.36400 32.08500
H  37.21800 48.60400 31.76300
H  33.27600 54.42400 25.95700
H  32.75200 54.64000 24.33900
H  34.16900 55.56300 24.97900
H  32.69600 55.20400 22.33600
H  33.40800 55.76900 20.84200
H  34.19400 56.08700 22.34900
H  37.20300 49.78200 20.02300
H  36.44400 46.89800 20.43600
H  34.85800 47.96300 19.63600
H  36.13900 48.61300 18.46200
H  34.94900 49.67500 18.98700
H  38.72600 47.30400 19.26400
H  38.73900 46.32800 20.54400
H  40.17400 48.84900 20.19500
H  40.50100 47.61900 21.30800
H  39.30100 48.86000 21.75800
H  37.70500 43.71000 23.90900
H  38.43700 43.52200 25.59500
H  39.10400 44.52000 24.23600
H  37.62000 47.00000 29.35800
H  34.88400 44.23900 31.54800
H  34.77400 45.83000 32.30900
H  35.94800 44.55200 32.78300
Mg 5.86700 53.82000 40.62300
C  5.45400 50.33800 40.61800
C  9.08500 53.31700 39.68500
C  6.01700 57.20200 40.14200
C  2.54100 54.17100 41.60500
N  6.98700 52.13000 40.10300
C  6.67600 50.77100 40.15700
C  7.77900 49.89200 39.70900
C  8.99400 50.78700 40.00200
C  8.31200 52.18400 39.84300
C  9.75200 50.62500 41.30000
C  7.70200 49.44200 38.25800
C  6.76100 50.22700 37.29400
H  7.48600 51.23500 36.42500
N  7.29100 55.11900 40.03900
C  8.58800 54.67600 39.71400
C  9.35900 55.89500 39.38800
C  8.51500 57.08000 39.53800
C  7.23600 56.49300 39.97300
C  10.74800 55.77500 38.85800
C  8.92000 58.58700 39.28000
O  10.07600 58.80300 38.87200
C  7.95000 59.74700 39.38300
N  4.46900 55.41600 40.58200
C  4.75900 56.74900 40.52600
C  3.55300 57.70800 40.80000
C  2.43600 56.65700 41.24000
C  3.18100 55.29400 41.15700
C  3.84000 58.69300 41.97700
C  1.21100 56.68800 40.19100
C  -0.14600 56.62800 40.89900
N  4.22100 52.56900 41.03400
C  2.93900 52.81800 41.52300
C  2.33200 51.59700 41.95900
C  3.24700 50.60000 41.56800
C  4.36100 51.26700 41.04000
C  0.95500 51.45900 42.47900
C  3.47500 49.17000 41.48800
O  2.73000 48.19600 41.72200
C  4.91000 48.96500 40.76000
C  4.67600 48.32800 39.42300
O  4.29300 48.83300 38.33500
O  5.27400 47.08700 39.48900
C  5.39700 46.23500 38.23500
H  10.12700 53.01000 39.57000
H  6.01800 58.28600 40.00500
H  1.59000 54.01900 42.12100
H  7.83900 49.05400 40.40500
H  9.73700 50.64300 39.21800
H  9.31600 49.86000 41.94300
H  9.57700 51.47400 41.96200
H  10.80000 50.33800 41.22100
H  7.36100 48.40700 38.23600
H  8.67100 49.45500 37.75900
H  6.03600 50.81600 37.85600
H  6.08400 49.55800 36.76400
H  11.30100 55.18200 39.58500
H  11.21900 56.74700 38.70500
H  10.71300 55.19900 37.93300
H  7.39900 59.85900 40.31600
H  7.25200 59.86800 38.55400
H  8.52500 60.67200 39.34100
H  3.47700 58.30000 39.88700
H  2.17600 56.69100 42.29800
H  3.86400 59.71900 41.60900
H  4.82200 58.49500 42.40600
H  3.18200 58.66300 42.84500
H  1.15100 55.84500 39.50300
H  1.20400 57.67500 39.72700
H  -0.17200 56.94400 41.94200
H  -0.59700 55.63600 40.87100
H  -0.91600 57.22900 40.41500
H  0.30700 51.89900 41.72000
H  0.78700 51.91400 43.45400
H  0.74100 50.39100 42.44300
H  5.50400 48.37100 41.45400
H  6.32700 45.69900 38.42800
H  5.50300 46.76700 37.29000
H  4.60100 45.50000 38.11800

