158

Mg 2.10200 -2.21700 43.89000
C  5.43800 -1.24900 43.34900
C  1.17300 0.66100 41.97200
C  -1.13600 -3.31300 43.66400
C  3.11300 -5.27300 44.91000
N  3.20500 -0.53900 42.63200
C  4.56300 -0.31700 42.74000
C  4.94100 0.96500 41.99900
C  3.57600 1.60300 42.00400
C  2.55600 0.50900 42.12700
C  3.38300 2.78600 42.94800
C  5.54500 0.58800 40.57200
C  6.37500 1.63800 39.84600
H  5.82200 2.23700 38.52800
N  0.32600 -1.37700 43.01600
C  0.12800 -0.17800 42.31900
C  -1.23800 -0.01400 41.94700
C  -1.94500 -1.03400 42.69900
C  -0.89300 -1.97200 43.18000
C  -1.87500 1.20000 41.23600
C  -3.49900 -1.22100 42.89600
O  -4.26700 -0.50400 42.25800
C  -4.07400 -2.14700 43.90300
N  1.20100 -4.11000 44.16600
C  -0.19000 -4.30300 44.10300
C  -0.55600 -5.74800 44.49100
C  0.78100 -6.26000 45.07300
C  1.80200 -5.17100 44.70000
C  -1.60500 -5.91300 45.60900
C  1.17400 -7.73700 44.71200
C  1.75500 -8.61900 45.85300
N  3.91100 -3.10800 44.23500
C  4.20700 -4.37500 44.66100
C  5.58800 -4.58700 44.80100
C  6.14900 -3.33600 44.29300
C  5.05200 -2.49700 44.00200
C  6.26400 -5.74700 45.45300
C  7.36300 -2.58400 43.95600
O  8.51400 -2.93600 43.94100
C  6.89300 -1.16400 43.50400
C  7.17200 -0.23200 44.62700
O  6.84200 -0.41300 45.81300
O  7.84900 0.87900 44.14700
C  8.16500 1.89500 45.17700
H  0.93800 1.64300 41.55600
H  -2.17300 -3.61000 43.49100
H  3.51200 -6.16800 45.39100
H  5.72000 1.52500 42.51600
H  3.39300 2.04000 41.02200
H  2.36200 2.64400 43.30300
H  3.58400 3.72200 42.42800
H  4.09200 2.90400 43.76700
H  4.64200 0.35900 40.00600
H  6.03800 -0.37600 40.69800
H  7.36600 1.20400 39.71300
H  6.51500 2.48200 40.52000
H  -1.15700 1.48600 40.46700
H  -1.96400 2.09000 41.86000
H  -2.80300 0.91700 40.74000
H  -4.30400 -3.14800 43.53900
H  -5.04400 -1.77300 44.23300
H  -3.39700 -2.22100 44.75300
H  -0.82500 -6.34400 43.61900
H  0.82800 -6.16300 46.15700
H  -2.31800 -5.12600 45.36500
H  -1.15100 -5.70300 46.57800
H  -2.07000 -6.89900 45.60100
H  1.89200 -7.63800 43.89800
H  0.25300 -8.28800 44.52300
H  1.01500 -9.37800 46.10600
H  1.98500 -7.98900 46.71200
H  2.67300 -9.08600 45.49600
H  6.37300 -6.50800 44.68000
H  5.72400 -6.14400 46.31300
H  7.26300 -5.39200 45.70900
H  7.42500 -0.73800 42.65400
H  7.56500 1.83700 46.08500
H  7.74000 2.79100 44.72500
H  9.24800 1.91800 45.29900
Mg 49.19600 45.79100 42.01500
C  45.83000 46.69600 41.62300
C  48.43400 42.66900 40.73200
C  52.44600 44.97900 42.13100
C  49.86600 49.07600 42.92900
N  47.36800 44.84000 41.20700
C  46.15300 45.40400 41.12500
C  45.09900 44.53400 40.41500
C  45.87400 43.13500 40.49100
C  47.31300 43.52100 40.82200
C  45.30900 41.96700 41.31600
C  44.61400 45.12000 39.10700
C  43.24000 44.66500 38.66900
H  43.28800 44.11300 37.21600
N  50.30800 44.01900 41.54500
C  49.80400 42.79000 41.07500
C  50.88200 41.80600 41.05600
C  52.08100 42.48200 41.46400
C  51.67700 43.86900 41.75700
C  50.71900 40.34500 40.54300
C  53.47300 41.84800 41.32900
O  53.61500 40.60800 41.00700
C  54.73500 42.56500 41.58400
N  50.99600 46.91700 42.34200
C  52.15500 46.31800 42.28500
C  53.24700 47.39100 42.56400
C  52.40000 48.68700 42.84400
C  50.99500 48.23100 42.65400
C  54.39700 47.06700 43.61300
C  52.77500 49.88600 41.93400
C  53.50000 51.00400 42.73900
N  48.11100 47.56800 42.34100
C  48.51600 48.79200 42.73500
C  47.36500 49.71100 42.62400
C  46.27300 48.89700 42.34900
C  46.76900 47.60600 42.08500
C  47.47400 51.19700 43.11000
C  44.87700 48.91600 42.27000
O  44.09600 49.86900 42.45300
C  44.52300 47.48600 41.61700
C  43.36200 46.89600 42.26000
O  43.44900 46.35400 43.35300
O  42.16700 47.10500 41.53000
C  41.08100 46.23200 42.12900
H  48.16800 41.66100 40.40600
H  53.51300 44.75900 42.20300
H  50.16000 50.10600 43.13900
H  44.21400 44.45100 41.04500
H  45.88800 42.72300 39.48200
H  45.96100 41.51500 42.06400
H  44.96000 41.25600 40.56800
H  44.45700 42.45500 41.79000
H  45.43700 44.87700 38.43400
H  44.55800 46.18000 39.35100
H  42.57600 45.52800 38.63200
H  42.85100 43.90600 39.34800
H  51.25200 40.31900 39.59300
H  49.67100 40.11000 40.35900
H  50.97700 39.71600 41.39600
H  54.69600 43.42900 40.92100
H  55.51200 41.84200 41.33700
H  54.82300 42.87700 42.62500
H  53.79000 47.48900 41.62400
H  52.33800 48.93800 43.90300
H  55.36200 47.04400 43.10500
H  54.15800 46.19500 44.22100
H  54.38800 47.83800 44.38300
H  52.00200 50.27400 41.27000
H  53.50900 49.52300 41.21500
H  54.13400 50.60400 43.53000
H  52.75100 51.64200 43.20900
H  54.18200 51.51800 42.06200
H  46.52500 51.28600 43.63900
H  47.67300 51.92300 42.32100
H  48.30700 51.18500 43.81400
H  44.27700 47.80800 40.60500
H  40.62700 46.78800 42.95000
H  41.59100 45.31900 42.43800
H  40.27700 45.87500 41.48500

