158

Mg 54.43500 24.16200 44.45500
C  51.62000 26.31200 43.70700
C  52.27200 21.66600 43.25900
C  57.13600 22.40900 44.44800
C  56.00200 26.99700 45.68100
N  52.27200 24.02000 43.43400
C  51.29500 25.03000 43.36500
C  49.99000 24.53400 42.74000
C  50.07500 23.00000 43.15000
C  51.60600 22.87300 43.25000
C  49.41200 22.67500 44.52600
C  49.82500 24.76500 41.23100
C  51.11100 24.61600 40.26400
H  50.83700 25.02000 38.78800
N  54.65800 22.33300 44.01800
C  53.68300 21.45000 43.51200
C  54.35100 20.16400 43.42300
C  55.69800 20.29700 43.88000
C  55.87900 21.73700 44.09000
C  53.77600 18.84000 42.90500
C  56.74800 19.22400 44.01700
O  56.40400 18.04900 43.70000
C  58.09500 19.44500 44.55100
N  56.47500 24.78900 44.73700
C  57.37100 23.76400 44.84100
C  58.64400 24.33000 45.50300
C  58.14200 25.68100 46.23900
C  56.78400 25.78800 45.54800
C  59.55400 23.28800 46.34000
C  59.05700 26.96700 46.05900
C  59.28500 27.52300 44.60100
N  54.07000 26.26900 44.49300
C  54.74000 27.21400 45.11100
C  54.01500 28.44500 45.30500
C  52.74500 28.17600 44.61200
C  52.83300 26.77800 44.29900
C  54.46700 29.75300 45.82000
C  51.38600 28.69000 44.31000
O  50.81400 29.77900 44.52100
C  50.67300 27.50200 43.63700
C  50.23200 28.08300 42.25500
O  50.90600 28.15100 41.22700
O  48.86300 28.28100 42.38100
C  48.09400 28.31600 41.12600
H  51.63900 20.77700 43.25600
H  58.08200 21.88100 44.30900
H  56.36600 27.76900 46.36200
H  49.20600 25.06300 43.28200
H  49.63200 22.29100 42.45000
H  48.60400 21.96400 44.35700
H  48.96500 23.54000 45.01600
H  50.19200 22.21100 45.13100
H  49.46600 25.78800 41.11800
H  49.23500 23.98200 40.75400
H  51.59100 23.64400 40.37400
H  51.87200 25.30200 40.63700
H  54.50800 18.63800 42.12300
H  52.83700 18.93400 42.35800
H  53.72200 18.00900 43.60800
H  57.93900 19.96100 45.49700
H  58.70300 20.01400 43.84700
H  58.60300 18.52200 44.83200
H  59.29000 24.63700 44.68000
H  58.15400 25.48300 47.31000
H  59.33500 22.23600 46.15700
H  59.59000 23.49700 47.40900
H  60.58800 23.53000 46.09200
H  60.05700 26.72000 46.41700
H  58.68000 27.74300 46.72600
H  60.09100 26.98300 44.10400
H  59.39700 28.60400 44.67800
H  58.41100 27.30700 43.98600
H  55.35400 29.81400 46.45100
H  53.56400 30.12200 46.30700
H  54.65100 30.44400 44.99700
H  49.81300 27.27900 44.26900
H  47.37000 27.50100 41.13300
H  48.72700 28.30200 40.24000
H  47.43400 29.18300 41.09600
Mg -6.13300 25.35300 25.05000
C  -4.59500 26.62800 28.05600
C  -7.91200 23.16100 27.08500
C  -7.52400 24.07400 22.24100
C  -4.13500 27.59700 23.23300
N  -6.24700 24.92000 27.32600
C  -5.62600 25.67100 28.29400
C  -6.08500 25.26200 29.64500
C  -6.95400 23.94400 29.27900
C  -6.94400 23.89000 27.79800
C  -6.40600 22.68400 29.92600
C  -6.88500 26.34600 30.44800
C  -6.72100 26.44300 31.94700
H  -6.02300 25.37300 32.76600
N  -7.54400 23.82900 24.73700
C  -8.12300 23.03400 25.71800
C  -8.95300 22.03400 25.05300
C  -8.90000 22.25200 23.65500
C  -7.95400 23.42600 23.46700
C  -9.75100 21.02000 25.92600
C  -9.69600 21.66700 22.54600
O  -9.57600 22.08300 21.36000
C  -10.52600 20.53200 22.76100
N  -5.77500 25.69600 23.03800
C  -6.56200 25.07000 22.07400
C  -6.17500 25.68000 20.66100
C  -5.17800 26.83800 20.97300
C  -4.94700 26.69800 22.50400
C  -5.42200 24.65600 19.75000
C  -5.75700 28.33500 20.71700
C  -4.94200 29.14100 19.69700
N  -4.70500 26.81100 25.47600
C  -3.92300 27.59000 24.62500
C  -3.07900 28.37500 25.36500
C  -3.38100 28.09900 26.69800
C  -4.30000 27.10000 26.74700
C  -2.01500 29.22600 24.74300
C  -3.01700 28.45400 28.09900
O  -2.23600 29.29900 28.51000
C  -3.82600 27.48000 29.00700
C  -2.78800 26.81100 29.80500
O  -1.91000 26.04100 29.43300
O  -2.93900 27.15600 31.10800
C  -1.96500 26.67700 32.07400
H  -8.36900 22.51200 27.83500
H  -7.93400 23.73100 21.28900
H  -3.59400 28.31700 22.61500
H  -5.22900 25.08200 30.29500
H  -7.98000 24.05400 29.63100
H  -5.41300 22.82700 30.35200
H  -6.35000 21.85600 29.21900
H  -7.16300 22.34300 30.63200
H  -7.95900 26.24600 30.28900
H  -6.59600 27.31800 30.04900
H  -7.69300 26.47200 32.44000
H  -6.20400 27.37500 32.17500
H  -9.56700 19.98900 25.62600
H  -10.82200 21.05700 25.72700
H  -9.72700 21.17100 27.00500
H  -11.22700 20.72000 23.57500
H  -9.90900 19.68900 23.07200
H  -11.19800 20.21600 21.96300
H  -7.00200 25.95100 20.00500
H  -4.19200 26.69800 20.53000
H  -6.09100 23.89300 19.35200
H  -4.77500 24.12000 20.44400
H  -4.80000 25.24500 19.07600
H  -5.99600 28.92900 21.59900
H  -6.70500 28.15500 20.21100
H  -5.57900 29.31200 18.82900
H  -4.07600 28.57600 19.35000
H  -4.66400 30.11700 20.09400
H  -1.39000 29.57600 25.56400
H  -2.46200 30.15000 24.37400
H  -1.34100 28.73500 24.04100
H  -4.45400 28.09700 29.65000
H  -1.50100 25.73200 31.79100
H  -2.53000 26.44500 32.97700
H  -1.14100 27.38000 32.19600

