158

Mg 40.74700 8.27300 29.02600
C  41.95900 9.77500 31.94300
C  38.55500 6.46200 31.09800
C  39.46900 6.64600 26.33100
C  43.26900 9.70300 27.18400
N  40.23700 8.28200 31.22300
C  40.84200 9.03800 32.17300
C  40.22200 8.76000 33.57800
C  39.27400 7.50300 33.31200
C  39.37700 7.34900 31.74500
C  39.60800 6.18000 33.90000
C  39.66400 10.07600 34.26700
C  39.76100 10.23400 35.82900
H  40.45200 11.38400 36.48500
N  39.17000 6.82100 28.73600
C  38.46100 6.22700 29.70900
C  37.47300 5.30800 29.12100
C  37.58800 5.47200 27.74200
C  38.74900 6.33400 27.50100
C  36.57800 4.31700 29.84900
C  36.75000 5.11800 26.58400
O  37.08500 5.31000 25.40400
C  35.44300 4.56500 26.84200
N  41.22500 8.10800 27.07700
C  40.62900 7.31900 26.11300
C  41.32600 7.50500 24.77600
C  42.33800 8.63600 25.07200
C  42.30300 8.82300 26.56700
C  42.09300 6.25500 24.20100
C  42.14900 9.97000 24.31100
C  41.17900 10.98100 24.91600
N  42.42300 9.33800 29.43500
C  43.33400 9.98000 28.56300
C  44.31000 10.74500 29.36700
C  43.84000 10.69200 30.70600
C  42.68700 9.85700 30.66200
C  45.43600 11.49900 28.76200
C  44.09200 11.06400 32.07700
O  44.97400 11.73600 32.61100
C  42.91800 10.45500 32.87900
C  43.35500 9.52100 33.94000
O  43.88600 8.41600 33.71600
O  43.10000 9.94700 35.20200
C  43.58800 8.96900 36.20800
H  37.90000 5.86300 31.73500
H  39.14800 6.08000 25.45400
H  44.07700 10.06700 26.54500
H  41.06400 8.40700 34.17300
H  38.25600 7.72200 33.63200
H  38.70700 5.87900 34.43500
H  40.41400 6.37500 34.60800
H  40.03800 5.45100 33.21400
H  38.59300 10.12300 34.06900
H  40.14100 10.96800 33.86100
H  40.24900 9.30400 36.11900
H  38.76000 10.14800 36.25200
H  36.74100 4.03900 30.89000
H  36.61700 3.37500 29.30200
H  35.54900 4.66400 29.75200
H  35.57900 3.60900 27.34900
H  34.74700 4.35200 26.03000
H  34.87100 5.17900 27.53700
H  40.59300 7.78500 24.01900
H  43.31400 8.21600 24.83000
H  41.74100 5.36400 24.72000
H  43.17400 6.30900 24.06700
H  41.68800 6.16600 23.19200
H  41.77000 9.78400 23.30600
H  43.17700 10.32800 24.25900
H  41.66900 11.77600 25.47800
H  40.57000 10.62800 25.74800
H  40.55200 11.40500 24.13200
H  45.63000 12.46900 29.22000
H  45.29000 11.81100 27.72800
H  46.31300 10.85700 28.84400
H  42.38100 11.27000 33.36500
H  44.65900 8.85300 36.04000
H  43.13000 8.00100 36.00300
H  43.26900 9.40900 37.15200
Mg -2.43000 33.93900 26.74700
C  -3.83100 32.22200 29.59700
C  -0.60100 35.72100 29.01000
C  -1.38100 35.73800 24.26800
C  -4.24500 31.99500 24.67300
N  -2.41200 34.12100 29.11000
C  -2.94300 33.26000 30.02500
C  -2.33500 33.46100 31.45400
C  -1.32700 34.59100 31.18900
C  -1.42200 34.75000 29.63500
C  -1.66800 35.85700 31.94400
C  -1.57800 32.22100 32.05000
C  -2.14600 31.66600 33.32600
H  -1.19600 31.67200 34.56800
N  -1.18000 35.51400 26.67400
C  -0.47600 36.08100 27.72100
C  0.34500 37.11600 27.16900
C  0.15300 37.17400 25.74400
C  -0.86200 36.15200 25.48800
C  1.20500 38.08000 28.06500
C  0.76000 38.04100 24.71700
O  0.36600 38.04600 23.58500
C  1.95500 38.95900 25.07300
N  -2.95900 34.01200 24.74600
C  -2.26200 34.75900 23.90700
C  -2.64100 34.42500 22.40900
C  -3.34000 33.00900 22.55900
C  -3.42100 32.95200 24.05800
C  -3.57300 35.48800 21.68400
C  -2.52200 31.78400 21.93900
C  -1.05100 31.62500 22.31600
N  -3.91500 32.57800 26.99500
C  -4.57100 31.79600 26.07200
C  -5.38300 30.73000 26.70500
C  -5.13600 30.87200 28.10400
C  -4.23200 32.00100 28.18700
C  -6.14400 29.64000 26.06300
C  -5.41800 30.34300 29.40400
O  -6.14300 29.40400 29.76400
C  -4.60300 31.19200 30.35400
C  -5.51000 31.76600 31.40800
O  -6.18300 32.72900 31.22200
O  -5.31000 31.15600 32.65400
C  -6.01100 31.65000 33.83700
H  0.13400 36.15500 29.69200
H  -0.86300 36.27200 23.46800
H  -4.64900 31.21900 24.01800
H  -3.16700 33.70200 32.11600
H  -0.28700 34.31500 31.35800
H  -2.16500 36.52100 31.23700
H  -0.81300 36.46400 32.24200
H  -2.34300 35.77100 32.79600
H  -0.53700 32.48100 32.24100
H  -1.55900 31.38800 31.34700
H  -2.46200 30.65400 33.07300
H  -3.03200 32.23200 33.61400
H  0.76700 39.01900 28.40100
H  2.17200 38.14400 27.56400
H  1.50300 37.51900 28.95100
H  2.79400 38.33000 25.36900
H  1.73500 39.59500 25.93100
H  2.35200 39.53500 24.23700
H  -1.74200 34.35600 21.79700
H  -4.36700 33.00700 22.19300
H  -3.98500 35.03300 20.78300
H  -2.98400 36.31400 21.28400
H  -4.34400 35.87800 22.34800
H  -2.53300 31.97400 20.86600
H  -3.08000 30.85700 22.06900
H  -0.51100 31.60800 21.36900
H  -0.73900 30.76200 22.90400
H  -0.73200 32.51700 22.85400
H  -5.97300 28.76800 26.69500
H  -5.69200 29.52200 25.07800
H  -7.18500 29.96200 26.04200
H  -3.82000 30.54900 30.75800
H  -6.58000 32.56100 33.65100
H  -5.22900 31.87400 34.56200
H  -6.61900 30.82700 34.21400

