158

Mg 47.00600 17.30800 28.95800
C  45.02800 16.99700 31.78500
C  49.34200 19.18300 30.90800
C  48.72900 18.21200 26.14200
C  44.51700 15.88000 27.02000
N  47.09600 18.10900 31.05300
C  46.26700 17.66600 32.03100
C  46.75300 18.19500 33.44300
C  47.98500 19.11300 33.08100
C  48.19100 18.80600 31.57900
C  47.92900 20.68900 33.38900
C  46.97800 16.98800 34.37900
C  46.78500 17.25200 35.88700
H  46.42300 18.67600 36.37900
N  48.85000 18.56900 28.58200
C  49.62000 19.17100 29.49700
C  50.63600 19.94900 28.78600
C  50.46300 19.68800 27.35900
C  49.33600 18.77800 27.29900
C  51.59400 20.84100 29.49800
C  51.24700 20.18100 26.13500
O  50.99100 19.87900 25.00500
C  52.22900 21.36000 26.33900
N  46.74500 17.05900 26.93900
C  47.62300 17.31800 25.98000
C  47.25300 16.75900 24.60200
C  46.02000 15.85200 24.96600
C  45.72800 16.26700 26.44300
C  46.98300 17.88600 23.57200
C  46.30300 14.25100 24.81300
C  45.64000 13.56900 23.64800
N  45.19300 16.39200 29.32900
C  44.24900 15.88400 28.47300
C  43.10500 15.47000 29.22900
C  43.38600 15.85500 30.53900
C  44.63000 16.45900 30.55900
C  41.90300 14.87500 28.71800
C  42.97300 15.84200 31.96000
O  41.93200 15.43500 32.49400
C  43.90400 16.79400 32.78200
C  43.09100 18.04800 33.05400
O  42.95400 18.96200 32.28500
O  42.65500 17.97600 34.33400
C  41.97500 19.22700 34.80000
H  50.14300 19.54600 31.55600
H  49.28200 18.48300 25.23900
H  43.78000 15.31300 26.44900
H  45.96800 18.80800 33.88500
H  48.82000 18.76700 33.69100
H  47.78700 21.20100 32.43800
H  48.87300 20.98200 33.85000
H  47.06900 21.00100 33.98100
H  47.96700 16.56200 34.20700
H  46.20300 16.24200 34.20200
H  47.76000 17.00000 36.30400
H  46.07100 16.61200 36.40600
H  51.26600 21.84300 29.22300
H  52.61300 20.76800 29.11800
H  51.59200 20.77900 30.58600
H  52.86700 21.02000 27.15600
H  51.69200 22.24600 26.67800
H  52.80100 21.50600 25.42300
H  48.11300 16.22100 24.20200
H  45.10000 16.02300 24.40800
H  47.00200 18.86300 24.05600
H  45.92600 17.88200 23.30700
H  47.70500 17.74300 22.76700
H  45.95600 13.68900 25.68000
H  47.36100 14.08800 24.60900
H  46.32200 13.36500 22.82200
H  44.71900 14.11600 23.44700
H  45.26800 12.60200 23.98800
H  41.57600 15.42600 27.83600
H  41.17600 14.93500 29.52800
H  41.96900 13.82400 28.43700
H  44.09700 16.04900 33.55500
H  41.19800 19.69900 34.19900
H  42.71800 20.00000 34.99400
H  41.52300 19.04200 35.77500
Mg -11.38100 37.69700 42.31700
C  -9.15700 35.05000 41.45000
C  -9.27700 39.92700 40.86400
C  -13.98000 39.99500 42.05700
C  -13.71300 35.14600 43.02500
N  -9.62500 37.43500 41.21000
C  -8.87000 36.29500 40.92800
C  -7.68000 36.53600 40.06600
C  -7.53000 38.09600 40.18400
C  -8.89300 38.55100 40.81600
C  -6.25000 38.52600 40.96500
C  -7.93900 36.08500 38.59900
C  -6.85600 35.17400 38.02400
H  -6.13300 35.68500 36.72500
N  -11.47500 39.86400 41.90100
C  -10.51900 40.54800 41.24400
C  -10.92700 41.90800 41.27800
C  -12.34200 41.87600 41.38500
C  -12.69800 40.55500 41.81500
C  -10.00700 43.02900 40.94500
C  -13.25700 43.02400 41.09600
O  -12.77000 44.14200 40.93200
C  -14.66000 42.93700 41.07300
N  -13.45600 37.60600 42.59600
C  -14.29600 38.72600 42.58700
C  -15.66600 38.33500 43.15600
C  -15.64700 36.80100 43.41600
C  -14.17600 36.48000 43.01000
C  -16.28400 39.14500 44.33300
C  -16.69600 35.95600 42.61200
C  -17.35200 34.82100 43.37400
N  -11.43600 35.50600 42.33300
C  -12.41800 34.68400 42.67400
C  -11.95100 33.34000 42.75900
C  -10.62500 33.40800 42.28400
C  -10.38900 34.76400 41.99600
C  -12.70100 32.16600 43.39600
C  -9.39100 32.69200 41.97100
O  -9.16300 31.49000 42.11300
C  -8.40900 33.72800 41.38900
C  -7.24300 33.77200 42.32600
O  -6.07500 33.80300 42.02700
O  -7.69800 33.90000 43.62500
C  -6.74200 34.09600 44.69800
H  -8.53800 40.65100 40.51600
H  -14.92600 40.53100 41.95700
H  -14.43900 34.36500 43.26100
H  -6.81200 36.02400 40.48100
H  -7.42600 38.56000 39.20300
H  -5.40300 37.87000 40.76000
H  -6.38300 38.55300 42.04600
H  -5.88600 39.50100 40.64200
H  -8.01700 36.98000 37.98200
H  -8.94000 35.65500 38.60200
H  -7.23400 34.23000 37.63100
H  -5.98200 35.05800 38.66500
H  -10.33100 43.61400 40.08400
H  -8.98300 42.70000 40.76800
H  -9.82200 43.76000 41.73200
H  -15.07300 43.89200 40.74900
H  -14.84400 42.80000 42.13800
H  -15.01000 42.06700 40.51700
H  -16.39200 38.55200 42.37200
H  -15.63400 36.65300 44.49600
H  -16.97200 38.50800 44.88900
H  -16.96500 39.88600 43.91600
H  -15.55400 39.57700 45.01700
H  -16.17700 35.58800 41.72700
H  -17.52800 36.60400 42.33500
H  -18.43800 34.90800 43.39200
H  -16.99700 34.86700 44.40400
H  -17.08000 33.87000 42.91600
H  -12.95300 31.37700 42.68700
H  -13.59700 32.54400 43.88700
H  -12.02800 31.63800 44.07200
H  -7.96900 33.45800 40.42900
H  -7.01200 34.89200 45.39300
H  -5.77400 34.40600 44.30500
H  -6.72000 33.12000 45.18200

