158

Mg 26.29400 51.15200 26.18600
C  24.18000 52.31600 28.73600
C  28.61000 50.50400 28.74900
C  28.78500 50.95300 23.88200
C  24.20200 52.66200 23.90200
N  26.33200 51.44700 28.45500
C  25.33100 51.80800 29.25900
C  25.57500 51.43200 30.75600
C  27.10500 51.20800 30.70100
C  27.39600 50.99000 29.17900
C  27.95800 52.31000 31.44800
C  24.76300 50.23700 31.23200
C  25.20600 49.54300 32.51000
H  24.41700 49.84800 33.82000
N  28.34100 50.56900 26.30200
C  29.12100 50.29300 27.41000
C  30.45500 49.98500 27.03000
C  30.46300 50.02400 25.59200
C  29.17500 50.54500 25.22600
C  31.52900 49.55800 27.95600
C  31.59000 49.62500 24.62600
O  31.51300 49.82600 23.37400
C  32.85300 48.98700 25.17900
N  26.46800 51.72100 24.19800
C  27.60000 51.42300 23.43500
C  27.19900 51.56100 21.94800
C  25.86100 52.40800 21.97100
C  25.47700 52.26100 23.44300
C  28.24800 52.28200 21.12500
C  24.83200 51.88400 20.97600
C  24.23900 52.99100 20.08200
N  24.45200 52.12100 26.19700
C  23.67400 52.56400 25.18900
C  22.39500 53.01700 25.72500
C  22.60500 52.98600 27.08800
C  23.87500 52.44700 27.35400
C  21.18100 53.51600 24.98900
C  21.97100 53.24400 28.36300
O  20.82900 53.65700 28.55500
C  22.92900 52.70800 29.44100
C  23.12300 53.68700 30.49200
O  23.85500 54.65800 30.49400
O  22.34300 53.27400 31.51900
C  22.43300 53.74900 32.90400
H  29.28100 50.36300 29.59900
H  29.38500 50.65000 23.02100
H  23.41000 52.98300 23.22200
H  25.26600 52.31300 31.31900
H  27.44400 50.26700 31.13300
H  28.34700 51.80400 32.33300
H  27.26600 53.12800 31.64800
H  28.71100 52.72500 30.77800
H  24.69200 49.57600 30.36800
H  23.71300 50.50600 31.35300
H  26.25500 49.75400 32.71500
H  25.14700 48.46900 32.33400
H  31.15100 49.52500 28.97700
H  32.51800 50.00200 27.84100
H  31.69300 48.49400 27.78600
H  33.54800 48.75800 24.37100
H  32.53300 47.99400 25.49400
H  33.27400 49.66200 25.92400
H  26.95700 50.58300 21.53100
H  26.01700 53.47700 21.82300
H  28.94200 52.87900 21.71700
H  27.66300 52.95300 20.49500
H  28.76600 51.45800 20.63500
H  23.95600 51.40700 21.41600
H  25.37200 51.19300 20.32800
H  23.17900 52.74000 20.03400
H  24.62700 52.93300 19.06500
H  24.45200 53.99700 20.44300
H  20.34100 53.09800 25.54400
H  21.18600 53.19300 23.94800
H  21.16500 54.60200 24.90100
H  22.49200 51.82800 29.91200
H  23.17100 53.22700 33.51200
H  21.48000 53.73900 33.43400
H  22.76700 54.78300 32.98000
Mg 9.20300 47.33600 27.13300
C  7.09500 46.82800 29.92000
C  11.80600 47.95000 29.08600
C  10.92100 48.22300 24.31000
C  6.27100 47.15000 25.15300
N  9.41300 47.35600 29.24900
C  8.45300 47.07800 30.25800
C  9.09600 47.27200 31.64000
C  10.62200 47.52300 31.30100
C  10.65000 47.72700 29.78200
C  11.25100 48.62800 32.07600
C  8.77400 46.16200 32.65800
C  9.84100 45.70400 33.62800
H  9.34100 45.01800 34.95200
N  11.15700 47.76700 26.75500
C  12.10300 48.02400 27.69400
C  13.47000 48.11700 27.10500
C  13.13900 48.16700 25.69100
C  11.67700 48.02600 25.47800
C  14.77900 48.10200 27.90800
C  14.13400 48.17500 24.53800
O  13.79900 47.81500 23.43500
C  15.63400 48.40700 24.87800
N  8.62000 47.89100 25.01200
C  9.51000 48.17600 24.09600
C  8.83300 48.47300 22.75200
C  7.34100 47.85000 22.94900
C  7.36700 47.65900 24.47700
C  8.82900 50.01800 22.51400
C  7.11200 46.52100 22.14900
C  6.37900 46.61900 20.77000
N  7.07500 47.17200 27.43000
C  6.09400 47.00800 26.51400
C  4.84600 46.64900 27.15500
C  5.17400 46.62300 28.49900
C  6.51200 46.95000 28.61200
C  3.45400 46.36700 26.49700
C  4.64200 46.43300 29.78100
O  3.49000 46.18400 30.26500
C  5.86400 46.49500 30.77100
C  5.96300 45.13400 31.31300
O  6.60800 44.17600 30.90000
O  5.28700 45.11200 32.53400
C  5.11700 43.80300 33.14500
H  12.66200 48.19000 29.72000
H  11.44700 48.53300 23.40500
H  5.47800 47.02300 24.41300
H  8.78400 48.21200 32.09600
H  11.16300 46.58500 31.42400
H  12.24700 48.29500 32.36800
H  10.68900 49.05800 32.90500
H  11.36200 49.48100 31.40600
H  8.60500 45.36300 31.93600
H  7.84800 46.28400 33.21900
H  10.39600 46.61400 33.85400
H  10.51200 45.01500 33.11700
H  15.64100 47.66000 27.40900
H  14.62600 47.85900 28.96000
H  15.00900 49.16600 27.96800
H  15.65800 49.12000 25.70300
H  16.20300 48.72800 24.00600
H  16.17500 47.53600 25.24700
H  9.40400 48.01000 21.94800
H  6.52500 48.53000 22.70600
H  7.84100 50.46600 22.61900
H  9.13600 50.18700 21.48200
H  9.54200 50.46300 23.20700
H  6.56700 45.81200 22.77300
H  8.10800 46.09100 22.04500
H  7.05300 46.11400 20.07800
H  6.24700 47.61800 20.35500
H  5.40900 46.12800 20.68600
H  3.02700 45.56300 27.09600
H  3.50000 46.15500 25.42900
H  2.78700 47.22400 26.59300
H  5.66500 47.28500 31.49500
H  4.96300 44.03600 34.19900
H  5.98900 43.15300 33.08100
H  4.25100 43.16900 32.95500

