158

Mg 47.26400 25.01400 27.63100
C  48.12000 27.26200 30.13700
C  46.55600 22.72400 30.06500
C  46.24300 23.02500 25.21700
C  48.57000 27.28800 25.25200
N  47.46900 25.00900 29.84800
C  47.61500 26.09500 30.62400
C  47.41500 25.70700 32.10200
C  47.29600 24.17200 32.05700
C  47.12600 23.88800 30.52600
C  48.35300 23.30300 32.72400
C  46.22100 26.43900 32.73300
C  45.60900 25.93400 34.12100
H  45.38400 26.97800 35.20300
N  46.55400 23.01600 27.64800
C  46.30200 22.25200 28.74400
C  45.76000 21.00100 28.27400
C  45.56100 21.16900 26.85900
C  46.19800 22.43500 26.49400
C  45.35200 19.84300 29.20600
C  44.79900 20.22900 25.94200
O  44.58400 20.51700 24.76000
C  44.18900 18.97600 26.37700
N  47.49400 25.08000 25.55100
C  46.88700 24.16700 24.80300
C  46.91100 24.56800 23.33200
C  47.67900 25.94400 23.28600
C  47.97600 26.11300 24.77800
C  47.47700 23.44800 22.41600
C  46.81700 27.06900 22.76300
C  47.54400 28.12600 21.96200
N  48.23700 26.85200 27.63300
C  48.73100 27.64900 26.60300
C  49.36400 28.86800 27.22800
C  49.11200 28.71600 28.57000
C  48.50100 27.47500 28.82700
C  50.10300 29.96800 26.54500
C  49.18000 29.42700 29.87000
O  49.61900 30.53000 30.13900
C  48.41800 28.53900 30.93800
C  49.24300 28.37300 32.21400
O  50.31300 27.87000 32.40000
O  48.54000 29.05900 33.19500
C  49.10300 29.26400 34.49400
H  46.33500 21.95500 30.80700
H  45.84500 22.45600 24.37400
H  48.88800 27.87900 24.39000
H  48.31200 26.03100 32.63000
H  46.34900 23.91200 32.52900
H  49.07000 23.96500 33.21000
H  48.73100 22.59300 31.98800
H  47.83700 22.72500 33.49000
H  45.49000 26.47100 31.92400
H  46.37200 27.50400 32.90600
H  46.25600 25.20000 34.60200
H  44.60000 25.53400 34.01600
H  44.32100 19.52900 29.04300
H  45.32200 20.06200 30.27300
H  46.06200 19.05600 28.95300
H  43.97800 18.25800 25.58400
H  43.24700 19.00000 26.92400
H  44.93400 18.48300 27.00200
H  45.85000 24.64100 23.09300
H  48.57500 25.84000 22.67500
H  48.29000 22.97400 22.96600
H  47.95300 24.02800 21.62500
H  46.72300 22.72100 22.11300
H  46.35800 27.50900 23.64900
H  46.06800 26.64400 22.09500
H  48.54600 27.81100 21.66900
H  47.68200 28.97100 22.63700
H  47.10600 28.38600 20.99800
H  49.55100 30.29200 25.66200
H  51.10400 29.71500 26.19700
H  50.06100 30.83200 27.20900
H  47.53500 29.04900 31.32300
H  49.17000 30.32800 34.72000
H  50.13500 28.91600 34.47300
H  48.65000 28.79000 35.36500
Mg 26.83900 50.77300 25.52900
C  25.12400 52.11300 28.15200
C  29.57300 50.13300 27.75600
C  28.73600 49.79300 22.91700
C  24.48100 52.20900 23.35700
N  27.26300 51.06300 27.77400
C  26.29900 51.52800 28.59500
C  26.63100 51.13200 30.01300
C  28.21600 50.80800 29.89900
C  28.41000 50.61400 28.39200
C  29.16700 51.87400 30.46500
C  25.76800 50.13000 30.77500
C  25.35900 50.42900 32.23100
H  26.47800 50.59100 33.24100
N  28.77800 49.88900 25.36500
C  29.70400 49.71500 26.39100
C  30.83900 48.97600 25.89300
C  30.57700 48.76700 24.48400
C  29.35800 49.47300 24.16000
C  32.00700 48.36300 26.66100
C  31.43600 47.89700 23.51800
O  31.08600 47.61500 22.43000
C  32.72700 47.33600 23.99100
N  26.64800 51.04000 23.40700
C  27.61000 50.51500 22.55700
C  27.23800 50.81000 21.05100
C  25.76400 51.37100 21.17700
C  25.61400 51.59600 22.74100
C  28.22700 51.60600 20.16500
C  24.53200 50.47300 20.69400
C  24.22800 49.19700 21.50300
N  25.11300 51.78100 25.64000
C  24.21500 52.30800 24.68700
C  23.08600 52.93700 25.37000
C  23.43200 52.85900 26.76600
C  24.67400 52.23100 26.85100
C  21.94900 53.63800 24.75500
C  22.96400 53.20000 28.12100
O  21.90400 53.69400 28.40600
C  24.06900 52.75700 29.06200
C  24.52900 53.78200 30.04500
O  25.34100 54.66600 29.76700
O  23.68300 53.84200 31.15400
C  23.87100 54.94000 32.09000
H  30.43600 49.95800 28.40100
H  29.34700 49.42000 22.09300
H  23.72100 52.52300 22.63900
H  26.67900 52.05600 30.59000
H  28.50500 49.84100 30.31000
H  30.00400 52.15600 29.82500
H  29.53400 51.40700 31.37800
H  28.87500 52.90000 30.69000
H  26.34000 49.20900 30.88000
H  24.86000 49.96300 30.19600
H  24.73600 49.54300 32.35300
H  24.68200 51.27100 32.37800
H  31.86400 48.44800 27.73900
H  32.97000 48.83100 26.45900
H  31.99800 47.27300 26.65000
H  33.15200 46.88000 23.09700
H  32.50600 46.52600 24.68600
H  33.45200 47.99800 24.46500
H  27.14300 49.82700 20.59000
H  25.79400 52.35600 20.70900
H  29.03600 51.82900 20.86100
H  27.88500 52.55300 19.74600
H  28.54500 50.94000 19.36200
H  24.80300 50.02600 19.73800
H  23.59300 51.01400 20.57700
H  24.74100 49.19500 22.46500
H  24.61100 48.32000 20.98100
H  23.19600 49.06900 21.82700
H  22.32400 54.18900 23.89300
H  21.49300 54.21100 25.56200
H  21.13400 52.98400 24.44300
H  23.61000 51.97200 29.66300
H  24.61600 54.67800 32.84100
H  22.89500 55.12100 32.54200
H  24.27100 55.78800 31.53400

