158

Mg 0.73900 8.16200 25.84300
C  1.56500 10.10300 28.63000
C  0.68400 5.44700 27.93200
C  0.10200 6.18100 23.10600
C  1.01200 10.90700 23.76400
N  1.30900 7.79100 28.05800
C  1.47500 8.71600 29.02000
C  1.40200 8.19500 30.50300
C  1.32400 6.64700 30.18000
C  1.12100 6.60300 28.61700
C  2.43200 5.68000 30.72200
C  0.30000 8.78500 31.40900
C  0.61500 8.84700 32.87700
H  1.61100 7.90100 33.53700
N  0.37200 6.08400 25.57300
C  0.34800 5.16100 26.60600
C  -0.05300 3.88100 26.09100
C  -0.31500 4.10200 24.67100
C  0.10200 5.48400 24.37800
C  -0.25700 2.66300 26.93900
C  -0.81500 3.11400 23.71800
O  -1.11000 3.38400 22.58200
C  -0.95900 1.62000 24.08500
N  0.45000 8.52400 23.68500
C  0.23000 7.52900 22.79100
C  0.32500 8.04400 21.37400
C  0.25800 9.59900 21.63800
C  0.56700 9.72000 23.11000
C  1.57300 7.46900 20.61500
C  -1.14300 10.34100 21.33900
C  -0.99100 11.47900 20.28500
N  1.22300 10.03800 26.04200
C  1.27800 11.12500 25.08500
C  1.60700 12.34300 25.73900
C  1.72300 11.95700 27.10000
C  1.48900 10.57900 27.22800
C  1.62800 13.77100 25.07500
C  1.92500 12.52000 28.45500
O  2.13700 13.69800 28.73100
C  1.85700 11.29000 29.46600
C  3.22300 11.11400 29.89500
O  4.32300 11.13900 29.29400
O  3.06700 10.84100 31.20900
C  4.36500 10.48800 31.92300
H  0.55900 4.53100 28.51300
H  -0.07700 5.50600 22.26600
H  0.90500 11.80100 23.14600
H  2.40200 8.40700 30.88100
H  0.41600 6.22000 30.60500
H  2.98500 6.05600 31.58300
H  3.14600 5.50900 29.91700
H  1.97200 4.69300 30.76000
H  -0.58200 8.18100 31.19400
H  0.11500 9.83100 31.16200
H  -0.33800 8.81400 33.40500
H  1.06000 9.83900 32.96600
H  -1.33900 2.63200 26.81200
H  -0.02000 2.81900 27.99200
H  0.18500 1.74500 26.55200
H  -0.00200 1.27900 24.48000
H  -1.01300 0.96700 23.21400
H  -1.79700 1.37800 24.73900
H  -0.51400 7.65000 20.80100
H  1.05800 10.05100 21.05100
H  2.15400 6.78200 21.22900
H  2.30000 8.22800 20.32300
H  1.17600 7.01400 19.70700
H  -1.58500 10.72200 22.26000
H  -1.81000 9.56400 20.96800
H  0.03300 11.81800 20.13000
H  -1.50400 12.37000 20.64600
H  -1.42300 11.19600 19.32500
H  0.88400 14.45200 25.48900
H  1.16000 13.69000 24.09400
H  2.63100 14.18500 24.97300
H  1.12300 11.51100 30.24100
H  5.15500 11.20900 31.71400
H  4.67300 9.49400 31.59700
H  4.29400 10.46900 33.01000
Mg 53.10300 23.41100 45.28300
C  50.56300 25.63300 44.19600
C  51.30300 20.81200 44.27200
C  55.93000 21.66000 45.69300
C  54.77800 26.37000 46.37700
N  51.28000 23.25300 44.07200
C  50.29800 24.23800 43.85700
C  49.00000 23.65800 43.26400
C  49.16100 22.23100 43.84600
C  50.67400 22.03400 44.08100
C  48.32600 21.97900 45.09600
C  49.06200 23.79800 41.68000
C  47.73600 24.34000 41.03100
H  47.10300 23.43200 39.88100
N  53.56000 21.49100 44.90000
C  52.66200 20.51900 44.53200
C  53.26600 19.23700 44.43100
C  54.58100 19.36000 44.94500
C  54.75700 20.89000 45.23000
C  52.63100 18.01900 43.89500
C  55.71100 18.31700 45.12600
O  55.46400 17.14400 44.87400
C  57.09400 18.52600 45.60600
N  55.04000 23.94600 45.85300
C  56.04000 23.02600 45.90400
C  57.36800 23.70500 46.32900
C  56.98200 25.13600 46.45100
C  55.46900 25.14300 46.24400
C  58.12100 23.02600 47.51100
C  57.72500 26.17100 45.53300
C  58.77200 26.99900 46.30100
N  52.78400 25.53200 45.40100
C  53.47500 26.56400 45.96200
C  52.67900 27.79000 46.00100
C  51.53200 27.49600 45.22800
C  51.63900 26.12400 44.90400
C  53.05600 29.06600 46.67200
C  50.41500 28.03900 44.59700
O  49.99500 29.17400 44.54600
C  49.73700 26.79400 43.86000
C  49.73600 27.15300 42.34700
O  50.74000 27.41300 41.70000
O  48.48200 27.52700 41.94500
C  48.48800 28.24500 40.63300
H  50.66300 19.94400 44.10100
H  56.88500 21.13800 45.78300
H  55.42400 27.17200 46.73900
H  48.07300 24.12000 43.60200
H  48.79900 21.61100 43.02600
H  48.99200 21.63500 45.88700
H  47.62500 21.19900 44.79900
H  47.81600 22.84600 45.51500
H  49.30800 22.85500 41.19000
H  49.92400 24.38800 41.37000
H  48.04300 25.25200 40.51900
H  46.93300 24.57300 41.73000
H  51.55600 17.99400 44.07500
H  52.97100 17.13700 44.43800
H  52.85600 17.80700 42.85000
H  57.60200 18.82400 44.68900
H  57.51300 17.58500 45.96400
H  57.33300 19.22600 46.40600
H  57.98800 23.49300 45.45800
H  57.19300 25.32200 47.50400
H  57.53600 22.28200 48.05200
H  58.45100 23.73000 48.27600
H  59.10000 22.61600 47.26200
H  57.01800 26.80400 44.99600
H  58.35200 25.75100 44.74600
H  58.34600 28.00100 46.24700
H  59.63300 26.99900 45.63300
H  59.04900 26.68800 47.30800
H  52.17000 29.51100 47.12500
H  53.34600 29.75200 45.87600
H  53.79600 29.00100 47.47000
H  48.68700 26.73700 44.14800
H  47.55400 28.78500 40.78500
H  48.43100 27.54800 39.79700
H  49.30400 28.92000 40.37700

