158

Mg 41.21300 6.57800 28.82300
C  42.77900 7.81700 31.66000
C  38.72300 5.30500 31.03100
C  39.64800 5.17300 26.22500
C  43.87600 7.62000 26.93800
N  40.68700 6.78600 31.12300
C  41.49400 7.30300 32.00800
C  40.97800 7.15400 33.41700
C  39.67700 6.31600 33.21300
C  39.65100 6.16200 31.71900
C  39.77200 4.97900 34.01900
C  40.86800 8.51000 34.15800
C  39.85000 8.55800 35.33200
H  40.22100 9.50200 36.45800
N  39.38000 5.56900 28.65700
C  38.53400 5.08800 29.64300
C  37.39600 4.43900 28.99500
C  37.51400 4.55900 27.64000
C  38.87000 5.17700 27.43400
C  36.27000 3.72400 29.77300
C  36.60900 4.15900 26.44000
O  36.88500 4.35700 25.26700
C  35.39700 3.45300 26.73600
N  41.75000 6.37100 26.86500
C  40.92500 5.65100 25.96800
C  41.45600 5.81200 24.55300
C  42.74000 6.71200 24.76200
C  42.87700 6.89800 26.27200
C  41.57600 4.46500 23.85000
C  42.78000 7.96600 23.87200
C  41.82500 9.15800 24.23300
N  42.93600 7.52500 29.14400
C  43.96100 7.91000 28.31900
C  44.98300 8.53500 29.08100
C  44.53000 8.53200 30.41700
C  43.32600 7.80400 30.43800
C  46.29100 9.07200 28.63700
C  44.93900 9.06300 31.71400
O  45.93100 9.58900 32.15300
C  43.72800 8.62400 32.54200
C  44.20500 7.82600 33.73100
O  44.49500 6.64600 33.69700
O  44.37400 8.63800 34.88000
C  44.75100 7.96500 36.12400
H  38.02000 4.80400 31.69900
H  39.17100 4.63800 25.40100
H  44.73900 7.97800 26.37400
H  41.85800 6.58900 33.72400
H  38.73900 6.84500 33.38700
H  39.15400 5.03300 34.91500
H  40.79900 4.81800 34.34600
H  39.42100 4.15000 33.40400
H  40.61200 9.29100 33.44200
H  41.84500 8.85100 34.50100
H  39.66600 7.54000 35.67700
H  38.86800 8.88600 34.99200
H  36.52300 3.58200 30.82300
H  36.24800 2.73200 29.32200
H  35.27600 4.17200 29.78800
H  34.69200 3.98300 27.37700
H  35.73100 2.54000 27.22800
H  34.85200 3.14900 25.84300
H  40.69200 6.39100 24.03400
H  43.61300 6.09100 24.56000
H  41.23200 3.55000 24.33200
H  42.63400 4.29000 23.65200
H  41.05800 4.46000 22.89100
H  42.41600 7.61100 22.90700
H  43.79900 8.35200 23.86200
H  41.17800 8.77200 25.02100
H  41.36500 9.43000 23.28300
H  42.39200 10.02800 24.56400
H  47.01000 8.90900 29.43900
H  46.19600 10.07000 28.20800
H  46.63700 8.45900 27.80400
H  43.42700 9.61100 32.89600
H  44.75500 6.87900 36.21800
H  44.06200 8.20600 36.93400
H  45.79800 8.18100 36.33400
Mg -0.04300 44.00600 25.79800
C  2.09900 43.79800 28.64400
C  -2.53900 42.90900 27.85500
C  -2.04800 43.71100 23.07800
C  2.65500 44.88500 23.84600
N  -0.22000 43.57900 28.08500
C  0.74600 43.52500 29.01400
C  0.19300 43.29400 30.35700
C  -1.27600 42.79900 30.07400
C  -1.38900 43.20900 28.59200
C  -1.61500 41.37200 30.51200
C  0.30500 44.61300 31.21900
C  0.78200 44.38200 32.70200
H  0.42500 43.07400 33.33500
N  -1.94000 43.29400 25.50200
C  -2.85100 42.87400 26.51100
C  -4.11500 42.44400 25.94900
C  -4.00200 42.65100 24.54800
C  -2.55500 43.13300 24.28700
C  -5.33000 42.17300 26.78500
C  -5.09000 42.44400 23.45500
O  -4.98000 42.77200 22.32800
C  -6.34800 41.86800 23.81200
N  0.35100 44.14800 23.79000
C  -0.76200 44.22000 22.87500
C  -0.39900 45.13800 21.65000
C  1.14000 45.50900 21.95800
C  1.43300 44.85900 23.26400
C  -0.62400 44.57800 20.23000
C  1.36000 47.02400 22.02700
C  1.59400 47.69300 20.65000
N  2.00900 44.26300 26.09300
C  3.02000 44.51000 25.18300
C  4.29200 44.52300 25.75800
C  3.99200 44.30200 27.16800
C  2.59600 44.09900 27.31400
C  5.54800 44.98200 25.00900
C  4.56600 44.13300 28.48000
O  5.76200 44.13300 28.78600
C  3.38500 43.79000 29.44600
C  3.67200 42.49800 30.07800
O  3.32000 41.42100 29.63000
O  4.33200 42.69400 31.23000
C  4.63200 41.49300 32.01200
H  -3.40000 42.65600 28.47700
H  -2.69700 43.79600 22.20400
H  3.47600 45.36700 23.31200
H  0.72900 42.50800 30.88800
H  -2.05300 43.36000 30.59400
H  -1.76500 40.69700 29.67000
H  -2.40800 41.31600 31.25900
H  -0.73100 40.98600 31.01900
H  -0.62100 45.18700 31.25100
H  1.08500 45.26100 30.81800
H  0.40800 45.22000 33.29000
H  1.85300 44.58100 32.67400
H  -6.10700 42.91100 26.58800
H  -5.21200 41.90100 27.83400
H  -5.67100 41.22400 26.37000
H  -6.94500 42.55600 24.41000
H  -6.14200 40.89700 24.26200
H  -7.04400 41.79900 22.97700
H  -1.01100 46.03800 21.70000
H  1.83800 45.03800 21.26600
H  -1.63500 44.77000 19.86800
H  -0.50500 43.50200 20.35300
H  0.12200 44.95400 19.53000
H  2.25400 47.29300 22.59000
H  0.50000 47.45400 22.54000
H  0.95200 48.57000 20.57200
H  1.36700 46.94300 19.89200
H  2.65000 47.96200 20.65800
H  5.49400 45.98700 24.59000
H  5.88100 44.15600 24.38100
H  6.29400 45.13600 25.78800
H  3.38600 44.51700 30.25800
H  3.67000 40.98200 32.06400
H  4.88800 41.68900 33.05300
H  5.37900 40.85900 31.53500

