158

Mg -0.17300 7.50900 26.07900
C  0.75300 9.69700 28.82600
C  0.38000 4.92500 28.05100
C  -0.51300 5.69100 23.36400
C  0.14800 10.48000 24.01500
N  0.35200 7.39600 28.27300
C  0.55500 8.33300 29.20200
C  0.56700 7.70300 30.58700
C  0.91600 6.21700 30.16200
C  0.42200 6.13300 28.77600
C  2.36200 5.69500 30.26100
C  -0.75800 8.00000 31.32600
C  -0.70500 8.28400 32.80600
H  0.65800 7.90800 33.50700
N  -0.31900 5.53400 25.75200
C  0.03900 4.63900 26.72100
C  -0.24400 3.37100 26.15300
C  -0.62200 3.51600 24.76300
C  -0.53000 4.94400 24.54400
C  -0.03800 2.07700 26.88400
C  -0.99400 2.49200 23.64500
O  -1.43700 2.76400 22.56300
C  -1.00200 1.03700 24.12500
N  -0.06400 8.06100 23.92100
C  -0.29700 7.02600 23.03100
C  -0.41200 7.58800 21.57200
C  -0.11100 9.12100 21.81100
C  -0.01800 9.27000 23.34200
C  0.57600 6.81900 20.66500
C  -1.20100 10.01900 21.22700
C  -2.54800 9.94600 21.92500
N  0.29300 9.65900 26.28600
C  0.44000 10.69700 25.38300
C  0.75400 11.98200 26.06400
C  0.89900 11.62100 27.42400
C  0.68500 10.16400 27.50200
C  0.74200 13.33400 25.45200
C  1.12600 12.13200 28.76500
O  1.36900 13.29500 29.11600
C  0.96700 10.90800 29.72800
C  2.14300 10.75100 30.55700
O  3.02700 9.88400 30.53600
O  2.09600 11.71300 31.52400
C  3.19300 11.64800 32.53400
H  0.39500 4.05200 28.70700
H  -0.71100 5.15900 22.43100
H  0.32100 11.35800 23.38900
H  1.42800 8.02900 31.17000
H  0.34600 5.75700 30.96900
H  2.62800 5.09900 31.13500
H  3.12400 6.47400 30.25200
H  2.59900 5.05100 29.41500
H  -1.40000 7.12900 31.19800
H  -1.15400 8.88200 30.82100
H  -1.33800 7.62800 33.40400
H  -0.87900 9.34700 32.97100
H  0.35500 2.22900 27.88900
H  0.72500 1.53200 26.32900
H  -1.00200 1.57800 26.99000
H  0.02300 0.87900 24.46000
H  -1.36300 0.42700 23.29700
H  -1.68700 0.87000 24.95600
H  -1.41000 7.51700 21.14000
H  0.86200 9.40700 21.41200
H  -0.01200 6.45900 19.82100
H  1.16300 6.10300 21.24000
H  1.31900 7.40800 20.12800
H  -1.11500 9.79900 20.16300
H  -0.87800 11.05400 21.34000
H  -3.30700 9.47200 21.30300
H  -2.84100 10.98000 22.10700
H  -2.58300 9.47200 22.90600
H  0.51400 14.07500 26.21700
H  -0.01900 13.37500 24.67300
H  1.74200 13.49800 25.05100
H  0.08200 10.93100 30.36300
H  2.89900 12.20100 33.42700
H  4.09600 12.07700 32.10000
H  3.27700 10.58100 32.73800
Mg 34.94800 2.72800 30.00100
C  32.77000 3.61800 32.57900
C  37.49700 2.94100 32.13200
C  36.89200 2.57600 27.29800
C  32.17800 3.14900 27.80500
N  35.08000 3.33200 32.10600
C  34.10700 3.43900 33.02500
C  34.69300 3.44500 34.45600
C  36.21500 3.51600 34.25800
C  36.28300 3.18700 32.71600
C  36.91300 4.84800 34.55200
C  34.19400 2.13500 35.16900
C  34.04800 2.24600 36.71200
H  34.86600 3.37200 37.36300
N  37.02100 2.68300 29.80500
C  37.87400 2.70400 30.78100
C  39.20800 2.36700 30.18300
C  39.00000 2.26500 28.78900
C  37.54700 2.47200 28.53300
C  40.42000 2.28900 31.07000
C  40.13600 2.15700 27.65100
O  39.88500 2.31600 26.46200
C  41.60200 1.82000 28.05700
N  34.52100 2.97700 27.88300
C  35.56700 2.80800 26.95300
C  34.98400 2.85600 25.52300
C  33.42500 2.68500 25.70800
C  33.34100 2.93700 27.22700
C  35.35000 4.11300 24.65300
C  32.96900 1.28800 25.35400
C  32.83000 0.10900 26.38700
N  32.88500 3.25000 30.13600
C  31.95200 3.32000 29.15400
C  30.67400 3.63900 29.73000
C  30.86000 3.79900 31.10900
C  32.26100 3.52600 31.27100
C  29.35500 4.00700 29.07600
C  30.32700 4.10200 32.44400
O  29.17000 4.44700 32.69800
C  31.49100 3.81000 33.44000
C  31.66200 4.98600 34.35200
O  32.19300 6.01800 34.00300
O  31.13900 4.83000 35.62100
C  31.29800 5.93800 36.60800
H  38.34700 3.02000 32.81300
H  37.58800 2.42100 26.47200
H  31.30500 3.25000 27.15600
H  34.28700 4.35500 34.90000
H  36.61100 2.66300 34.80800
H  37.62300 4.84700 35.37900
H  36.11400 5.58400 34.63900
H  37.37900 5.25000 33.65200
H  34.85800 1.34100 34.82800
H  33.23300 1.80700 34.77400
H  34.41500 1.34000 37.19500
H  33.01300 2.41000 37.01100
H  40.17400 2.59200 32.08700
H  41.19000 2.96000 30.68900
H  40.69700 1.23600 31.12100
H  41.59500 0.88400 28.61400
H  42.19500 2.62300 28.49500
H  41.98500 1.60300 27.06000
H  35.52100 2.00600 25.10100
H  32.83600 3.47000 25.23200
H  35.92400 3.88100 23.75600
H  36.03500 4.78000 25.17600
H  34.49900 4.66300 24.25100
H  33.67500 0.93700 24.60300
H  31.98500 1.28900 24.88600
H  33.49800 0.28300 27.23100
H  32.99400 -0.84100 25.87800
H  31.80600 0.11000 26.76000
H  28.95200 4.80600 29.69900
H  28.78700 3.09900 28.87600
H  29.46200 4.45200 28.08600
H  31.24000 2.97100 34.08800
H  31.72800 6.88000 36.27000
H  31.97300 5.46400 37.32100
H  30.39300 6.13200 37.18500

