158

Mg 35.25800 1.59100 29.83900
C  32.77500 3.07000 31.96500
C  37.55300 1.99200 32.37600
C  37.61900 0.68400 27.69100
C  32.94300 1.77100 27.23100
N  35.03800 2.26000 31.93200
C  34.04500 2.82100 32.63700
C  34.39500 2.91900 34.13400
C  35.98000 3.03600 34.03800
C  36.20100 2.32300 32.71000
C  36.50400 4.44900 34.10900
C  33.76800 1.73900 34.92300
C  33.42600 2.07400 36.35300
H  34.10300 3.26200 37.11100
N  37.38600 1.31900 30.00700
C  38.10600 1.48200 31.13100
C  39.47500 1.14800 30.84200
C  39.54200 0.76500 29.44900
C  38.14500 0.91800 28.99100
C  40.64700 1.19800 31.84100
C  40.68200 0.29100 28.55900
O  40.46100 -0.13100 27.40700
C  42.13200 0.41500 28.94600
N  35.27100 1.42400 27.75500
C  36.35700 0.90900 27.15700
C  36.11500 0.55300 25.61600
C  34.62500 0.93900 25.47600
C  34.21200 1.32500 26.85800
C  37.10200 1.37300 24.69700
C  33.79600 -0.13200 24.73500
C  33.20600 -1.39800 25.45800
N  33.20900 2.31500 29.60600
C  32.45700 2.30300 28.47500
C  31.13000 2.81000 28.81400
C  31.27900 3.07300 30.18500
C  32.56300 2.85900 30.62100
C  29.88600 2.87700 28.01700
C  30.55300 3.56400 31.34600
O  29.39400 3.96800 31.52000
C  31.50300 3.48700 32.58700
C  31.40300 4.74300 33.29000
O  31.46600 5.86900 32.80000
O  31.38600 4.47000 34.62500
C  31.41400 5.65700 35.49300
H  38.17000 1.92900 33.27400
H  38.25200 0.24600 26.91600
H  32.19200 1.72700 26.44000
H  33.93200 3.80700 34.56400
H  36.48200 2.55000 34.87500
H  35.71400 5.15900 34.35400
H  36.89800 4.83900 33.17100
H  37.25100 4.52800 34.89900
H  34.46800 0.90900 34.82200
H  32.89000 1.42400 34.36000
H  33.61100 1.21700 37.00100
H  32.35300 2.23000 36.46000
H  41.34800 0.41900 31.54200
H  40.21400 1.07900 32.83400
H  41.16000 2.16000 31.80700
H  42.33000 1.40400 29.35900
H  42.77600 0.16600 28.10200
H  42.20100 -0.35300 29.71700
H  36.24100 -0.52200 25.48400
H  34.57300 1.86900 24.91100
H  36.60800 2.11300 24.06700
H  37.76200 0.69500 24.15700
H  37.74000 2.03900 25.27700
H  34.32200 -0.57000 23.88700
H  32.98400 0.50100 24.37700
H  33.69900 -2.28800 25.06700
H  32.12100 -1.46700 25.38100
H  33.51600 -1.33900 26.50100
H  29.04300 2.82700 28.70600
H  29.92200 1.92300 27.49100
H  29.80000 3.71300 27.32300
H  31.32100 2.64000 33.24800
H  30.92300 6.52700 35.05600
H  32.46900 5.72500 35.75600
H  30.70100 5.47900 36.29800
Mg 40.04200 9.01400 29.77800
C  41.90300 10.45900 32.42400
C  37.87600 7.91000 32.25600
C  38.42700 7.45500 27.38800
C  42.77000 9.53200 27.72100
N  39.92600 9.10000 32.21100
C  40.71600 9.89900 32.98600
C  40.19900 9.84300 34.41600
C  39.04800 8.69400 34.36500
C  38.91600 8.59000 32.84800
C  39.30600 7.30300 35.04500
C  39.69400 11.26200 34.85300
C  38.92300 11.32900 36.21100
H  39.20300 12.43100 37.25000
N  38.30600 8.01900 29.79100
C  37.54800 7.57900 30.84900
C  36.29000 6.92200 30.36300
C  36.54200 6.67900 28.96400
C  37.81600 7.42400 28.65000
C  35.19700 6.52700 31.28800
C  35.67400 5.90700 27.92400
O  35.97400 5.80600 26.72000
C  34.30500 5.28500 28.33400
N  40.59700 8.31800 27.84300
C  39.70600 7.81900 26.95700
C  40.41000 7.60400 25.56000
C  41.73400 8.34800 25.71000
C  41.73900 8.74400 27.19000
C  40.53200 6.17000 25.15900
C  41.85000 9.60300 24.77100
C  41.21300 10.89900 25.15900
N  41.84800 9.82100 29.93900
C  42.81000 10.10900 29.02200
C  43.77600 11.03900 29.49400
C  43.48900 11.09800 30.86800
C  42.35900 10.35700 31.09700
C  44.95600 11.52900 28.76800
C  43.96800 11.70800 32.03300
O  44.93400 12.40700 32.28100
C  42.97000 11.33700 33.14700
C  43.63200 10.71000 34.40800
O  44.44800 9.81200 34.46600
O  43.12200 11.34100 35.43700
C  43.73600 11.00100 36.76100
H  37.26600 7.54200 33.08300
H  37.97200 6.88900 26.57300
H  43.49200 9.70000 26.91900
H  40.86400 9.44800 35.18400
H  38.11300 9.10600 34.74500
H  39.25400 6.44300 34.37800
H  38.50900 7.19900 35.78000
H  40.26300 7.50700 35.52600
H  39.14000 11.64400 33.99500
H  40.49100 11.99300 34.98600
H  38.99000 10.39400 36.76600
H  37.86900 11.48500 35.98500
H  34.29500 6.96300 30.85900
H  35.20900 6.79500 32.34500
H  35.01300 5.45600 31.20200
H  34.05200 5.31100 29.39400
H  34.58400 4.27400 28.03500
H  33.51000 5.64800 27.68300
H  39.77300 8.18000 24.88900
H  42.62000 7.72600 25.57900
H  41.54300 5.77000 25.23800
H  40.21500 6.07500 24.12100
H  40.04600 5.51800 25.88500
H  41.39700 9.24300 23.84700
H  42.91600 9.70100 24.56400
H  41.91000 11.56300 25.67000
H  40.42900 10.68200 25.88600
H  40.86300 11.42600 24.27200
H  45.34400 10.66200 28.23500
H  45.80800 11.90100 29.33800
H  44.69200 12.20700 27.95600
H  42.63600 12.33100 33.44400
H  44.63500 11.58300 36.96500
H  43.89100 9.92400 36.83300
H  43.01400 11.19900 37.55300

