158

Mg 35.96400 2.25200 29.60800
C  33.67000 3.15100 32.14200
C  38.37700 2.24600 32.02700
C  38.18200 1.76800 27.19300
C  33.49800 2.73600 27.20100
N  35.92300 2.60700 31.95200
C  34.93100 2.96400 32.75600
C  35.29300 2.88200 34.18600
C  36.87000 2.81400 34.07700
C  37.05800 2.52000 32.57100
C  37.50300 4.18200 34.59800
C  34.58800 1.66100 34.91200
C  34.64600 1.61700 36.44000
H  34.91900 2.96600 37.14400
N  38.00200 2.16500 29.57900
C  38.81700 2.07300 30.70600
C  40.20300 1.76500 30.24500
C  40.14200 1.62200 28.82400
C  38.74800 1.88900 28.45600
C  41.36100 1.59600 31.15900
C  41.25100 1.27200 27.80500
O  41.07800 1.24800 26.56100
C  42.60900 1.07000 28.29300
N  35.75500 2.05700 27.50200
C  36.87700 1.86900 26.67700
C  36.57200 1.96700 25.18700
C  34.99000 1.88300 25.24400
C  34.64400 2.21400 26.73800
C  37.05300 3.28700 24.53300
C  34.31800 0.51400 24.81100
C  33.14600 0.56300 23.82000
N  34.00800 2.71300 29.66100
C  33.11800 2.93000 28.55400
C  31.82400 3.21500 29.07700
C  32.03300 3.34800 30.42900
C  33.37500 3.09600 30.75400
C  30.49900 3.40600 28.37600
C  31.30700 3.61200 31.70300
O  30.09400 3.73600 31.92700
C  32.41800 3.61400 32.83100
C  32.43700 4.88600 33.45400
O  32.93200 5.87500 33.02500
O  31.59400 4.84500 34.53300
C  31.64900 5.87600 35.59600
H  39.19800 2.31600 32.74300
H  38.82300 1.61800 26.32200
H  32.68100 2.88700 26.49200
H  34.92800 3.77100 34.69900
H  37.29500 1.94800 34.58300
H  37.99300 4.79100 33.83800
H  38.25200 3.96000 35.35800
H  36.71300 4.81400 35.00100
H  35.17300 0.83200 34.51500
H  33.57200 1.47100 34.56500
H  35.47500 0.93700 36.63200
H  33.64600 1.26200 36.68800
H  42.32800 1.69300 30.66600
H  41.36600 0.60800 31.62100
H  41.29200 2.35300 31.94000
H  42.87600 2.03600 28.71900
H  43.27900 0.85200 27.46100
H  42.54000 0.27900 29.04000
H  37.19400 1.14000 24.84400
H  34.54300 2.63400 24.59200
H  36.24300 3.95000 24.23000
H  37.58700 3.11600 23.59800
H  37.65400 3.78000 25.29700
H  34.03100 -0.01900 25.71700
H  35.04800 -0.19100 24.41500
H  32.95300 1.51800 23.33100
H  32.23300 0.28500 24.34600
H  33.42100 -0.17600 23.06700
H  30.27000 2.52000 27.78400
H  30.69600 4.24800 27.71100
H  29.78700 3.67700 29.15500
H  32.03400 2.95000 33.60500
H  31.96800 5.41900 36.53300
H  30.62500 6.14400 35.85700
H  32.24000 6.77900 35.43800
Mg 17.43000 52.39500 25.30700
C  19.27800 51.01700 28.01300
C  14.83500 52.98400 27.49600
C  15.82700 53.81000 22.84400
C  20.08600 51.45700 23.24900
N  17.08000 51.78400 27.46500
C  18.06000 51.51400 28.40900
C  17.67200 51.92900 29.82700
C  16.10000 51.91800 29.65000
C  15.92400 52.26100 28.09700
C  15.32900 50.68300 30.16200
C  18.38200 53.17900 30.35800
C  18.60200 53.20900 31.89500
H  17.82600 52.36800 32.84200
N  15.59100 53.20900 25.21800
C  14.69100 53.46200 26.19900
C  13.65900 54.36000 25.68500
C  13.82300 54.40800 24.28700
C  15.17400 53.84200 24.06600
C  12.64500 55.03700 26.56600
C  12.84000 54.93400 23.20900
O  13.03900 55.00000 21.99900
C  11.53300 55.56900 23.68200
N  17.88400 52.56600 23.36700
C  17.03600 53.22700 22.47800
C  17.64300 53.40200 21.07600
C  19.00100 52.57600 21.21900
C  19.00700 52.15800 22.66800
C  16.66300 52.99800 19.91300
C  20.24400 53.40000 20.71300
C  20.76700 54.46200 21.66000
N  19.29700 51.38000 25.54200
C  20.22800 51.05600 24.57100
C  21.34800 50.41200 25.23700
C  21.04200 50.38800 26.65800
C  19.77500 50.96300 26.73700
C  22.62900 50.00000 24.60200
C  21.58300 50.08100 27.91900
O  22.61000 49.47400 28.23100
C  20.45400 50.53800 28.84500
C  20.21300 49.35700 29.69100
O  19.76000 48.30700 29.31800
O  20.40100 49.66400 31.03300
C  19.95600 48.66800 31.97600
H  14.15400 53.26600 28.30100
H  15.18100 54.36900 22.16400
H  21.00700 51.26600 22.69400
H  17.87300 51.07400 30.47100
H  15.78800 52.71600 30.32400
H  15.77800 50.25100 31.05600
H  15.14700 49.97100 29.35700
H  14.37900 51.01700 30.57700
H  17.77400 54.07400 30.22700
H  19.25400 53.37500 29.73500
H  18.54700 54.24000 32.24500
H  19.60900 52.79800 31.96700
H  12.83400 56.10900 26.51400
H  12.72700 54.75300 27.61500
H  11.61700 54.81300 26.27800
H  11.60000 56.49500 24.25200
H  11.01200 54.75400 24.18400
H  10.92900 55.87400 22.82800
H  17.85200 54.45500 20.89100
H  18.81500 51.65600 20.66400
H  15.71900 52.79200 20.41600
H  16.98300 52.11100 19.36600
H  16.76300 53.85400 19.24600
H  19.97900 53.95600 19.81400
H  21.00200 52.67500 20.41800
H  20.59900 54.12600 22.68300
H  20.32600 55.45000 21.52500
H  21.84300 54.60200 21.55900
H  22.84200 50.63200 23.74000
H  22.51900 48.99800 24.18800
H  23.39500 50.09100 25.37200
H  20.96900 51.33000 29.39000
H  20.71800 47.89300 31.89000
H  18.94300 48.33400 31.75400
H  19.88900 48.97400 33.02000

