158

Mg 1.97900 -0.93500 43.59600
C  5.43100 -0.32700 43.02000
C  1.31900 1.89600 41.83700
C  -1.22000 -1.96700 43.15500
C  2.98200 -4.09100 44.84100
N  3.30900 0.53500 42.48500
C  4.67200 0.64200 42.46500
C  4.98200 1.92400 41.77000
C  3.66300 2.81900 41.81500
C  2.68300 1.66400 42.02700
C  3.66100 3.90000 42.86600
C  5.40500 1.66300 40.24400
C  6.78500 2.19400 39.76700
H  6.85100 2.76000 38.31700
N  0.25100 -0.09500 42.75500
C  0.14300 1.10800 42.06800
C  -1.24400 1.38600 41.72400
C  -1.95400 0.27300 42.14100
C  -0.97500 -0.67700 42.75900
C  -1.71300 2.76400 41.13700
C  -3.43400 0.13200 41.78900
O  -4.14400 1.05900 41.49700
C  -4.19600 -1.18600 41.89600
N  1.02100 -2.76200 43.93300
C  -0.32600 -2.91800 43.72300
C  -0.80700 -4.30500 44.21600
C  0.44600 -4.95100 44.80400
C  1.60600 -3.86700 44.49100
C  -2.01200 -4.25200 45.19600
C  0.80000 -6.37900 44.39900
C  1.14100 -7.38300 45.50100
N  3.84100 -1.96800 43.99100
C  4.00800 -3.22600 44.56200
C  5.44400 -3.40600 44.67400
C  6.02400 -2.29800 44.11500
C  4.99000 -1.44300 43.73700
C  6.09700 -4.63600 45.16100
C  7.28500 -1.66800 43.69500
O  8.39200 -2.15300 43.80800
C  6.91200 -0.34300 43.04800
C  7.48000 0.72000 43.82700
O  6.89000 1.33700 44.74300
O  8.66800 1.13400 43.21600
C  9.17000 2.44200 43.83400
H  1.07800 2.91100 41.51500
H  -2.27700 -2.22900 43.08300
H  3.28900 -5.07300 45.20900
H  5.76100 2.44100 42.33100
H  3.53500 3.30900 40.85000
H  3.63100 4.89100 42.41300
H  4.48600 3.79500 43.57000
H  2.70200 4.01300 43.37100
H  4.73300 2.09800 39.50400
H  5.32800 0.59200 40.05700
H  7.54000 1.42000 39.90100
H  6.96300 3.01000 40.46900
H  -2.48800 2.57200 40.39500
H  -0.90400 3.40100 40.77900
H  -2.08000 3.40500 41.93800
H  -5.09800 -1.03800 41.30300
H  -4.36300 -1.44000 42.94300
H  -3.62200 -2.03100 41.51600
H  -1.17800 -4.83600 43.33900
H  0.32600 -5.01200 45.88500
H  -2.94400 -4.59000 44.74500
H  -2.13700 -3.23500 45.56600
H  -1.76100 -4.90300 46.03400
H  1.57000 -6.43200 43.63000
H  -0.06600 -6.85900 43.94300
H  0.44200 -8.21600 45.58000
H  1.28300 -6.93700 46.48500
H  2.08500 -7.83300 45.19500
H  7.11700 -4.41200 45.47500
H  6.24000 -5.31700 44.32300
H  5.59200 -5.27300 45.88700
H  7.39000 -0.36800 42.06900
H  9.43800 2.30400 44.88200
H  8.61000 3.36700 43.69600
H  10.06700 2.66200 43.25500
Mg 17.03600 52.81600 27.10400
C  18.86500 50.85800 29.46000
C  14.63800 53.34900 29.58900
C  14.85800 53.74100 24.70100
C  19.19800 51.49100 24.64000
N  16.70200 52.04200 29.20200
C  17.68900 51.45300 29.96100
C  17.48700 51.68600 31.46300
C  15.93900 52.18700 31.51800
C  15.65200 52.51100 29.99400
C  14.88100 51.16600 31.92900
C  18.53200 52.81700 31.98000
C  19.33000 52.38200 33.22600
H  18.51900 51.56200 34.23500
N  15.12400 53.66600 27.16900
C  14.29200 53.75900 28.30100
C  13.06600 54.46900 27.87500
C  13.11500 54.61700 26.45900
C  14.38400 53.93400 26.06400
C  11.95100 54.78100 28.85900
C  12.07600 55.26600 25.53700
O  12.20800 55.14700 24.32800
C  10.97500 55.99000 26.10700
N  16.94400 52.44300 24.97700
C  15.97600 53.10000 24.18200
C  16.33400 53.15700 22.71400
C  17.81700 52.61200 22.73900
C  18.07900 52.25200 24.21900
C  15.16100 52.30400 22.05000
C  18.82800 53.68300 22.32100
C  19.66300 53.34200 21.11900
N  18.78000 51.54900 27.05300
C  19.50600 51.09600 25.97900
C  20.56300 50.26600 26.36400
C  20.45500 50.20800 27.73900
C  19.25800 50.92300 28.06900
C  21.68400 49.56000 25.61400
C  21.04200 49.64800 28.98900
O  22.01300 48.92600 29.18800
C  20.10400 50.22300 30.12100
C  19.79900 49.10800 31.09300
O  18.86300 48.30600 31.00300
O  20.71400 49.21400 32.11900
C  20.56600 48.22500 33.20600
H  13.87100 53.51700 30.34800
H  14.30600 54.09700 23.82900
H  19.92700 51.01900 23.97700
H  17.72300 50.78700 32.03200
H  15.86100 53.07500 32.14500
H  14.30300 51.42900 32.81500
H  15.20900 50.14200 32.10800
H  14.08800 51.01700 31.19600
H  18.04700 53.76200 32.22500
H  19.22300 52.84700 31.13700
H  19.77200 53.12200 33.89300
H  20.13000 51.71700 32.90200
H  11.78700 55.83000 28.61100
H  12.17000 54.68000 29.92200
H  10.97800 54.32600 28.67300
H  10.42300 55.41000 26.84700
H  10.28100 56.19100 25.29200
H  11.40700 56.86200 26.59800
H  16.18900 54.20100 22.43400
H  17.97700 51.67700 22.20300
H  14.79000 51.56100 22.75600
H  15.48400 51.81800 21.13000
H  14.27900 52.91700 21.86400
H  19.66300 53.77600 23.01600
H  18.40800 54.67300 22.14700
H  20.71400 53.25100 21.39200
H  19.65800 54.02300 20.26700
H  19.33700 52.40800 20.66000
H  21.48800 49.41300 24.55200
H  22.03300 48.75600 26.26100
H  22.46400 50.31400 25.72100
H  20.68800 51.00600 30.60500
H  19.55900 48.28100 33.61800
H  21.30700 48.50100 33.95600
H  20.60600 47.19200 32.86000

