158

Mg -2.31900 17.09100 25.67800
C  -2.93300 14.83400 28.26100
C  -2.63400 19.70400 27.87300
C  -2.18500 19.22900 23.07000
C  -2.02200 14.34900 23.53800
N  -2.91400 17.25100 27.80100
C  -2.91100 16.20500 28.68400
C  -3.05700 16.66800 30.11400
C  -3.15800 18.23700 29.93000
C  -2.88300 18.47500 28.47000
C  -4.47100 18.99600 30.33700
C  -1.77700 16.26800 30.96800
C  -1.44200 17.21100 32.16900
H  -1.09500 16.64800 33.58100
N  -2.48000 19.15700 25.48100
C  -2.47500 20.06700 26.50300
C  -2.65200 21.40500 25.94200
C  -2.50400 21.30700 24.59000
C  -2.31400 19.84600 24.31100
C  -2.87700 22.64000 26.76000
C  -2.60400 22.41100 23.55400
O  -2.43100 22.23000 22.31700
C  -2.73400 23.91600 24.00200
N  -2.20900 16.90200 23.60100
C  -2.13000 17.85900 22.66300
C  -2.18200 17.34200 21.23400
C  -1.69900 15.91100 21.43400
C  -1.98300 15.70200 22.97300
C  -3.57500 17.40700 20.50500
C  -0.29400 15.72900 20.93400
C  0.81700 16.25400 21.84500
N  -2.59300 14.97200 25.72700
C  -2.31500 13.95600 24.85700
C  -2.32400 12.63400 25.46300
C  -2.75900 12.98400 26.81600
C  -2.77600 14.35200 26.92300
C  -2.29400 11.32200 24.77900
C  -3.03400 12.41600 28.08200
O  -3.00600 11.21800 28.42400
C  -3.12500 13.60300 29.01900
C  -2.05800 13.30000 30.02000
O  -0.85700 13.58900 29.85100
O  -2.53600 12.63700 31.12200
C  -1.56600 12.13600 32.14600
H  -2.70000 20.45300 28.66500
H  -2.19600 19.94400 22.24500
H  -1.71400 13.42300 23.05000
H  -3.98700 16.40000 30.61500
H  -2.34800 18.78400 30.41300
H  -4.94900 19.60100 29.56600
H  -4.24800 19.70700 31.13300
H  -5.22600 18.26400 30.62200
H  -0.90500 16.00300 30.37000
H  -2.08800 15.35700 31.47900
H  -2.27600 17.88400 32.37100
H  -0.68700 17.85400 31.71800
H  -3.63900 23.26500 26.29500
H  -1.99000 23.23400 26.98000
H  -3.29000 22.27500 27.70100
H  -3.74300 23.94900 24.41400
H  -2.65600 24.47400 23.06900
H  -1.93000 24.19100 24.68400
H  -1.54800 18.04100 20.68900
H  -2.33800 15.19500 20.91700
H  -4.09700 18.26400 20.93000
H  -4.18900 16.51100 20.58900
H  -3.39000 17.79100 19.50200
H  -0.20700 16.11200 19.91700
H  -0.24900 14.65600 20.75300
H  1.65200 16.57200 21.22200
H  1.10000 15.40100 22.46200
H  0.53100 17.04600 22.53600
H  -3.25300 11.16100 24.28700
H  -2.26200 10.59300 25.58900
H  -1.42600 11.23500 24.12500
H  -4.03600 13.50800 29.60900
H  -1.15200 11.15300 31.92000
H  -1.93300 12.07800 33.17100
H  -0.64900 12.72400 32.13400
Mg 16.17300 52.37500 27.13000
C  18.15700 50.99700 29.73100
C  13.77500 53.09800 29.44700
C  14.53000 53.58100 24.73600
C  18.56400 51.03000 24.80100
N  15.96400 51.95900 29.31900
C  16.93400 51.53000 30.20800
C  16.38600 51.33000 31.60700
C  14.97500 52.00900 31.49100
C  14.83600 52.34400 29.98800
C  13.73800 51.17000 31.98300
C  17.34100 51.81900 32.75400
C  17.16400 53.13500 33.61200
H  16.29700 53.04500 34.90100
N  14.33400 53.32400 27.15100
C  13.44800 53.57900 28.19300
C  12.31600 54.25800 27.69000
C  12.57700 54.52200 26.27700
C  13.85000 53.84800 25.98500
C  11.18500 54.57000 28.61000
C  11.80900 55.36800 25.29000
O  12.24900 55.68900 24.17500
C  10.38400 55.66200 25.53400
N  16.49600 52.26900 24.98800
C  15.66000 52.99600 24.18800
C  16.03500 52.92000 22.64800
C  17.47900 52.39000 22.82100
C  17.49600 51.77500 24.20800
C  15.03100 51.97000 21.87800
C  18.68200 53.32500 22.54500
C  19.91200 52.70000 21.79800
N  17.98200 51.02500 27.19500
C  18.87100 50.61200 26.16100
C  20.02400 49.92700 26.70200
C  19.76900 50.03400 28.07500
C  18.52300 50.75500 28.34600
C  21.24500 49.41800 26.04400
C  20.30800 49.67300 29.36000
O  21.26100 48.98600 29.62800
C  19.33600 50.31000 30.43600
C  18.82600 49.18000 31.33500
O  18.10100 48.25000 30.99600
O  19.42500 49.25500 32.58100
C  18.91500 48.34100 33.62400
H  13.02700 53.38700 30.18800
H  13.78700 53.89400 23.99900
H  19.30000 50.88100 24.00800
H  16.31400 50.25900 31.79500
H  14.90800 52.94200 32.05100
H  12.78200 51.68800 31.90200
H  13.97300 50.74700 32.96000
H  13.67200 50.31200 31.31400
H  18.27800 52.02800 32.23800
H  17.49000 51.00800 33.46700
H  16.80200 53.91700 32.94500
H  18.15200 53.45400 33.94600
H  10.54000 55.36200 28.22900
H  11.65700 54.88800 29.53900
H  10.60000 53.66600 28.77700
H  9.82900 54.78000 25.85400
H  10.01200 55.93500 24.54700
H  10.22800 56.44100 26.28100
H  16.00800 53.93800 22.25900
H  17.62200 51.52900 22.16800
H  14.40100 51.41400 22.57300
H  15.54100 51.33400 21.15500
H  14.43300 52.68700 21.31500
H  19.10300 53.64200 23.49900
H  18.40300 54.23100 22.00500
H  19.68000 51.72400 21.37300
H  20.79100 52.48200 22.40400
H  20.26800 53.37800 21.02300
H  21.49300 50.16300 25.28900
H  21.05200 48.49600 25.49600
H  22.00300 49.33800 26.82400
H  19.88600 50.99200 31.08400
H  18.59600 48.85000 34.53400
H  19.65900 47.59200 33.89500
H  18.07300 47.69300 33.37800

