158

Mg 36.17400 48.91200 26.61800
C  36.56300 46.76700 29.44500
C  35.09100 51.31700 28.72000
C  35.31500 50.55400 23.97300
C  37.12300 46.11000 24.63400
N  35.75700 49.02100 28.80600
C  36.07200 48.06200 29.78100
C  35.92000 48.67900 31.20100
C  34.99700 49.93300 30.90600
C  35.27600 50.14800 29.38200
C  33.46500 49.78200 31.13200
C  37.27200 49.10500 31.83300
C  37.55300 48.61300 33.30500
H  36.43600 48.61900 34.28700
N  35.46000 50.75300 26.38700
C  35.08500 51.60800 27.36500
C  34.81500 52.89500 26.66000
C  34.90300 52.73700 25.29500
C  35.20700 51.30700 25.16600
C  34.57800 54.19000 27.44500
C  34.77900 53.79600 24.20000
O  35.06900 53.56600 23.02200
C  34.06300 55.13400 24.54600
N  36.39000 48.39000 24.62300
C  35.78500 49.26300 23.65300
C  35.94100 48.63900 22.24000
C  36.66300 47.29700 22.41100
C  36.74700 47.26900 23.97800
C  34.63600 48.54000 21.42700
C  38.03000 47.06800 21.68200
C  39.26000 47.72200 22.26900
N  36.83600 46.86100 26.94500
C  37.23400 45.91900 26.06300
C  37.56100 44.67900 26.68700
C  37.38900 44.99500 28.06200
C  36.82500 46.29300 28.11400
C  38.00100 43.43000 25.96500
C  37.40700 44.50600 29.40100
O  37.63000 43.36800 29.75500
C  36.90300 45.57600 30.41400
C  35.70000 45.10500 31.12600
O  34.88200 44.38200 30.65400
O  35.77200 45.35200 32.48900
C  34.63600 44.80000 33.28500
H  34.78500 52.22100 29.25100
H  35.12400 51.04700 23.01800
H  37.25100 45.27000 23.94900
H  35.38600 47.96700 31.83100
H  35.34900 50.85600 31.36700
H  32.87300 50.37300 30.43400
H  33.20900 50.34300 32.03100
H  33.15600 48.73900 31.20700
H  37.38600 50.17200 32.02300
H  37.96300 48.62700 31.13800
H  38.34700 49.24800 33.70000
H  37.97300 47.61300 33.19900
H  35.22700 54.98500 27.07800
H  34.90700 53.97300 28.46200
H  33.50800 54.38700 27.50100
H  33.49700 55.56200 23.71900
H  34.62900 55.88600 25.09600
H  33.33900 54.85600 25.31300
H  36.47100 49.36900 21.62800
H  36.09600 46.39900 22.16300
H  34.20800 47.54500 21.31000
H  34.74300 49.08000 20.48600
H  33.85000 49.06600 21.96900
H  37.99100 47.13400 20.59500
H  38.25800 46.01400 21.84400
H  39.69800 48.37200 21.51100
H  39.92400 46.95400 22.66700
H  39.01600 48.42400 23.06600
H  38.36200 43.70500 24.97400
H  37.18000 42.71300 26.00300
H  38.82700 43.01700 26.54400
H  37.65800 45.91700 31.12200
H  34.52600 45.53900 34.07900
H  34.81500 43.82800 33.74500
H  33.71500 44.74900 32.70400
Mg 6.90100 54.12300 40.91000
C  6.55400 50.53000 40.52200
C  10.24100 53.61700 40.09900
C  7.20600 57.38800 40.25800
C  3.52400 54.34300 41.18400
N  8.19700 52.27600 40.35700
C  7.83300 50.95100 40.18900
C  9.08300 50.10200 39.72500
C  10.25900 51.06500 40.08700
C  9.56300 52.47200 40.15000
C  11.08400 50.73000 41.36600
C  8.98500 49.55200 38.26000
C  8.14400 50.25500 37.14900
H  7.25100 49.38100 36.13100
N  8.58800 55.40700 40.42700
C  9.87100 54.99400 40.17600
C  10.64700 56.18400 39.98400
C  9.77800 57.30100 39.96100
C  8.48900 56.74400 40.28800
C  12.17300 56.08200 39.76500
C  10.15000 58.77600 39.63700
O  11.30700 59.03800 39.36800
C  9.29100 59.86100 39.62100
N  5.56900 55.54900 40.55200
C  5.92900 56.89300 40.47600
C  4.69100 57.74500 40.59600
C  3.64600 56.90800 41.30200
C  4.27700 55.51700 41.04300
C  4.95900 59.19700 41.26100
C  2.24000 57.08600 40.72700
C  1.15800 57.41100 41.71200
N  5.34000 52.70100 40.89200
C  3.94200 52.97600 41.04700
C  3.22900 51.73900 41.18900
C  4.26100 50.76500 41.05000
C  5.47500 51.36700 40.83200
C  1.79600 51.58000 41.50600
C  4.49400 49.28600 41.06700
O  3.77400 48.38000 41.31000
C  5.99900 49.14300 40.65600
C  5.83400 48.43200 39.34700
O  5.45600 49.03000 38.32200
O  5.98300 47.10200 39.48300
C  5.67600 46.29800 38.29400
H  11.30800 53.44000 39.94200
H  7.28800 58.42700 39.93200
H  2.45500 54.40900 41.39300
H  9.09700 49.19000 40.32200
H  10.96800 51.12100 39.26100
H  10.67000 49.86500 41.88300
H  10.96500 51.61900 41.98600
H  12.10700 50.47900 41.08400
H  8.70400 48.50100 38.32800
H  9.98000 49.49300 37.81900
H  8.82200 50.83700 36.52600
H  7.48800 51.01000 37.58200
H  12.73400 56.69600 40.46900
H  12.44200 56.30800 38.73300
H  12.47900 55.03600 39.77100
H  9.77100 60.79600 39.33300
H  8.80700 60.02500 40.58300
H  8.54500 59.79000 38.82900
H  4.44700 57.91500 39.54800
H  3.64600 57.16300 42.36200
H  4.16400 59.32100 41.99600
H  5.02200 59.93500 40.46100
H  5.84400 59.26900 41.89300
H  1.93800 56.19400 40.17700
H  2.12100 57.89300 40.00400
H  0.75200 58.42200 41.71800
H  1.48400 57.20300 42.73200
H  0.32400 56.74900 41.48100
H  1.27400 51.76200 40.56600
H  1.49800 52.29200 42.27500
H  1.46300 50.57600 41.76900
H  6.53800 48.60800 41.43700
H  6.43600 46.40800 37.52000
H  4.74900 46.51500 37.76300
H  5.61100 45.27300 38.66000

