158

Mg 0.13300 6.65700 25.74000
C  0.56800 8.94300 28.28400
C  0.39800 4.07700 27.96400
C  -0.72200 4.54100 23.28800
C  0.84200 9.13800 23.41000
N  0.56300 6.57900 27.85600
C  0.47700 7.62900 28.68600
C  0.30900 7.11500 30.14200
C  0.69100 5.55600 30.07300
C  0.52100 5.40000 28.51200
C  2.10700 5.12500 30.47700
C  -1.16600 7.29600 30.61000
C  -1.47200 7.42700 32.08800
H  -0.27800 7.12900 33.04900
N  -0.14600 4.56800 25.66400
C  -0.01500 3.68600 26.69100
C  -0.22000 2.38000 26.20600
C  -0.45700 2.45800 24.80300
C  -0.46100 3.92500 24.52800
C  -0.10600 1.07600 27.08700
C  -0.61200 1.34200 23.83200
O  -0.88100 1.50200 22.62900
C  -0.56200 -0.14300 24.31600
N  -0.15500 6.87900 23.70500
C  -0.48700 5.85600 22.91400
C  -0.57600 6.23000 21.41300
C  -0.34800 7.81000 21.54400
C  0.14500 7.98000 22.98300
C  0.38900 5.51600 20.47800
C  -1.46200 8.67700 21.00800
C  -1.06100 10.07800 20.57800
N  0.61700 8.66300 25.80100
C  1.01100 9.54500 24.77200
C  1.23300 10.85600 25.32600
C  1.12100 10.67900 26.69900
C  0.76600 9.34500 26.91500
C  1.45600 12.08100 24.53900
C  1.16300 11.29600 28.00800
O  1.37900 12.40900 28.34400
C  0.83400 10.17000 29.07000
C  2.07400 10.09700 29.92500
O  3.08400 9.50000 29.64500
O  1.79400 10.69800 31.09900
C  2.88600 10.75700 32.07100
H  0.51600 3.30400 28.72700
H  -0.89900 3.78900 22.51600
H  1.31100 9.80000 22.67800
H  1.05800 7.63000 30.74300
H  -0.10900 5.02200 30.58600
H  2.72900 4.64400 29.72300
H  2.08800 4.34800 31.24100
H  2.55700 6.03900 30.86600
H  -1.76100 6.44200 30.28800
H  -1.63400 8.18000 30.17700
H  -2.23900 6.70100 32.36100
H  -1.87900 8.41200 32.31500
H  -0.74500 0.21600 26.88500
H  -0.29700 1.37400 28.11800
H  0.91300 0.71300 26.95900
H  0.26600 -0.33100 25.00000
H  -0.51900 -0.79700 23.44400
H  -1.49800 -0.43000 24.79500
H  -1.61100 6.00100 21.16000
H  0.50300 8.08100 20.92000
H  1.16600 4.99000 21.03300
H  0.82700 6.21300 19.76300
H  -0.00900 4.73100 19.83500
H  -2.30000 8.74700 21.70000
H  -1.86500 8.24300 20.09200
H  0.02700 10.12200 20.52300
H  -1.41500 10.80000 21.31300
H  -1.44500 10.38700 19.60600
H  1.47100 12.96400 25.17700
H  0.65900 12.39200 23.86400
H  2.38900 12.05600 23.97500
H  -0.05000 10.42900 29.65200
H  3.84400 10.54200 31.59800
H  2.78000 10.05700 32.90000
H  2.94200 11.73400 32.55100
Mg 24.13300 -5.01400 45.33800
C  26.17300 -2.64600 43.71300
C  21.70700 -4.22600 43.19000
C  22.38800 -7.73500 46.53300
C  26.96000 -6.19000 47.12100
N  24.07100 -3.58900 43.62000
C  24.97400 -2.73500 43.16300
C  24.49900 -1.99800 41.90300
C  23.00100 -2.26200 42.04800
C  22.85100 -3.42000 42.96000
C  22.18100 -1.06200 42.62600
C  25.14200 -2.65600 40.59500
C  25.88600 -1.70800 39.68500
H  25.81400 -1.93000 38.19800
N  22.15900 -5.87700 45.02900
C  21.35000 -5.35100 44.04600
C  20.17800 -6.15000 44.10700
C  20.32700 -7.22900 45.00800
C  21.65900 -7.02300 45.59700
C  19.05700 -5.82900 43.16600
C  19.29700 -8.25600 45.42900
O  18.15600 -8.18100 44.91600
C  19.60700 -9.34200 46.46600
N  24.67400 -6.75600 46.54800
C  23.71500 -7.63800 46.99300
C  24.23400 -8.74100 47.92800
C  25.57900 -8.12400 48.26500
C  25.77600 -6.92900 47.28300
C  23.36600 -9.05200 49.17800
C  26.78100 -9.01900 48.42200
C  27.54300 -8.88800 49.82300
N  26.15400 -4.56200 45.49200
C  27.16300 -5.07500 46.25300
C  28.34100 -4.18900 46.19900
C  27.97000 -3.27200 45.13900
C  26.66000 -3.46700 44.76400
C  29.56200 -4.30700 47.06100
C  28.44900 -2.09600 44.41300
O  29.47400 -1.47700 44.64000
C  27.37100 -1.84300 43.32900
C  27.13500 -0.40400 43.44300
O  26.35300 0.09100 44.18700
O  27.92900 0.36200 42.66600
C  27.84700 1.90400 42.74400
H  20.90700 -3.96000 42.49600
H  21.84800 -8.53500 47.04400
H  27.81600 -6.51100 47.71900
H  24.81300 -0.95900 42.00100
H  22.62000 -2.64700 41.10200
H  22.81700 -0.18500 42.50300
H  21.91600 -1.07600 43.68300
H  21.21700 -0.83600 42.16900
H  24.35200 -3.09000 39.98200
H  25.93200 -3.40300 40.66700
H  26.91300 -1.69500 40.05000
H  25.63700 -0.65400 39.80700
H  18.68700 -6.76600 42.74800
H  19.19900 -5.09700 42.37100
H  18.21700 -5.41100 43.72000
H  18.85900 -10.13000 46.37800
H  19.51100 -9.05900 47.51400
H  20.57500 -9.82000 46.31700
H  24.27600 -9.71200 47.43500
H  25.37500 -7.63900 49.21900
H  23.85600 -9.56100 50.00800
H  22.56700 -9.69700 48.81200
H  22.92400 -8.08900 49.43400
H  27.45500 -8.85800 47.58100
H  26.45200 -10.05800 48.38500
H  28.56900 -8.77900 49.47100
H  27.46500 -9.73900 50.49900
H  27.36800 -7.89000 50.22400
H  29.91800 -5.33600 47.02200
H  29.42000 -3.87000 48.04900
H  30.35000 -3.69400 46.62200
H  27.78900 -2.15300 42.37200
H  28.77600 2.34000 43.11000
H  27.10700 2.28300 43.44800
H  27.66100 2.33200 41.75900

