158

Mg 9.18600 3.66900 27.50700
C  10.24500 1.96700 30.40600
C  7.42500 5.71100 29.48100
C  7.78700 4.86900 24.69300
C  10.45400 0.87200 25.56600
N  8.92900 3.78200 29.69300
C  9.44600 3.02100 30.69100
C  9.15900 3.60400 32.03800
C  8.15100 4.77400 31.69900
C  8.19600 4.75700 30.18000
C  6.81000 4.75500 32.43200
C  10.41900 4.06000 32.79000
C  10.71700 3.47100 34.21900
H  10.67100 4.40500 35.45300
N  7.99400 5.23400 27.13500
C  7.35200 5.95700 28.10000
C  6.59600 6.95500 27.48100
C  6.68500 6.77400 26.05000
C  7.50300 5.55100 25.88300
C  5.83600 7.97200 28.26400
C  5.99300 7.58500 24.90600
O  6.16300 7.28500 23.69800
C  5.16700 8.75600 25.28900
N  9.16500 3.01100 25.46100
C  8.61100 3.68600 24.45200
C  8.70600 3.03600 23.04800
C  9.76100 1.92800 23.34000
C  9.84100 1.94200 24.89100
C  7.37200 2.55500 22.53900
C  11.21900 2.18700 22.91300
C  11.91500 1.26800 21.86700
N  10.22300 1.83600 27.85800
C  10.73300 0.88700 26.97800
C  11.42400 -0.14500 27.79400
C  11.28100 0.29400 29.13300
C  10.52300 1.46400 29.12600
C  12.07800 -1.44400 27.37600
C  11.67400 0.00600 30.51900
O  12.24100 -0.99000 30.95700
C  10.89100 1.03300 31.41100
C  9.87600 0.34900 32.30200
O  8.79700 -0.08900 31.96400
O  10.45500 0.07100 33.45500
C  9.63900 -0.61800 34.49900
H  7.03800 6.47400 30.16000
H  7.16700 5.00000 23.80400
H  10.86200 0.04400 24.98300
H  8.69900 2.80200 32.61500
H  8.56500 5.71300 32.06700
H  5.88900 4.45900 31.92800
H  6.50700 5.75800 32.73100
H  6.93800 4.19100 33.35600
H  10.42300 5.14800 32.84800
H  11.29000 3.69700 32.24400
H  11.66600 2.93500 34.18200
H  10.00000 2.69300 34.48500
H  5.62600 7.72800 29.30500
H  4.79700 8.02100 27.94000
H  6.42700 8.87400 28.42300
H  5.36800 9.47000 24.49000
H  5.42300 9.26500 26.21800
H  4.11900 8.48000 25.40500
H  9.13300 3.80700 22.40600
H  9.34300 1.01500 22.91700
H  6.51200 2.55900 23.21000
H  7.53700 1.57600 22.09000
H  7.26000 3.33000 21.78100
H  11.92900 2.16900 23.73900
H  11.21900 3.23500 22.61100
H  12.09200 1.92700 21.01600
H  11.20200 0.52500 21.51100
H  12.83200 0.97100 22.37500
H  13.06800 -1.14000 27.03300
H  11.50500 -1.99600 26.63200
H  12.33200 -2.03000 28.25900
H  11.56000 1.63600 32.02400
H  9.66100 -1.69700 34.34600
H  8.58900 -0.33900 34.58700
H  10.16300 -0.46000 35.44200
Mg 30.04400 58.90700 40.76400
C  27.34100 56.90200 39.67200
C  32.12100 56.36500 39.66600
C  32.81400 60.92100 40.75200
C  27.94400 61.54500 41.16100
N  29.71400 56.92900 39.75000
C  28.56400 56.32400 39.38500
C  28.79700 55.17000 38.42000
C  30.23600 54.78300 38.80200
C  30.73900 56.10600 39.47900
C  30.26000 53.56300 39.70500
C  28.56100 55.54100 36.92500
C  27.36800 55.08100 36.17100
H  26.62000 56.05200 35.30700
N  32.20100 58.56000 40.42500
C  32.83100 57.49200 39.97700
C  34.31200 57.62000 39.90000
C  34.53000 58.97500 40.28800
C  33.12600 59.57100 40.44200
C  35.30700 56.61200 39.26900
C  35.85100 59.74200 40.54600
O  36.90300 59.10600 40.51800
C  35.94400 61.12300 41.17600
N  30.33800 60.94700 40.90700
C  31.55100 61.52900 41.04500
C  31.43700 63.03700 41.34100
C  29.93000 63.18600 41.46300
C  29.33000 61.83700 41.17000
C  32.31500 63.58500 42.44800
C  29.24400 64.31700 40.55900
C  30.00900 65.60000 40.33000
N  28.06300 59.17200 40.71400
C  27.31400 60.29500 40.95100
C  25.86900 59.88800 40.91800
C  25.88000 58.57100 40.41400
C  27.20100 58.20300 40.24500
C  24.69300 60.82600 41.15100
C  25.02200 57.59100 39.93900
O  23.77900 57.63500 39.96700
C  25.93800 56.37700 39.45600
C  25.53300 55.21300 40.21000
O  25.96400 54.92800 41.28500
O  24.55700 54.52300 39.50200
C  24.06100 53.31600 40.17100
H  32.78700 55.57400 39.31600
H  33.60900 61.66900 40.78600
H  27.28400 62.38700 41.37900
H  28.24300 54.28700 38.74200
H  30.92500 54.61000 37.97500
H  29.27600 53.28700 40.08200
H  30.91700 53.74200 40.55600
H  30.54100 52.70000 39.10100
H  29.48300 55.25800 36.41600
H  28.62300 56.62500 36.83400
H  26.71700 54.56400 36.87600
H  27.71100 54.37500 35.41500
H  36.25100 56.99000 38.87700
H  34.88100 56.21100 38.35000
H  35.41100 55.71000 39.87100
H  35.28700 61.15000 42.04500
H  35.50800 61.83100 40.47100
H  37.00000 61.23600 41.42300
H  31.64300 63.50600 40.37900
H  29.63000 63.43300 42.48200
H  32.96700 62.81000 42.85100
H  31.76800 63.99900 43.29600
H  32.88000 64.41000 42.01400
H  28.21000 64.47400 40.86600
H  29.04500 63.85500 39.59200
H  29.26200 66.38600 40.44200
H  30.44100 65.70300 39.33400
H  30.70900 65.72200 41.15700
H  24.51200 61.24400 40.16100
H  25.09800 61.47400 41.92900
H  23.87800 60.22600 41.55700
H  25.61700 56.17400 38.43400
H  24.06400 53.21500 41.25600
H  24.63100 52.42200 39.91500
H  23.05600 53.13300 39.79100

