158

Mg 1.82500 -1.68300 43.74900
C  5.14900 -0.71400 43.12700
C  0.88700 1.27000 42.29700
C  -1.26600 -2.81200 43.79900
C  3.03900 -4.78600 44.96000
N  2.90500 0.01600 42.84600
C  4.22400 0.13100 42.53300
C  4.58000 1.45500 41.72300
C  3.22700 2.26700 41.85200
C  2.31400 1.14300 42.39700
C  3.24600 3.47800 42.82400
C  5.16100 1.24200 40.31800
C  6.57900 1.79500 40.11100
H  6.72700 2.80400 38.87800
N  0.01900 -0.90200 42.98000
C  -0.11900 0.36000 42.46200
C  -1.53100 0.51800 42.17200
C  -2.17800 -0.66400 42.63100
C  -1.16900 -1.56500 43.14000
C  -2.03800 1.82300 41.60800
C  -3.64100 -1.01100 42.60000
O  -4.36700 -0.03800 42.35000
C  -4.20900 -2.33700 42.80800
N  0.99100 -3.61600 44.26500
C  -0.30400 -3.74900 44.22800
C  -0.85400 -5.10000 44.81300
C  0.60500 -5.72700 45.12700
C  1.63800 -4.66600 44.75700
C  -1.83200 -4.98500 46.05000
C  0.94900 -7.12300 44.55000
C  0.85400 -8.34500 45.48900
N  3.66200 -2.63800 44.00200
C  3.95100 -3.81800 44.61200
C  5.42200 -3.92200 44.64900
C  5.91300 -2.68000 44.17500
C  4.82000 -2.00000 43.69800
C  6.13100 -5.07300 45.19000
C  7.11600 -1.84600 43.89400
O  8.26200 -1.90800 44.22100
C  6.63200 -0.59800 43.18300
C  7.02000 0.56400 43.95500
O  6.44600 1.00500 44.93300
O  8.16800 1.22800 43.42500
C  8.47900 2.51800 44.18100
H  0.53800 2.27000 42.03000
H  -2.28600 -3.10300 44.06000
H  3.33400 -5.66700 45.53300
H  5.34000 1.92200 42.35000
H  2.89100 2.64900 40.88800
H  4.27400 3.77500 43.03200
H  2.74100 3.29400 43.77200
H  2.74200 4.36800 42.44700
H  4.50100 1.71500 39.59100
H  5.30100 0.18100 40.11100
H  7.31500 1.00600 39.95800
H  6.87200 2.26600 41.05000
H  -1.57000 2.00200 40.64000
H  -1.79000 2.65900 42.26300
H  -3.11400 1.66300 41.54100
H  -5.23100 -2.35800 42.42900
H  -4.24400 -2.44400 43.89300
H  -3.68900 -3.20100 42.39600
H  -1.25200 -5.76000 44.04300
H  0.73100 -5.76900 46.20900
H  -2.54000 -5.81000 45.98100
H  -2.37800 -4.04100 46.06900
H  -1.33200 -5.17000 47.00100
H  1.98800 -7.08200 44.22600
H  0.25900 -7.20700 43.71000
H  1.44800 -9.17800 45.11400
H  -0.18800 -8.66200 45.44200
H  1.17400 -8.21800 46.52400
H  5.54100 -5.62400 45.92200
H  7.03300 -4.69800 45.67200
H  6.47800 -5.76800 44.42500
H  7.06100 -0.56900 42.18200
H  7.86300 3.36000 43.86700
H  9.52100 2.74600 43.95600
H  8.48500 2.40300 45.26500
Mg 8.42200 3.63500 26.77200
C  9.86000 2.08900 29.70600
C  6.29800 5.30800 28.85500
C  7.16400 5.01600 24.16900
C  10.31800 1.32500 24.80800
N  8.08900 3.61700 29.03600
C  8.90400 3.04300 29.97000
C  8.54500 3.68100 31.35800
C  7.48900 4.72800 31.02200
C  7.28300 4.54200 29.54000
C  6.18100 4.72600 31.90400
C  9.78900 4.32800 32.12200
C  9.56300 4.76100 33.62900
H  10.53700 4.19400 34.74900
N  6.87100 4.86400 26.50300
C  6.14000 5.46500 27.47000
C  5.20400 6.41300 26.87000
C  5.47200 6.38700 25.47900
C  6.49600 5.40400 25.30500
C  4.17400 7.21900 27.68100
C  4.80500 7.16600 24.30600
O  5.18300 7.19300 23.13800
C  3.59100 8.11700 24.58500
N  8.62900 3.14500 24.74300
C  8.10800 4.04300 23.84400
C  8.77000 3.89100 22.49500
C  9.78300 2.68700 22.73800
C  9.60100 2.34700 24.21500
C  7.81900 3.57300 21.33400
C  11.21300 2.96400 22.28400
C  12.15100 3.74800 23.24100
N  9.66400 1.85700 27.09900
C  10.32000 1.01300 26.24200
C  11.20100 0.12900 26.94400
C  11.02200 0.49900 28.32700
C  10.12300 1.61800 28.39300
C  12.13000 -0.81300 26.34300
C  11.54400 0.32700 29.67200
O  12.39500 -0.41600 30.16100
C  10.82000 1.35400 30.61000
C  10.15900 0.56500 31.72900
O  9.21200 -0.18100 31.61300
O  10.90600 0.77000 32.85200
C  10.44000 0.38400 34.21600
H  5.77900 5.93900 29.57800
H  6.85100 5.57200 23.28300
H  11.00500 0.88300 24.08300
H  8.05600 2.92600 31.97300
H  7.92700 5.72100 31.12400
H  6.08500 5.71800 32.34400
H  6.28700 3.92400 32.63500
H  5.26300 4.60500 31.32800
H  9.95900 5.21700 31.51300
H  10.68300 3.70500 32.10200
H  8.51000 4.53400 33.79600
H  9.63800 5.84400 33.72400
H  4.54100 8.23600 27.81400
H  4.10500 6.82900 28.69700
H  3.20400 7.19400 27.18400
H  2.65300 7.60600 24.80500
H  3.46100 8.76600 23.71900
H  3.85200 8.72400 25.45200
H  9.21200 4.86000 22.26000
H  9.38900 1.80700 22.23100
H  6.78600 3.41900 21.64700
H  8.09400 2.66300 20.80200
H  7.83700 4.35500 20.57500
H  11.12800 3.56900 21.38100
H  11.72500 2.04600 21.99500
H  12.41100 4.66900 22.71900
H  13.05100 3.14200 23.35200
H  11.66600 4.03100 24.17500
H  12.88100 -1.09500 27.08100
H  12.50600 -0.31900 25.44700
H  11.53900 -1.67800 26.04200
H  11.58500 1.97600 31.07500
H  10.26600 1.21900 34.89600
H  11.27100 -0.24900 34.52600
H  9.51400 -0.19100 34.20000

