158

Mg 53.71300 24.50200 43.92700
C  50.83900 26.34700 43.23300
C  52.19000 21.73300 42.54800
C  56.67000 22.99100 43.59200
C  55.27900 27.54200 44.88800
N  51.76000 24.15500 42.95900
C  50.76200 25.03100 42.73200
C  49.59200 24.42200 41.90800
C  49.85700 22.92700 42.10000
C  51.34300 22.89300 42.51200
C  48.85000 22.12100 43.04700
C  49.54600 24.90500 40.44300
C  48.08100 24.99100 39.96700
H  47.43500 23.67900 39.37300
N  54.33700 22.55500 43.33400
C  53.49900 21.55200 42.89900
C  54.24300 20.33800 42.64800
C  55.57100 20.70000 42.86100
C  55.57900 22.12600 43.30100
C  53.62000 19.04300 42.19100
C  56.79300 19.78600 42.64900
O  56.62900 18.61100 42.34600
C  58.23500 20.17700 42.86500
N  55.60700 25.14500 44.23100
C  56.68800 24.32800 44.01800
C  58.00100 25.12700 44.25000
C  57.55600 26.60000 44.53500
C  56.07200 26.39200 44.58900
C  59.04300 24.47000 45.20200
C  58.16200 27.68800 43.63800
C  58.26900 29.10200 44.24400
N  53.15000 26.56800 44.18400
C  53.84200 27.56500 44.70500
C  52.95400 28.68300 44.94900
C  51.73600 28.30000 44.30200
C  51.96400 26.97600 43.87500
C  53.33100 30.07200 45.62800
C  50.36300 28.63700 43.97200
O  49.66200 29.58700 44.20000
C  49.73600 27.38800 43.21900
C  49.36200 27.93600 41.87700
O  50.05800 28.30500 40.98400
O  47.99700 27.93600 41.83700
C  47.46000 28.22200 40.57600
H  51.75300 20.83000 42.11600
H  57.61700 22.45300 43.66100
H  55.63800 28.51500 45.22700
H  48.65700 24.60800 42.43700
H  49.86000 22.42100 41.13400
H  48.74300 21.08900 42.71100
H  47.87600 22.60800 42.99300
H  49.06100 21.99700 44.10900
H  50.03000 24.18400 39.78400
H  50.14000 25.81600 40.37300
H  48.01000 25.71100 39.15200
H  47.43000 25.30700 40.78200
H  53.06600 19.03200 41.25200
H  52.98800 18.76000 43.03300
H  54.28900 18.18300 42.14300
H  58.41800 21.05600 42.24700
H  58.77300 19.30900 42.48300
H  58.46400 20.26100 43.92700
H  58.58000 25.08700 43.32700
H  57.80200 26.75800 45.58500
H  58.57500 23.55100 45.55500
H  59.29600 25.05300 46.08700
H  59.94400 24.16000 44.67200
H  57.51600 27.86600 42.77800
H  59.13100 27.39800 43.23200
H  59.32200 29.10100 44.52800
H  57.67700 29.27500 45.14300
H  58.07700 29.80600 43.43500
H  54.29800 29.95400 46.11700
H  52.61200 30.13500 46.44400
H  53.21300 31.01200 45.08900
H  48.92000 26.91600 43.76500
H  47.20300 29.28100 40.55000
H  46.63800 27.51700 40.45100
H  47.98900 27.96800 39.65700
Mg -0.92500 34.34500 26.79500
C  -1.95500 32.89300 29.78700
C  0.77600 36.73800 28.79500
C  -0.15200 36.05300 24.09900
C  -2.63600 31.93500 25.02300
N  -0.40000 34.58100 29.09500
C  -0.99500 33.89200 30.15200
C  -0.55400 34.32000 31.48200
C  0.17200 35.70200 31.10400
C  0.19600 35.73200 29.55300
C  -0.45100 36.95400 31.78300
C  0.22300 33.20400 32.20300
C  -0.53800 32.66200 33.43400
H  -0.00900 32.77200 34.81500
N  0.28800 36.02900 26.49500
C  0.98800 36.87800 27.35400
C  1.82700 37.82500 26.66000
C  1.66300 37.55800 25.30000
C  0.52300 36.62000 25.18500
C  2.85300 38.64600 27.37800
C  2.35100 38.25200 24.09200
O  1.97300 38.02200 22.92800
C  3.44300 39.29100 24.35400
N  -1.58300 34.14000 24.87700
C  -1.02400 34.92200 23.89500
C  -1.46800 34.49300 22.52900
C  -1.95100 33.04800 22.84400
C  -2.07900 33.00100 24.35400
C  -2.54000 35.42700 21.89800
C  -0.95100 31.94000 22.21500
C  0.25500 31.34100 22.97600
N  -2.12100 32.80400 27.24500
C  -2.78400 31.87200 26.46500
C  -3.40000 30.85000 27.19300
C  -3.21000 31.29300 28.56200
C  -2.38200 32.43900 28.51300
C  -4.47400 29.84200 26.65600
C  -3.43600 30.94300 29.97200
O  -4.01900 30.03200 30.51700
C  -2.80700 32.14600 30.74800
C  -4.00900 32.89700 31.37700
O  -4.57500 33.78700 30.75500
O  -4.57200 32.29000 32.50800
C  -5.81300 32.85600 32.97900
H  1.34500 37.51300 29.31300
H  0.09400 36.55100 23.15900
H  -2.97000 31.09600 24.41000
H  -1.52600 34.66100 31.83700
H  1.20100 35.73600 31.46100
H  0.36400 37.53600 32.21400
H  -1.18000 36.83900 32.58500
H  -0.88200 37.46500 30.92200
H  1.16000 33.63700 32.55500
H  0.47200 32.43900 31.46800
H  -0.79700 31.63500 33.17600
H  -1.45100 33.25600 33.47500
H  3.85400 38.23400 27.24700
H  2.66100 38.71700 28.44800
H  2.87500 39.66400 26.99000
H  2.85600 40.14300 24.69700
H  4.04300 39.53200 23.47600
H  4.13300 39.07400 25.16900
H  -0.60200 34.46800 21.86700
H  -2.92600 32.76200 22.44900
H  -3.05100 35.96600 22.69500
H  -3.40100 35.04300 21.35000
H  -2.10000 36.15900 21.22000
H  -0.61400 32.37200 21.27200
H  -1.62100 31.09300 22.07100
H  0.37700 31.74900 23.98000
H  1.14900 31.50900 22.37600
H  0.13900 30.26400 23.09400
H  -5.44100 30.34400 26.65400
H  -4.44300 28.98900 27.33400
H  -4.24000 29.70800 25.60000
H  -2.17500 31.77400 31.55500
H  -6.32500 32.10100 33.57600
H  -6.41700 33.31700 32.19700
H  -5.65300 33.68600 33.66600

