158

Mg 41.02100 7.79500 29.52100
C  42.92200 9.22400 32.08100
C  38.65000 6.80200 31.81800
C  39.54900 5.99500 27.12500
C  43.81600 8.03900 27.34700
N  40.86700 7.90700 31.74900
C  41.68500 8.73200 32.54700
C  41.03000 8.81000 33.96300
C  39.82000 7.86200 33.95300
C  39.75700 7.40000 32.43800
C  39.75300 6.64200 34.85000
C  40.72900 10.35900 34.16900
C  40.03500 10.72600 35.47400
H  40.75200 11.67200 36.45700
N  39.35800 6.61000 29.54600
C  38.41300 6.44800 30.50800
C  37.31200 5.70100 30.02700
C  37.51800 5.41500 28.66400
C  38.91100 5.93600 28.41000
C  36.09600 5.36000 30.93100
C  36.62000 4.72600 27.63300
O  36.98600 4.49600 26.45400
C  35.10300 4.44400 27.95800
N  41.58500 7.07500 27.48900
C  40.75300 6.41700 26.74500
C  41.31700 6.07000 25.39400
C  42.50100 7.05700 25.35200
C  42.72100 7.28900 26.83300
C  41.60100 4.64500 25.04900
C  42.23200 8.39600 24.58200
C  43.43500 9.38800 24.16200
N  42.95000 8.47700 29.63600
C  43.96800 8.47000 28.66400
C  45.07100 9.17300 29.17200
C  44.72500 9.45000 30.51800
C  43.45100 9.01500 30.74800
C  46.27600 9.66300 28.42600
C  45.15100 10.11100 31.77000
O  46.20100 10.65500 32.06700
C  43.98600 10.00900 32.85600
C  44.48800 9.31400 34.06400
O  44.92300 8.16300 34.04900
O  44.39700 10.08800 35.20700
C  44.38300 9.28500 36.45000
H  37.84300 6.69100 32.54600
H  39.07200 5.40800 26.33700
H  44.69300 8.13500 26.70300
H  41.76900 8.48400 34.69400
H  38.85400 8.35100 34.07500
H  39.97300 5.73800 34.28200
H  38.89700 6.59600 35.52400
H  40.54400 6.67600 35.59900
H  40.23200 10.80400 33.30800
H  41.64000 10.95500 34.22600
H  39.87400 9.77300 35.97700
H  39.15500 11.33400 35.26300
H  35.17100 5.75700 30.51400
H  36.15300 5.61200 31.99000
H  36.01200 4.27400 30.95600
H  35.07200 3.80800 28.84300
H  34.56700 3.95500 27.14400
H  34.55400 5.36900 28.13600
H  40.63300 6.44200 24.63100
H  43.31900 6.58300 24.81000
H  41.06500 3.86700 25.59300
H  42.66800 4.54900 25.24600
H  41.44900 4.51500 23.97700
H  41.64100 8.92800 25.32700
H  41.56700 8.07300 23.78100
H  43.39100 9.48900 23.07800
H  44.30900 8.85400 24.53600
H  43.33500 10.39200 24.57600
H  45.86700 9.90400 27.44500
H  47.01000 8.86500 28.31800
H  46.67100 10.62300 28.75900
H  43.79300 11.03700 33.16200
H  45.42900 9.13000 36.71700
H  43.81200 8.37000 36.29300
H  43.90200 9.78800 37.28800
Mg 47.48800 14.94800 28.32400
C  45.16700 14.69500 30.92300
C  49.16000 17.48200 30.14000
C  49.82200 14.89000 25.90800
C  45.63500 12.54500 26.57900
N  47.06500 16.06900 30.30300
C  46.17600 15.64800 31.24000
C  46.44100 16.36100 32.60100
C  47.58300 17.38100 32.14700
C  47.97900 17.01100 30.74800
C  47.12000 18.89400 32.26200
C  46.83600 15.35400 33.76300
C  46.78700 15.98300 35.16900
H  47.71700 15.58100 36.30200
N  49.23500 16.10600 28.03800
C  49.80900 17.08000 28.89500
C  51.04900 17.41300 28.34400
C  51.26800 16.64100 27.13900
C  50.07800 15.79600 26.98000
C  51.90000 18.56400 28.96500
C  52.28800 16.82100 26.08300
O  52.39300 16.16200 25.06600
C  53.43800 17.80700 26.30600
N  47.61200 13.98800 26.41800
C  48.70100 14.12000 25.63200
C  48.75300 13.03200 24.58500
C  47.50700 12.10700 24.90000
C  46.86400 12.88400 26.01600
C  48.78900 13.67500 23.21700
C  47.75000 10.63500 25.37900
C  49.01900 9.99000 24.74900
N  45.70100 13.95900 28.51600
C  45.02300 13.02600 27.71500
C  43.84600 12.60200 28.35500
C  43.92100 13.17100 29.61800
C  45.03300 13.97600 29.65900
C  42.75500 11.75700 27.84900
C  43.22500 13.27900 30.88800
O  42.15400 12.77200 31.19900
C  44.07600 14.13700 31.82300
C  43.26500 15.14900 32.45100
O  42.56800 15.98400 31.88300
O  43.31600 14.96200 33.83800
C  42.68300 16.13100 34.53100
H  49.71000 18.19000 30.76300
H  50.61300 14.68200 25.18400
H  45.11100 11.77400 26.01000
H  45.55800 16.92500 32.90200
H  48.37900 17.14600 32.85400
H  46.99000 19.41300 31.31200
H  48.01300 19.40600 32.62200
H  46.35400 18.91800 33.03700
H  47.83400 14.97900 33.53700
H  46.16900 14.49800 33.86600
H  45.75300 15.82700 35.47400
H  46.68600 17.06500 35.08400
H  51.91800 19.25600 28.12300
H  52.89100 18.19800 29.23600
H  51.44700 19.01900 29.84700
H  54.02000 17.64400 27.21300
H  53.11800 18.83100 26.11400
H  54.12800 17.57000 25.49700
H  49.72100 12.53200 24.60800
H  46.80500 12.03400 24.06900
H  48.72800 14.76000 23.30300
H  47.89900 13.35000 22.67700
H  49.68700 13.42200 22.65400
H  46.87700 9.99400 25.25900
H  48.07900 10.75600 26.41100
H  48.76600 8.95700 24.51000
H  49.78400 9.83500 25.51000
H  49.51200 10.57900 23.97600
H  43.02400 10.86100 27.28900
H  42.13900 12.42500 27.24700
H  42.21800 11.47800 28.75600
H  44.41100 13.31500 32.45600
H  43.05700 16.24500 35.54800
H  41.63800 15.98900 34.80700
H  42.99300 17.07400 34.08100

