158

Mg -3.21800 35.16900 26.38900
C  -4.90400 33.41800 28.77600
C  -1.64700 37.05400 28.66600
C  -1.99900 37.16900 23.81800
C  -5.17300 33.55800 24.02400
N  -3.54400 35.41800 28.45100
C  -4.12200 34.45900 29.27400
C  -3.73400 34.57000 30.75500
C  -2.81700 35.86100 30.63300
C  -2.66400 36.20600 29.13700
C  -3.38800 37.07800 31.37300
C  -2.84000 33.32500 31.20000
C  -3.25200 32.79500 32.59200
H  -2.32200 32.89800 33.84200
N  -2.02800 36.95800 26.27200
C  -1.34100 37.45500 27.35300
C  -0.33500 38.29800 26.93400
C  -0.39500 38.30300 25.48200
C  -1.51800 37.42100 25.10800
C  0.70600 38.94200 27.86900
C  0.43700 39.02300 24.44500
O  0.25100 39.01800 23.18400
C  1.71000 39.68300 24.88900
N  -3.76600 35.57400 24.26800
C  -3.10000 36.37900 23.42900
C  -3.52100 36.34000 21.97800
C  -4.18400 34.95800 22.02400
C  -4.49400 34.67000 23.50400
C  -4.44100 37.58000 21.57200
C  -3.31200 33.79900 21.41000
C  -2.49700 32.90700 22.33500
N  -4.66200 33.73600 26.30300
C  -5.34500 33.14600 25.31300
C  -6.03000 32.01800 25.80000
C  -5.90200 32.04200 27.22400
C  -5.05400 33.11500 27.46000
C  -6.82200 31.05500 25.05100
C  -6.28100 31.46200 28.48700
O  -7.03900 30.51500 28.65500
C  -5.65000 32.40400 29.58000
C  -6.71000 32.97400 30.36000
O  -7.51400 33.81800 29.97800
O  -6.82400 32.35100 31.50400
C  -7.88100 32.70600 32.48100
H  -1.03000 37.53000 29.43100
H  -1.62100 37.69400 22.93800
H  -5.69600 32.89900 23.32800
H  -4.61300 34.74800 31.37300
H  -1.74800 35.71700 30.78800
H  -3.55000 37.91400 30.69300
H  -2.61300 37.36600 32.08300
H  -4.37000 36.87700 31.80200
H  -1.80100 33.63200 31.32100
H  -2.81300 32.51200 30.47400
H  -3.38400 31.74100 32.35000
H  -4.23600 33.08100 32.96400
H  1.69200 38.87800 27.40800
H  0.68600 38.44500 28.83900
H  0.53900 40.01600 27.94100
H  1.35700 40.42800 25.60200
H  2.06400 40.39500 24.14300
H  2.44100 38.95000 25.23000
H  -2.67100 36.52300 21.32100
H  -5.09600 34.97500 21.42700
H  -4.01200 37.94900 20.64100
H  -4.39700 38.35800 22.33400
H  -5.42000 37.16900 21.32400
H  -2.51400 34.18800 20.77800
H  -4.10400 33.19100 20.97100
H  -2.35900 33.45200 23.26800
H  -1.45500 32.86800 22.01800
H  -2.99100 31.93500 22.31200
H  -6.74600 31.02000 23.96500
H  -7.86200 31.33200 25.22200
H  -6.74500 30.00500 25.33300
H  -5.05700 31.72100 30.19000
H  -8.61500 33.36600 32.01900
H  -7.37400 33.16600 33.32900
H  -8.22500 31.70600 32.74500
Mg -12.20800 16.22100 42.20000
C  -9.01500 14.93800 41.29200
C  -11.29400 19.13600 40.77800
C  -15.46200 17.19000 42.41000
C  -13.12400 12.92000 42.83100
N  -10.43400 16.82500 40.99100
C  -9.20500 16.20200 40.76100
C  -8.16400 17.10300 40.14000
C  -8.86000 18.49000 40.09600
C  -10.31200 18.13200 40.57600
C  -8.18000 19.57900 41.00700
C  -7.64200 16.49800 38.81200
C  -6.13300 16.56300 38.62900
H  -5.54300 17.44500 37.43900
N  -13.27100 17.90200 41.72300
C  -12.67100 18.98900 41.26900
C  -13.63800 20.07200 41.13100
C  -14.88500 19.50700 41.49400
C  -14.60500 18.16100 41.92800
C  -13.30700 21.42300 40.55600
C  -16.31000 20.16700 41.34400
O  -16.45700 21.36400 41.03700
C  -17.55600 19.38000 41.68200
N  -14.05600 15.25500 42.47200
C  -15.25100 15.81100 42.62800
C  -16.34900 14.85200 43.24800
C  -15.62600 13.44300 43.06400
C  -14.11100 13.90800 42.84000
C  -16.57800 15.16600 44.82400
C  -16.06300 12.78200 41.74300
C  -17.03300 11.59000 41.76200
N  -11.22100 14.34200 42.35600
C  -11.74500 13.09900 42.61000
C  -10.73000 12.06300 42.60900
C  -9.61500 12.78500 42.15700
C  -9.97000 14.13500 42.00100
C  -10.95200 10.61600 42.84200
C  -8.23500 12.65400 41.77100
O  -7.49700 11.69200 41.78900
C  -7.74100 14.05400 41.24500
C  -6.58900 14.55000 42.01400
O  -6.64200 15.03000 43.15300
O  -5.41400 14.47900 41.31800
C  -4.23400 14.99000 42.03900
H  -10.93300 20.04600 40.29300
H  -16.48300 17.44900 42.70000
H  -13.38700 11.89300 43.09400
H  -7.37000 17.06400 40.88600
H  -9.08900 18.90300 39.11400
H  -7.16700 19.36400 41.34700
H  -8.90600 19.64400 41.81800
H  -8.03900 20.45000 40.36700
H  -8.00500 17.07400 37.96100
H  -7.95800 15.45500 38.77300
H  -5.92400 15.56200 38.25200
H  -5.63900 16.76700 39.57800
H  -13.22200 21.33700 39.47300
H  -12.34300 21.86100 40.81400
H  -14.10800 22.11300 40.81900
H  -18.36900 20.09200 41.54200
H  -17.42600 19.24400 42.75600
H  -17.65700 18.42200 41.17100
H  -17.26000 14.94200 42.65800
H  -15.79500 12.88800 43.98700
H  -15.78200 15.73200 45.30700
H  -16.87500 14.25800 45.35100
H  -17.48100 15.77700 44.81600
H  -15.21100 12.41100 41.17300
H  -16.56400 13.54100 41.14300
H  -17.84800 11.81700 41.07500
H  -17.44700 11.45800 42.76200
H  -16.43900 10.75900 41.38100
H  -11.59600 10.46600 43.70900
H  -10.07700 9.99600 43.03800
H  -11.47500 10.21600 41.97400
H  -7.43700 13.86300 40.21600
H  -3.37500 14.71200 41.42800
H  -4.14800 14.47900 42.99800
H  -4.13600 16.07300 42.10300

