158

Mg -1.67700 33.91400 27.89500
C  -3.62400 32.10100 30.31700
C  -0.22700 35.73300 30.49600
C  -0.28200 35.90000 25.52600
C  -3.39700 32.05900 25.49700
N  -1.80500 33.84600 30.18100
C  -2.74000 33.11200 30.88700
C  -2.46600 33.25000 32.39900
C  -1.49600 34.50700 32.43200
C  -1.11700 34.75400 30.93900
C  -2.10500 35.76600 33.10400
C  -1.84200 31.95700 33.12400
C  -2.72000 31.36900 34.22400
H  -2.10200 31.33400 35.57400
N  -0.32500 35.48200 27.95100
C  0.09400 36.13100 29.13100
C  1.06100 37.15000 28.74000
C  0.97100 37.20400 27.24000
C  0.11300 36.15300 26.84000
C  1.87400 38.06800 29.66900
C  1.70700 38.21500 26.27300
O  1.50700 38.28100 25.05200
C  2.76000 39.22700 26.71500
N  -1.92000 34.08100 25.86500
C  -1.18300 34.90000 25.06100
C  -1.48100 34.69600 23.57400
C  -2.11600 33.24600 23.71200
C  -2.59100 33.16600 25.09500
C  -2.40800 35.76000 22.96700
C  -1.06100 32.09000 23.40500
C  -1.55900 30.82200 22.68100
N  -3.28900 32.41600 27.88800
C  -3.77700 31.68900 26.77900
C  -4.60100 30.56100 27.24000
C  -4.55000 30.71300 28.65600
C  -3.74000 31.81300 28.99000
C  -5.35300 29.64900 26.38000
C  -5.08800 30.26600 29.89700
O  -5.93100 29.41200 30.17000
C  -4.56700 31.16300 31.03200
C  -5.67100 31.85300 31.83700
O  -6.16100 32.90600 31.53600
O  -5.94300 31.17000 32.96800
C  -6.95200 31.63600 33.92300
H  0.31800 36.33600 31.22600
H  0.23100 36.52200 24.79000
H  -3.89800 31.51800 24.69200
H  -3.43400 33.45700 32.85600
H  -0.74000 34.15600 33.13500
H  -1.93300 36.67400 32.52500
H  -1.78600 35.85600 34.14200
H  -3.17700 35.57000 33.10400
H  -0.83300 32.07700 33.51800
H  -1.60400 31.19700 32.38000
H  -3.10400 30.36700 34.03500
H  -3.54200 32.08200 34.27400
H  2.89600 37.71400 29.80800
H  1.44300 38.04900 30.67000
H  1.89000 39.12400 29.40000
H  2.38000 39.91800 27.46800
H  2.98500 39.90400 25.89100
H  3.62300 38.74400 27.17400
H  -0.60900 34.86700 22.94300
H  -3.02600 33.18900 23.11400
H  -2.77000 36.44000 23.73900
H  -3.22000 35.22800 22.47100
H  -2.00400 36.47700 22.25200
H  -0.53400 31.84800 24.32800
H  -0.33900 32.53800 22.72100
H  -1.45300 29.96700 23.34900
H  -0.97300 30.65500 21.77800
H  -2.63900 30.88200 22.55000
H  -5.09700 28.73000 26.90700
H  -4.89500 29.58600 25.39300
H  -6.40000 29.95400 26.35200
H  -3.96100 30.54800 31.69700
H  -6.64700 32.56700 34.40200
H  -7.24000 30.96900 34.73500
H  -7.85600 31.85800 33.35600
Mg -5.48900 24.51800 27.04300
C  -4.18900 26.12900 29.88400
C  -7.33200 22.44500 29.07500
C  -6.67700 23.03500 24.23900
C  -3.46500 26.56600 24.97200
N  -5.74000 24.37900 29.16800
C  -5.13700 25.15700 30.17100
C  -5.78700 24.77900 31.52900
C  -6.44900 23.43900 31.31800
C  -6.54400 23.34300 29.77000
C  -5.81100 22.20000 31.92700
C  -6.76800 25.93400 32.01800
C  -6.99200 26.22100 33.58800
H  -6.60400 25.21500 34.66900
N  -6.96900 23.06000 26.68800
C  -7.64400 22.38000 27.63500
C  -8.57500 21.49100 26.99200
C  -8.48500 21.72100 25.62000
C  -7.31600 22.61100 25.43100
C  -9.48200 20.55600 27.81700
C  -9.31900 21.05700 24.43600
O  -9.09700 21.31700 23.27800
C  -10.31800 19.99000 24.91500
N  -5.01400 24.64500 24.91200
C  -5.69400 23.89100 23.94000
C  -5.10600 24.20900 22.54700
C  -4.07900 25.42500 22.89100
C  -4.22100 25.61800 24.35600
C  -4.45000 23.01700 21.84600
C  -4.27600 26.69200 21.97500
C  -2.98200 27.26700 21.39500
N  -3.88600 25.91500 27.32600
C  -3.37300 26.82000 26.38800
C  -2.58700 27.82000 27.12100
C  -2.85800 27.56000 28.51000
C  -3.70900 26.39300 28.60700
C  -1.71300 28.94300 26.50900
C  -2.53800 28.06900 29.81800
O  -1.82100 28.95900 30.21900
C  -3.44400 27.16000 30.76800
C  -2.58700 26.50600 31.79600
O  -1.56200 25.90300 31.55900
O  -3.22800 26.68600 33.00000
C  -2.48700 26.11200 34.13700
H  -7.76700 21.63400 29.66400
H  -7.13400 22.56400 23.36700
H  -3.00800 27.40400 24.44200
H  -4.98100 24.68100 32.25700
H  -7.50100 23.39200 31.60000
H  -5.31300 22.54900 32.83200
H  -5.09100 21.86500 31.18100
H  -6.43600 21.33400 32.14600
H  -7.74500 25.62700 31.64500
H  -6.53000 26.94200 31.67900
H  -8.04600 26.48700 33.66700
H  -6.53500 27.19900 33.74000
H  -10.52300 20.52000 27.49500
H  -9.52400 20.80900 28.87700
H  -9.13200 19.52400 27.83800
H  -11.09700 20.49200 25.49000
H  -9.77200 19.20500 25.43900
H  -10.73000 19.56600 24.00000
H  -5.91800 24.64500 21.96500
H  -3.05100 25.07100 22.80300
H  -3.45900 23.33300 21.52000
H  -5.11800 22.65400 21.06500
H  -4.15900 22.22600 22.53700
H  -4.79100 27.47500 22.53200
H  -5.02300 26.56700 21.19100
H  -3.05300 27.58600 20.35500
H  -2.25200 26.45800 21.39600
H  -2.51800 28.04500 22.00100
H  -0.83500 28.60100 25.96100
H  -1.61600 29.65300 27.33000
H  -2.36800 29.42800 25.78500
H  -4.18500 27.72600 31.33300
H  -1.44300 26.42400 34.17700
H  -2.43300 25.03200 34.00300
H  -3.01600 26.30600 35.07100

