158

Mg 54.08600 24.39200 44.89700
C  51.44600 26.68300 44.16900
C  51.85100 21.86000 44.03100
C  56.75300 22.46400 44.84700
C  56.12400 27.18600 45.47400
N  51.89200 24.24600 44.27100
C  51.09300 25.33700 43.92700
C  49.73200 24.78300 43.29700
C  49.72500 23.32500 43.97300
C  51.20800 23.09100 44.21000
C  48.86500 23.27400 45.26400
C  49.66400 24.80500 41.71000
C  48.23700 25.10900 41.21500
H  48.13700 25.28300 39.77100
N  54.34300 22.45700 44.38000
C  53.28500 21.58800 44.03700
C  53.89000 20.33600 43.83200
C  55.29400 20.39000 44.12400
C  55.56800 21.79400 44.41800
C  53.00100 19.13200 43.48000
C  56.31900 19.25000 43.92700
O  55.87800 18.15700 43.62200
C  57.76200 19.40600 44.13900
N  56.21000 24.86000 44.89600
C  56.99200 23.85000 45.09300
C  58.40900 24.36700 45.35400
C  58.23400 25.92100 45.54900
C  56.76200 26.03700 45.28300
C  59.21100 23.57500 46.41900
C  58.96100 26.75000 44.50700
C  59.26200 28.27800 44.98500
N  53.81600 26.48400 44.96100
C  54.76000 27.43300 45.34600
C  54.03900 28.68400 45.52500
C  52.74100 28.42200 44.97400
C  52.69600 27.10600 44.63000
C  54.50500 29.96200 46.06200
C  51.48300 28.94200 44.75700
O  51.19000 30.06700 44.98200
C  50.52600 27.88900 44.22200
C  50.14200 28.30800 42.88300
O  50.96000 28.55200 41.98100
O  48.76000 28.53200 42.83300
C  48.42400 29.22600 41.57200
H  51.12700 21.04800 43.93400
H  57.63200 21.81700 44.88200
H  56.69500 28.08200 45.72700
H  48.93700 25.43400 43.66200
H  49.39600 22.64900 43.18300
H  48.29800 22.37200 45.03400
H  48.27100 24.18400 45.34800
H  49.56900 23.00600 46.05200
H  49.98600 23.82300 41.36200
H  50.40300 25.46000 41.24900
H  47.80600 25.95800 41.74500
H  47.60400 24.24400 41.41400
H  53.52800 18.19000 43.32600
H  52.41900 19.45400 42.61700
H  52.33400 18.91900 44.31600
H  58.00700 20.22600 43.46400
H  58.15800 18.49900 43.68100
H  58.01400 19.43100 45.19900
H  58.79200 24.12900 44.36200
H  58.44800 26.15000 46.59200
H  59.41500 24.16300 47.31300
H  60.09500 23.12300 45.97000
H  58.52200 22.78900 46.72900
H  58.26900 26.72600 43.66500
H  59.93000 26.38700 44.16300
H  60.33000 28.26000 45.20400
H  58.76100 28.48400 45.93100
H  58.94700 28.94600 44.18400
H  55.47500 30.18600 45.61700
H  54.57300 29.79800 47.13700
H  53.73500 30.72200 45.93200
H  49.68500 27.75800 44.90300
H  49.07700 30.08500 41.41700
H  47.44000 29.69100 41.62200
H  48.48500 28.44300 40.81500
Mg 16.62800 53.20500 26.10800
C  19.02000 51.78300 28.23600
C  14.42400 53.39600 28.65900
C  14.28400 54.26600 23.97700
C  18.78400 52.50700 23.34100
N  16.74800 52.73300 28.16200
C  17.87900 52.29100 28.86000
C  17.69200 52.41300 30.35800
C  16.15800 52.63200 30.43700
C  15.70300 52.94800 29.01900
C  15.45200 51.23700 30.91100
C  18.60900 53.54400 30.93500
C  18.80800 53.60300 32.44300
H  18.03800 52.66900 33.36900
N  14.68400 53.92900 26.40200
C  13.91600 53.88400 27.47700
C  12.58600 54.36800 27.25000
C  12.49800 54.60400 25.86400
C  13.81100 54.18400 25.33700
C  11.56300 54.52100 28.29400
C  11.38600 55.08700 25.00300
O  11.50000 55.12300 23.78700
C  10.01400 55.50900 25.60100
N  16.59400 53.47400 24.08700
C  15.48300 53.89600 23.40100
C  15.75700 53.99800 21.87800
C  17.20900 53.53500 21.67300
C  17.62200 53.24600 23.13000
C  14.76300 53.23700 20.97000
C  18.18200 54.63900 21.19000
C  19.00500 54.31100 19.99800
N  18.40800 52.14000 25.79600
C  19.18600 52.00300 24.60300
C  20.45000 51.31300 24.89800
C  20.40800 51.21100 26.36800
C  19.19400 51.75800 26.82700
C  21.48800 50.95800 23.88900
C  21.19800 50.76200 27.54900
O  22.28600 50.24100 27.72600
C  20.36100 51.20600 28.80600
C  19.99300 50.00600 29.58400
O  19.87000 48.84500 29.17100
O  20.07400 50.25200 30.89600
C  19.88200 49.15100 31.83000
H  13.74700 53.39400 29.51600
H  13.68800 54.87300 23.29200
H  19.49200 52.26900 22.54400
H  17.95500 51.50400 30.89900
H  15.92100 53.41000 31.16200
H  14.49000 51.46200 31.37200
H  16.20200 50.66000 31.45200
H  15.47800 50.82500 29.90200
H  18.35600 54.53700 30.56200
H  19.59100 53.43500 30.47500
H  18.65200 54.59500 32.86800
H  19.86300 53.36300 32.58100
H  10.68800 53.95100 27.98300
H  11.22600 55.53600 28.50200
H  11.88500 54.06200 29.22800
H  9.39000 54.74500 26.06500
H  9.46900 55.95700 24.77000
H  10.16400 56.32400 26.30900
H  15.54500 55.01700 21.55600
H  17.32500 52.55100 21.22000
H  14.21800 52.48500 21.54100
H  15.34400 52.76100 20.18000
H  14.03200 53.88500 20.48700
H  18.88300 54.89100 21.98600
H  17.59900 55.51200 20.89400
H  18.57900 54.91000 19.19400
H  19.10800 53.26700 19.70200
H  19.97900 54.76700 20.18000
H  22.38200 50.65400 24.43200
H  21.92200 51.71800 23.23900
H  21.22400 50.05400 23.33900
H  20.90800 51.88700 29.45700
H  20.64300 48.41000 31.58800
H  18.86200 48.77400 31.75400
H  19.97700 49.56600 32.83300

