158

Mg 45.79000 6.39400 48.13000
C  43.50800 8.92300 47.34600
C  43.52200 4.12900 47.00600
C  48.28500 4.12100 48.03400
C  48.25100 8.95300 48.68700
N  43.78800 6.48400 47.19500
C  43.05700 7.62000 47.16700
C  41.65700 7.33100 46.63100
C  41.57500 5.81000 46.94800
C  43.06100 5.43700 46.98300
C  40.75400 5.34800 48.18600
C  41.61000 7.70900 45.08600
C  40.22400 8.18500 44.59900
H  39.66000 7.48600 43.36500
N  45.89900 4.43900 47.75900
C  44.85700 3.66400 47.34000
C  45.34700 2.30400 47.17700
C  46.74600 2.29100 47.36100
C  47.01600 3.70500 47.76800
C  44.39200 1.24200 46.64800
C  47.61000 1.09600 47.26000
O  47.08900 -0.04200 47.14400
C  48.99300 1.01300 47.32000
N  47.96600 6.55400 48.30400
C  48.74900 5.42400 48.28500
C  50.16400 5.70300 48.74800
C  50.09400 7.16800 49.31400
C  48.75000 7.60800 48.68400
C  50.91800 4.62400 49.71700
C  51.23400 8.07600 48.92500
C  51.48100 9.28900 49.94600
N  45.90700 8.53200 48.18500
C  46.92700 9.42500 48.39200
C  46.38700 10.80000 48.26100
C  45.07800 10.64800 47.87800
C  44.81800 9.23800 47.78400
C  47.09800 12.07300 48.57200
C  43.81500 11.32800 47.56100
O  43.62700 12.56000 47.57500
C  42.78500 10.19700 47.20800
C  41.77500 10.28000 48.35000
O  41.95200 9.94400 49.48700
O  40.53300 10.64100 47.83300
C  39.32300 10.54000 48.65100
H  42.69300 3.42000 46.95400
H  49.13100 3.43200 48.08200
H  48.89900 9.73900 49.07800
H  40.90100 7.90100 47.17100
H  41.08000 5.31800 46.11000
H  39.72300 5.09200 47.94300
H  40.83000 6.17800 48.88800
H  41.20600 4.42700 48.55500
H  42.02800 6.91400 44.46900
H  42.39600 8.43600 44.88000
H  40.29800 9.25900 44.42600
H  39.46300 7.99500 45.35500
H  44.92200 0.53300 46.01200
H  43.57300 1.76100 46.15000
H  43.88800 0.84300 47.52800
H  49.26700 -0.03900 47.24900
H  49.31300 1.25300 48.33400
H  49.46900 1.57700 46.51800
H  50.69600 5.80900 47.80300
H  49.88400 7.14500 50.38300
H  50.29200 3.82800 50.12000
H  51.45600 5.14700 50.50700
H  51.74700 4.16800 49.17600
H  51.07000 8.66200 48.02100
H  52.20700 7.62400 48.73400
H  52.38700 9.05500 50.50600
H  50.58900 9.47300 50.54500
H  51.68700 10.23700 49.45000
H  46.86600 12.33900 49.60300
H  46.77000 12.92000 47.96900
H  48.17100 11.88100 48.54400
H  42.35700 10.38900 46.22400
H  39.24900 11.47100 49.21200
H  39.35100 9.68400 49.32600
H  38.38500 10.43400 48.10600
Mg -11.71000 15.70000 42.30700
C  -8.66800 13.85200 41.86600
C  -10.13000 18.42300 41.13600
C  -14.73300 17.10700 42.14000
C  -13.27700 12.57100 43.21500
N  -9.69500 15.98000 41.31700
C  -8.62300 15.19600 41.46700
C  -7.41900 15.96500 41.02700
C  -7.81900 17.44600 41.22500
C  -9.34800 17.29700 41.27000
C  -7.12200 18.19700 42.36200
C  -6.88200 15.53400 39.69600
C  -5.36800 15.72400 39.36900
H  -4.79600 16.72600 38.38700
N  -12.27800 17.57900 41.83000
C  -11.50200 18.62100 41.31400
C  -12.22300 19.79300 41.17900
C  -13.62800 19.37600 41.46400
C  -13.60400 17.96400 41.88800
C  -11.61700 21.13600 40.65500
C  -14.82700 20.31800 41.35800
O  -14.74500 21.48400 40.94400
C  -16.13600 19.84200 41.87400
N  -13.67200 14.91200 42.62900
C  -14.74700 15.78100 42.49000
C  -16.03800 14.96200 42.46400
C  -15.69400 13.55100 43.14500
C  -14.10500 13.66300 42.93500
C  -17.17300 15.57600 43.39600
C  -16.34400 12.32000 42.50000
C  -16.81000 11.18300 43.42400
N  -11.12700 13.62200 42.59400
C  -11.84600 12.51800 43.02300
C  -10.89900 11.36400 43.21800
C  -9.65600 11.85400 42.72000
C  -9.86800 13.22700 42.29500
C  -11.18500 10.06600 43.81600
C  -8.25100 11.53500 42.50700
O  -7.67600 10.46400 42.63600
C  -7.55900 12.76400 41.92100
C  -6.52100 13.28100 42.88900
O  -6.64500 13.84900 43.95800
O  -5.30200 13.16700 42.30200
C  -4.18900 13.54800 43.07500
H  -9.56700 19.32200 40.87500
H  -15.71600 17.53200 41.92700
H  -13.71000 11.68800 43.68900
H  -6.57100 15.95100 41.71300
H  -7.45300 18.03400 40.38300
H  -7.86300 18.77000 42.92000
H  -6.38900 18.85700 41.89900
H  -6.61900 17.56900 43.09800
H  -7.45400 16.23600 39.08900
H  -7.30000 14.55900 39.44700
H  -5.01100 14.73200 39.09100
H  -4.90600 16.02700 40.30900
H  -10.55800 21.18900 40.90600
H  -12.17800 21.97100 41.07600
H  -11.81600 21.25000 39.58900
H  -16.51300 19.13600 41.13400
H  -16.76800 20.72900 41.84000
H  -16.06100 19.43800 42.88400
H  -16.38300 14.92600 41.43100
H  -15.69300 13.41800 44.22700
H  -18.14200 15.49200 42.90500
H  -16.95400 16.64100 43.46000
H  -17.30400 15.08800 44.36200
H  -15.75600 11.85800 41.70700
H  -17.21400 12.77000 42.02100
H  -16.47500 11.23400 44.46000
H  -16.33900 10.31100 42.97000
H  -17.88600 11.01600 43.46500
H  -10.78200 9.30200 43.15100
H  -12.25600 9.88700 43.91300
H  -10.63200 9.89100 44.73900
H  -7.14200 12.34800 41.00400
H  -3.31500 13.75700 42.45800
H  -3.92300 12.71100 43.72100
H  -4.30300 14.46000 43.66100

