158

Mg 7.07700 53.81000 40.95400
C  6.63800 50.24300 40.52400
C  10.13400 53.50000 39.73300
C  7.04400 57.05200 40.33500
C  3.45000 53.80900 41.57700
N  8.21400 52.06800 40.16600
C  7.91400 50.75800 40.16400
C  9.14700 49.87600 39.76900
C  10.29900 50.88800 40.00200
C  9.48300 52.27800 39.94600
C  11.15700 50.78200 41.25500
C  9.06000 49.28500 38.34900
C  8.81100 50.25100 37.23200
H  7.41700 50.31600 36.52100
N  8.41600 55.15800 40.20200
C  9.67100 54.81700 39.80500
C  10.36900 56.02800 39.40800
C  9.51100 57.15600 39.55500
C  8.28700 56.51000 40.10600
C  11.78600 56.01400 38.95100
C  9.81900 58.65600 39.26900
O  10.90300 59.02200 38.79800
C  8.80000 59.78600 39.54000
N  5.42800 55.16700 40.81900
C  5.77000 56.45900 40.71800
C  4.52500 57.31000 40.85200
C  3.36700 56.25100 41.11400
C  4.10400 54.92000 41.09500
C  4.64600 58.41700 41.89300
C  2.17400 56.35500 40.12600
C  0.87300 56.58000 40.94400
N  5.36500 52.35300 41.21200
C  4.01400 52.48900 41.52900
C  3.42300 51.21500 41.67200
C  4.36900 50.34900 41.32000
C  5.53600 51.00900 40.98100
C  2.00500 50.98500 42.12500
C  4.71400 48.94000 41.22000
O  4.04500 47.98900 41.58800
C  6.14300 48.74300 40.65600
C  5.94900 48.06900 39.34000
O  5.43000 48.55000 38.36400
O  6.50600 46.79300 39.40900
C  6.27600 45.88400 38.25500
H  11.13600 53.40500 39.30800
H  7.03400 58.13000 40.15500
H  2.41900 53.97700 41.89600
H  9.20400 49.03700 40.46300
H  10.94500 50.93800 39.12500
H  10.88600 49.89900 41.83300
H  10.97400 51.62700 41.91900
H  12.19900 50.68100 40.95000
H  8.24900 48.55700 38.30600
H  9.91300 48.64900 38.11000
H  9.54700 49.97200 36.47700
H  9.03900 51.28500 37.49000
H  12.24200 57.00400 38.98400
H  11.98900 55.43100 38.05300
H  12.30700 55.46900 39.73800
H  7.85200 59.68200 39.01100
H  9.26400 60.71100 39.19700
H  8.51300 59.85100 40.59000
H  4.35900 57.76400 39.87500
H  3.02400 56.31000 42.14700
H  3.94500 58.27000 42.71500
H  4.72000 59.36700 41.36500
H  5.64300 58.33700 42.32500
H  2.00000 55.44300 39.55400
H  2.32700 57.22300 39.48500
H  0.87000 56.16700 41.95300
H  0.05900 56.00400 40.50500
H  0.63800 57.64400 40.93200
H  1.52500 50.53100 41.25800
H  1.47200 51.90900 42.35300
H  2.00500 50.34200 43.00500
H  6.82400 48.12900 41.24600
H  7.20700 46.03500 37.70900
H  5.39000 45.98500 37.62700
H  6.38800 44.87100 38.64200
Mg 16.03100 52.29900 24.84400
C  17.40000 51.45200 27.97600
C  13.09300 53.35300 26.52900
C  14.49400 52.87300 21.85800
C  18.70700 50.70700 23.23700
N  15.39800 52.49700 27.01100
C  16.12500 52.08300 28.09800
C  15.47300 52.35000 29.42200
C  14.06700 52.77400 28.92100
C  14.13800 52.92300 27.40200
C  12.89800 51.91100 29.34900
C  16.19500 53.33400 30.37700
C  16.43100 52.98100 31.85200
H  15.29700 52.10000 32.48200
N  14.10400 53.10700 24.29000
C  13.09800 53.47000 25.12500
C  12.00900 53.91700 24.34100
C  12.39700 53.82800 22.96300
C  13.69400 53.26100 22.98600
C  10.72300 54.35600 24.97500
C  11.74400 54.33600 21.67600
O  12.34900 54.29400 20.56900
C  10.39400 54.97400 21.76500
N  16.49700 51.71000 22.81300
C  15.73100 52.13300 21.72700
C  16.42100 51.74800 20.48400
C  17.94100 51.64200 20.92600
C  17.72600 51.32100 22.41800
C  15.84900 50.38500 19.93300
C  18.89900 52.94300 20.81000
C  19.31700 53.42500 19.43300
N  17.79700 51.41100 25.38800
C  18.75200 50.81600 24.65400
C  19.72100 50.23700 25.49500
C  19.24800 50.50700 26.81400
C  18.00700 51.11000 26.71500
C  21.03100 49.57800 25.06700
C  19.61900 50.31100 28.17700
O  20.57500 49.76700 28.71200
C  18.37000 50.91500 29.04500
C  17.74600 49.86300 29.90000
O  16.93000 49.05100 29.45600
O  18.29900 49.82700 31.20300
C  17.76700 48.78500 32.09900
H  12.31000 53.89700 27.06100
H  14.14500 53.00400 20.83100
H  19.65200 50.48700 22.73600
H  15.54800 51.39200 29.93600
H  13.86000 53.73900 29.38400
H  13.17200 51.10000 30.02300
H  12.36700 51.47800 28.50100
H  12.19100 52.59200 29.82300
H  15.80100 54.34800 30.44500
H  17.18000 53.41700 29.91900
H  16.63200 53.86100 32.46300
H  17.28300 52.30700 31.94300
H  10.06400 53.78800 24.31900
H  10.56400 55.42000 24.79700
H  10.52500 54.09500 26.01500
H  9.96400 55.00200 20.76400
H  10.37600 55.93300 22.28300
H  9.82400 54.21100 22.29500
H  16.35400 52.61600 19.82800
H  18.50200 50.91700 20.33500
H  14.91000 50.19800 20.45400
H  16.57400 49.57400 19.87300
H  15.64500 50.71500 18.91400
H  19.79800 52.81200 21.41300
H  18.46100 53.79000 21.33800
H  19.05000 54.45100 19.18100
H  18.91600 52.66900 18.75800
H  20.40700 53.44300 19.41900
H  20.81000 48.77600 24.36200
H  21.51300 49.14100 25.94200
H  21.71400 50.26800 24.57000
H  18.88400 51.63200 29.68600
H  17.06900 49.18100 32.83600
H  18.67500 48.40200 32.56500
H  17.43300 47.93300 31.50600

