158

Mg 42.29600 41.45200 26.08800
C  41.65600 43.52400 28.81600
C  44.03400 39.35000 28.37200
C  43.07500 39.45600 23.58400
C  41.33800 43.90800 23.99800
N  42.91500 41.51700 28.35100
C  42.34200 42.36900 29.27200
C  42.71800 41.96400 30.77300
C  43.47200 40.60400 30.59200
C  43.49800 40.48900 28.99700
C  44.95900 40.66700 31.12300
C  41.46600 41.90700 31.76500
C  41.77600 42.42800 33.21100
H  40.82500 42.02500 34.43000
N  43.41000 39.64300 25.98100
C  44.03100 38.90900 27.02000
C  44.41800 37.57600 26.43100
C  44.02400 37.58900 25.08000
C  43.44000 38.94000 24.82100
C  45.02300 36.50500 27.29000
C  44.08300 36.47700 23.96900
O  43.79100 36.57000 22.84400
C  44.56900 35.14900 24.52200
N  42.24100 41.67400 24.06700
C  42.62500 40.72500 23.15600
C  42.19400 41.08600 21.73800
C  41.70400 42.50800 21.89200
C  41.81900 42.76900 23.37300
C  43.38500 40.97100 20.64700
C  40.35800 42.89300 21.19100
C  40.52400 44.18200 20.32700
N  41.68900 43.33700 26.30900
C  41.23500 44.21400 25.33900
C  40.68800 45.36700 25.97300
C  40.93200 45.18400 27.37900
C  41.40500 43.89300 27.50200
C  40.22500 46.60000 25.16200
C  40.73900 45.72500 28.60500
O  40.19900 46.78300 28.94400
C  41.18800 44.66800 29.67500
C  42.24700 45.24300 30.49800
O  43.44500 45.18500 30.35400
O  41.67000 45.78000 31.67300
C  42.65100 46.43000 32.62100
H  44.37200 38.72200 29.19900
H  43.23400 38.82400 22.70700
H  40.98900 44.67500 23.30300
H  43.45600 42.67200 31.14900
H  42.94200 39.74900 31.01200
H  44.83200 40.87300 32.18600
H  45.52500 41.43100 30.58900
H  45.31300 39.64300 31.01100
H  41.19500 40.86300 31.91700
H  40.61700 42.43400 31.32900
H  41.78900 43.48800 32.95600
H  42.81700 42.16300 33.39300
H  45.01700 36.86000 28.32100
H  46.06800 36.37300 27.01000
H  44.50900 35.54700 27.22200
H  44.59900 34.40900 23.72200
H  43.78000 34.94600 25.24600
H  45.57900 35.34600 24.88300
H  41.45900 40.29300 21.60700
H  42.51600 43.13600 21.52500
H  44.32600 40.50600 20.94300
H  43.61300 41.93900 20.19900
H  42.90900 40.34500 19.89200
H  39.55400 42.97200 21.92300
H  40.04500 42.08900 20.52500
H  39.76600 44.94400 20.50400
H  40.79700 43.97500 19.29200
H  41.41500 44.74700 20.60200
H  40.81700 46.70600 24.25300
H  40.28300 47.46100 25.82800
H  39.16900 46.48600 24.91500
H  40.33800 44.47300 30.32800
H  43.10600 47.21600 32.01800
H  43.45400 45.80800 33.01600
H  42.23800 46.92300 33.50100
Mg -11.28300 38.97200 41.17900
C  -9.79100 35.85500 40.59300
C  -8.66800 40.59200 39.66600
C  -13.27900 41.65400 40.76900
C  -14.09400 37.11200 42.31300
N  -9.49900 38.29200 40.25000
C  -9.12000 36.97900 40.13400
C  -7.77300 36.94700 39.42200
C  -7.28300 38.43500 39.33800
C  -8.55300 39.19900 39.79500
C  -6.01000 38.72400 40.09900
C  -8.06000 36.31400 37.98200
C  -7.03400 35.12600 37.63800
H  -6.26100 35.34800 36.30400
N  -10.97400 40.93700 40.38200
C  -9.79200 41.42600 39.86000
C  -9.95100 42.78700 39.55000
C  -11.25000 43.13700 39.98800
C  -11.95000 41.85900 40.37600
C  -8.82800 43.64100 38.88400
C  -11.78700 44.56200 39.90700
O  -10.98800 45.43400 39.55600
C  -13.24700 44.91100 40.34100
N  -13.38600 39.36400 41.42900
C  -13.93900 40.57900 41.27800
C  -15.45500 40.55900 41.57500
C  -15.61800 39.16600 42.37500
C  -14.29500 38.47100 42.01100
C  -16.04400 41.78500 42.28500
C  -16.86400 38.44600 41.79400
C  -17.86300 37.80400 42.77700
N  -11.83200 36.87300 41.58800
C  -12.95800 36.31500 42.06900
C  -12.82400 34.91500 42.21600
C  -11.55000 34.67200 41.61600
C  -11.01000 35.91000 41.21500
C  -13.76700 33.92700 42.78400
C  -10.55100 33.65500 41.33200
O  -10.52200 32.44300 41.61700
C  -9.36800 34.38900 40.50700
C  -8.06000 34.19600 41.19200
O  -7.12500 33.56000 40.73700
O  -8.01200 34.84800 42.40200
C  -6.80700 34.68700 43.17900
H  -7.75700 40.98700 39.21100
H  -13.84600 42.58600 40.70900
H  -14.87600 36.48000 42.74000
H  -7.09400 36.36400 40.04400
H  -7.20500 38.81300 38.31900
H  -5.18800 38.80500 39.38800
H  -5.77900 38.00500 40.88500
H  -6.26200 39.65400 40.61000
H  -7.96900 37.10700 37.24000
H  -9.02700 35.81300 37.93200
H  -7.51600 34.14800 37.64000
H  -6.38900 35.01200 38.50900
H  -9.28900 44.22100 38.08400
H  -7.99700 43.06900 38.47100
H  -8.48700 44.41000 39.57600
H  -13.89200 44.34200 39.67000
H  -13.40900 45.98500 40.25000
H  -13.31000 44.55500 41.36900
H  -15.96500 40.55500 40.61100
H  -15.78500 39.30500 43.44300
H  -15.17900 42.40500 42.52300
H  -16.63000 41.61300 43.18800
H  -16.64600 42.27800 41.52300
H  -16.55700 37.86100 40.92700
H  -17.42900 39.25800 41.33600
H  -18.72900 38.43900 42.58700
H  -17.54000 37.88000 43.81600
H  -18.06300 36.76800 42.50300
H  -13.31000 33.05500 43.25200
H  -14.51500 33.66600 42.03600
H  -14.34900 34.45000 43.54400
H  -9.27600 33.99800 39.49400
H  -5.94500 34.67900 42.51200
H  -6.86200 33.79500 43.80400
H  -6.83300 35.57300 43.81300

