158

Mg 2.12400 -0.30200 43.89000
C  5.58800 0.39400 43.27500
C  1.37500 2.48800 42.08200
C  -1.12000 -1.07800 44.09300
C  2.99700 -3.51100 44.85300
N  3.35500 1.22200 42.86000
C  4.74500 1.34100 42.63200
C  5.12100 2.48000 41.74000
C  3.75300 3.28900 41.58100
C  2.75100 2.29800 42.30700
C  3.73700 4.68900 42.29600
C  5.65100 1.96500 40.32600
C  6.99000 2.37400 39.94700
H  7.04200 3.26000 38.71100
N  0.33400 0.59700 43.25600
C  0.28400 1.72400 42.50000
C  -1.06500 2.05500 42.25000
C  -1.84600 0.99600 42.80400
C  -0.89000 0.08500 43.35600
C  -1.45200 3.17200 41.28100
C  -3.37500 0.97100 42.66600
O  -3.87700 1.91800 42.10900
C  -4.27200 -0.08500 43.17700
N  1.14300 -1.94700 44.48700
C  -0.17400 -1.93800 44.60300
C  -0.58500 -3.32600 45.01900
C  0.59600 -4.19100 44.76100
C  1.67900 -3.13500 44.69700
C  -1.22000 -3.41500 46.44000
C  0.57000 -5.05600 43.42900
C  -0.18900 -6.46400 43.45500
N  3.87800 -1.28700 44.28000
C  4.08600 -2.59000 44.71000
C  5.45200 -2.78700 44.82900
C  6.10800 -1.57200 44.36300
C  5.05800 -0.77000 44.02100
C  6.04900 -4.00300 45.35600
C  7.42400 -0.99700 44.14000
O  8.56500 -1.44200 44.36900
C  7.17400 0.41500 43.47200
C  7.59600 1.43300 44.57000
O  7.20500 1.47600 45.72100
O  8.09800 2.57500 43.95200
C  8.16100 3.91400 44.62100
H  1.16100 3.45300 41.61900
H  -2.17200 -1.33900 44.22400
H  3.07900 -4.53600 45.22000
H  5.81400 3.14600 42.25500
H  3.46700 3.46500 40.54400
H  4.68100 5.09000 42.66600
H  3.10000 4.64800 43.18000
H  3.08200 5.43000 41.83800
H  4.83400 2.09900 39.61700
H  5.68600 0.89600 40.53700
H  7.56700 1.47300 39.73700
H  7.45200 3.00900 40.70300
H  -2.17600 2.83100 40.54000
H  -0.61400 3.63100 40.75600
H  -1.94700 3.92600 41.89300
H  -5.28900 0.22500 42.93700
H  -4.11200 0.10300 44.23900
H  -4.04200 -1.10500 42.86700
H  -1.45600 -3.55900 44.40700
H  0.76500 -4.94800 45.52700
H  -0.48100 -3.67300 47.20000
H  -2.03000 -4.13900 46.52900
H  -1.62000 -2.42400 46.65100
H  1.55800 -5.16900 42.98200
H  0.08400 -4.36700 42.73900
H  -0.26200 -6.73100 44.50900
H  0.45900 -7.18500 42.95600
H  -1.14400 -6.46600 42.93100
H  5.36500 -4.45300 46.07600
H  6.89800 -3.78900 46.00500
H  6.35000 -4.72500 44.59700
H  7.76000 0.58500 42.56900
H  9.03500 3.83000 45.26700
H  7.27500 4.09500 45.23000
H  8.22600 4.63400 43.80600
Mg 9.02900 3.32900 27.32000
C  10.48500 1.84600 30.19600
C  7.68700 5.71700 29.15900
C  7.66000 4.58300 24.42500
C  10.09800 0.58800 25.52100
N  8.97100 3.64900 29.47600
C  9.72400 3.02100 30.50400
C  9.44300 3.63600 31.91900
C  8.34600 4.72400 31.44300
C  8.32000 4.71300 29.91000
C  7.00900 4.73600 32.14800
C  10.68800 4.12500 32.68300
C  10.46200 5.27000 33.66400
H  11.18100 5.17600 35.00700
N  7.82500 4.95000 26.85700
C  7.45700 5.89100 27.74200
C  6.74800 6.97400 27.03700
C  6.78200 6.64100 25.66600
C  7.40300 5.35500 25.59500
C  6.36900 8.26900 27.79900
C  6.38100 7.56200 24.51600
O  6.38000 7.14500 23.34400
C  5.79800 8.96600 24.74500
N  8.89300 2.68700 25.21800
C  8.36400 3.37100 24.23100
C  8.54900 2.61500 22.87100
C  9.33300 1.39500 23.32700
C  9.47400 1.59700 24.80200
C  7.23200 2.38900 22.14600
C  10.77800 1.38000 22.64500
C  11.02200 0.26700 21.56500
N  10.14600 1.59000 27.65300
C  10.50700 0.51600 26.84200
C  11.24600 -0.48600 27.54500
C  11.24700 0.06000 28.85800
C  10.49800 1.22600 28.87200
C  11.93400 -1.71800 27.03000
C  11.75400 -0.24000 30.22200
O  12.42600 -1.17300 30.59800
C  11.25200 0.89500 31.15000
C  10.37600 0.32100 32.24200
O  9.31200 -0.26200 32.07300
O  10.71300 0.79200 33.45300
C  9.90600 0.34200 34.58200
H  7.21400 6.54800 29.68600
H  7.19800 5.02000 23.53800
H  10.36800 -0.32300 24.98300
H  9.03700 2.78500 32.46500
H  8.60400 5.73600 31.75500
H  6.38800 5.52100 31.71700
H  7.22200 4.98700 33.18700
H  6.45900 3.79600 32.09900
H  11.52800 4.31200 32.01500
H  11.09900 3.34500 33.32400
H  9.39200 5.46300 33.74100
H  10.83900 6.18600 33.20900
H  6.50400 8.35300 28.87800
H  5.30700 8.44100 27.62800
H  6.94600 9.09300 27.38000
H  6.59000 9.68800 24.94400
H  5.01700 9.02700 25.50400
H  5.38500 9.08900 23.74400
H  9.20200 3.33900 22.38500
H  8.86100 0.43000 23.14300
H  7.07500 1.31000 22.12100
H  7.17200 2.75600 21.12100
H  6.42900 2.82600 22.73900
H  11.55300 1.18100 23.38500
H  10.94300 2.26800 22.03500
H  10.85000 0.53900 20.52400
H  10.39900 -0.59300 21.81200
H  12.07100 -0.03000 21.55200
H  11.55800 -1.93800 26.03100
H  11.54100 -2.52000 27.65400
H  13.01200 -1.63500 26.89400
H  12.09200 1.37200 31.65500
H  9.86100 1.13400 35.32900
H  10.36300 -0.57600 34.95400
H  8.88000 0.01800 34.40900

