158

Mg 17.17300 -0.56500 27.54200
C  16.06800 1.55900 30.06700
C  19.24200 -2.22700 29.60000
C  18.66400 -1.76600 24.77400
C  15.27100 1.68600 25.35800
N  17.66800 -0.27600 29.61600
C  17.09400 0.58600 30.45800
C  17.61900 0.34000 31.86700
C  18.68300 -0.88000 31.74700
C  18.56800 -1.15900 30.23400
C  20.15800 -0.62000 32.35800
C  16.55900 0.08800 32.91700
C  16.71700 0.68300 34.28400
H  18.03600 1.03800 34.85100
N  18.59000 -2.01900 27.24200
C  19.37400 -2.60800 28.23100
C  20.24200 -3.51700 27.63700
C  20.04000 -3.41100 26.21800
C  19.06000 -2.37100 25.98400
C  21.02100 -4.41700 28.53200
C  20.73100 -4.23200 25.07700
O  20.47100 -4.11700 23.86300
C  21.71900 -5.33300 25.43700
N  16.95600 -0.13800 25.39300
C  17.65600 -0.82900 24.50600
C  17.41400 -0.35100 23.11100
C  16.23200 0.61300 23.21700
C  16.20000 0.81600 24.74700
C  18.66600 0.16400 22.40600
C  14.88400 0.08100 22.61100
C  13.75700 -0.27900 23.56200
N  15.85800 1.17600 27.68300
C  15.10400 1.97600 26.69400
C  14.30100 3.01800 27.34700
C  14.72300 2.88100 28.68300
C  15.61400 1.80200 28.79200
C  13.39900 4.08900 26.86100
C  14.55400 3.51200 29.98000
O  13.93400 4.57900 30.27400
C  15.39500 2.63400 30.92000
C  16.35400 3.47200 31.67000
O  17.50800 3.62300 31.33100
O  15.75500 4.01400 32.74500
C  16.45500 5.06200 33.45800
H  19.84900 -2.85000 30.26000
H  19.16500 -2.08500 23.85800
H  14.56700 2.30000 24.79200
H  18.25800 1.20600 32.03500
H  18.36200 -1.81000 32.21500
H  20.12800 0.26900 32.98900
H  20.97500 -0.42000 31.66400
H  20.45700 -1.49000 32.94300
H  16.38900 -0.98800 32.93600
H  15.63700 0.52300 32.52900
H  16.42400 -0.08900 34.99500
H  16.11600 1.59200 34.33000
H  21.09500 -5.44100 28.16700
H  20.66000 -4.62400 29.53900
H  21.99600 -3.97300 28.73100
H  21.22400 -6.27000 25.69300
H  22.43700 -5.11500 26.22700
H  22.42000 -5.64500 24.66200
H  17.09100 -1.22200 22.54100
H  16.42000 1.56600 22.72100
H  19.41700 0.70600 22.98000
H  18.38200 0.77400 21.54800
H  19.24300 -0.73800 22.20400
H  15.07800 -0.52500 21.72600
H  14.34400 0.87400 22.09300
H  13.35400 0.60100 24.06500
H  14.09200 -0.95600 24.34700
H  12.94600 -0.73200 22.99000
H  12.63100 4.19600 27.62700
H  13.05500 3.99500 25.83200
H  13.95400 5.02700 26.88500
H  14.71200 2.26100 31.68300
H  17.34300 4.64400 33.93300
H  15.87300 5.50800 34.26500
H  16.69100 5.79400 32.68500
Mg -2.20100 35.33700 26.37500
C  -3.89800 33.99100 29.08400
C  -1.16200 37.91000 28.48100
C  -0.55400 36.63700 23.68800
C  -3.88100 33.06400 24.26000
N  -2.46700 35.83200 28.59800
C  -3.12600 35.06600 29.49400
C  -2.91900 35.45700 30.98100
C  -2.08100 36.79200 30.74600
C  -1.91300 36.92200 29.17800
C  -2.46700 38.14700 31.43300
C  -2.18900 34.33700 31.88400
C  -1.56100 34.79700 33.18700
H  -2.25200 34.26500 34.43600
N  -0.98900 36.95100 26.08100
C  -0.75800 37.94100 27.07900
C  0.17000 38.89900 26.54000
C  0.47900 38.53800 25.19600
C  -0.39200 37.35700 24.88200
C  0.91300 40.00500 27.36000
C  1.39200 39.22800 24.18100
O  1.53400 38.85600 23.00100
C  2.16900 40.40000 24.56300
N  -2.06300 34.73200 24.25500
C  -1.30600 35.42800 23.38900
C  -1.18000 34.60900 22.12700
C  -2.39300 33.54500 22.18800
C  -2.93100 33.84100 23.64200
C  -1.14200 35.61000 20.88500
C  -2.08000 31.97100 22.00700
C  -2.81800 31.23600 20.88300
N  -3.58600 33.87500 26.53900
C  -4.23200 33.05800 25.59200
C  -5.21300 32.20800 26.26400
C  -5.07100 32.60900 27.61500
C  -4.17200 33.63300 27.73200
C  -6.17200 31.34300 25.58600
C  -5.62300 32.18800 28.98200
O  -6.34000 31.22500 29.21900
C  -4.74000 32.97900 29.93700
C  -5.77800 33.51800 30.90500
O  -6.47400 34.42500 30.74200
O  -5.76800 32.73700 32.02800
C  -6.81200 33.11500 33.03400
H  -0.84300 38.76100 29.08700
H  -0.05100 37.07000 22.82100
H  -4.31200 32.42800 23.48400
H  -3.83100 35.72400 31.51500
H  -1.13200 36.65300 31.26400
H  -1.58600 38.65000 31.83000
H  -3.16900 38.01000 32.25500
H  -3.04200 38.65500 30.65900
H  -1.49100 33.78900 31.25100
H  -2.97400 33.65900 32.22000
H  -1.71300 35.87400 33.11000
H  -0.50000 34.59600 33.33600
H  1.97500 39.81900 27.19800
H  0.86200 39.80500 28.43100
H  0.70100 41.04600 27.11600
H  2.98400 39.94600 25.12800
H  1.67900 41.14400 25.19100
H  2.84700 40.79200 23.80500
H  -0.23600 34.09600 22.30600
H  -3.22200 33.82700 21.54000
H  -1.76900 36.49900 20.95200
H  -1.52800 35.02400 20.05100
H  -0.09900 35.87700 20.71100
H  -2.19500 31.46300 22.96500
H  -1.06000 31.81100 21.65900
H  -3.73900 30.67500 21.04900
H  -2.15000 30.50900 20.42100
H  -3.01800 31.99700 20.12900
H  -6.49700 31.93600 24.73100
H  -6.90700 31.31200 26.38900
H  -5.63300 30.43400 25.31600
H  -4.05900 32.35900 30.52100
H  -6.66900 34.12900 33.40900
H  -6.83000 32.41800 33.87100
H  -7.79700 32.98100 32.58600

