158

Mg 17.64100 -1.20800 26.89100
C  16.63300 0.77100 29.59200
C  19.23700 -3.37900 29.07300
C  18.90300 -2.82900 24.24500
C  16.16100 1.06300 24.63300
N  17.90900 -1.23900 29.10600
C  17.31800 -0.37800 29.99900
C  17.65700 -0.70900 31.41400
C  18.51100 -2.07500 31.28600
C  18.52300 -2.30900 29.75400
C  19.93300 -2.07300 31.90500
C  16.43900 -0.98800 32.43000
C  16.66300 -0.50400 33.85100
H  18.00200 0.04100 34.32100
N  18.89300 -2.89700 26.65900
C  19.36900 -3.66600 27.69700
C  20.24600 -4.65700 27.05300
C  20.07100 -4.61700 25.63800
C  19.23700 -3.44200 25.45000
C  20.99600 -5.77200 27.90800
C  20.66400 -5.54000 24.60300
O  20.51200 -5.35600 23.38400
C  21.66600 -6.60700 25.02100
N  17.67200 -0.81600 24.77700
C  18.28200 -1.63700 23.96900
C  18.27000 -1.22700 22.52600
C  17.20200 -0.00900 22.59200
C  17.05200 0.11600 24.06700
C  19.63400 -0.84800 21.89400
C  15.87000 -0.14800 21.76300
C  14.86600 -1.11200 22.46700
N  16.66400 0.58700 27.09900
C  15.98400 1.30400 26.06100
C  15.05000 2.19700 26.71400
C  15.42900 2.10600 28.12100
C  16.37500 1.11400 28.27300
C  14.04400 3.06700 26.01500
C  15.11900 2.60600 29.34700
O  14.35600 3.54900 29.59400
C  15.91100 1.83800 30.41000
C  16.76300 2.80200 31.13700
O  17.79300 3.31700 30.73700
O  16.11200 3.15500 32.28300
C  16.73100 4.13300 33.23400
H  19.64300 -4.10200 29.78300
H  19.19800 -3.35900 23.33700
H  15.56600 1.56000 23.86300
H  18.23900 0.12200 31.81200
H  18.02900 -2.95700 31.70800
H  20.64800 -2.14100 31.08500
H  19.98400 -2.94400 32.55900
H  20.16300 -1.16300 32.45900
H  16.31800 -2.06700 32.52400
H  15.56700 -0.54400 31.94900
H  16.46100 -1.35100 34.50700
H  15.93700 0.28400 34.04900
H  20.21200 -6.51100 28.07000
H  21.10700 -5.25700 28.86200
H  22.01000 -5.97600 27.56300
H  21.10800 -7.27600 25.67600
H  22.53700 -6.07900 25.41100
H  21.88200 -7.18500 24.12200
H  17.87300 -2.00200 21.86900
H  17.74500 0.85900 22.21600
H  20.04600 -1.70800 21.36700
H  20.42800 -0.43800 22.51800
H  19.46300 -0.05000 21.17200
H  16.03600 -0.66000 20.81500
H  15.59900 0.90100 21.64000
H  15.35500 -1.63100 23.29100
H  14.49600 -1.90800 21.82000
H  13.92600 -0.61200 22.70100
H  13.25600 2.44700 25.58500
H  14.50000 3.75200 25.30100
H  13.55900 3.71300 26.74700
H  15.11300 1.32200 30.94500
H  16.11100 5.02900 33.24900
H  17.74700 4.43700 32.98500
H  16.75900 3.61100 34.19100
Mg -3.58800 35.59400 26.74200
C  -4.87500 33.45900 29.31700
C  -2.40900 37.58700 29.30100
C  -2.50100 37.61700 24.38900
C  -5.39600 33.83400 24.42600
N  -3.50000 35.33300 29.09400
C  -4.09900 34.39700 29.89600
C  -3.78100 34.65900 31.37000
C  -3.10700 36.08500 31.37700
C  -2.96200 36.40600 29.83400
C  -3.82900 37.23400 32.16300
C  -3.04900 33.48500 32.11600
C  -3.61400 32.86100 33.40600
H  -2.63700 32.64000 34.62200
N  -2.44000 37.23200 26.84500
C  -2.08500 37.95500 27.94200
C  -1.24300 39.10800 27.55200
C  -1.07800 39.06200 26.11500
C  -1.94500 37.91200 25.72400
C  -0.64300 40.13500 28.59000
C  -0.34500 39.87300 25.15200
O  -0.24900 39.68700 23.97600
C  0.15500 41.12200 25.70900
N  -3.94300 35.73300 24.68900
C  -3.38100 36.65000 23.91800
C  -3.62200 36.33300 22.42600
C  -4.66000 35.18900 22.46000
C  -4.71100 34.93500 23.97300
C  -4.11200 37.59900 21.68500
C  -4.37300 33.92100 21.56700
C  -3.42900 32.78500 22.14400
N  -4.90200 34.00800 26.77100
C  -5.52100 33.31000 25.73300
C  -6.14000 32.04600 26.24200
C  -5.92300 32.09700 27.65600
C  -5.20100 33.31800 27.93300
C  -6.76800 31.02400 25.39500
C  -6.20300 31.37300 28.92700
O  -6.76300 30.29900 29.12300
C  -5.53200 32.24300 30.05700
C  -6.70200 32.69500 30.91000
O  -7.54800 33.45400 30.51600
O  -6.61900 32.21000 32.23600
C  -7.74300 32.43700 33.11700
H  -2.06400 38.31600 30.03700
H  -2.16600 38.42200 23.73100
H  -6.00400 33.34600 23.66200
H  -4.78200 34.64600 31.80200
H  -2.07800 36.01800 31.73100
H  -3.34200 37.38200 33.12700
H  -4.83200 36.89200 32.41800
H  -3.96400 38.19100 31.65900
H  -2.07600 33.86700 32.42300
H  -2.98100 32.62300 31.45300
H  -3.78000 31.82900 33.09800
H  -4.56900 33.36200 33.56500
H  -0.76500 39.98000 29.66200
H  -0.87400 41.17300 28.34900
H  0.44300 40.07400 28.52300
H  -0.63300 41.75600 26.11500
H  0.78600 41.59200 24.95500
H  0.94700 40.93200 26.43400
H  -2.65900 36.20400 21.93200
H  -5.67100 35.49900 22.19500
H  -4.94800 37.35800 21.02900
H  -3.46300 38.17500 21.02500
H  -4.31500 38.35000 22.44900
H  -3.99500 34.27100 20.60600
H  -5.35400 33.54000 21.28300
H  -2.93400 33.19700 23.02500
H  -2.71100 32.66500 21.33200
H  -4.04600 31.89700 22.27900
H  -5.90600 30.70700 24.80900
H  -7.52900 31.44600 24.73800
H  -6.90400 30.10400 25.96400
H  -4.89800 31.63600 30.70300
H  -8.09100 31.45500 33.43800
H  -8.54500 32.94300 32.58100
H  -7.34700 33.05900 33.92000

