158

Mg 39.91500 9.05200 29.53400
C  41.68700 10.57300 32.02100
C  37.57400 8.06100 31.72800
C  38.37700 7.22800 26.95100
C  42.74300 9.42700 27.40600
N  39.77300 9.26500 31.69000
C  40.50400 9.99600 32.53700
C  39.88500 10.16000 33.97100
C  38.65800 9.24900 33.80700
C  38.65200 8.85600 32.30200
C  38.63300 7.95200 34.78800
C  39.50900 11.63000 34.42700
C  38.41500 11.82000 35.52600
H  38.81900 12.68600 36.63400
N  38.04800 8.00500 29.29400
C  37.27600 7.63600 30.37800
C  36.07800 6.99100 29.89200
C  36.21000 6.90300 28.50600
C  37.55500 7.40500 28.14900
C  34.99500 6.49000 30.78100
C  35.24700 6.28100 27.49600
O  35.49800 6.16100 26.33500
C  33.89500 5.73100 27.86800
N  40.58400 8.23500 27.56900
C  39.77900 7.54400 26.73100
C  40.41900 7.42000 25.31500
C  41.78500 8.07200 25.49300
C  41.70200 8.68800 26.90700
C  40.52500 5.94500 24.73900
C  42.11400 9.16000 24.41400
C  41.32400 10.50800 24.60200
N  41.81300 9.87500 29.65100
C  42.78600 10.05700 28.69600
C  43.84000 10.87100 29.23400
C  43.50400 11.09900 30.51400
C  42.19800 10.48600 30.75200
C  45.04700 11.28700 28.52000
C  43.90900 11.61500 31.72500
O  44.93600 12.25400 31.97500
C  42.74800 11.33000 32.73100
C  43.30700 10.52400 33.90800
O  43.86200 9.42800 33.81000
O  42.99900 11.13000 35.09200
C  42.98600 10.27800 36.24600
H  36.89000 7.80900 32.54200
H  37.88900 6.72300 26.11500
H  43.50400 9.63700 26.65100
H  40.58300 9.79400 34.72400
H  37.74700 9.78500 34.07100
H  38.67600 7.00800 34.24600
H  37.79700 7.90900 35.48600
H  39.55400 7.96900 35.37000
H  39.06700 12.11900 33.55900
H  40.33700 12.30300 34.65300
H  38.23400 10.85500 35.99900
H  37.49500 12.12900 35.03000
H  34.02300 6.80700 30.40300
H  35.12200 6.93700 31.76700
H  35.10600 5.40800 30.85600
H  34.02000 4.87900 28.53600
H  33.41000 5.28900 26.99800
H  33.18400 6.44700 28.27900
H  39.89900 8.04000 24.58500
H  42.59500 7.35900 25.64600
H  40.18600 5.23400 25.49200
H  41.59400 5.90900 24.53000
H  40.00200 5.85000 23.78700
H  41.85400 8.63600 23.49400
H  43.18700 9.35000 24.42100
H  40.85700 10.79500 23.65900
H  41.95900 11.30400 24.99200
H  40.57300 10.45300 25.38900
H  45.07600 12.37600 28.48100
H  45.13400 10.95000 27.48800
H  45.93100 10.95100 29.06200
H  42.35400 12.30000 33.03300
H  43.17800 10.90000 37.11900
H  43.85600 9.65000 36.43900
H  42.07900 9.67300 36.22800
Mg -12.00300 16.24500 41.33700
C  -9.07000 14.50700 40.59100
C  -10.64100 18.98900 39.84100
C  -15.12300 17.50300 41.07900
C  -13.46100 13.15200 42.38800
N  -10.07100 16.57000 40.16100
C  -8.95800 15.81500 40.16300
C  -7.79400 16.62100 39.63600
C  -8.33400 18.06200 39.46100
C  -9.77800 17.88600 39.82100
C  -7.61300 19.21000 40.23700
C  -7.31900 16.02200 38.26000
C  -5.75700 15.94200 38.16500
H  -5.16400 16.78900 36.99500
N  -12.76300 18.00200 40.59700
C  -12.03100 19.00500 40.00400
C  -12.91200 20.09700 39.66000
C  -14.22400 19.70300 40.05700
C  -14.10100 18.36600 40.58500
C  -12.41900 21.36500 38.88800
C  -15.42700 20.55700 39.93300
O  -15.28700 21.59200 39.36300
C  -16.77800 20.27300 40.49200
N  -14.08900 15.31200 41.53000
C  -15.17900 16.15000 41.45100
C  -16.43800 15.42900 41.92900
C  -15.90700 14.07300 42.62300
C  -14.41000 14.16100 42.16500
C  -17.52000 16.15700 42.77900
C  -16.61400 12.77800 42.25500
C  -16.63100 11.66600 43.33800
N  -11.42000 14.31500 41.60400
C  -12.09600 13.17500 42.04200
C  -11.20300 12.02600 42.10500
C  -10.04200 12.56200 41.58800
C  -10.20400 13.92000 41.23700
C  -11.47000 10.63700 42.53900
C  -8.73300 12.13200 41.17600
O  -8.14900 11.02600 41.22700
C  -8.05100 13.44400 40.52400
C  -6.88200 13.71400 41.35700
O  -6.89400 14.27500 42.46700
O  -5.70100 13.42300 40.68000
C  -4.57900 14.05500 41.28600
H  -10.13700 19.92500 39.58900
H  -16.11800 17.94400 40.99400
H  -13.90700 12.24100 42.79300
H  -6.96900 16.49100 40.33600
H  -8.32600 18.50300 38.46500
H  -8.02500 20.17500 39.94200
H  -6.53100 19.14600 40.11900
H  -7.82500 19.07100 41.29600
H  -7.67200 16.54700 37.37200
H  -7.73500 15.02500 38.11400
H  -5.50200 14.89900 37.97500
H  -5.26800 16.21400 39.10100
H  -13.06300 22.20900 39.13700
H  -12.34700 21.20200 37.81300
H  -11.38300 21.53300 39.18300
H  -17.48400 20.99100 40.07500
H  -16.72200 20.10100 41.56700
H  -17.06600 19.39000 39.92100
H  -16.78500 15.18900 40.92300
H  -16.01000 14.15300 43.70500
H  -17.32800 17.22700 42.86300
H  -17.60800 15.76200 43.79100
H  -18.47300 16.02200 42.26800
H  -16.26600 12.21600 41.38800
H  -17.63900 13.02900 41.98500
H  -16.45300 12.13800 44.30400
H  -15.94100 10.85900 43.09200
H  -17.62500 11.22200 43.27200
H  -11.73200 9.95500 41.73000
H  -12.26400 10.51800 43.27800
H  -10.53200 10.36700 43.02400
H  -7.71500 13.26400 39.50300
H  -4.69500 15.13800 41.30900
H  -3.75100 13.88900 40.59700
H  -4.28300 13.74100 42.28700

