158

Mg 24.08200 -4.63500 45.96200
C  26.38600 -2.48000 44.35200
C  21.72500 -3.53200 43.83200
C  22.13400 -7.33000 46.86800
C  26.81400 -6.11100 47.68900
N  24.10600 -3.17800 44.25700
C  25.08400 -2.38000 43.82700
C  24.74300 -1.67200 42.63100
C  23.13600 -1.77000 42.59800
C  22.89200 -2.86000 43.64700
C  22.19000 -0.54800 42.97400
C  25.42500 -2.27600 41.34900
C  26.22600 -1.33300 40.50100
H  25.84700 -1.27400 39.02500
N  22.13600 -5.28700 45.51200
C  21.34200 -4.66300 44.64400
C  20.05800 -5.30900 44.64400
C  20.08500 -6.41000 45.56600
C  21.45300 -6.36500 46.10000
C  19.00300 -5.04800 43.59700
C  19.03000 -7.43000 45.78800
O  18.02500 -7.46100 45.05700
C  19.01900 -8.43200 46.89700
N  24.45800 -6.60000 47.06600
C  23.47600 -7.51400 47.24300
C  24.03000 -8.65600 48.11400
C  25.33200 -8.08900 48.66400
C  25.58600 -6.85000 47.76600
C  23.22000 -9.33200 49.23900
C  26.50300 -9.09300 48.57800
C  27.20600 -9.31400 49.93800
N  26.16800 -4.27400 46.12800
C  27.10200 -4.95800 46.88500
C  28.43000 -4.32500 46.71500
C  28.16300 -3.36400 45.73800
C  26.76000 -3.32200 45.48500
C  29.77900 -4.71500 47.25500
C  28.80700 -2.36200 44.91000
O  29.95100 -2.11600 44.76200
C  27.66000 -1.81700 43.95000
C  27.59200 -0.33000 44.02600
O  27.41400 0.30400 45.07700
O  27.70900 0.26300 42.85000
C  27.73000 1.74300 42.91600
H  20.96600 -3.16000 43.14000
H  21.49900 -8.10600 47.30100
H  27.67600 -6.34000 48.31800
H  24.97000 -0.61600 42.77000
H  22.82000 -2.06200 41.59600
H  22.49200 0.34200 42.42100
H  22.18000 -0.33900 44.04400
H  21.23500 -0.99500 42.69900
H  24.64000 -2.70500 40.72500
H  26.02100 -3.12700 41.68000
H  27.28700 -1.52900 40.65800
H  25.97000 -0.32000 40.80900
H  18.63800 -5.96300 43.13100
H  19.28800 -4.44100 42.73800
H  18.09000 -4.61000 43.99900
H  19.27900 -8.01100 47.86900
H  19.77800 -9.15500 46.59700
H  18.02200 -8.84700 47.04700
H  24.29100 -9.47500 47.44300
H  25.20300 -7.64500 49.65200
H  23.03000 -10.38200 49.01300
H  22.21400 -8.91600 49.18000
H  23.66800 -9.24300 50.22900
H  27.19400 -8.80800 47.78600
H  26.10500 -10.08600 48.36700
H  27.53600 -8.37700 50.38700
H  28.09700 -9.85200 49.61500
H  26.63500 -9.99700 50.56700
H  30.56200 -4.32300 46.60600
H  29.89100 -5.79300 47.13700
H  29.97000 -4.32600 48.25500
H  27.91500 -2.04700 42.91600
H  28.76000 2.06100 43.07900
H  27.06000 2.15200 43.67200
H  27.34800 1.99000 41.92600
Mg 6.22700 53.65500 41.05200
C  5.48600 50.13600 40.83300
C  9.31200 52.86100 39.77100
C  6.67000 56.91300 40.60700
C  2.84200 54.26600 41.71100
N  7.22000 51.67600 40.18100
C  6.78600 50.39900 40.25900
C  7.94800 49.50500 39.90400
C  9.25400 50.37700 39.90800
C  8.56500 51.72700 39.77800
C  10.21600 50.20700 41.14200
C  7.69500 48.75900 38.47200
C  6.68000 49.25400 37.46600
H  7.08300 49.76900 36.07800
N  7.86000 54.75900 40.46900
C  9.05800 54.20500 40.07300
C  9.90000 55.35600 39.88900
C  9.20100 56.61000 40.14300
C  7.84200 56.18700 40.38300
C  11.40600 55.13400 39.56600
C  9.89600 57.95400 40.25100
O  11.13100 58.09900 40.09900
C  9.11900 59.16900 40.55500
N  4.95700 55.37600 41.06700
C  5.40000 56.57100 41.03600
C  4.39300 57.70500 41.37800
C  3.14300 56.78600 41.60500
C  3.69300 55.35100 41.52600
C  4.96700 58.69100 42.51200
C  1.85400 57.18300 40.77000
C  1.67000 56.50400 39.37200
N  4.51900 52.48900 41.32400
C  3.22200 52.88900 41.59300
C  2.44800 51.67700 41.91400
C  3.33800 50.60400 41.66000
C  4.52400 51.13300 41.20000
C  0.97800 51.58200 42.41300
C  3.44300 49.13000 41.76800
O  2.66300 48.32500 42.24100
C  4.82400 48.74600 41.14700
C  4.59300 47.97000 39.92200
O  3.93700 48.28700 38.95100
O  5.28100 46.83400 40.09100
C  5.06900 45.72200 39.17600
H  10.29000 52.71500 39.30600
H  6.75300 57.97200 40.35400
H  1.79800 54.43900 41.98300
H  8.10200 48.68400 40.60400
H  9.78600 50.27300 38.96200
H  10.26300 50.97300 41.91600
H  11.22800 50.07200 40.76200
H  9.99000 49.31600 41.72800
H  7.41100 47.73100 38.69700
H  8.65300 48.77900 37.95200
H  6.14000 50.03800 37.99700
H  6.02400 48.41300 37.24100
H  11.76400 55.48300 38.59800
H  11.75400 54.11900 39.76100
H  12.00200 55.71900 40.26600
H  9.84300 59.98300 40.60400
H  8.57300 59.12700 41.49700
H  8.52600 59.35200 39.65900
H  4.19700 58.35700 40.52700
H  2.89700 56.80000 42.66600
H  4.21500 58.80300 43.29300
H  5.12400 59.66900 42.05500
H  5.87700 58.30200 42.96800
H  1.73800 58.25800 40.63200
H  1.10200 57.01100 41.54000
H  2.55700 55.97600 39.02100
H  1.37900 57.17900 38.56700
H  0.80500 55.84600 39.44200
H  0.79200 52.40600 43.10100
H  0.74900 50.61400 42.86000
H  0.37500 51.81100 41.53500
H  5.34200 48.12200 41.87600
H  5.58100 46.02100 38.26100
H  4.00200 45.54000 39.04400
H  5.66700 44.89500 39.55700

