158

Mg 9.58800 47.85800 24.76400
C  7.61400 48.17200 27.63200
C  12.11500 49.44500 26.45900
C  11.46600 47.89700 21.99300
C  6.71000 47.12500 22.92700
N  9.78300 48.76100 26.82100
C  8.88000 48.66100 27.86800
C  9.51800 49.02000 29.24700
C  10.85900 49.78600 28.64600
C  10.96800 49.27800 27.24700
C  10.73900 51.31900 28.58900
C  9.84100 47.78300 30.18000
C  9.22500 47.83000 31.62400
H  9.31700 46.58300 32.53900
N  11.57000 48.39100 24.36400
C  12.48900 48.95100 25.21900
C  13.74200 48.96800 24.55800
C  13.60900 48.34900 23.27500
C  12.14800 48.14600 23.16900
C  14.96800 49.49800 25.24600
C  14.60300 48.11000 22.18100
O  14.32900 47.69900 21.03000
C  16.07800 48.29100 22.47700
N  9.14500 47.67400 22.74500
C  10.10700 47.65600 21.76500
C  9.60800 47.12900 20.42200
C  8.06900 46.80500 20.72100
C  7.92000 47.24600 22.22500
C  9.77100 48.14000 19.18700
C  7.70600 45.32400 20.47700
C  7.93400 44.35400 21.67200
N  7.54500 47.64500 25.12900
C  6.41400 47.36400 24.32100
C  5.21800 47.36700 25.09500
C  5.64300 47.55500 26.39300
C  7.02300 47.77500 26.35800
C  3.93600 46.95800 24.58400
C  5.19700 47.61000 27.76100
O  4.08300 47.41800 28.21200
C  6.45500 47.99100 28.57200
C  6.60300 46.88000 29.60500
O  7.24600 45.83100 29.39200
O  6.04100 47.18600 30.81200
C  5.84700 46.09100 31.77800
H  12.81000 49.98400 27.10700
H  12.09900 47.79200 21.11000
H  5.74200 46.90400 22.47200
H  8.88400 49.67400 29.84400
H  11.70800 49.49900 29.26500
H  10.73500 51.62400 29.63600
H  9.73500 51.62600 28.29700
H  11.54500 51.77400 28.01300
H  10.90500 47.89500 30.38700
H  9.64800 46.86400 29.62600
H  8.15700 47.86500 31.41000
H  9.47900 48.77300 32.10900
H  15.24000 50.37800 24.66300
H  15.68300 48.67700 25.29900
H  14.87700 50.03700 26.18900
H  16.73900 47.84300 21.73500
H  16.37200 47.89300 23.44800
H  16.21900 49.35800 22.65100
H  10.27400 46.30000 20.18000
H  7.39400 47.41300 20.11900
H  8.87200 48.18500 18.57300
H  10.68000 48.01100 18.60000
H  9.78300 49.15700 19.57800
H  8.21300 44.92400 19.59800
H  6.63600 45.42500 20.29300
H  8.72700 44.65700 22.35500
H  8.20200 43.36300 21.30700
H  6.98700 44.27000 22.20600
H  3.71900 47.70700 23.82200
H  3.19200 47.06600 25.37300
H  3.96500 45.92200 24.24800
H  6.20900 48.90400 29.11400
H  6.48400 46.21700 32.65300
H  6.14300 45.14600 31.32200
H  4.81100 45.95400 32.08700
Mg -12.53700 17.35900 42.31100
C  -9.56800 15.63300 41.52200
C  -11.24700 19.89400 40.34300
C  -15.54200 18.81100 42.46500
C  -13.78200 14.45200 43.68000
N  -10.61800 17.64900 41.02900
C  -9.53800 16.89900 40.96900
C  -8.36600 17.62500 40.29100
C  -9.02800 18.91300 39.74900
C  -10.32200 18.91400 40.54700
C  -8.03300 20.11300 39.96600
C  -7.45800 16.87800 39.24700
C  -5.89800 16.96000 39.42000
H  -4.98800 17.34700 38.24400
N  -13.25200 19.18300 41.55400
C  -12.60100 20.01900 40.72800
C  -13.45500 21.10500 40.37900
C  -14.74100 20.79800 40.96600
C  -14.52700 19.58300 41.73800
C  -13.10300 22.31700 39.67600
C  -16.08400 21.58500 40.82400
O  -16.27200 22.55300 40.09600
C  -17.29000 21.24500 41.61600
N  -14.47600 16.72400 42.92700
C  -15.52100 17.49600 43.04800
C  -16.71100 16.76100 43.68600
C  -16.07900 15.38500 44.07800
C  -14.68200 15.51500 43.49700
C  -17.32600 17.46900 44.85000
C  -16.85000 14.17700 43.59400
C  -16.78000 13.86700 42.06700
N  -11.80400 15.41100 42.60500
C  -12.42100 14.33400 43.18500
C  -11.62700 13.16600 43.26200
C  -10.39100 13.62600 42.68500
C  -10.61200 15.01400 42.27800
C  -12.01900 11.87700 43.82300
C  -9.05600 13.28700 42.31000
O  -8.40100 12.23400 42.56500
C  -8.48100 14.53000 41.55700
C  -7.30000 14.95100 42.26900
O  -7.36500 15.87600 43.10700
O  -6.18300 14.12800 42.00000
C  -5.04500 14.44100 42.91800
H  -10.95900 20.77500 39.76600
H  -16.56800 19.13300 42.65200
H  -14.17100 13.54300 44.14400
H  -7.70300 17.91900 41.10500
H  -9.28400 18.92000 38.68900
H  -7.05400 19.63500 39.99100
H  -8.30200 20.67200 40.86300
H  -8.02100 20.86300 39.17400
H  -7.63400 17.36600 38.28900
H  -7.77800 15.83600 39.21800
H  -5.52100 15.97800 39.70400
H  -5.71300 17.74000 40.15900
H  -12.32500 22.18200 38.92500
H  -12.69900 23.04200 40.38300
H  -13.91700 22.80300 39.13900
H  -16.95200 21.30200 42.65100
H  -17.75500 20.32500 41.26200
H  -17.98600 22.04100 41.35300
H  -17.44700 16.60800 42.89600
H  -15.98500 15.26600 45.15700
H  -16.90800 18.47400 44.90200
H  -17.24100 16.93800 45.79700
H  -18.37800 17.58500 44.58800
H  -17.87700 14.48300 43.79200
H  -16.69100 13.35300 44.29000
H  -17.75000 14.08100 41.62000
H  -16.42500 12.85000 41.89900
H  -16.00600 14.34000 41.46200
H  -12.14700 11.98900 44.89900
H  -11.15700 11.24700 43.60400
H  -12.91300 11.39900 43.42300
H  -8.07000 14.23100 40.59200
H  -4.38100 13.57800 42.86100
H  -5.30700 14.61300 43.96200
H  -4.37300 15.27500 42.71400

