158

Mg 46.48600 25.20000 28.31500
C  46.92200 27.35800 31.08100
C  45.46700 22.88000 30.65100
C  47.15400 22.87300 26.11500
C  48.01300 27.56900 26.25300
N  46.38000 25.09600 30.67300
C  46.47800 26.12800 31.52500
C  46.15000 25.71300 33.02400
C  46.00600 24.21200 32.80700
C  45.82600 24.06100 31.24700
C  47.02300 23.23900 33.41600
C  44.97500 26.54000 33.65400
C  45.16300 27.05000 35.04000
H  44.09300 27.00800 36.12800
N  46.13600 23.22600 28.23700
C  45.66000 22.46600 29.26900
C  45.34600 21.15300 28.69300
C  45.92900 21.07600 27.39500
C  46.37600 22.40800 27.17400
C  44.71300 20.04900 29.51600
C  46.08800 19.89400 26.35400
O  46.59300 20.01000 25.30100
C  45.63500 18.54200 26.76800
N  47.63200 25.19600 26.53100
C  47.85300 24.04200 25.84700
C  48.66700 24.23600 24.49200
C  48.63100 25.77400 24.47000
C  48.00200 26.25700 25.81000
C  50.11400 23.47200 24.48100
C  48.14400 26.49900 23.19100
C  46.64100 26.81100 23.24700
N  47.29000 27.12300 28.57200
C  47.82300 28.02500 27.60200
C  48.11000 29.25100 28.30500
C  47.80400 28.99000 29.64400
C  47.27400 27.67500 29.75700
C  48.76300 30.40000 27.63800
C  47.82800 29.61900 30.92100
O  48.16400 30.73800 31.34800
C  47.34800 28.52200 31.92600
C  48.47800 28.22400 32.87000
O  49.43400 27.50300 32.50200
O  48.38700 28.81400 34.07000
C  49.39000 28.31000 35.04300
H  45.15100 22.12300 31.37100
H  47.30400 22.09900 25.36000
H  48.38600 28.36900 25.61000
H  47.09600 25.92300 33.52200
H  45.03000 23.93800 33.20700
H  47.87200 23.65700 33.95600
H  47.40600 22.58000 32.63600
H  46.52500 22.53100 34.07800
H  44.11900 25.86700 33.61000
H  44.67300 27.39600 33.04900
H  45.26400 28.11900 34.85500
H  46.05500 26.60200 35.47900
H  45.39400 19.19900 29.47900
H  43.76100 19.70100 29.11300
H  44.51500 20.40700 30.52600
H  45.79900 17.88400 25.91400
H  44.57200 18.55400 27.00600
H  46.22700 18.04300 27.53500
H  48.02600 23.86300 23.69400
H  49.69700 25.99700 24.51700
H  49.96100 22.61100 23.83000
H  50.48100 23.20500 25.47200
H  50.87500 24.15300 24.09900
H  48.37300 25.89100 22.31500
H  48.72500 27.41200 23.06300
H  46.10400 26.10500 23.88000
H  46.22200 26.76300 22.24200
H  46.38000 27.81800 23.57300
H  49.73300 30.17300 27.19700
H  49.10700 31.11600 28.38500
H  48.11100 30.90900 26.92700
H  46.45400 28.85200 32.45500
H  48.96400 27.74900 35.87400
H  50.01300 29.12900 35.40200
H  50.13500 27.68900 34.54500
Mg 16.14000 51.77400 26.72700
C  18.09900 50.61400 29.26500
C  13.60300 52.53700 28.85300
C  14.33500 52.61000 23.95100
C  18.50200 50.50100 24.46500
N  16.00200 51.53000 28.84400
C  16.86600 51.12100 29.72500
C  16.37100 51.27400 31.20500
C  14.87700 51.54100 30.97400
C  14.80500 51.95800 29.46900
C  14.01400 50.24800 31.18100
C  17.20000 52.41400 31.84700
C  17.40300 52.51500 33.27000
H  16.30500 51.84300 34.15100
N  14.25600 52.57500 26.45300
C  13.33400 52.80400 27.44400
C  12.11500 53.35900 26.83700
C  12.37200 53.50600 25.45000
C  13.66300 52.89900 25.23900
C  10.91700 53.79900 27.66400
C  11.51600 54.07900 24.36200
O  11.81900 54.07200 23.16800
C  10.18400 54.73700 24.65800
N  16.45500 51.68500 24.54200
C  15.54600 51.98900 23.62700
C  16.01900 52.04200 22.21000
C  17.38200 51.30300 22.37600
C  17.48900 51.20000 23.89100
C  14.96100 51.60200 21.15800
C  18.60300 52.00100 21.57200
C  18.87900 51.45200 20.21300
N  17.96400 50.77700 26.83700
C  18.80600 50.32900 25.82000
C  19.90900 49.61400 26.39500
C  19.70500 49.77000 27.72200
C  18.53900 50.49600 27.96100
C  20.99700 48.91600 25.63500
C  20.24800 49.46500 29.00700
O  21.31600 48.88200 29.29500
C  19.23400 50.04000 30.06800
C  18.84900 48.93300 31.01900
O  18.59900 47.82200 30.69500
O  18.81800 49.39000 32.31800
C  18.66500 48.37600 33.38700
H  12.74800 52.72500 29.50500
H  13.81000 52.98600 23.07000
H  19.23300 50.23100 23.70000
H  16.53600 50.34900 31.75800
H  14.60500 52.34500 31.65800
H  13.22000 50.44200 31.90300
H  14.55600 49.31700 31.35200
H  13.49800 50.04900 30.24200
H  16.78400 53.37500 31.54600
H  18.23300 52.32600 31.51000
H  17.43100 53.55600 33.59400
H  18.35400 52.07900 33.57600
H  10.09800 53.15200 27.34800
H  10.64500 54.84000 27.49300
H  10.96700 53.62400 28.73900
H  10.30300 55.62300 25.28200
H  9.56000 54.02200 25.19400
H  9.72800 55.09200 23.73300
H  16.24400 53.08200 21.97300
H  17.32400 50.29000 21.97900
H  15.51800 50.94800 20.48600
H  14.75700 52.44800 20.50200
H  14.11100 51.10300 21.62200
H  19.41500 51.87600 22.28900
H  18.52900 53.08500 21.48200
H  18.20000 50.68900 19.83300
H  19.88200 51.03600 20.30600
H  18.82900 52.32900 19.56600
H  21.62200 49.64600 25.12000
H  20.52800 48.25400 24.90700
H  21.53400 48.16900 26.22000
H  19.70300 50.82600 30.66000
H  18.12200 48.83100 34.21500
H  19.64900 48.02400 33.69400
H  18.12700 47.56700 32.89300

