158

Mg 47.19400 24.79100 28.38300
C  48.03900 27.31200 30.68800
C  46.86400 22.52700 30.91100
C  46.75700 22.58500 25.94900
C  48.08500 27.17400 25.82900
N  47.45000 24.87300 30.58400
C  47.67500 26.06400 31.29000
C  47.52200 25.77000 32.83100
C  47.41100 24.15700 32.81300
C  47.15600 23.81900 31.33700
C  48.67700 23.32200 33.39200
C  46.30700 26.57800 33.27200
C  45.92500 26.36900 34.78500
H  46.04800 27.59000 35.77200
N  46.74000 22.84800 28.48800
C  46.68700 22.05000 29.60600
C  46.22400 20.73100 29.23200
C  46.20200 20.72000 27.78900
C  46.54200 22.11800 27.34300
C  45.86300 19.69400 30.22400
C  46.07200 19.52400 26.84200
O  46.08900 19.65100 25.65500
C  45.95800 18.16400 27.36800
N  47.46300 24.84500 26.15400
C  47.15600 23.80300 25.39300
C  47.21100 23.97800 23.88600
C  47.51300 25.44100 23.88500
C  47.67600 25.90200 25.37300
C  48.39600 23.09600 23.31200
C  46.44600 26.37300 23.21500
C  46.40600 26.26200 21.69600
N  48.00600 26.81100 28.21900
C  48.32200 27.58400 27.15300
C  48.83500 28.90400 27.56900
C  48.70500 28.81500 28.98100
C  48.17300 27.54000 29.29700
C  49.41600 30.03200 26.74900
C  48.95100 29.50600 30.19700
O  49.53200 30.54300 30.42000
C  48.35000 28.64300 31.33900
C  49.37200 28.61300 32.51300
O  50.44400 28.03800 32.42400
O  48.87100 29.22200 33.64000
C  49.75900 29.24700 34.88900
H  46.69900 21.87000 31.76700
H  46.38700 21.90400 25.18000
H  48.28400 27.88600 25.02500
H  48.45600 26.18600 33.21100
H  46.60800 23.83300 33.47500
H  49.05400 22.66900 32.60500
H  48.34500 22.64900 34.18300
H  49.43800 24.01000 33.76000
H  45.49900 26.26700 32.61000
H  46.55000 27.63500 33.16500
H  46.56100 25.56800 35.16000
H  44.88600 26.04400 34.84800
H  45.04800 19.07000 29.85700
H  45.46700 20.21000 31.09900
H  46.70600 19.03100 30.42100
H  46.80600 17.91100 28.00400
H  45.95900 17.49300 26.50900
H  44.99000 18.13100 27.86900
H  46.28200 23.93100 23.31700
H  48.46000 25.58500 23.36600
H  48.72200 22.36100 24.04900
H  49.23500 23.66900 22.91900
H  47.97100 22.63500 22.42000
H  46.59900 27.42500 23.45600
H  45.51200 25.98500 23.62200
H  47.16500 25.61900 21.25200
H  46.58500 27.23600 21.24000
H  45.39000 25.98000 21.42000
H  48.86600 30.96200 26.89300
H  49.58600 29.81500 25.69400
H  50.41100 30.21600 27.15300
H  47.49300 29.21400 31.69700
H  50.78200 29.01200 34.59400
H  49.44500 28.57200 35.68500
H  49.72700 30.23100 35.35700
Mg 48.20800 34.92400 26.43400
C  46.16700 34.21100 29.14500
C  48.93800 38.00300 27.95900
C  49.65000 35.95900 23.67500
C  46.98800 32.04000 24.82500
N  47.51900 36.01500 28.32400
C  46.80300 35.42800 29.33800
C  46.84600 36.35700 30.58400
C  47.33000 37.80200 30.00200
C  47.96500 37.27700 28.66000
C  46.27000 38.90500 29.92300
C  47.51800 35.64600 31.79900
C  48.23700 36.56000 32.79600
H  47.51600 37.54100 33.70700
N  49.37300 36.58600 25.94800
C  49.56500 37.74400 26.69600
C  50.60700 38.57400 25.98900
C  50.71500 38.04500 24.73600
C  49.84200 36.79100 24.75600
C  51.10100 39.83300 26.56600
C  51.54500 38.46400 23.55200
O  51.62100 37.85000 22.50900
C  52.35200 39.74400 23.59200
N  48.24600 34.08500 24.55700
C  48.89700 34.79800 23.54400
C  48.83000 33.98200 22.23100
C  48.29600 32.58300 22.65100
C  47.79200 32.84400 24.08800
C  48.07500 34.69800 21.14200
C  49.35900 31.43400 22.59800
C  49.03700 30.30400 21.58500
N  46.80900 33.46100 26.81600
C  46.53300 32.30300 26.11500
C  45.63200 31.48700 26.91600
C  45.40700 32.21700 28.11800
C  46.22600 33.33900 28.02600
C  45.02500 30.14500 26.57800
C  44.69200 32.39000 29.36900
O  43.80800 31.71200 29.84900
C  45.26100 33.49200 30.14300
C  46.01600 32.92700 31.28200
O  47.23000 32.61500 31.10600
O  45.29500 32.81200 32.41800
C  46.01400 32.13800 33.52000
H  49.28500 38.95300 28.37100
H  50.11000 36.27000 22.73500
H  46.66900 31.11500 24.33900
H  45.81200 36.51000 30.89200
H  48.07800 38.18400 30.69700
H  45.82900 38.83800 28.92900
H  46.58000 39.92600 30.14500
H  45.44300 38.63200 30.57800
H  48.28200 34.96600 31.42100
H  46.78900 35.08500 32.38300
H  49.13100 37.11800 32.52000
H  48.73600 35.80800 33.40700
H  52.18900 39.86800 26.51200
H  50.78800 39.90700 27.60800
H  50.64400 40.59000 25.92800
H  51.82300 40.65800 23.86200
H  52.69800 39.90200 22.57100
H  53.18900 39.64000 24.28300
H  49.83000 33.83500 21.82500
H  47.45500 32.25600 22.03900
H  48.76700 34.54600 20.31400
H  48.10500 35.77500 21.30200
H  47.05500 34.32300 21.06600
H  49.43700 30.99400 23.59200
H  50.34300 31.79700 22.30000
H  49.74300 30.19900 20.76000
H  48.07600 30.46100 21.09600
H  49.14700 29.39000 22.16800
H  44.58600 30.14600 25.58100
H  44.15300 29.97100 27.20800
H  45.77700 29.37400 26.74900
H  44.46600 34.12600 30.53500
H  46.65100 31.36100 33.09900
H  45.37500 31.84400 34.35200
H  46.67800 32.94900 33.81900

