158

Mg 16.97600 -1.59400 28.57200
C  15.82200 0.59800 31.10000
C  18.91900 -3.18200 30.96100
C  18.51800 -3.31400 26.09800
C  15.48000 0.61100 26.25500
N  17.13200 -1.47800 30.83600
C  16.61800 -0.43500 31.60900
C  17.14000 -0.55700 33.05600
C  18.33000 -1.68100 32.91800
C  18.12700 -2.07100 31.43700
C  19.70900 -1.12100 33.29800
C  15.92600 -1.07900 33.87400
C  15.72800 -0.38300 35.23500
H  16.84300 0.25400 35.98800
N  18.29300 -3.16000 28.61700
C  18.95100 -3.72600 29.68600
C  19.56700 -4.94800 29.20000
C  19.61200 -4.92000 27.81900
C  18.80200 -3.74500 27.43200
C  20.15900 -6.01800 30.09300
C  20.20700 -5.93800 26.85100
O  20.12000 -5.85100 25.68600
C  21.12200 -7.00200 27.37900
N  17.16900 -1.23100 26.46200
C  17.80300 -2.20100 25.66500
C  17.53600 -1.89500 24.21600
C  16.40400 -0.81200 24.27400
C  16.31600 -0.42900 25.72300
C  18.94200 -1.48600 23.57300
C  15.04500 -1.25800 23.63900
C  14.38600 -0.22000 22.66000
N  15.72300 0.12000 28.63100
C  15.21000 0.89600 27.57700
C  14.34200 1.95100 28.12400
C  14.52200 1.83300 29.49600
C  15.45600 0.76500 29.73700
C  13.61500 3.06300 27.35800
C  14.17400 2.45400 30.79100
O  13.44400 3.34100 31.10900
C  15.14800 1.73100 31.85500
C  16.07300 2.78900 32.48600
O  17.00700 3.33100 31.84200
O  15.68700 3.15300 33.77400
C  16.48200 4.19800 34.40200
H  19.55200 -3.53100 31.78000
H  19.03000 -3.81700 25.27400
H  14.89100 1.19300 25.54400
H  17.53200 0.41000 33.37000
H  18.09700 -2.55800 33.52000
H  19.70800 -0.15100 33.79400
H  20.37700 -1.14600 32.43700
H  20.22700 -1.81600 33.96000
H  15.87800 -2.15000 34.07200
H  15.03100 -0.87400 33.28600
H  15.47200 -1.26500 35.82100
H  14.80300 0.18800 35.31100
H  21.20100 -6.07300 30.40600
H  19.68900 -6.94100 29.75200
H  19.69600 -5.81000 31.05800
H  21.99600 -6.62800 27.91300
H  21.42500 -7.60300 26.52200
H  20.51400 -7.68500 27.97100
H  17.14500 -2.79900 23.74900
H  16.62000 0.14500 23.79800
H  19.00000 -0.40500 23.44400
H  19.07100 -1.97300 22.60600
H  19.80900 -1.74500 24.18100
H  14.48400 -1.50200 24.54200
H  15.09400 -2.20000 23.09200
H  15.20200 0.38300 22.26100
H  13.69900 0.36800 23.26700
H  13.82400 -0.65500 21.83300
H  13.83900 3.16500 26.29700
H  13.91900 4.05300 27.69900
H  12.58200 2.79400 27.58100
H  14.49300 1.43700 32.67500
H  16.47400 5.00500 33.67000
H  17.46400 3.74900 34.54900
H  16.03600 4.48100 35.35600
Mg 6.64500 53.57700 40.76500
C  6.24900 50.03200 40.53600
C  9.95700 53.13300 39.98600
C  6.83800 56.79500 40.38800
C  3.06900 53.78000 40.85500
N  7.89900 51.86700 40.26800
C  7.56100 50.53500 40.21000
C  8.70000 49.64100 39.82200
C  9.90100 50.57100 40.19000
C  9.24800 52.00000 40.13200
C  10.59400 50.32100 41.57900
C  8.76500 49.00800 38.39800
C  8.41200 49.88600 37.12700
H  7.65000 51.20700 37.24900
N  8.26900 54.85300 40.33800
C  9.54500 54.44700 40.10600
C  10.26900 55.61500 40.13500
C  9.47300 56.72200 40.19700
C  8.11900 56.18900 40.23600
C  11.77900 55.62900 39.92600
C  9.80900 58.23400 40.06400
O  11.00000 58.50400 40.02400
C  8.82600 59.35600 40.03800
N  5.23700 54.95700 40.53500
C  5.61200 56.24300 40.58400
C  4.37500 57.17400 40.47400
C  3.21900 56.21200 40.23900
C  3.83900 54.91700 40.65400
C  4.16100 58.08600 41.69600
C  2.68000 56.14000 38.87100
C  1.13400 56.23400 38.65300
N  4.98300 52.19200 40.85000
C  3.60700 52.40300 40.97600
C  2.94800 51.07500 41.15000
C  4.00500 50.13700 41.01300
C  5.17500 50.86000 40.77000
C  1.49900 50.88700 41.32400
C  4.27400 48.71700 41.12000
O  3.55400 47.69300 41.21900
C  5.76300 48.64600 40.67800
C  5.73300 47.81800 39.54700
O  5.52200 48.14600 38.40600
O  6.22500 46.54800 39.92100
C  6.04100 45.45400 39.04800
H  11.04600 53.10400 39.91300
H  6.80700 57.88600 40.41400
H  1.98400 53.75900 40.97600
H  8.70800 48.75300 40.45500
H  10.67600 50.50000 39.42700
H  11.59900 49.94400 41.38700
H  10.03500 49.49400 42.01700
H  10.55500 51.18500 42.24200
H  8.05300 48.18800 38.49500
H  9.72900 48.50200 38.34500
H  7.73400 49.14600 36.70100
H  9.26000 50.06100 36.46600
H  12.02700 56.44100 39.24200
H  12.16500 54.71900 39.46700
H  12.21300 55.62200 40.92500
H  9.36100 60.30600 40.00500
H  8.29200 59.23600 40.98000
H  8.06900 59.24200 39.26200
H  4.44500 57.81200 39.59300
H  2.38700 56.40300 40.91700
H  4.59800 59.05400 41.45200
H  4.38300 57.64700 42.66800
H  3.13100 58.44200 41.73700
H  2.93000 55.16300 38.45800
H  3.08600 56.89900 38.20200
H  0.85900 56.62500 37.67300
H  0.86000 57.01100 39.36700
H  0.76200 55.23100 38.86100
H  1.37400 50.24300 42.19500
H  1.14100 50.22400 40.53700
H  0.91500 51.80600 41.37100
H  6.40800 48.10900 41.37300
H  6.88100 45.51800 38.35600
H  5.10700 45.68900 38.53700
H  5.88000 44.49000 39.53000

