158

Mg 36.16100 2.82700 30.93700
C  33.27100 3.19100 32.86400
C  37.97500 3.19900 33.76800
C  38.81200 2.01200 29.18900
C  34.30800 3.00400 28.04200
N  35.57900 3.09800 33.03900
C  34.40900 3.13600 33.65200
C  34.54100 3.10200 35.17200
C  36.06900 3.44700 35.36100
C  36.61100 3.25100 33.95200
C  36.26500 4.96600 35.82100
C  34.17700 1.71100 35.67400
C  33.89900 1.67700 37.21400
H  34.40500 2.77900 38.19100
N  38.15200 2.60500 31.40100
C  38.72300 2.87000 32.61600
C  40.17400 2.49900 32.54400
C  40.38500 1.97600 31.24800
C  39.08700 2.17700 30.53000
C  41.24500 2.62400 33.74400
C  41.55200 1.14600 30.72500
O  41.55500 0.61900 29.60900
C  42.67700 0.90500 31.69700
N  36.59600 2.88800 28.82400
C  37.80200 2.42500 28.32700
C  37.79800 2.03900 26.87800
C  36.25200 2.29900 26.51400
C  35.70600 2.82200 27.86400
C  38.82000 2.76900 26.07900
C  35.45700 1.12600 25.84900
C  35.10600 1.35100 24.33700
N  34.18800 2.97000 30.50500
C  33.59200 3.15000 29.28400
C  32.13600 3.48300 29.50100
C  31.91100 3.41500 30.88500
C  33.23900 3.18100 31.43000
C  31.08500 3.78600 28.35600
C  30.99300 3.52500 32.04500
O  29.79100 3.67500 32.07200
C  31.86700 3.42700 33.33600
C  31.66700 4.71200 34.00900
O  32.27000 5.75100 33.70200
O  30.89700 4.57200 35.15600
C  31.19900 5.48700 36.26300
H  38.71000 3.27500 34.57200
H  39.59400 1.39100 28.74800
H  33.65600 2.98300 27.16700
H  33.92600 3.93700 35.50600
H  36.56300 2.80400 36.08900
H  36.83800 5.49700 35.06100
H  36.79400 4.99400 36.77300
H  35.34300 5.54100 35.91300
H  34.95500 0.95100 35.60500
H  33.35100 1.28300 35.10600
H  34.22800 0.69100 37.54500
H  32.81000 1.67000 37.26700
H  40.81400 3.17500 34.58000
H  42.14800 3.08000 33.33700
H  41.43600 1.59700 34.05700
H  43.08200 1.86100 32.02900
H  43.40700 0.40200 31.06300
H  42.32600 0.22900 32.47700
H  38.03300 0.98500 26.73200
H  36.25200 3.22000 25.93000
H  38.33700 3.51500 25.44800
H  39.53600 2.10300 25.59800
H  39.35800 3.38400 26.80000
H  34.53500 0.92400 26.39300
H  36.00000 0.18100 25.81600
H  35.74800 0.75300 23.69000
H  35.04800 2.39500 24.02800
H  34.08600 1.06200 24.08500
H  31.44900 4.34200 27.49200
H  30.30100 4.42100 28.76700
H  30.66700 2.79800 28.16500
H  31.38800 2.70700 34.00000
H  32.25600 5.74400 36.20800
H  31.01000 4.84200 37.12100
H  30.50500 6.32800 36.27100
Mg 35.89100 47.97600 26.60400
C  36.07600 46.00900 29.49200
C  34.81400 50.54600 28.58200
C  36.11800 49.86000 23.89400
C  36.46300 45.05500 24.72000
N  35.58400 48.27700 28.84700
C  35.75100 47.32200 29.78000
C  35.58300 47.94600 31.15400
C  34.64800 49.20100 30.83400
C  34.95500 49.34000 29.32600
C  33.10700 49.04400 31.07600
C  36.95300 48.53400 31.74800
C  37.14700 48.38900 33.26700
H  36.72600 49.47900 34.21900
N  35.43500 49.91100 26.22400
C  34.98600 50.89900 27.20600
C  34.90700 52.17700 26.60400
C  35.23600 51.98800 25.25700
C  35.62400 50.57700 25.07200
C  34.39200 53.45900 27.40400
C  35.29700 53.05400 24.05800
O  35.38500 52.74200 22.87700
C  35.08700 54.53300 24.27400
N  36.07700 47.42600 24.49100
C  36.25100 48.47900 23.60700
C  36.65200 47.88500 22.16800
C  36.57000 46.31200 22.41000
C  36.39400 46.20100 23.93100
C  35.76900 48.29500 20.96200
C  37.73300 45.45600 21.90200
C  37.55700 44.80200 20.56000
N  36.14300 45.92800 26.94200
C  36.39400 44.85500 26.04900
C  36.58400 43.60500 26.84300
C  36.57400 44.07300 28.16700
C  36.21100 45.43400 28.18100
C  36.73900 42.17300 26.28000
C  36.72300 43.63500 29.53800
O  37.07400 42.56100 29.94700
C  36.45900 44.91700 30.48400
C  35.37600 44.58700 31.40800
O  34.24400 44.19500 31.13800
O  35.84400 44.80000 32.68400
C  34.85300 44.58800 33.75600
H  34.48400 51.39100 29.19000
H  36.24300 50.54000 23.04800
H  36.65400 44.10300 24.21900
H  35.07700 47.27200 31.84600
H  34.94900 50.08900 31.38900
H  33.04400 48.15800 31.70800
H  32.58400 49.05100 30.12000
H  32.71200 49.88100 31.65300
H  37.04100 49.58000 31.45300
H  37.74800 47.94700 31.28900
H  38.21200 48.27800 33.47300
H  36.69300 47.44200 33.55900
H  34.75600 54.40400 27.00100
H  34.69200 53.31700 28.44200
H  33.30300 53.41400 27.41900
H  34.27000 54.67500 24.98300
H  34.68400 55.06300 23.41100
H  35.93000 55.08100 24.69600
H  37.67000 48.17600 21.91100
H  35.69900 45.88700 21.91100
H  34.96500 48.97200 21.25000
H  35.40400 47.49600 20.31600
H  36.35000 48.92900 20.29200
H  37.89700 44.69200 22.66300
H  38.66800 46.01000 21.81600
H  38.43600 44.99200 19.94300
H  36.67000 45.04200 19.97400
H  37.52300 43.72200 20.70400
H  36.35300 41.42500 26.97300
H  37.77300 41.99800 25.98400
H  36.18300 41.99500 25.36000
H  37.38600 45.15300 31.00700
H  35.33800 44.87100 34.69000
H  34.60200 43.54500 33.94600
H  33.95600 45.13100 33.46100

