158

Mg -2.28200 34.36000 27.61300
C  -3.88900 32.54800 30.11900
C  -0.80200 36.27100 30.12300
C  -0.84800 36.26700 25.15300
C  -4.17300 32.60200 25.19500
N  -2.38000 34.37800 29.82200
C  -3.16800 33.63700 30.65000
C  -2.91700 33.91600 32.22900
C  -2.04900 35.21900 32.10400
C  -1.61800 35.27500 30.60700
C  -2.58700 36.63800 32.50100
C  -2.34500 32.67700 33.00000
C  -3.08800 32.14600 34.27600
H  -2.33200 32.14700 35.63500
N  -1.04600 36.07000 27.66700
C  -0.51600 36.66700 28.75900
C  0.38700 37.69800 28.34100
C  0.48500 37.67400 26.89500
C  -0.52200 36.66400 26.49900
C  1.15500 38.54800 29.29400
C  1.34900 38.54900 25.98900
O  1.34700 38.40600 24.75700
C  2.00400 39.74800 26.47600
N  -2.51800 34.48800 25.46900
C  -1.75700 35.28700 24.71000
C  -2.15000 35.12600 23.25400
C  -2.93000 33.78600 23.25800
C  -3.23100 33.60800 24.73700
C  -3.00700 36.36000 22.81600
C  -2.05600 32.68600 22.77500
C  -2.22400 32.27800 21.31600
N  -3.62000 32.84000 27.57500
C  -4.36800 32.26000 26.51200
C  -5.24400 31.26600 27.03500
C  -5.08100 31.31700 28.45300
C  -4.08900 32.29200 28.75100
C  -6.14000 30.39000 26.18700
C  -5.60500 30.79600 29.71800
O  -6.36600 29.89500 29.98500
C  -4.82000 31.58600 30.83800
C  -5.87400 32.19000 31.73500
O  -6.76600 32.95400 31.36800
O  -5.67100 31.73000 33.02800
C  -6.82600 31.76400 33.90900
H  -0.38900 36.90200 30.91200
H  -0.45100 36.83800 24.31000
H  -4.81200 32.21700 24.39700
H  -3.89700 34.23100 32.58600
H  -1.25900 35.08400 32.84300
H  -1.79400 37.14200 33.05400
H  -3.46000 36.61900 33.15300
H  -2.79000 37.12000 31.54400
H  -1.36600 32.91000 33.41800
H  -2.20200 31.79800 32.37100
H  -3.31000 31.10500 34.04400
H  -3.99300 32.73400 34.43200
H  0.53400 38.75800 30.16500
H  1.56700 39.50000 28.95800
H  1.97700 37.94600 29.68000
H  1.35400 40.38200 27.07900
H  2.38200 40.31200 25.62400
H  2.81100 39.34300 27.08700
H  -1.29700 35.11300 22.57600
H  -3.93100 33.87600 22.83700
H  -2.59100 36.93600 21.99000
H  -3.06500 37.01700 23.68500
H  -3.98800 35.99200 22.51500
H  -2.09200 31.87600 23.50400
H  -1.00400 32.96900 22.81800
H  -1.26700 32.56200 20.87900
H  -3.07800 32.81800 20.90700
H  -2.47500 31.22500 21.19000
H  -5.42400 29.75100 25.67100
H  -6.56700 30.94600 25.35200
H  -6.80600 29.86100 26.86900
H  -4.24200 30.78800 31.30400
H  -7.07800 30.85300 34.45200
H  -7.66900 31.98700 33.25500
H  -6.74300 32.60600 34.59600
Mg -5.93700 25.51400 26.61700
C  -4.35900 26.95100 29.33700
C  -7.81600 23.51400 28.65100
C  -7.03300 23.82900 23.90300
C  -4.04800 27.44900 24.57300
N  -6.11000 25.29300 28.83000
C  -5.28500 25.91600 29.74400
C  -5.71100 25.48800 31.13000
C  -6.76200 24.27600 30.89600
C  -6.97600 24.37700 29.39700
C  -6.18000 22.99000 31.39800
C  -6.45400 26.72500 31.82900
C  -6.25200 26.89900 33.30500
H  -5.80400 25.69800 34.16800
N  -7.37100 24.03300 26.30700
C  -8.02600 23.37300 27.25700
C  -8.88000 22.30900 26.61600
C  -8.47300 22.31700 25.23300
C  -7.61700 23.44500 25.08200
C  -9.90400 21.46400 27.47500
C  -8.92100 21.30800 24.18100
O  -8.63500 21.29400 22.99800
C  -9.86900 20.19300 24.51000
N  -5.63800 25.71100 24.50100
C  -6.24100 24.90900 23.58300
C  -5.78100 25.16600 22.17300
C  -4.87100 26.39100 22.31200
C  -4.77500 26.55500 23.84900
C  -5.29200 23.98400 21.37200
C  -5.38300 27.73000 21.63800
C  -4.43900 28.55500 20.71500
N  -4.58100 26.96300 26.82600
C  -3.85900 27.59900 25.94200
C  -2.90500 28.45900 26.54100
C  -3.01200 28.21900 27.91500
C  -4.08700 27.29400 28.04000
C  -1.97300 29.48000 25.88600
C  -2.58900 28.58400 29.21600
O  -1.74300 29.36800 29.61600
C  -3.43600 27.76400 30.17800
C  -2.63700 26.94700 31.07400
O  -1.86500 25.96900 30.80000
O  -2.62200 27.51700 32.28400
C  -1.90000 26.76500 33.34700
H  -8.24800 22.79700 29.35200
H  -7.32100 23.27500 23.00800
H  -3.35300 28.10800 24.04900
H  -4.81600 25.13200 31.63800
H  -7.72300 24.41900 31.38900
H  -5.65800 22.57600 30.53500
H  -7.07800 22.40500 31.59800
H  -5.58300 23.08800 32.30400
H  -7.50800 26.73800 31.55300
H  -6.03200 27.58600 31.31000
H  -7.22900 27.16300 33.70900
H  -5.52200 27.69500 33.45200
H  -10.46700 22.06500 28.18900
H  -9.25300 20.84800 28.09600
H  -10.53600 20.85500 26.83000
H  -9.58800 19.62800 25.39900
H  -10.05500 19.52200 23.67200
H  -10.88200 20.57400 24.64200
H  -6.62600 25.47700 21.55800
H  -3.89000 26.13300 21.91400
H  -5.70400 24.07400 20.36700
H  -5.53700 23.03500 21.84900
H  -4.20900 24.03600 21.48700
H  -5.80900 28.37500 22.40700
H  -6.20100 27.51800 20.94900
H  -4.18700 29.47400 21.24600
H  -4.89600 28.64300 19.73000
H  -3.57500 27.94700 20.44700
H  -2.49400 29.90500 25.02800
H  -1.03200 29.14400 25.45000
H  -1.82600 30.21300 26.67900
H  -3.98700 28.45200 30.81800
H  -2.12900 25.70000 33.35400
H  -2.18500 27.08900 34.34800
H  -0.81200 26.83200 33.34500

