158

Mg 8.57600 4.49800 27.61600
C  9.91400 2.86000 30.40400
C  6.67000 6.45900 29.69400
C  7.27200 5.93400 24.93700
C  10.10000 2.14700 25.52500
N  8.34600 4.60800 29.81800
C  9.04500 3.91700 30.73300
C  8.74300 4.39000 32.18800
C  7.72300 5.57600 31.92500
C  7.50000 5.53700 30.33900
C  6.36300 5.48900 32.65800
C  9.95900 4.72000 33.12600
C  9.77500 5.89500 34.07600
H  10.11700 5.56300 35.50200
N  7.14900 5.98700 27.38400
C  6.49500 6.71200 28.32000
C  5.61700 7.74700 27.74900
C  5.83700 7.55900 26.33500
C  6.79000 6.39900 26.15300
C  4.77800 8.69900 28.52600
C  5.32400 8.38300 25.17300
O  5.44500 8.05700 24.01100
C  4.72100 9.69900 25.47200
N  8.65600 4.06000 25.50700
C  8.10700 4.82600 24.56400
C  8.41400 4.40600 23.11700
C  9.31800 3.21000 23.34900
C  9.45300 3.14600 24.85300
C  7.15900 4.12800 22.34100
C  10.70400 3.27200 22.67200
C  11.15100 1.92500 22.12500
N  9.73300 2.85200 27.87400
C  10.26900 1.99900 26.93400
C  11.04000 0.97200 27.62600
C  11.00500 1.34200 28.98900
C  10.13300 2.41100 29.07900
C  11.71400 -0.19200 27.02200
C  11.44800 0.97400 30.31200
O  12.24500 0.09500 30.54700
C  10.77700 1.99000 31.32200
C  9.94300 1.24900 32.43000
O  8.78600 0.83300 32.34100
O  10.76900 1.23000 33.51500
C  10.09500 0.78700 34.73200
H  6.13200 7.11300 30.38200
H  6.86500 6.42000 24.04700
H  10.64200 1.46300 24.86800
H  8.20000 3.65800 32.78600
H  8.20900 6.52500 32.15300
H  5.46100 5.49300 32.04600
H  6.37300 6.39200 33.26800
H  6.29700 4.64600 33.34500
H  10.85100 4.89100 32.52400
H  10.29600 3.80900 33.62100
H  8.80600 6.39400 34.10900
H  10.37900 6.68400 33.62700
H  5.18800 9.70800 28.51600
H  4.64900 8.30800 29.53500
H  3.78800 8.74900 28.07000
H  5.44200 10.23400 26.08900
H  3.82000 9.37400 25.99200
H  4.43200 10.20300 24.55000
H  8.96300 5.29700 22.81400
H  8.71700 2.32600 23.13700
H  6.32200 3.91500 23.00600
H  7.16000 3.25800 21.68400
H  7.01200 5.07100 21.81400
H  11.45100 3.66300 23.36300
H  10.71900 4.04600 21.90400
H  10.38700 1.15000 22.06700
H  11.96600 1.55900 22.74900
H  11.64500 2.00900 21.15600
H  11.01700 -0.49900 26.24200
H  11.79900 -1.00000 27.74800
H  12.64800 0.05100 26.51500
H  11.57300 2.58600 31.76800
H  9.60200 1.59400 35.27400
H  10.74600 0.36800 35.49900
H  9.33600 0.04500 34.48500
Mg 0.45000 43.20800 26.15200
C  2.71300 43.72100 28.93400
C  -2.02000 42.31900 28.32400
C  -1.34400 42.00000 23.56100
C  3.38300 43.29900 24.07200
N  0.43800 42.91500 28.29000
C  1.38000 43.22300 29.26900
C  0.81800 43.03000 30.68700
C  -0.59000 42.39000 30.41500
C  -0.78200 42.57500 28.91000
C  -0.72800 40.88600 30.68900
C  0.71700 44.41100 31.44300
C  0.73900 44.32500 32.97100
H  0.66000 42.95500 33.68900
N  -1.49800 42.51000 25.96300
C  -2.39300 42.24900 26.95900
C  -3.71600 41.94000 26.34400
C  -3.54700 42.04900 24.95900
C  -2.08200 42.14600 24.78800
C  -4.92500 41.75200 27.21400
C  -4.55200 41.89700 23.82300
O  -4.22300 41.86500 22.66100
C  -6.03800 41.68500 24.22600
N  0.92800 42.68900 24.15200
C  -0.00300 42.11200 23.33000
C  0.67000 41.76500 21.94900
C  1.97900 42.66000 21.98100
C  2.13900 42.92200 23.48200
C  0.79400 40.21400 21.78700
C  1.88500 43.97700 21.28800
C  3.18600 44.37700 20.61100
N  2.60700 43.45400 26.42800
C  3.58000 43.64400 25.45300
C  4.75000 44.12700 26.06700
C  4.44100 44.18500 27.41600
C  3.17700 43.77500 27.63700
C  6.01700 44.40900 25.28400
C  5.01700 44.42400 28.72200
O  6.16900 44.74200 29.15700
C  3.86000 44.13200 29.75400
C  4.31000 43.05700 30.77900
O  4.25100 41.84900 30.55900
O  4.64700 43.70700 31.99200
C  4.97400 42.73300 33.07700
H  -2.85700 42.08900 28.98600
H  -1.94100 41.68600 22.70200
H  4.13300 43.48100 23.29900
H  1.51500 42.38900 31.22700
H  -1.38800 42.94000 30.91500
H  -1.66800 40.69600 31.20600
H  0.07900 40.55900 31.34500
H  -0.60900 40.23500 29.82200
H  -0.22000 44.94100 31.27000
H  1.56800 45.01100 31.12200
H  0.08300 45.08300 33.39800
H  1.71700 44.77000 33.15300
H  -5.81100 42.34400 26.98300
H  -4.73800 42.19300 28.19300
H  -5.02700 40.66900 27.15300
H  -6.70400 41.39300 23.41400
H  -6.36300 42.65500 24.60500
H  -5.98900 40.92300 25.00300
H  0.04300 42.11800 21.13100
H  2.84800 42.08200 21.66500
H  0.38700 39.79500 22.70800
H  1.80900 39.98300 21.46300
H  0.12100 40.02100 20.95200
H  1.53400 44.70400 22.02100
H  1.07200 43.89200 20.56700
H  3.96800 43.69700 20.94900
H  3.34900 45.42000 20.88200
H  3.07000 44.28300 19.53200
H  5.86400 45.35600 24.76800
H  6.05500 43.65800 24.49500
H  6.91400 44.35600 25.90100
H  3.73600 45.07200 30.29200
H  5.78300 42.04700 32.82500
H  4.04400 42.17300 33.18200
H  5.16700 43.28900 33.99400

