158

Mg 48.16800 15.82800 29.02700
C  46.09900 15.79700 31.67800
C  50.55400 17.65700 30.69700
C  50.08300 15.71500 26.20800
C  45.58200 14.16000 27.11600
N  48.27900 16.55000 30.99000
C  47.28600 16.39900 31.95200
C  47.89500 16.82800 33.32200
C  49.09700 17.69200 32.90700
C  49.37300 17.31600 31.39900
C  48.95700 19.24100 33.11100
C  48.27800 15.54500 34.20700
C  48.04500 15.69000 35.74800
H  47.74600 17.10600 36.29500
N  50.12600 16.47500 28.56700
C  50.92100 17.19700 29.46500
C  52.16800 17.47500 28.72800
C  52.09700 16.76700 27.46700
C  50.73600 16.37400 27.35200
C  53.41100 18.04000 29.45000
C  53.10500 16.46400 26.46400
O  52.84500 15.84400 25.43500
C  54.58000 16.79600 26.83300
N  47.88600 15.10700 27.00800
C  48.76000 15.26800 26.05100
C  48.16100 14.95900 24.62100
C  46.92800 14.24000 24.94900
C  46.75900 14.47900 26.46400
C  48.12900 16.21400 23.70600
C  46.95700 12.73800 24.53600
C  46.16900 12.19400 23.42500
N  46.26700 15.10900 29.28400
C  45.37800 14.43000 28.48500
C  44.19400 14.01000 29.16000
C  44.39800 14.51300 30.44200
C  45.68000 15.20000 30.46400
C  43.11900 13.09400 28.62100
C  43.85700 14.54300 31.77900
O  42.79600 14.15600 32.20800
C  45.02700 15.31600 32.69400
C  44.40900 16.44800 33.47900
O  44.05100 17.51100 33.09700
O  44.11800 15.93200 34.74000
C  43.16200 16.65500 35.59000
H  51.35800 18.13600 31.26000
H  50.57800 15.83800 25.24200
H  44.73000 13.80300 26.53300
H  47.15900 17.35600 33.92700
H  50.07200 17.48000 33.34600
H  47.99500 19.55300 33.51800
H  48.91400 19.68100 32.11500
H  49.73300 19.69700 33.72700
H  49.34600 15.59100 33.99600
H  47.85900 14.61100 33.83200
H  48.88400 15.38600 36.37300
H  47.25100 15.04000 36.11500
H  53.06000 18.85800 30.07900
H  54.04600 18.61900 28.78000
H  53.85200 17.20400 29.99300
H  55.02300 16.32900 27.71300
H  54.58800 17.87900 26.94900
H  55.13500 16.56900 25.92300
H  48.77500 14.23700 24.08300
H  46.08600 14.64900 24.38900
H  48.53200 17.04900 24.28000
H  47.11300 16.49400 23.42800
H  48.73800 15.99300 22.82900
H  46.52100 12.17400 25.36100
H  47.96700 12.34100 24.43200
H  46.57800 11.23100 23.12000
H  46.22500 12.94000 22.63200
H  45.11900 12.14300 23.71100
H  43.25000 12.70200 27.61200
H  42.17700 13.62400 28.48300
H  43.02700 12.21300 29.25600
H  45.42300 14.56700 33.38000
H  43.72500 17.41600 36.13000
H  42.73700 16.12500 36.44300
H  42.38600 17.06400 34.94300
Mg -10.68700 39.63000 40.55600
C  -9.85500 36.45900 39.58200
C  -7.52300 40.73200 39.81500
C  -11.98500 42.85200 40.42600
C  -14.04800 38.49100 41.09200
N  -9.04700 38.75500 39.43000
C  -8.85800 37.39300 39.28200
C  -7.38100 37.07600 38.81200
C  -6.66800 38.36700 39.41900
C  -7.84800 39.37500 39.57700
C  -5.86600 38.18300 40.69900
C  -7.25800 37.18600 37.24700
C  -7.08500 35.88100 36.44700
H  -8.05500 35.60300 35.32200
N  -9.93400 41.45300 40.23000
C  -8.55200 41.73800 39.98900
C  -8.43100 43.13800 39.97600
C  -9.65100 43.76200 40.12200
C  -10.55300 42.65100 40.36000
C  -7.10300 43.77300 39.68900
C  -9.80800 45.26600 40.08900
O  -8.86300 45.93400 39.71600
C  -11.12700 45.96500 40.24100
N  -12.80900 40.59800 40.67400
C  -13.03300 41.93500 40.62800
C  -14.51500 42.27600 40.80200
C  -15.06700 40.86900 41.29700
C  -13.95400 39.89000 40.95200
C  -14.89600 43.40100 41.76200
C  -16.48700 40.57000 40.72800
C  -17.52500 40.02000 41.74000
N  -11.79100 37.79000 40.47200
C  -13.05000 37.52300 40.81000
C  -13.14600 36.08500 40.82700
C  -11.96600 35.53900 40.31000
C  -11.15800 36.68300 40.09500
C  -14.33600 35.25600 41.23600
C  -11.19900 34.37900 39.90600
O  -11.47900 33.20500 39.83100
C  -9.76000 34.96600 39.40100
C  -8.59400 34.30700 40.01900
O  -8.21600 34.40100 41.19000
O  -7.90800 33.68000 39.00100
C  -6.62800 32.88200 39.20200
H  -6.49000 41.07200 39.71400
H  -12.37600 43.83100 40.14200
H  -15.00100 38.11900 41.47400
H  -6.92700 36.20400 39.28300
H  -5.89900 38.73300 38.73800
H  -6.13700 38.85600 41.51300
H  -4.86200 38.57400 40.53400
H  -5.81900 37.16300 41.07800
H  -6.49900 37.91800 36.97300
H  -8.25500 37.57200 37.03300
H  -6.90300 35.01000 37.07700
H  -6.12900 36.13200 35.98600
H  -7.08000 44.20400 38.68800
H  -6.23200 43.15000 39.89200
H  -6.85000 44.67000 40.25400
H  -11.70500 45.91700 39.31900
H  -10.88400 46.97800 40.56300
H  -11.62300 45.56800 41.12700
H  -14.86000 42.49500 39.79100
H  -15.07500 40.89900 42.38700
H  -14.04900 44.02600 42.04800
H  -15.53500 43.03100 42.56300
H  -15.50900 44.06100 41.14800
H  -16.45400 39.76900 39.98900
H  -16.83900 41.41800 40.14000
H  -17.11500 40.03000 42.75000
H  -17.65600 38.93900 41.69400
H  -18.35100 40.72900 41.79900
H  -15.20900 35.74700 41.66700
H  -13.83600 34.50400 41.84700
H  -14.69900 34.69100 40.37700
H  -9.67100 34.82900 38.32300
H  -6.37600 32.73000 40.25100
H  -5.81800 33.18500 38.53900
H  -6.85400 31.81600 39.16100

