158

Mg -0.07200 8.09500 25.00200
C  0.95900 9.81100 27.96200
C  0.27400 5.15100 26.78800
C  -0.56100 6.42900 22.22100
C  0.63100 11.09800 23.16700
N  0.61000 7.57500 27.21200
C  0.80700 8.39400 28.26300
C  0.94100 7.64100 29.58900
C  0.73500 6.18100 29.09100
C  0.55100 6.28600 27.58300
C  1.87200 5.20800 29.55200
C  -0.06100 8.14700 30.69100
C  0.31800 8.44200 32.06700
H  0.89400 7.28800 32.87000
N  -0.24900 6.05000 24.55300
C  -0.08700 5.01600 25.42600
C  -0.38800 3.85100 24.74600
C  -0.66000 4.21700 23.37700
C  -0.48000 5.61300 23.29500
C  -0.26400 2.53900 25.49500
C  -0.96300 3.28400 22.16600
O  -1.20700 3.70400 21.01200
C  -0.82800 1.77200 22.42700
N  0.03200 8.74600 22.98400
C  -0.36200 7.78900 22.02500
C  -0.43900 8.48500 20.69900
C  -0.18900 10.00300 21.01000
C  0.20900 9.96200 22.45600
C  0.55800 7.89400 19.67000
C  -1.57500 10.74400 20.99600
C  -2.15800 11.20700 19.62500
N  0.51100 10.07700 25.48100
C  0.77700 11.15600 24.63500
C  1.10200 12.26700 25.41100
C  1.10300 11.79100 26.73000
C  0.81000 10.45400 26.68500
C  1.33300 13.66500 24.80300
C  1.33300 12.23500 28.08700
O  1.68400 13.29000 28.64100
C  1.19700 10.95000 28.95400
C  2.37600 10.84300 29.86400
O  3.38800 10.19700 29.63700
O  2.00700 11.40000 31.04200
C  3.05900 11.46300 32.12400
H  -0.04400 4.28900 27.37800
H  -0.97000 6.02900 21.29100
H  0.83300 12.01200 22.60500
H  1.95400 7.88200 29.91000
H  -0.24400 5.83600 29.42200
H  2.49300 5.64900 30.33200
H  2.46900 5.12000 28.64500
H  1.38800 4.27000 29.82500
H  -0.89100 7.44000 30.67700
H  -0.47500 9.06700 30.27800
H  -0.56100 8.88300 32.53700
H  1.01300 9.27000 31.92800
H  0.41300 1.86600 24.97000
H  -1.27100 2.12900 25.57300
H  0.20200 2.63200 26.47600
H  0.17900 1.37700 22.56300
H  -1.22200 1.16800 21.60900
H  -1.26300 1.47500 23.38100
H  -1.45000 8.28000 20.34700
H  0.51000 10.61200 20.43600
H  0.76400 6.85400 19.92500
H  1.48400 8.46900 19.67100
H  0.03000 7.93000 18.71700
H  -1.52700 11.58700 21.68600
H  -2.26100 10.01800 21.43200
H  -1.52000 10.87400 18.80500
H  -2.26800 12.29100 19.65300
H  -3.15800 10.81900 19.43000
H  1.24100 13.68200 23.71700
H  2.33700 13.92200 25.13900
H  0.66500 14.38500 25.27600
H  0.27400 11.21300 29.47000
H  2.65300 11.14000 33.08200
H  3.47200 12.45700 32.29600
H  3.90700 10.81100 31.91200
Mg 49.15100 45.37200 42.68000
C  45.79500 46.07500 41.61400
C  48.71100 42.28600 41.23500
C  52.39700 45.25700 42.77000
C  49.39400 48.99300 43.29500
N  47.41500 44.36100 41.49600
C  46.14300 44.79400 41.27800
C  45.31500 43.71700 40.57900
C  46.16700 42.46000 40.71100
C  47.51700 43.04700 41.03200
C  45.69900 41.50300 41.82700
C  44.88500 44.10000 39.08400
C  45.86200 44.93900 38.24800
H  45.73800 44.88500 36.78000
N  50.34500 43.89000 42.31300
C  50.03000 42.66100 41.74500
C  51.26900 41.88900 41.80400
C  52.29900 42.69300 42.30400
C  51.74000 44.00300 42.55700
C  51.30300 40.40700 41.40800
C  53.69000 42.14800 42.51500
O  54.04400 41.04900 42.01700
C  54.77500 42.80300 43.35900
N  50.57700 46.93400 43.03900
C  51.88700 46.56000 43.00100
C  52.84700 47.71000 43.19200
C  51.87600 48.94900 43.49800
C  50.53300 48.30900 43.23200
C  54.11800 47.41900 44.05700
C  52.06700 50.21600 42.61800
C  51.93300 51.61900 43.23600
N  47.84300 47.11800 42.69000
C  48.10300 48.45300 43.01600
C  46.86300 49.22700 43.01700
C  45.88000 48.30300 42.52300
C  46.57700 47.05500 42.22500
C  46.75100 50.58500 43.50000
C  44.53800 48.25600 42.11500
O  43.66900 49.14300 42.10400
C  44.41400 46.83600 41.47400
C  43.29700 46.02000 41.94900
O  42.36300 45.61800 41.27200
O  43.22000 46.06000 43.29500
C  42.06400 45.40000 43.88000
H  48.65200 41.26400 40.85500
H  53.47700 45.26000 42.92600
H  49.41300 50.08500 43.28300
H  44.39900 43.57200 41.15200
H  46.28000 41.91100 39.77500
H  46.55300 41.13500 42.39500
H  45.08300 40.73200 41.36300
H  45.10400 41.99400 42.59700
H  43.90300 44.57200 39.07100
H  44.62700 43.17900 38.56100
H  46.86600 44.66100 38.57000
H  45.65300 45.96500 38.54900
H  51.26300 39.82500 42.32900
H  52.22600 39.99500 41.00100
H  50.52100 40.15200 40.69300
H  55.57500 42.07800 43.51200
H  54.36300 43.15200 44.30600
H  55.12400 43.59600 42.69800
H  53.10500 47.85600 42.14300
H  52.05300 49.15600 44.55300
H  54.91200 47.23900 43.33200
H  54.02200 46.54600 44.70200
H  54.28100 48.28200 44.70200
H  51.21500 50.20900 41.93900
H  52.90500 50.18600 41.92200
H  52.94700 52.01800 43.26200
H  51.62600 51.65600 44.28100
H  51.28100 52.22400 42.60500
H  45.87400 50.66500 44.14300
H  46.54600 51.26500 42.67300
H  47.63600 50.80800 44.09500
H  44.17200 46.99800 40.42300
H  41.66700 44.57600 43.28700
H  41.33000 46.19800 43.99500
H  42.42200 45.02600 44.83900

