158

Mg 1.14200 7.74900 26.76400
C  1.65200 9.81700 29.67700
C  1.40000 5.02900 28.85200
C  1.42500 5.77700 24.10100
C  1.16400 10.55600 24.78700
N  1.45400 7.50200 29.00100
C  1.49600 8.48200 30.03900
C  1.38400 7.83700 31.45300
C  1.57400 6.35200 31.08800
C  1.50300 6.27100 29.55800
C  2.81700 5.61500 31.67100
C  0.03600 8.23100 32.18800
C  0.14600 8.41700 33.69600
H  1.34600 7.80100 34.52700
N  1.18300 5.70700 26.50800
C  1.30400 4.76000 27.47100
C  1.43200 3.42300 26.85100
C  1.32100 3.62300 25.46300
C  1.25900 5.04400 25.25600
C  1.72200 2.09900 27.56900
C  1.20000 2.53500 24.36700
O  0.98900 2.88800 23.21800
C  1.14500 1.05000 24.59500
N  1.09800 8.12600 24.69600
C  1.26300 7.12800 23.81900
C  1.39600 7.72800 22.40300
C  0.84100 9.23600 22.51900
C  1.06300 9.37600 24.05700
C  2.72400 7.48900 21.64800
C  -0.69400 9.37100 22.30000
C  -1.14700 10.49200 21.31800
N  1.41700 9.78700 27.08800
C  1.40900 10.85000 26.14400
C  1.68300 12.09100 26.86200
C  1.74100 11.72000 28.20900
C  1.57000 10.31100 28.34600
C  1.86600 13.46700 26.26100
C  2.08900 12.25300 29.53500
O  2.55600 13.36600 29.83900
C  1.87000 11.03400 30.55300
C  3.00200 11.00700 31.47500
O  3.96300 10.22700 31.31400
O  2.83500 11.89300 32.48000
C  3.73900 11.62400 33.63200
H  1.51700 4.18200 29.53200
H  1.53000 5.21700 23.17000
H  1.15500 11.52000 24.27400
H  2.21300 8.32500 31.96500
H  0.72700 5.84000 31.54500
H  2.34700 4.82700 32.26000
H  3.35300 6.39700 32.20900
H  3.36600 5.13600 30.86100
H  -0.59400 7.34900 32.07100
H  -0.37600 9.15100 31.77600
H  -0.72700 8.16700 34.29900
H  0.25300 9.48800 33.86600
H  0.76200 1.72100 27.92100
H  2.18800 2.29800 28.53400
H  2.41100 1.47200 27.00500
H  2.15200 0.67800 24.78400
H  0.79600 0.46700 23.74300
H  0.54200 0.88900 25.48800
H  0.69600 7.23700 21.72800
H  1.43700 9.92200 21.91700
H  3.16700 8.30000 21.07100
H  2.60000 6.64100 20.97300
H  3.46000 7.04600 22.31900
H  -1.25500 9.58200 23.21000
H  -1.11500 8.45300 21.88900
H  -2.06100 10.22600 20.78600
H  -0.39300 10.74500 20.57300
H  -1.37600 11.40000 21.87500
H  1.63100 13.33800 25.20400
H  2.87300 13.86900 26.37600
H  1.15200 14.13200 26.74600
H  0.86800 11.14900 30.96800
H  3.35200 12.40000 34.29300
H  4.74300 11.86600 33.28200
H  3.73400 10.57400 33.92200
Mg 35.58400 1.87000 29.97500
C  33.18400 2.91400 32.39900
C  37.96100 1.69500 32.57400
C  37.90900 1.24100 27.68200
C  33.17200 2.28100 27.43200
N  35.63400 2.35100 32.18400
C  34.50900 2.65900 32.94800
C  34.90600 2.75200 34.44400
C  36.47200 2.52300 34.44300
C  36.69100 2.10200 32.95300
C  37.38400 3.67600 34.86400
C  34.09500 1.69900 35.27800
C  33.18600 2.23600 36.50300
H  33.97900 3.33700 37.38300
N  37.75900 1.64300 30.05500
C  38.48100 1.49000 31.21000
C  39.86200 1.08400 30.82800
C  39.79800 0.89800 29.39400
C  38.44200 1.19200 28.96100
C  40.97900 0.88400 31.95900
C  40.89000 0.37100 28.47500
O  40.64700 0.07200 27.31700
C  42.33500 0.14200 28.95900
N  35.60400 2.01600 27.92000
C  36.67400 1.68800 27.17400
C  36.38800 1.77900 25.65400
C  34.89300 1.85800 25.56700
C  34.54900 2.08500 27.04100
C  37.15600 2.95800 24.96000
C  34.15100 0.60000 25.09500
C  32.96500 0.79500 24.16300
N  33.50800 2.28800 29.92900
C  32.68900 2.47100 28.78100
C  31.33600 2.75800 29.35200
C  31.54000 3.08200 30.75900
C  32.80500 2.63300 31.06500
C  30.16700 2.99000 28.46400
C  31.02900 3.56400 31.93100
O  29.93100 4.02300 32.18100
C  32.01500 3.39100 33.07500
C  32.14200 4.68000 33.77200
O  32.68000 5.66700 33.41100
O  31.40400 4.55600 34.86500
C  31.28700 5.72900 35.77300
H  38.60900 1.49000 33.42800
H  38.49800 0.94800 26.81000
H  32.39900 2.48500 26.68800
H  34.65000 3.73700 34.83300
H  36.68400 1.67900 35.09900
H  36.79300 4.50800 35.24800
H  37.89000 4.11000 34.00000
H  38.02300 3.43100 35.71200
H  34.70100 0.86200 35.62300
H  33.39700 1.22600 34.58700
H  32.71600 1.47300 37.12300
H  32.34600 2.73500 36.02000
H  40.66500 0.99900 32.99700
H  41.73300 1.64700 31.76800
H  41.45300 -0.09800 31.96700
H  42.65600 0.99200 29.56100
H  42.93000 -0.13400 28.08800
H  42.22800 -0.73200 29.60100
H  36.85500 0.86200 25.29300
H  34.52400 2.67800 24.95000
H  37.97900 2.69900 24.29400
H  37.42100 3.74300 25.66800
H  36.45700 3.38000 24.23900
H  33.91300 0.05000 26.00500
H  34.78300 -0.07900 24.52200
H  32.95400 1.80500 23.75400
H  32.13400 0.68400 24.86000
H  32.83700 0.17600 23.27400
H  29.33600 3.62500 28.77200
H  29.60600 2.09100 28.21100
H  30.51200 3.54200 27.59000
H  31.70600 2.59000 33.74600
H  30.42100 6.23200 35.34100
H  32.20200 6.32100 35.80300
H  31.01800 5.23300 36.70500

