158

Mg 17.31100 -1.04700 27.46400
C  16.32600 0.65900 30.31200
C  19.51700 -2.82300 29.47200
C  18.88400 -2.36800 24.79700
C  15.79700 1.20600 25.53700
N  17.99000 -0.89300 29.71200
C  17.31700 -0.26500 30.69500
C  17.79100 -0.73500 32.03700
C  18.99000 -1.71800 31.76600
C  18.88800 -1.79700 30.20700
C  20.29500 -1.26000 32.40200
C  16.57900 -1.34500 32.87300
C  16.35100 -0.68300 34.23800
H  17.56500 -0.03000 34.96000
N  18.79700 -2.59800 27.17200
C  19.57700 -3.21300 28.11100
C  20.24800 -4.33900 27.56800
C  20.17100 -4.22900 26.18300
C  19.32400 -2.97400 25.97200
C  20.99200 -5.41200 28.37300
C  20.76200 -5.01200 25.04300
O  20.68800 -4.70900 23.84500
C  21.59600 -6.25700 25.44200
N  17.30900 -0.67900 25.51100
C  18.00800 -1.32300 24.54800
C  17.88400 -0.63700 23.15500
C  16.65700 0.21300 23.37100
C  16.59900 0.31100 24.87900
C  19.25100 0.17300 22.84000
C  15.32500 -0.04500 22.66700
C  14.19300 -0.63000 23.56200
N  16.18400 0.46800 27.82800
C  15.63700 1.34600 26.91200
C  14.78100 2.29600 27.54300
C  15.05800 2.02200 28.89700
C  15.95800 0.93900 29.01400
C  13.94400 3.43200 26.87500
C  14.77400 2.53400 30.18400
O  14.08800 3.48800 30.53900
C  15.56300 1.61000 31.18400
C  16.48600 2.42500 32.11300
O  17.67800 2.65900 32.01200
O  15.75200 2.84200 33.16800
C  16.42900 3.79700 33.95700
H  20.05100 -3.55700 30.07900
H  19.24000 -2.82900 23.87300
H  15.37600 2.00800 24.92700
H  18.08000 0.16600 32.57900
H  18.83900 -2.74500 32.09600
H  21.11200 -1.14900 31.69000
H  20.61500 -2.05500 33.07500
H  20.21300 -0.37400 33.03200
H  16.82600 -2.39300 33.04300
H  15.76200 -1.21700 32.16400
H  16.07800 -1.60300 34.75500
H  15.47400 -0.03500 34.25200
H  21.96500 -5.66000 27.94900
H  20.32500 -6.26800 28.26100
H  21.31500 -5.24500 29.40100
H  22.58500 -5.99500 25.81900
H  21.72100 -6.76900 24.48900
H  20.97300 -6.84500 26.11600
H  17.71800 -1.34100 22.33900
H  16.87300 1.21600 23.00200
H  19.50300 0.16000 21.77900
H  20.12900 -0.22500 23.35000
H  19.07200 1.20900 23.12500
H  15.49900 -0.79600 21.89700
H  15.01100 0.94700 22.34400
H  13.83400 0.12500 24.26100
H  14.61200 -1.48300 24.09500
H  13.28000 -0.78700 22.98700
H  13.55900 3.08600 25.91600
H  14.61600 4.23000 26.56100
H  13.09700 3.80400 27.45100
H  14.90600 1.09500 31.88600
H  16.97200 4.47800 33.30100
H  17.16100 3.38800 34.65200
H  15.80600 4.41100 34.60700
Mg -5.45600 26.01300 25.90900
C  -4.05100 27.44600 28.80900
C  -7.33200 24.01100 27.88500
C  -6.77000 24.68200 23.14800
C  -3.16200 27.95700 24.13600
N  -5.75900 25.92700 28.12200
C  -5.04000 26.49500 29.08100
C  -5.51500 26.05100 30.42000
C  -6.26100 24.70700 30.10400
C  -6.52300 24.93100 28.58200
C  -5.39500 23.41200 30.26500
C  -6.35000 27.12000 31.16400
C  -6.11900 27.28700 32.71300
H  -5.38100 26.25100 33.40500
N  -6.73600 24.43400 25.51600
C  -7.44100 23.75200 26.46800
C  -8.22600 22.76100 25.80900
C  -8.01900 22.96200 24.42600
C  -7.10800 24.07500 24.33200
C  -9.10000 21.80300 26.61900
C  -8.53700 22.12300 23.25400
O  -8.39900 22.42500 22.09000
C  -9.22600 20.78700 23.56500
N  -4.76700 26.05300 23.88200
C  -5.63600 25.49500 22.92400
C  -5.08200 25.83500 21.50900
C  -4.12100 27.05300 21.88700
C  -4.03600 27.09300 23.38900
C  -4.52600 24.52800 20.86800
C  -4.70800 28.36900 21.31600
C  -3.66800 29.29200 20.70200
N  -3.81100 27.35300 26.27500
C  -2.98600 28.11900 25.49400
C  -2.12700 28.97900 26.29400
C  -2.53500 28.72700 27.56400
C  -3.53900 27.77400 27.55700
C  -1.13900 29.97400 25.74200
C  -2.25400 29.19000 28.87600
O  -1.40700 29.95700 29.28500
C  -3.10300 28.22800 29.80200
C  -2.24300 27.43000 30.71400
O  -1.82400 26.28300 30.56500
O  -2.03100 28.14900 31.92100
C  -0.87900 27.72400 32.67300
H  -7.76600 23.27500 28.56600
H  -7.10900 24.29700 22.18400
H  -2.53900 28.51700 23.43600
H  -4.57700 25.87400 30.94500
H  -7.17100 24.76300 30.70200
H  -4.64700 23.47400 31.05500
H  -4.84700 23.24300 29.33700
H  -5.91200 22.50300 30.57200
H  -7.41200 26.98200 30.96300
H  -6.15900 28.05800 30.64200
H  -7.10100 27.42000 33.16800
H  -5.61400 28.24700 32.82400
H  -9.53100 20.94400 26.10500
H  -10.00600 22.32800 26.92100
H  -8.63200 21.52100 27.56300
H  -8.59600 20.29600 24.30600
H  -9.01400 20.28200 22.62300
H  -10.29900 20.77200 23.75500
H  -5.98500 26.20600 21.02500
H  -3.17600 26.85000 21.38300
H  -3.45300 24.42400 21.02800
H  -4.84200 24.34900 19.84000
H  -4.90500 23.61900 21.33600
H  -5.20300 28.86800 22.14900
H  -5.50800 28.29500 20.57900
H  -2.93900 28.72000 20.12700
H  -3.17600 29.90000 21.46100
H  -4.15800 30.02500 20.06100
H  -1.49500 30.64100 24.95600
H  -0.36200 29.34300 25.30900
H  -0.76600 30.61300 26.54300
H  -3.79700 28.79400 30.42300
H  -0.25200 28.57600 32.93500
H  -0.28400 27.05500 32.05200
H  -1.17900 27.12200 33.53100

