158

Mg 8.20300 2.90900 27.42400
C  9.66300 1.52900 30.35500
C  6.30000 4.82000 29.66900
C  6.74100 4.07100 24.70000
C  9.34700 0.16400 25.66300
N  7.94100 3.10700 29.80400
C  8.88000 2.60200 30.69200
C  8.79200 3.24600 32.06300
C  7.56800 4.27800 31.80700
C  7.25300 4.08400 30.36300
C  6.31100 4.05700 32.66100
C  10.08100 3.92600 32.50000
C  10.53700 3.41600 33.92200
H  10.85400 4.46600 35.06800
N  6.83900 4.40100 27.17400
C  6.06700 4.95700 28.22000
C  5.01400 5.76900 27.59100
C  5.30900 5.73600 26.20800
C  6.34500 4.70800 25.95100
C  4.03500 6.61500 28.39100
C  4.64900 6.54000 25.15400
O  4.90700 6.38500 23.99000
C  3.61100 7.57500 25.56600
N  8.16900 2.34400 25.40900
C  7.57100 2.99000 24.46300
C  7.75200 2.25700 23.06400
C  8.50100 0.95800 23.43100
C  8.62400 1.06200 24.96800
C  6.50700 2.14700 22.13800
C  9.93800 0.73100 22.73700
C  10.17200 1.28400 21.31000
N  9.38800 1.29800 27.80800
C  9.75800 0.25700 26.99000
C  10.62200 -0.62400 27.73900
C  10.61400 -0.14600 29.05500
C  9.84400 1.03500 29.02200
C  11.27200 -1.86500 27.12900
C  11.23700 -0.27500 30.35800
O  12.03700 -1.17900 30.70600
C  10.68000 0.84800 31.21000
C  10.08300 0.17400 32.40600
O  9.00300 -0.40300 32.39800
O  10.91800 0.26800 33.47800
C  10.58600 -0.60600 34.57000
H  5.69000 5.50100 30.26500
H  6.21500 4.36100 23.78800
H  9.72400 -0.69500 25.10400
H  8.52500 2.46600 32.77600
H  7.78800 5.34400 31.86200
H  5.61800 3.31200 32.27100
H  5.73400 4.97500 32.77600
H  6.56900 3.71300 33.66300
H  10.04100 5.01300 32.57100
H  10.81200 3.69000 31.72700
H  11.47600 2.88300 33.76900
H  9.83700 2.66700 34.29300
H  4.50500 7.53900 28.72700
H  3.74200 6.03300 29.26500
H  3.11000 6.77000 27.83700
H  2.71100 6.97500 25.70000
H  3.33000 8.21000 24.72500
H  3.96400 8.16100 26.41500
H  8.54300 2.81300 22.56100
H  7.87900 0.07000 23.31800
H  5.65200 2.70200 22.52400
H  6.19200 1.16700 21.78000
H  6.95700 2.54500 21.22900
H  10.01200 -0.35100 22.62900
H  10.60500 1.16500 23.48100
H  9.25100 1.47300 20.76000
H  10.75500 0.57900 20.71600
H  10.78200 2.18100 21.41400
H  11.65500 -1.50900 26.17200
H  10.54900 -2.67700 27.04800
H  12.05700 -2.25300 27.77900
H  11.52800 1.47700 31.48200
H  10.11100 -1.48400 34.13300
H  9.93700 -0.08400 35.27400
H  11.45700 -0.83600 35.18400
Mg 24.74600 0.67000 29.97700
C  26.94000 0.35700 32.85600
C  22.11600 0.76800 32.17300
C  22.95300 1.22000 27.33300
C  27.60800 0.37100 27.96400
N  24.59200 0.36600 32.26500
C  25.56900 0.40300 33.19900
C  24.98800 0.46700 34.58500
C  23.48600 0.18100 34.39400
C  23.31000 0.46300 32.84000
C  23.06500 -1.30200 34.66800
C  25.41200 1.70700 35.33000
C  24.69100 2.02800 36.62400
H  25.59900 2.03300 37.81100
N  22.78300 0.85500 29.77300
C  21.87300 0.92900 30.75200
C  20.56300 1.19700 30.13800
C  20.78600 1.22400 28.75500
C  22.21000 1.08300 28.53900
C  19.30200 1.12400 30.93400
C  19.78700 1.53000 27.69000
O  20.07500 1.55400 26.47400
C  18.30600 1.79900 27.91800
N  25.18100 0.60900 27.93100
C  24.26300 0.96300 26.97900
C  24.86900 1.13300 25.53700
C  26.35200 0.94100 25.82500
C  26.36900 0.59700 27.34800
C  24.38400 0.10000 24.57700
C  27.21700 2.16300 25.47400
C  26.98100 3.47200 26.24000
N  26.79900 0.34800 30.32100
C  27.83900 0.22800 29.37400
C  29.08600 -0.06700 30.11100
C  28.77000 0.06800 31.48000
C  27.40700 0.28900 31.53100
C  30.36700 -0.14000 29.41400
C  29.35400 0.06600 32.76200
O  30.53800 -0.02100 33.07300
C  28.21600 0.27900 33.68500
C  28.19900 -0.91000 34.57000
O  27.85000 -2.02000 34.22100
O  28.53400 -0.50900 35.80500
C  28.55100 -1.55600 36.85700
H  21.21900 0.85400 32.78900
H  22.34300 1.68900 26.55800
H  28.53500 0.40900 27.38700
H  25.43500 -0.34000 35.16500
H  22.89800 0.84100 35.03300
H  22.49900 -1.79800 33.88000
H  22.66300 -1.66400 35.61400
H  24.01300 -1.83900 34.62800
H  25.34900 2.55400 34.64700
H  26.46800 1.63700 35.59200
H  23.94400 1.26800 36.85100
H  24.22000 2.98800 36.41300
H  18.92400 2.13400 31.09700
H  19.32300 0.50200 31.82900
H  18.57700 0.56000 30.34800
H  17.91500 0.78700 28.01800
H  17.81500 2.35700 27.12000
H  18.12400 2.37600 28.82500
H  24.63200 2.12900 25.16500
H  26.84700 0.16300 25.24400
H  24.67100 0.61000 23.65700
H  23.30000 0.03200 24.66300
H  24.92300 -0.82000 24.80000
H  26.91300 2.46600 24.47200
H  28.29800 2.06400 25.38000
H  27.89500 3.60600 26.81800
H  26.15300 3.60200 26.93800
H  26.77600 4.30100 25.56300
H  30.36300 -0.82600 28.56700
H  30.92600 -0.72400 30.14600
H  30.88900 0.78800 29.18100
H  28.38100 1.17700 34.28100
H  28.40200 -2.58600 36.53400
H  27.79800 -1.38200 37.62600
H  29.58600 -1.43200 37.17300

