158

Mg 41.21000 9.17200 30.02400
C  43.23400 10.34900 32.62200
C  38.97700 8.03500 32.43300
C  39.43300 7.79000 27.62900
C  43.78900 10.06500 27.75400
N  41.24400 9.10100 32.25400
C  42.09600 9.74000 33.09600
C  41.66500 9.78300 34.57700
C  40.43900 8.78100 34.46300
C  40.16400 8.59200 32.92700
C  40.70600 7.37100 35.05500
C  41.38000 11.22000 35.04900
C  40.43000 11.39700 36.25600
H  40.77100 12.41300 37.44100
N  39.38800 8.25300 29.96800
C  38.56200 7.88200 31.06300
C  37.38200 7.30900 30.55100
C  37.48900 7.24400 29.18500
C  38.81700 7.80400 28.86400
C  36.25000 6.82600 31.45000
C  36.49300 6.78500 28.15600
O  36.66800 6.70300 26.98500
C  35.09600 6.52400 28.53800
N  41.62100 8.85600 27.94600
C  40.67600 8.26900 27.16700
C  41.09500 8.24200 25.70300
C  42.55700 8.88800 25.71000
C  42.67500 9.42900 27.14700
C  40.84200 7.07400 24.76200
C  42.75400 9.89100 24.56100
C  42.38700 11.35200 24.95000
N  43.10500 10.00600 30.12800
C  44.04400 10.31900 29.08500
C  45.23200 10.94300 29.76300
C  44.89300 11.07100 31.13700
C  43.63800 10.40800 31.30000
C  46.47400 11.43100 29.09200
C  45.32700 11.57300 32.35800
O  46.26200 12.25500 32.63700
C  44.32000 11.00800 33.39200
C  45.02700 10.10500 34.27500
O  45.44200 9.01300 33.96700
O  44.79300 10.52300 35.52100
C  45.07500 9.66600 36.63600
H  38.21400 7.80300 33.17800
H  38.87000 7.52700 26.73100
H  44.61000 10.27000 27.06200
H  42.47300 9.39900 35.20000
H  39.61500 9.16600 35.06300
H  40.48200 6.56000 34.36200
H  40.13700 7.27500 35.97900
H  41.78100 7.39300 35.23600
H  40.83700 11.70700 34.23900
H  42.28900 11.81500 35.13600
H  40.23700 10.48700 36.82300
H  39.45200 11.70800 35.88900
H  36.57500 6.60700 32.46700
H  35.91300 5.84300 31.12000
H  35.59000 7.66600 31.23700
H  35.06700 5.87300 29.41200
H  34.61400 6.00300 27.71100
H  34.44900 7.38700 28.69600
H  40.48100 8.99000 25.20100
H  43.29000 8.08200 25.68100
H  41.75700 6.94900 24.18300
H  40.03200 7.40300 24.11200
H  40.58300 6.21300 25.37800
H  42.37100 9.43300 23.64900
H  43.81400 9.75000 24.35400
H  43.27200 11.98600 24.99900
H  41.93200 11.44400 25.93600
H  41.67000 11.65300 24.18600
H  47.13600 10.64900 28.72100
H  47.12200 12.00300 29.75600
H  46.26400 12.02900 28.20600
H  43.97700 11.90500 33.90800
H  45.21600 8.62400 36.35200
H  44.32500 9.91700 37.38700
H  46.06600 9.90700 37.02000
Mg -1.37800 34.69900 27.24100
C  -3.10300 32.58500 29.54300
C  0.06100 36.25900 29.91600
C  -0.13400 36.77800 25.09700
C  -3.08700 33.00600 24.66600
N  -1.45100 34.42900 29.45100
C  -2.29600 33.54500 30.14100
C  -2.02600 33.73100 31.67600
C  -1.38400 35.12800 31.73600
C  -0.88700 35.29800 30.31200
C  -2.33300 36.23800 32.25700
C  -1.21900 32.58900 32.43700
C  -2.02400 31.74200 33.48200
H  -1.33100 31.61600 34.87400
N  -0.15800 36.26000 27.48300
C  0.40500 36.80500 28.63300
C  1.35000 37.77100 28.31300
C  1.30300 37.93000 26.88800
C  0.23600 36.99600 26.42100
C  2.12300 38.53500 29.39600
C  2.14900 38.88400 25.95000
O  2.07900 39.02300 24.72000
C  3.24800 39.65300 26.64500
N  -1.62200 34.93000 25.20500
C  -0.94600 35.89500 24.50700
C  -1.14300 35.80500 23.00000
C  -2.20400 34.60500 22.87600
C  -2.28300 34.10200 24.35600
C  -1.41700 37.14800 22.32400
C  -1.70800 33.41300 21.95000
C  -2.65600 33.13800 20.77200
N  -2.83400 33.18000 27.08800
C  -3.38400 32.55800 25.96200
C  -4.12500 31.35100 26.39100
C  -4.05200 31.33500 27.80700
C  -3.28700 32.52900 28.17000
C  -4.72900 30.36800 25.49200
C  -4.45600 30.64200 28.95400
O  -5.17000 29.66200 29.05300
C  -3.83700 31.44700 30.17100
C  -4.93900 31.87500 31.06300
O  -5.52800 32.97300 31.01500
O  -5.27500 30.96600 32.00800
C  -6.30000 31.31800 33.02200
H  0.60900 36.62500 30.78700
H  0.38800 37.37000 24.34200
H  -3.63400 32.46300 23.89300
H  -3.02300 33.67500 32.11400
H  -0.47000 35.28900 32.30800
H  -3.22100 36.24000 31.62400
H  -1.82200 37.20100 32.25000
H  -2.67000 36.00100 33.26600
H  -0.28800 32.92900 32.89100
H  -0.91800 31.81200 31.73400
H  -2.28700 30.72100 33.20300
H  -2.96900 32.23800 33.70600
H  1.62000 39.48700 29.56700
H  3.18700 38.69200 29.22200
H  1.97000 37.97600 30.31900
H  4.01700 39.19300 27.26600
H  2.76600 40.42200 27.24800
H  3.71500 40.30800 25.90900
H  -0.22400 35.42900 22.55000
H  -3.19200 34.93100 22.55100
H  -1.75000 37.82000 23.11500
H  -2.25500 37.12100 21.62800
H  -0.46000 37.49800 21.93800
H  -1.53100 32.46200 22.45100
H  -0.72100 33.72800 21.61100
H  -2.07900 33.51100 19.92500
H  -3.58300 33.70200 20.87000
H  -2.73000 32.07300 20.55600
H  -5.65200 30.69600 25.01400
H  -4.77600 29.34300 25.86100
H  -3.93100 30.30500 24.75200
H  -3.15900 30.79900 30.72600
H  -5.93300 32.11200 33.67100
H  -6.47800 30.46400 33.67600
H  -7.30600 31.58000 32.69500

