158

Mg -11.39700 37.08800 42.19900
C  -9.05800 34.51000 41.27200
C  -9.60100 39.26600 40.24900
C  -14.11900 39.16700 41.89300
C  -13.48100 34.59800 43.29400
N  -9.57500 36.90300 40.94400
C  -8.82200 35.77400 40.64400
C  -7.68000 36.08500 39.66300
C  -7.69300 37.69800 39.53700
C  -8.98200 38.01500 40.35600
C  -6.40900 38.41500 39.96600
C  -7.73900 35.21800 38.31800
C  -6.41900 34.44300 37.93800
H  -5.50600 35.30800 37.01800
N  -11.71400 39.05200 41.45400
C  -10.80700 39.76900 40.80500
C  -11.30800 41.08400 40.70100
C  -12.62200 41.14900 41.21400
C  -12.87800 39.78700 41.54900
C  -10.59200 42.25500 40.16500
C  -13.53000 42.33700 41.34400
O  -13.28900 43.44400 41.01600
C  -14.82200 42.26500 42.13800
N  -13.50300 36.92800 42.38300
C  -14.46800 37.89700 42.21000
C  -15.88500 37.41500 42.46500
C  -15.60900 35.92000 42.87800
C  -14.09900 35.79500 42.98400
C  -16.77300 38.21400 43.45600
C  -16.31000 34.86500 41.98900
C  -16.04600 35.02200 40.46600
N  -11.24400 35.04400 42.61100
C  -12.16900 34.14400 43.12400
C  -11.47700 32.93400 43.35400
C  -10.25800 32.93400 42.58500
C  -10.15900 34.31900 42.19800
C  -11.92200 31.86000 44.28800
C  -9.05700 32.25300 42.14300
O  -8.65800 31.12300 42.28500
C  -8.16100 33.28700 41.37800
C  -6.82600 33.44100 42.02400
O  -5.92100 32.55500 41.91800
O  -6.76600 34.65300 42.70300
C  -5.46700 35.00900 43.26600
H  -9.02800 40.01500 39.69900
H  -15.01300 39.79300 41.87100
H  -14.12500 33.83600 43.73800
H  -6.80300 35.84500 40.26300
H  -7.96100 38.05900 38.54400
H  -5.69700 37.75800 40.46500
H  -6.51800 39.19200 40.72300
H  -6.00600 38.82700 39.04100
H  -8.00400 35.94800 37.55300
H  -8.58000 34.52500 38.29900
H  -6.63100 33.46300 37.51200
H  -5.84900 34.27100 38.85100
H  -9.51200 42.11200 40.12600
H  -10.69500 43.10900 40.83400
H  -10.97000 42.55000 39.18600
H  -15.35000 43.20500 42.30000
H  -14.65900 41.67400 43.03900
H  -15.52900 41.70400 41.52700
H  -16.46100 37.36500 41.54000
H  -15.92100 35.90800 43.92300
H  -17.29700 37.56400 44.15700
H  -17.48500 38.72300 42.80600
H  -16.21900 38.93300 44.05900
H  -17.38500 34.90400 42.16500
H  -15.91200 33.91400 42.34300
H  -17.02400 35.17500 40.01000
H  -15.60800 34.16900 39.94800
H  -15.48900 35.90800 40.16000
H  -11.08000 31.51400 44.88800
H  -12.38200 31.04900 43.72300
H  -12.47700 32.37600 45.07100
H  -7.79700 33.07100 40.37400
H  -5.58100 36.05900 43.53700
H  -4.72600 35.00900 42.46700
H  -5.17200 34.24200 43.98200
Mg -12.18600 16.34900 41.54000
C  -9.25600 14.25800 41.07400
C  -10.49400 18.81400 40.06100
C  -15.10100 17.92000 41.05700
C  -13.82600 13.48000 42.53300
N  -10.19900 16.36800 40.49100
C  -9.05700 15.55800 40.58800
C  -7.75100 16.20300 40.05800
C  -8.16500 17.66700 40.14800
C  -9.73300 17.65000 40.29800
C  -7.41600 18.62100 41.18400
C  -7.40400 15.71300 38.64300
C  -5.95600 15.28300 38.29900
H  -5.25300 15.88100 37.04900
N  -12.69500 18.25900 40.87800
C  -11.81200 19.07200 40.32700
C  -12.57900 20.32800 39.88700
C  -13.92000 20.14500 40.33500
C  -13.94700 18.77000 40.84300
C  -11.97400 21.52400 39.25600
C  -15.04600 21.12500 40.37900
O  -14.83600 22.28300 40.04100
C  -16.40200 20.83000 40.88300
N  -14.21300 15.74100 41.59800
C  -15.23100 16.59500 41.39900
C  -16.56300 15.83200 41.58700
C  -16.19400 14.45800 42.27300
C  -14.66200 14.56200 42.12300
C  -17.61800 16.66500 42.42300
C  -16.80500 13.26900 41.50400
C  -17.56300 12.14900 42.26000
N  -11.73500 14.29100 41.75800
C  -12.47800 13.28200 42.36900
C  -11.64300 12.11400 42.67300
C  -10.31200 12.40400 42.19100
C  -10.45200 13.72700 41.61600
C  -12.08100 10.80100 43.30100
C  -8.94300 11.96800 42.00700
O  -8.47900 10.85800 42.28200
C  -8.23700 13.18500 41.23600
C  -6.98800 13.56400 41.96500
O  -6.91700 13.82100 43.11800
O  -5.82200 13.60100 41.13200
C  -4.50100 14.03600 41.65900
H  -9.81600 19.61700 39.76500
H  -16.08500 18.39300 41.07300
H  -14.43500 12.65900 42.91800
H  -6.89500 15.95700 40.68700
H  -8.06600 18.19500 39.19900
H  -6.98700 19.46200 40.64100
H  -6.56200 18.07000 41.57900
H  -8.14000 18.96300 41.92400
H  -7.71100 16.45300 37.90400
H  -8.12400 14.90500 38.51300
H  -5.88200 14.19800 38.23700
H  -5.28600 15.46500 39.13900
H  -12.59600 22.08500 38.55900
H  -11.11300 21.17200 38.68700
H  -11.57800 22.13100 40.07000
H  -16.21500 20.33400 41.83500
H  -17.01700 20.22400 40.21600
H  -16.98100 21.71500 41.14700
H  -16.92400 15.57700 40.59100
H  -16.46000 14.43400 43.33000
H  -17.22100 17.48300 43.02400
H  -18.20800 16.06300 43.11300
H  -18.31400 17.10900 41.71100
H  -15.98900 12.72600 41.02800
H  -17.50300 13.55800 40.71900
H  -18.44800 11.95400 41.65500
H  -17.90500 12.48200 43.24000
H  -16.84700 11.33000 42.33700
H  -12.92300 10.54100 42.66000
H  -12.53600 10.82500 44.29100
H  -11.34100 10.00600 43.20200
H  -7.94200 12.77500 40.27100
H  -4.56600 15.11800 41.54900
H  -3.72400 13.54500 41.07400
H  -4.46800 13.67500 42.68700

