158

Mg 25.64700 1.82200 29.94400
C  27.81100 1.63800 32.84800
C  23.06200 2.16200 32.14300
C  23.72600 1.64100 27.37100
C  28.49700 1.38700 28.03200
N  25.48800 1.88700 32.22700
C  26.49200 1.93500 33.14800
C  25.94400 2.26300 34.58300
C  24.39800 2.23200 34.41300
C  24.30200 2.13200 32.84800
C  23.54200 1.20900 35.19000
C  26.55800 3.62600 35.17100
C  27.20100 3.46600 36.59300
H  26.64300 4.38300 37.64900
N  23.64400 1.88900 29.72900
C  22.71000 2.00300 30.76700
C  21.39500 1.95300 30.23600
C  21.52500 1.76000 28.81400
C  23.00300 1.73700 28.55700
C  20.17300 2.24000 31.09800
C  20.42500 1.54200 27.74700
O  20.88500 1.22400 26.65000
C  18.89300 1.61000 27.95400
N  26.03100 1.47000 27.98700
C  25.05900 1.51700 27.07000
C  25.60800 1.45800 25.68800
C  27.17600 1.45600 25.86400
C  27.25600 1.42600 27.34300
C  25.05100 0.33600 24.80200
C  27.91300 2.68300 25.17900
C  27.46400 2.92900 23.76300
N  27.80000 1.51200 30.29800
C  28.81000 1.28200 29.42400
C  30.08900 1.01100 30.13000
C  29.71000 1.23700 31.50400
C  28.36100 1.48300 31.56500
C  31.36200 0.59400 29.45400
C  30.26600 1.28800 32.76200
O  31.41400 1.01800 33.12700
C  29.12700 1.50900 33.71600
C  29.06600 0.36200 34.64700
O  28.25300 -0.54000 34.49200
O  29.86700 0.53900 35.77000
C  29.52300 -0.34500 36.92800
H  22.31000 2.48300 32.86700
H  23.12500 1.71000 26.46200
H  29.33800 1.38800 27.33500
H  26.31300 1.43800 35.19200
H  23.98900 3.22800 34.58400
H  23.28100 0.40900 34.49700
H  22.70200 1.66100 35.71600
H  23.98200 0.71900 36.05800
H  25.80000 4.40700 35.23500
H  27.29600 4.07100 34.50500
H  28.26100 3.67200 36.74000
H  26.88100 2.48800 36.95500
H  19.82900 1.45000 31.76600
H  19.41100 2.41000 30.33800
H  20.15800 3.15700 31.68700
H  18.35800 1.17000 27.11200
H  18.69400 2.67900 28.03000
H  18.53900 1.15100 28.87800
H  25.20900 2.35800 25.22000
H  27.53900 0.52900 25.41900
H  24.38800 -0.34100 25.34000
H  25.77800 -0.40100 24.46300
H  24.46200 0.76100 23.98800
H  28.99600 2.58100 25.10900
H  27.62300 3.48800 25.85500
H  26.89600 2.12300 23.29900
H  28.24500 3.12000 23.02800
H  26.76100 3.76000 23.82200
H  32.09100 1.39600 29.56400
H  31.11900 0.46600 28.39900
H  31.65500 -0.34100 29.93300
H  29.29800 2.39700 34.32500
H  28.67000 0.10500 37.43600
H  30.34600 -0.32600 37.64300
H  29.30500 -1.35300 36.57700
Mg 42.23600 41.63000 27.14000
C  41.66700 44.13000 29.42400
C  43.28000 39.49300 29.53500
C  43.33800 39.61200 24.66100
C  41.56800 44.09800 24.53400
N  42.52700 41.85500 29.27300
C  42.08800 42.91700 30.01600
C  42.02600 42.59400 31.50500
C  42.80300 41.18200 31.47700
C  42.88900 40.79000 30.01400
C  44.15600 41.16900 32.21400
C  40.59500 42.60600 32.06100
C  40.35300 42.99000 33.54400
H  39.93200 41.89300 34.49900
N  43.09600 39.76100 27.10400
C  43.44300 39.03500 28.24500
C  43.99300 37.79800 27.87200
C  43.97000 37.70100 26.39600
C  43.53100 39.07300 25.99100
C  44.37300 36.80100 28.87600
C  44.35300 36.59800 25.43400
O  44.28200 36.76200 24.23500
C  44.75200 35.22000 26.02500
N  42.52900 41.87700 24.89000
C  42.82200 40.82600 24.15600
C  42.67200 41.11400 22.63000
C  41.73900 42.38800 22.65400
C  41.98400 42.80500 24.14500
C  43.90600 41.24500 21.70400
C  40.28400 42.10700 22.25000
C  39.34100 41.58700 23.22900
N  41.69300 43.71600 26.98200
C  41.48800 44.55200 25.87800
C  41.07900 45.83800 26.35200
C  41.05500 45.69500 27.72800
C  41.50600 44.38300 28.04700
C  40.59900 47.04000 25.55700
C  40.76700 46.34800 29.03500
O  40.37400 47.47800 29.24800
C  41.19000 45.35200 30.14300
C  42.17000 46.04700 31.07700
O  43.36200 46.25400 30.87500
O  41.61000 46.33900 32.31400
C  42.61300 46.68500 33.30700
H  43.47100 38.88500 30.42200
H  43.53100 38.89300 23.86200
H  41.21300 44.76900 23.74900
H  42.58200 43.38900 32.00200
H  42.16200 40.42200 31.92400
H  44.18400 40.30400 32.87800
H  44.29900 42.13000 32.70800
H  45.05900 41.06600 31.61100
H  40.22400 41.58400 31.97900
H  39.85700 43.04700 31.39100
H  39.57400 43.74500 33.43900
H  41.22800 43.47200 33.97900
H  45.29800 36.31900 28.56200
H  43.66400 35.97600 28.80700
H  44.47600 37.16300 29.89900
H  44.02400 34.76400 26.69700
H  45.73200 35.30600 26.49400
H  44.90900 34.63100 25.12200
H  42.17300 40.22200 22.25100
H  42.21400 43.18000 22.07500
H  43.90400 40.55300 20.86100
H  44.81100 41.14500 22.30300
H  43.94900 42.25200 21.29000
H  40.19000 41.55500 21.31400
H  39.94300 43.03000 21.78200
H  38.27900 41.64100 22.98800
H  39.29900 42.11900 24.17900
H  39.44200 40.51900 23.42600
H  40.35600 47.92000 26.15200
H  39.67700 46.75400 25.05100
H  41.24400 47.43100 24.77100
H  40.34100 45.15200 30.79700
H  43.35200 45.89100 33.41200
H  42.12100 46.70900 34.27900
H  43.12700 47.62500 33.10600

