158

Mg 43.76100 3.90500 47.60000
C  41.59100 6.55200 46.74300
C  41.18800 1.76300 47.51700
C  46.09400 1.43200 47.88200
C  46.53100 6.16300 47.06500
N  41.66000 4.12300 46.87900
C  40.89900 5.27900 46.63300
C  39.47200 4.90200 46.31700
C  39.36700 3.49700 47.11100
C  40.83000 3.07300 47.22800
C  38.75700 3.63000 48.58500
C  39.22900 4.82700 44.77800
C  38.33200 5.95200 44.24800
H  38.89800 7.04400 43.29600
N  43.60200 1.87100 47.68700
C  42.46000 1.19900 47.64600
C  42.82700 -0.18000 47.64000
C  44.19100 -0.36400 47.69000
C  44.76100 1.01000 47.80100
C  41.79900 -1.31700 47.36800
C  44.98100 -1.65800 47.65500
O  44.45400 -2.79700 47.50900
C  46.50100 -1.72800 47.65300
N  46.01700 3.73100 47.28200
C  46.64300 2.66400 47.70900
C  48.20500 2.91300 47.60000
C  48.37800 4.41300 47.31300
C  46.87000 4.77700 47.15000
C  49.01500 2.36200 48.81800
C  49.24400 4.75500 46.05800
C  50.66900 4.15100 46.02300
N  44.07000 5.97000 47.16700
C  45.24400 6.72700 46.90600
C  44.83600 8.09700 46.48300
C  43.42100 8.02400 46.63300
C  42.97500 6.74800 46.94200
C  45.76300 9.19900 46.15300
C  42.22100 8.86300 46.51000
O  42.21600 10.04300 46.28900
C  40.98000 7.88200 46.52500
C  40.16600 8.32900 47.73400
O  40.55300 8.45000 48.89400
O  38.91400 8.60600 47.18300
C  37.89600 9.18100 48.08500
H  40.43400 0.98100 47.63400
H  46.90200 0.76100 48.18000
H  47.29400 6.94400 47.06300
H  38.83000 5.70100 46.68900
H  38.78400 2.77200 46.54200
H  39.48900 3.39400 49.35700
H  37.98300 2.86400 48.63000
H  38.27600 4.59600 48.73700
H  38.78800 3.85500 44.55900
H  40.16100 4.81300 44.21400
H  37.86900 6.47500 45.08400
H  37.51400 5.48500 43.69900
H  41.94000 -1.71200 46.36200
H  40.75800 -1.00200 47.44000
H  42.02700 -2.10700 48.08400
H  46.72000 -1.44700 48.68200
H  46.91800 -1.21200 46.78800
H  46.84200 -2.76300 47.61500
H  48.47600 2.34300 46.71100
H  48.72000 5.03700 48.13900
H  49.48900 1.39700 48.63700
H  48.30900 2.20200 49.63300
H  49.81500 2.98100 49.22300
H  49.41200 5.82500 45.93200
H  48.77400 4.41600 45.13500
H  50.80900 3.66400 46.98800
H  51.46500 4.88500 45.89700
H  50.85700 3.44800 45.21100
H  46.66800 9.11800 46.75500
H  45.25300 10.14400 46.34400
H  46.17000 9.01500 45.15900
H  40.31600 7.82900 45.66200
H  37.39300 8.30900 48.50400
H  37.14500 9.76600 47.55400
H  38.33800 9.75800 48.89800
Mg 35.45000 1.34400 29.49200
C  33.13300 2.53700 31.74400
C  37.87900 1.83300 32.01700
C  37.82100 0.25700 27.44800
C  33.19500 1.52100 26.95100
N  35.52900 2.31400 31.59000
C  34.38000 2.38400 32.34000
C  34.74800 2.50000 33.82600
C  36.19100 2.78400 33.75600
C  36.60800 2.17500 32.36300
C  36.63600 4.23400 34.01500
C  34.22200 1.21100 34.69600
C  34.32300 1.26600 36.27700
H  34.91900 2.53100 36.89900
N  37.67400 1.17400 29.66900
C  38.42200 1.37300 30.81700
C  39.77400 0.98000 30.51300
C  39.74500 0.36500 29.22300
C  38.37200 0.57200 28.68200
C  40.82200 1.05200 31.62000
C  40.81400 -0.25100 28.43200
O  40.74800 -0.54300 27.25900
C  42.11600 -0.42900 29.16900
N  35.48500 0.94200 27.54000
C  36.59300 0.51900 26.82700
C  36.32600 0.32100 25.34300
C  34.79000 0.62600 25.23900
C  34.40300 1.03400 26.65600
C  37.10800 1.36100 24.45400
C  33.81900 -0.62800 24.76900
C  33.82800 -1.86500 25.59100
N  33.54900 1.84600 29.28200
C  32.74200 1.94400 28.21500
C  31.44300 2.48900 28.59200
C  31.54700 2.72300 30.06500
C  32.84500 2.33000 30.36900
C  30.32200 2.62000 27.65400
C  30.92100 3.18800 31.22600
O  29.77700 3.62400 31.42200
C  31.89700 2.95500 32.36700
C  32.11000 4.29600 33.06000
O  32.63500 5.25400 32.54900
O  31.60000 4.25500 34.29300
C  31.98900 5.46400 35.04500
H  38.57000 2.06300 32.83000
H  38.56400 -0.11500 26.73900
H  32.46300 1.59900 26.14400
H  34.33800 3.40100 34.28100
H  36.73600 2.20800 34.50300
H  35.81100 4.94400 33.95900
H  37.37200 4.53300 33.26900
H  37.17700 4.32500 34.95700
H  34.87100 0.40700 34.35000
H  33.24300 1.05300 34.24400
H  34.87800 0.33600 36.39600
H  33.33600 1.08100 36.70100
H  41.12900 0.01200 31.72600
H  40.43600 1.34400 32.59700
H  41.66500 1.68600 31.34400
H  41.90500 -1.22400 29.88500
H  42.55500 0.50300 29.52300
H  42.82000 -0.86600 28.46100
H  36.52600 -0.69300 24.99700
H  34.54800 1.41900 24.53200
H  37.83900 1.97900 24.97500
H  36.44700 1.87200 23.75500
H  37.81300 0.73600 23.90500
H  34.06100 -0.99300 23.77100
H  32.80800 -0.25000 24.61200
H  34.87100 -1.95000 25.89800
H  33.59000 -2.75400 25.00700
H  33.14500 -1.75400 26.43300
H  30.54500 2.10700 26.71900
H  29.99400 3.63200 27.41700
H  29.49200 2.12800 28.16200
H  31.49100 2.27000 33.11100
H  32.96800 5.93000 34.93000
H  31.93200 5.26400 36.11500
H  31.31500 6.29800 34.85100

