158

Mg 26.04100 0.57900 29.18700
C  27.94900 0.18900 32.17100
C  23.25700 1.15200 31.15400
C  24.29700 0.52600 26.43100
C  28.97800 -0.14200 27.30000
N  25.63500 0.66500 31.39100
C  26.56600 0.51800 32.38900
C  25.85600 0.73900 33.82000
C  24.36800 1.08500 33.49700
C  24.40300 0.96900 31.94700
C  23.31600 0.14000 34.09800
C  26.60100 1.69800 34.71800
C  25.89200 2.44800 35.91700
H  26.42600 2.20700 37.34800
N  24.03200 0.78700 28.77700
C  23.06900 1.11100 29.67600
C  21.74600 1.34900 29.00400
C  22.06800 0.93700 27.59400
C  23.49200 0.76000 27.54000
C  20.41700 1.67200 29.69600
C  21.09100 0.70700 26.43700
O  21.35300 0.30200 25.34000
C  19.60200 0.69500 26.86000
N  26.54800 -0.07200 27.18000
C  25.64800 0.20300 26.22700
C  26.24100 -0.03100 24.87000
C  27.73500 -0.27700 25.09800
C  27.72900 -0.09600 26.57900
C  25.50600 -1.01900 23.86200
C  28.65200 0.90700 24.46200
C  29.90600 0.43300 23.65000
N  28.10500 0.11500 29.60800
C  29.14500 -0.14300 28.71900
C  30.30000 -0.36300 29.52300
C  29.95000 -0.19500 30.86300
C  28.52500 0.07700 30.85800
C  31.72500 -0.62300 29.01800
C  30.39900 -0.11900 32.25300
O  31.54000 -0.19800 32.69600
C  29.07400 0.01700 33.15500
C  28.77900 -1.14500 33.95100
O  28.49000 -2.22400 33.51400
O  28.88800 -0.83900 35.36000
C  28.46200 -1.93000 36.28600
H  22.42000 1.37900 31.81800
H  23.73000 0.55500 25.49800
H  29.86200 -0.40100 26.71300
H  25.94600 -0.23700 34.29700
H  24.07400 2.10900 33.72500
H  23.51100 0.04700 35.16600
H  23.37900 -0.85900 33.66600
H  22.32600 0.58700 34.00500
H  27.08400 2.44400 34.08700
H  27.46800 1.29100 35.23700
H  24.82700 2.22500 35.97500
H  26.03000 3.51500 35.74000
H  20.69200 1.89500 30.72700
H  19.85000 0.74600 29.60000
H  19.85300 2.46400 29.20300
H  19.50700 -0.04500 27.65500
H  19.03800 0.42900 25.96700
H  19.25900 1.69400 27.12900
H  26.02800 0.90100 24.34600
H  28.04400 -1.32100 25.05300
H  24.99100 -0.59800 22.99800
H  24.70300 -1.45700 24.45500
H  26.17100 -1.81900 23.53800
H  29.04600 1.67300 25.13000
H  28.01900 1.41000 23.73000
H  29.74900 -0.56700 23.24600
H  30.72600 0.44800 24.36700
H  29.98200 1.20500 22.88400
H  32.38100 0.20300 29.29200
H  31.78900 -0.78000 27.94100
H  32.08000 -1.46500 29.61200
H  29.21800 0.84200 33.85300
H  28.77200 -1.59600 37.27700
H  28.96600 -2.89600 36.27800
H  27.38300 -2.08400 36.30200
Mg 35.27700 48.59900 25.19800
C  35.70200 46.73100 28.11000
C  34.62600 51.32600 27.18600
C  34.74200 50.28900 22.45500
C  35.89000 45.62100 23.36900
N  34.85500 48.89800 27.35300
C  35.26200 48.07100 28.35900
C  35.35500 48.72500 29.73500
C  34.55500 50.09200 29.42700
C  34.65700 50.13300 27.91200
C  33.10900 50.20000 30.01300
C  36.80600 48.97000 30.26900
C  37.00600 49.14500 31.76600
H  35.84800 49.03100 32.78300
N  34.78800 50.53600 24.86800
C  34.60500 51.48100 25.79000
C  34.45500 52.77600 25.14400
C  34.46000 52.57900 23.75700
C  34.64300 51.04100 23.61100
C  34.38300 54.18700 25.74500
C  34.22000 53.55200 22.54500
O  34.42200 53.20100 21.36400
C  33.79900 54.92400 22.77400
N  35.21500 48.04600 23.19000
C  35.06800 48.95600 22.26800
C  35.42700 48.43600 20.86700
C  35.71100 46.89200 21.13900
C  35.57800 46.82000 22.65900
C  34.24200 48.52200 19.90000
C  37.15200 46.48500 20.69700
C  38.34400 47.00100 21.53300
N  35.52200 46.53900 25.59700
C  35.90000 45.49100 24.80100
C  36.50000 44.34700 25.59000
C  36.35600 44.83500 26.89400
C  35.76400 46.14200 26.87100
C  37.08900 43.06600 25.07000
C  36.72900 44.43600 28.23600
O  37.27300 43.40500 28.65100
C  36.27300 45.67700 29.08600
C  35.12300 45.24700 30.01500
O  33.91100 45.24600 29.74800
O  35.62900 44.94100 31.18500
C  34.69600 44.77200 32.35300
H  34.48500 52.24000 27.76700
H  34.63100 50.79500 21.49300
H  36.15900 44.81700 22.68200
H  34.67100 48.10600 30.31700
H  35.08200 50.99600 29.73100
H  32.39900 50.56100 29.26900
H  32.97300 50.86500 30.86600
H  32.82300 49.24600 30.45700
H  37.17100 49.95200 29.96700
H  37.46600 48.19300 29.88100
H  37.53100 50.07800 31.97100
H  37.66200 48.37100 32.16400
H  35.32500 54.70100 25.55500
H  34.31400 54.11000 26.83000
H  33.53300 54.83700 25.53900
H  32.79400 54.83000 23.18400
H  33.71000 55.42500 21.80900
H  34.54800 55.49200 23.32600
H  36.32900 48.92200 20.49400
H  34.98000 46.23400 20.67000
H  34.26400 47.65800 19.23600
H  34.36800 49.45900 19.35700
H  33.29200 48.51800 20.43400
H  37.23800 46.80200 19.65800
H  37.14300 45.40300 20.56700
H  39.27500 47.10500 20.97500
H  38.53000 46.26100 22.31100
H  38.11600 47.95300 22.01300
H  37.00000 42.95400 23.98900
H  36.62700 42.21800 25.57600
H  38.15000 43.07500 25.32000
H  37.11200 46.10400 29.63500
H  33.80200 45.38100 32.22400
H  35.31700 45.09900 33.18700
H  34.51700 43.71100 32.53100

