158

Mg -12.63900 37.42400 41.61700
C  -10.19300 34.89600 41.02900
C  -10.48800 39.67700 40.02700
C  -15.03300 39.82700 41.44800
C  -14.94200 34.98800 42.51800
N  -10.72200 37.20400 40.49200
C  -9.87300 36.07500 40.36200
C  -8.49100 36.50100 39.85700
C  -8.48800 38.03900 39.92600
C  -10.01900 38.31000 40.15200
C  -7.60400 38.76900 40.93400
C  -8.29400 35.89300 38.46400
C  -7.06800 35.04800 38.56500
H  -5.92600 35.56900 37.76800
N  -12.66800 39.50200 40.93700
C  -11.68000 40.23400 40.39000
C  -11.96600 41.60400 40.25100
C  -13.39300 41.68900 40.60300
C  -13.79400 40.32400 40.99800
C  -11.01700 42.64700 39.87100
C  -14.25000 42.88600 40.52700
O  -13.82200 43.95800 40.06800
C  -15.68700 42.98400 41.05900
N  -14.71200 37.37600 41.85100
C  -15.48600 38.51100 41.77000
C  -16.94600 38.23600 42.13900
C  -16.98100 36.65000 42.44500
C  -15.47900 36.25400 42.15600
C  -17.51100 39.06400 43.26900
C  -17.98300 35.83700 41.60800
C  -18.55800 34.71000 42.45100
N  -12.61700 35.38500 41.83000
C  -13.57900 34.56600 42.34000
C  -12.95400 33.25800 42.57800
C  -11.62600 33.35400 42.08600
C  -11.45400 34.64200 41.59400
C  -13.69700 32.08200 43.24300
C  -10.35300 32.67200 41.80300
O  -10.06600 31.47900 42.03400
C  -9.33600 33.66400 41.11500
C  -8.00900 33.80400 41.83300
O  -7.10500 33.00700 41.57900
O  -7.90800 34.94000 42.64100
C  -6.68100 35.14200 43.44100
H  -9.81000 40.34800 39.49500
H  -15.81700 40.57200 41.59400
H  -15.68600 34.32000 42.95600
H  -7.75800 36.11600 40.56600
H  -8.30800 38.41700 38.92000
H  -8.13200 38.92800 41.87400
H  -7.27100 39.64300 40.37500
H  -6.74600 38.14100 41.17400
H  -8.16500 36.65600 37.69700
H  -9.19200 35.41800 38.06900
H  -7.50900 34.16100 38.11000
H  -6.63700 34.84200 39.54400
H  -11.07800 42.70200 38.78400
H  -10.02200 42.39800 40.24100
H  -11.28600 43.63600 40.24200
H  -16.48600 42.48300 40.51200
H  -15.91400 44.04800 40.99700
H  -15.65600 42.64800 42.09500
H  -17.50000 38.46900 41.23000
H  -17.02600 36.54600 43.52900
H  -18.46000 38.72000 43.67900
H  -17.65800 40.05600 42.84300
H  -16.87400 39.17300 44.14700
H  -17.39700 35.41200 40.79300
H  -18.77600 36.50500 41.27100
H  -19.64700 34.70100 42.49100
H  -18.30500 34.71900 43.51100
H  -18.19100 33.76000 42.06300
H  -14.27600 31.54000 42.49500
H  -14.33700 32.50000 44.01900
H  -12.94200 31.41900 43.66600
H  -8.99800 33.47800 40.09600
H  -6.30900 36.10900 43.10200
H  -5.86500 34.50800 43.09300
H  -6.79300 34.95700 44.50900
Mg -4.99600 25.23700 26.13100
C  -3.36800 26.51200 28.91600
C  -6.69000 23.03300 28.37800
C  -6.14000 23.63700 23.49600
C  -2.80800 27.10800 24.14100
N  -4.98100 24.80200 28.27500
C  -4.35200 25.58800 29.21800
C  -4.72700 25.36000 30.64700
C  -5.50400 23.98700 30.46500
C  -5.74600 23.93700 28.93900
C  -4.80800 22.75500 31.00000
C  -5.58600 26.52400 31.37500
C  -6.04900 26.20900 32.81000
H  -5.24000 25.26500 33.63200
N  -6.32500 23.59700 25.95000
C  -7.01100 22.95600 26.99500
C  -8.03400 22.07400 26.30700
C  -7.91800 22.24100 24.84800
C  -6.79000 23.18300 24.71100
C  -8.91000 21.22900 27.21900
C  -8.72100 21.67000 23.68200
O  -8.44200 21.85100 22.49500
C  -9.91000 20.83700 24.01900
N  -4.57100 25.38700 24.14600
C  -5.09400 24.57600 23.24600
C  -4.43500 24.73900 21.86000
C  -3.70500 26.13700 22.00700
C  -3.67900 26.19900 23.52000
C  -3.58000 23.50000 21.28700
C  -4.33800 27.50700 21.40600
C  -3.43300 28.44800 20.57000
N  -3.42600 26.63100 26.41700
C  -2.60100 27.31900 25.53100
C  -1.60900 28.10100 26.26000
C  -1.96200 27.79500 27.64000
C  -3.01500 26.92400 27.64900
C  -0.54600 28.91200 25.76700
C  -1.45000 28.04100 28.99300
O  -0.59800 28.84700 29.43200
C  -2.47700 27.28700 29.90000
C  -1.68700 26.49700 30.81500
O  -0.95000 25.52400 30.56200
O  -1.73200 27.09300 32.08900
C  -0.66200 26.68800 33.01200
H  -7.31400 22.49500 29.09400
H  -6.45500 23.15000 22.57100
H  -2.21500 27.64800 23.39900
H  -3.95800 25.21800 31.40600
H  -6.45900 24.00800 30.99200
H  -4.41800 22.19300 30.15100
H  -5.60300 22.23800 31.53800
H  -4.01000 23.04600 31.68300
H  -6.56900 26.51200 30.90600
H  -5.21900 27.53900 31.22400
H  -7.08500 25.89000 32.69800
H  -6.07000 27.18700 33.29100
H  -8.66100 20.89200 28.22500
H  -9.23300 20.35900 26.64700
H  -9.74100 21.90800 27.41200
H  -9.67000 19.98000 24.64900
H  -10.34500 20.54700 23.06300
H  -10.52600 21.61600 24.46800
H  -5.37200 24.84300 21.31400
H  -2.65000 26.10600 21.73600
H  -3.83000 23.23400 20.25900
H  -3.57400 22.62900 21.94100
H  -2.53500 23.80800 21.28600
H  -4.67400 28.15500 22.21600
H  -5.24700 27.20500 20.88600
H  -2.83500 27.88400 19.85300
H  -3.02700 29.19800 21.24800
H  -4.15300 28.90200 19.88900
H  -0.95600 29.50200 24.94700
H  0.23200 28.27500 25.34700
H  -0.16400 29.59900 26.52100
H  -3.00400 28.09600 30.40500
H  -0.57000 27.52700 33.70200
H  0.30200 26.61700 32.50800
H  -0.79300 25.69400 33.44000

