158

Mg 44.25400 3.29500 47.56800
C  42.14200 6.11700 46.97100
C  41.29600 1.24000 47.25300
C  46.10900 0.67000 47.69200
C  47.02300 5.51100 47.00500
N  42.03300 3.65900 47.18200
C  41.41000 4.88500 47.13600
C  39.83700 4.76600 47.19600
C  39.65700 3.21700 47.30200
C  41.08300 2.68000 47.27600
C  38.96900 2.75300 48.65500
C  39.01200 5.46800 46.00700
C  39.71700 5.52300 44.64300
H  39.34100 4.63600 43.46000
N  43.77700 1.18300 47.53500
C  42.53600 0.52500 47.37900
C  42.75900 -0.92600 47.34900
C  44.14400 -1.13300 47.58800
C  44.73900 0.26800 47.62200
C  41.57400 -1.91400 47.25500
C  44.87900 -2.42200 47.70200
O  44.25400 -3.49800 47.69200
C  46.35100 -2.60700 47.71600
N  46.27800 3.05600 47.26500
C  46.81700 1.87300 47.47200
C  48.32200 1.87400 47.47900
C  48.64500 3.38000 47.23100
C  47.19500 4.05200 47.15000
C  48.89100 1.50300 48.84900
C  49.59000 3.81800 46.00100
C  50.52000 2.81500 45.26300
N  44.56600 5.37900 47.18500
C  45.72500 6.03900 46.95000
C  45.43800 7.45600 46.81300
C  44.05300 7.50400 46.78800
C  43.55100 6.27000 46.99700
C  46.50900 8.53700 46.68500
C  42.94900 8.40400 46.78000
O  42.85100 9.63900 46.77900
C  41.64900 7.51900 46.73300
C  40.75100 7.99600 47.89800
O  40.87000 7.61500 49.07200
O  39.75400 8.90000 47.43700
C  38.90900 9.39900 48.51300
H  40.49200 0.50200 47.23000
H  46.72700 -0.21800 47.83800
H  47.95600 6.07800 46.96400
H  39.52900 5.39800 48.02900
H  39.13800 2.81500 46.43200
H  39.56200 2.26600 49.42900
H  38.23000 1.99300 48.39900
H  38.42200 3.60900 49.05000
H  38.78500 6.47600 46.35400
H  38.04100 4.98300 45.90900
H  40.78800 5.33200 44.70800
H  39.66500 6.54700 44.27200
H  40.79700 -1.55600 46.57900
H  41.03200 -1.98200 48.19800
H  41.89200 -2.92900 47.01400
H  46.82300 -2.05400 46.90400
H  46.55100 -3.67600 47.63600
H  46.75700 -2.22400 48.65200
H  48.75300 1.17700 46.76100
H  49.13100 3.88000 48.06800
H  49.46900 0.60200 48.64400
H  48.14400 1.48100 49.64300
H  49.65400 2.21800 49.15700
H  50.23600 4.61600 46.36700
H  48.99300 4.38000 45.28300
H  51.54800 3.12200 45.45400
H  50.44300 2.80400 44.17500
H  50.41900 1.81800 45.69200
H  47.15300 8.26600 45.84900
H  46.93000 8.63900 47.68600
H  45.93200 9.44300 46.49900
H  41.08600 7.66400 45.81100
H  38.03900 9.85300 48.03900
H  39.46100 10.10800 49.13100
H  38.47200 8.62400 49.14300
Mg 6.65300 54.22200 41.36000
C  6.04100 50.75800 41.39700
C  9.63900 53.52200 39.62800
C  6.89200 57.46800 40.44400
C  3.47300 54.73800 42.64300
N  7.75900 52.34900 40.56600
C  7.27600 51.04600 40.72400
C  8.22100 50.05700 40.09600
C  9.55200 50.89300 40.00100
C  8.92200 52.32800 39.95900
C  10.58000 50.79500 41.13800
C  7.64200 49.40300 38.76100
C  6.82600 50.27400 37.80900
H  6.09400 49.58400 36.70600
N  8.08400 55.27700 40.38300
C  9.20000 54.83500 39.77200
C  10.00600 55.91000 39.28500
C  9.37900 57.11500 39.68900
C  8.05200 56.69600 40.17400
C  11.29700 55.76500 38.59500
C  10.05800 58.48900 39.56600
O  11.24500 58.60000 39.18500
C  9.40200 59.70100 40.11600
N  5.26900 55.87800 41.32400
C  5.70500 57.14500 41.07800
C  4.67800 58.16400 41.49400
C  3.55800 57.32100 42.17000
C  4.17000 55.87300 42.16300
C  5.26200 59.30900 42.47400
C  2.09500 57.28400 41.44300
C  1.05900 58.20700 42.22300
N  5.09400 53.01400 41.94500
C  3.92800 53.45100 42.57800
C  3.27900 52.24200 42.91500
C  4.01100 51.13800 42.51500
C  5.09900 51.69400 41.86800
C  1.95400 52.14400 43.62700
C  4.12500 49.70200 42.49800
O  3.42300 48.85200 42.97100
C  5.41700 49.39800 41.70500
C  5.04800 48.53800 40.56500
O  4.57300 48.89900 39.48300
O  5.38000 47.23300 40.81800
C  5.13200 46.27100 39.74400
H  10.56800 53.36800 39.07500
H  7.05800 58.51500 40.18500
H  2.52100 54.87400 43.16000
H  8.42700 49.23200 40.77800
H  9.97900 50.73700 39.01000
H  10.52200 49.74700 41.43000
H  10.28200 51.40600 41.99000
H  11.58900 51.08300 40.84500
H  7.09800 48.47000 38.90900
H  8.56900 49.10900 38.26900
H  7.38000 51.00900 37.22500
H  6.22800 50.99900 38.36100
H  11.35300 56.58100 37.87500
H  11.39200 54.82700 38.04700
H  12.15300 55.77800 39.26900
H  9.04700 59.33700 41.08000
H  8.51400 59.99800 39.55800
H  10.08300 60.55100 40.16200
H  4.26700 58.52600 40.55200
H  3.30500 57.55300 43.20500
H  5.28400 60.30700 42.03600
H  6.28700 58.99100 42.66600
H  4.76000 59.35700 43.44000
H  1.86300 56.22800 41.30600
H  2.13500 57.51000 40.37700
H  1.54100 59.17600 42.34800
H  0.80700 57.70700 43.15800
H  0.09100 58.31600 41.73200
H  1.68900 51.09300 43.51100
H  1.28000 52.87600 43.18200
H  2.03600 52.42000 44.67800
H  6.06100 48.87400 42.41200
H  4.14000 45.91300 40.02000
H  5.81100 45.43200 39.89100
H  5.16600 46.63500 38.71700

