158

Mg 45.14400 4.90500 47.64800
C  42.84800 7.57300 47.26000
C  42.41200 2.76400 47.05200
C  47.25200 2.52200 47.54600
C  47.73600 7.31100 47.86300
N  42.81800 5.19200 47.08400
C  42.14100 6.38400 47.04000
C  40.60000 6.14900 46.96200
C  40.43600 4.57300 47.02200
C  41.97800 4.10600 47.08200
C  39.53000 4.09300 48.19700
C  39.99400 6.80000 45.66800
C  40.91000 6.90900 44.40600
H  40.22100 6.90600 43.05800
N  44.90000 2.98600 47.18000
C  43.72900 2.23200 46.97200
C  44.02400 0.85300 46.85200
C  45.45400 0.77300 46.85600
C  45.94200 2.13000 47.22300
C  43.07100 -0.13400 46.36200
C  46.30400 -0.44700 46.53800
O  45.79500 -1.47900 46.20900
C  47.75400 -0.57100 46.56300
N  47.27800 4.90600 47.49700
C  47.88800 3.77600 47.72700
C  49.40200 3.92500 48.06600
C  49.57800 5.47300 48.07000
C  48.16400 5.94600 47.73700
C  49.74000 3.30900 49.43200
C  50.60600 5.98200 47.00700
C  51.95700 6.43400 47.53800
N  45.31700 7.05000 47.60000
C  46.43400 7.84400 47.73800
C  46.03700 9.24200 47.75800
C  44.58300 9.17100 47.62700
C  44.25500 7.79200 47.45700
C  46.83200 10.44600 47.77400
C  43.46400 9.94000 47.72800
O  43.29200 11.17800 47.81800
C  42.31400 8.91300 47.44800
C  41.36000 8.93100 48.61200
O  41.52800 8.41600 49.73700
O  40.28700 9.64900 48.32500
C  39.40500 9.96800 49.50400
H  41.54900 2.09700 47.01800
H  47.87100 1.62300 47.57400
H  48.62300 7.85700 48.19300
H  40.17400 6.54600 47.88400
H  40.11100 4.17100 46.06200
H  39.05300 3.16800 47.87400
H  38.83300 4.84900 48.55900
H  40.10600 3.86400 49.09400
H  39.69100 7.81800 45.91500
H  39.10500 6.26200 45.34000
H  41.69200 6.15300 44.33100
H  41.49000 7.83200 44.37500
H  43.19700 -1.01000 46.99700
H  43.42700 -0.39800 45.36600
H  42.03600 0.20600 46.33100
H  47.93200 -1.47300 45.97900
H  48.22600 -0.58300 47.54500
H  48.16700 0.27400 46.01200
H  50.08700 3.51600 47.32300
H  49.83500 5.92400 49.02800
H  48.87100 3.55300 50.04200
H  50.71800 3.45700 49.89100
H  49.73600 2.24600 49.19100
H  50.25600 6.83000 46.41800
H  50.82800 5.20700 46.27400
H  52.77700 5.99500 46.97000
H  52.17100 6.03600 48.53000
H  52.01500 7.52300 47.54100
H  47.75600 10.13300 48.26100
H  46.39800 11.37000 48.15500
H  47.09300 10.63300 46.73300
H  41.66200 9.11200 46.59700
H  39.24300 9.03300 50.04000
H  38.46500 10.34100 49.09700
H  39.89700 10.70900 50.13300
Mg 53.73800 24.76900 44.18400
C  50.80400 26.76100 43.71400
C  51.61900 21.92300 43.89600
C  56.40900 22.99200 43.66500
C  55.55600 27.70900 44.40100
N  51.52300 24.41400 43.80100
C  50.52800 25.39400 43.56900
C  49.17700 24.69300 43.40100
C  49.50400 23.24000 43.87500
C  51.01000 23.17500 43.80200
C  49.10500 22.83300 45.32100
C  48.42800 24.77100 42.04300
C  49.24000 25.22300 40.87800
H  49.28700 24.55400 39.55500
N  54.06400 22.71800 43.77700
C  53.07600 21.70800 43.73000
C  53.64700 20.45100 43.62300
C  55.01300 20.65700 43.67300
C  55.24000 22.16600 43.66200
C  52.83500 19.17500 43.55700
C  56.12400 19.65500 43.75500
O  55.82800 18.43700 43.72700
C  57.57500 20.13000 44.09800
N  55.60700 25.24600 43.98500
C  56.59400 24.32100 43.81100
C  57.98700 25.00800 43.50100
C  57.72500 26.50100 43.85500
C  56.22200 26.49800 44.20000
C  59.20000 24.31200 44.16800
C  58.12400 27.45500 42.69300
C  59.06000 28.63500 43.01900
N  53.31900 26.75600 44.19800
C  54.19000 27.88600 44.44600
C  53.40400 29.04200 44.67700
C  52.08000 28.64700 44.33000
C  52.05500 27.28800 44.01000
C  53.76100 30.42100 44.89700
C  50.72300 29.13700 44.17100
O  50.24800 30.24700 44.38900
C  49.89200 27.93900 43.76100
C  49.33900 28.37000 42.45300
O  49.97400 28.47100 41.43000
O  48.01900 28.81800 42.63400
C  47.31800 29.19400 41.34500
H  50.90800 21.10400 44.01800
H  57.31100 22.47300 43.33500
H  56.25900 28.54400 44.44500
H  48.47400 25.11500 44.12000
H  49.11100 22.52800 43.15000
H  49.88500 22.18400 45.71900
H  48.21800 22.23400 45.11600
H  48.78400 23.70700 45.88800
H  47.67200 25.55200 42.12300
H  48.00000 23.78300 41.87100
H  50.28700 25.27900 41.17400
H  48.87300 26.20700 40.58900
H  51.91700 19.29900 42.98400
H  52.71500 18.62400 44.49000
H  53.45800 18.46600 43.01000
H  58.07100 19.18500 44.32200
H  57.65200 20.74400 44.99500
H  58.07400 20.54700 43.22300
H  58.04500 24.81800 42.43000
H  58.24100 26.67000 44.80000
H  58.99800 23.49400 44.85900
H  59.67000 25.10000 44.75700
H  59.85000 23.99300 43.35300
H  57.17100 27.92600 42.45200
H  58.50900 26.96300 41.80000
H  59.43600 28.40800 44.01600
H  58.59100 29.61700 43.08900
H  59.87100 28.66200 42.29100
H  54.76400 30.65600 44.54300
H  53.72100 30.64700 45.96300
H  53.12200 31.17200 44.43200
H  49.15900 27.75900 44.54800
H  47.26400 28.42200 40.57700
H  47.77600 30.06600 40.87800
H  46.28900 29.45600 41.59400

