158

Mg 1.91100 -1.63000 45.15600
C  5.25700 -0.73100 44.62500
C  0.95200 1.28500 43.51500
C  -1.23200 -2.84800 45.22700
C  3.13200 -4.79000 46.42800
N  3.03300 0.03600 44.10900
C  4.37400 0.25400 44.14300
C  4.74700 1.68300 43.46200
C  3.34400 2.29900 43.36700
C  2.34300 1.19000 43.74700
C  3.12900 3.65400 44.08600
C  5.40100 1.55500 42.11100
C  6.03400 2.93800 41.55300
H  5.79200 3.31200 40.03900
N  0.17300 -0.90500 44.33900
C  -0.04600 0.34200 43.75700
C  -1.44800 0.43100 43.51900
C  -2.14900 -0.72400 43.98300
C  -1.06600 -1.58400 44.48800
C  -2.04200 1.77000 42.97900
C  -3.59300 -0.94800 43.85600
O  -4.23400 -0.01200 43.40400
C  -4.28900 -2.20000 44.37900
N  1.10500 -3.54100 45.66600
C  -0.23400 -3.65500 45.78600
C  -0.67000 -4.94700 46.46100
C  0.69700 -5.64800 46.81100
C  1.75100 -4.67900 46.22300
C  -1.64700 -4.85400 47.62100
C  0.77100 -7.06200 46.18200
C  1.40500 -8.14400 47.03600
N  3.77900 -2.56700 45.56100
C  4.08900 -3.80800 46.07600
C  5.49900 -4.03300 46.02000
C  6.00600 -2.80300 45.50900
C  4.90500 -1.92700 45.20000
C  6.19300 -5.24100 46.48200
C  7.22500 -2.08200 45.15400
O  8.42400 -2.44600 45.35100
C  6.80900 -0.75200 44.47900
C  7.46700 0.41700 45.13400
O  7.73300 0.52200 46.32400
O  7.91700 1.25800 44.14100
C  8.65300 2.37200 44.74100
H  0.68700 2.33900 43.41000
H  -2.26000 -3.16100 45.42300
H  3.45900 -5.76500 46.79500
H  5.30700 2.33300 44.13500
H  3.11800 2.60800 42.34700
H  2.43000 4.35600 43.63200
H  4.09400 4.16000 44.10000
H  2.89500 3.51100 45.14100
H  4.66400 1.04900 41.48700
H  6.21800 0.84200 42.22100
H  7.07100 2.60300 41.54800
H  5.85300 3.76000 42.24500
H  -2.49500 1.58700 42.00500
H  -1.26400 2.51800 42.82800
H  -2.81200 2.28600 43.55400
H  -4.09000 -2.37700 45.43600
H  -3.82500 -3.02800 43.84200
H  -5.36900 -2.10500 44.27200
H  -1.23200 -5.52200 45.72500
H  0.75500 -5.72800 47.89600
H  -1.69200 -3.81100 47.93600
H  -1.33100 -5.54200 48.40600
H  -2.65800 -5.16400 47.35400
H  1.38200 -7.00700 45.28000
H  -0.25700 -7.34900 45.96400
H  1.81000 -7.73700 47.96200
H  2.23300 -8.69300 46.58800
H  0.58000 -8.81600 47.27200
H  7.16600 -4.81100 46.71800
H  6.26400 -5.91500 45.62900
H  5.70500 -5.71800 47.33200
H  7.09400 -0.85700 43.43200
H  7.92700 3.05000 45.19100
H  9.26300 2.92300 44.02600
H  9.34300 2.00300 45.49900
Mg 48.68200 35.47600 27.81800
C  46.72800 33.59900 30.12900
C  48.82500 37.96500 30.15900
C  50.55000 37.21100 25.63500
C  48.06200 33.01500 25.40200
N  47.72200 35.72900 29.78100
C  47.21400 34.79000 30.62100
C  47.42200 35.19000 32.08100
C  47.72100 36.75200 32.04100
C  48.10900 36.86100 30.52300
C  46.55900 37.62200 32.49500
C  48.63600 34.48900 32.73400
C  48.56000 34.22200 34.23100
H  47.55100 35.08800 35.11400
N  49.70600 37.36500 27.90100
C  49.55000 38.25300 28.95700
C  50.46100 39.43300 28.56600
C  50.93100 39.20600 27.20800
C  50.38600 37.95300 26.83800
C  50.64700 40.60900 29.54900
C  51.80800 40.10000 26.35600
O  52.15500 39.76400 25.21200
C  52.41800 41.38300 26.98000
N  49.06200 35.28100 25.81000
C  49.95500 36.10300 25.14400
C  50.57900 35.44300 23.96400
C  49.69700 34.14900 23.81100
C  48.92200 34.08700 25.10100
C  50.60100 36.43300 22.76600
C  50.62100 32.93100 23.61400
C  50.10500 31.80300 22.71800
N  47.54100 33.73900 27.65900
C  47.41500 32.79100 26.60400
C  46.62600 31.63300 27.07800
C  46.27600 31.96700 28.39800
C  46.88900 33.17300 28.73900
C  46.34700 30.43200 26.33200
C  45.49000 31.52200 29.53300
O  44.74500 30.54200 29.65200
C  45.72800 32.59200 30.65400
C  46.26200 31.99600 31.91900
O  47.32700 31.36800 31.99400
O  45.34400 32.34500 32.97800
C  45.61800 31.67800 34.23900
H  48.94000 38.69100 30.96600
H  51.28900 37.67400 24.97900
H  47.98900 32.26400 24.61200
H  46.48300 35.03800 32.61300
H  48.58600 36.95600 32.67100
H  46.82400 38.11900 33.42900
H  45.60600 37.09900 32.57500
H  46.32200 38.43800 31.81200
H  49.55800 34.88800 32.31200
H  48.57900 33.50600 32.26700
H  49.58000 34.47200 34.52200
H  48.46400 33.16000 34.45700
H  50.36800 41.56200 29.10100
H  51.65700 40.60300 29.96100
H  49.97000 40.60200 30.40300
H  53.05000 41.16700 27.84200
H  51.64300 42.11800 27.19500
H  53.08500 41.88800 26.28100
H  51.61600 35.13100 24.08800
H  48.96500 34.25500 23.01000
H  49.81000 37.17300 22.88200
H  50.39400 35.85800 21.86300
H  51.56200 36.93600 22.65500
H  50.69400 32.49800 24.61200
H  51.62000 33.26500 23.33400
H  50.66800 30.89500 22.93100
H  50.30300 32.25000 21.74300
H  49.05200 31.59100 22.90100
H  47.25300 29.83500 26.23100
H  45.95200 30.69800 25.35200
H  45.52500 29.96500 26.87600
H  44.74300 33.02800 30.82400
H  44.64900 31.22800 34.45800
H  45.91700 32.32600 35.06300
H  46.36400 30.89000 34.14200

