158

Mg 47.58900 33.85300 27.02700
C  46.17300 32.62600 29.88400
C  48.19400 36.94000 28.69500
C  48.86000 35.24900 24.06400
C  46.61500 31.09100 25.27300
N  47.29600 34.67900 29.07200
C  46.71400 33.93100 30.13200
C  47.02600 34.64500 31.47400
C  47.28600 36.05500 30.99000
C  47.71700 35.87300 29.53700
C  46.17100 37.12200 31.21500
C  48.16300 33.89100 32.14700
C  48.17800 33.92900 33.71600
H  47.23700 34.93300 34.35700
N  48.35700 35.75600 26.45800
C  48.49000 36.88800 27.28500
C  49.01000 37.98700 26.52800
C  49.20400 37.55000 25.23000
C  48.82200 36.13100 25.18000
C  49.44800 39.30900 27.17200
C  49.91700 38.24000 24.12400
O  50.26800 37.76500 23.05800
C  50.21100 39.69600 24.31400
N  47.74900 33.26300 24.97600
C  48.41500 33.93900 23.99400
C  48.37600 33.14600 22.65500
C  47.78700 31.72200 23.08500
C  47.26900 32.04200 24.51700
C  47.67600 33.87500 21.50900
C  48.80600 30.52000 23.02900
C  50.10000 30.63900 23.89400
N  46.59200 32.10100 27.45200
C  46.28900 31.02400 26.69700
C  45.58300 30.06700 27.47100
C  45.39700 30.68600 28.69800
C  46.10300 31.88300 28.69100
C  44.99800 28.78400 27.04300
C  44.83300 30.58400 30.02200
O  44.14000 29.67700 30.48700
C  45.20900 31.86900 30.76500
C  45.69900 31.57900 32.09400
O  46.58600 30.81800 32.43100
O  44.86800 32.15500 32.98300
C  44.90000 31.69100 34.38900
H  48.28300 37.83000 29.32200
H  49.39100 35.56100 23.16200
H  46.33200 30.27600 24.60400
H  46.16800 34.59800 32.14500
H  48.23500 36.44400 31.35900
H  45.27200 36.59000 31.52500
H  45.84100 37.58500 30.28500
H  46.44100 37.81500 32.01200
H  49.10000 34.32800 31.80100
H  48.18500 32.83400 31.87900
H  49.18600 34.15900 34.06200
H  48.05300 32.92700 34.12600
H  48.68000 40.08100 27.13600
H  50.42800 39.62800 26.81800
H  49.62700 39.15400 28.23600
H  49.38500 40.21200 24.80200
H  50.43000 40.09300 23.32300
H  51.16800 39.67400 24.83400
H  49.37800 32.96500 22.26900
H  46.90800 31.52000 22.47300
H  47.52000 34.95300 21.55400
H  46.67000 33.48800 21.34700
H  48.29800 33.67100 20.63800
H  49.08300 30.45300 21.97700
H  48.31900 29.56100 23.20300
H  50.33000 29.76000 24.49600
H  50.17500 31.59600 24.41000
H  50.92300 30.74300 23.18800
H  43.96700 28.73800 27.39500
H  45.54300 27.88900 27.34400
H  44.95900 28.60200 25.96900
H  44.32000 32.49500 30.84300
H  44.27300 32.31300 35.02800
H  45.94900 31.69500 34.68400
H  44.57800 30.65300 34.47100
Mg 6.43400 54.35700 41.44700
C  5.91600 50.85300 41.26900
C  9.55200 53.80200 40.11400
C  6.86700 57.65200 41.56200
C  3.01100 54.85500 42.14600
N  7.56500 52.44000 40.61800
C  7.16800 51.16300 40.64800
C  8.26900 50.29400 40.23200
C  9.47100 51.28800 40.03600
C  8.81700 52.61900 40.27200
C  10.84900 51.03800 40.85400
C  8.04900 49.41800 38.95200
C  7.14100 49.87900 37.84400
H  7.73400 50.09100 36.44100
N  7.97400 55.58600 40.86200
C  9.17200 55.14700 40.38900
C  9.98800 56.27000 40.30000
C  9.32200 57.43600 40.75700
C  7.98400 56.94600 41.08800
C  11.42100 56.10100 39.98800
C  9.98600 58.88800 40.82500
O  11.12600 59.12800 40.54300
C  9.27400 60.02700 41.49300
N  5.04900 56.07100 41.71000
C  5.55800 57.32700 41.76300
C  4.47100 58.27900 42.18400
C  3.16600 57.39200 42.25400
C  3.71700 56.00800 42.05700
C  4.76600 59.09800 43.52400
C  1.96500 57.75200 41.35500
C  0.85700 58.47900 42.06100
N  4.83100 53.16500 41.63100
C  3.49400 53.51700 41.90900
C  2.77200 52.26900 42.14000
C  3.76900 51.26500 42.00500
C  4.94200 51.80100 41.54500
C  1.31400 52.12400 42.26200
C  3.91000 49.83600 42.10800
O  3.09600 49.03200 42.51700
C  5.35200 49.49700 41.61300
C  5.20500 48.46900 40.57100
O  4.46400 48.59100 39.57800
O  5.92400 47.35500 40.77000
C  5.62700 46.21000 39.77700
H  10.55700 53.64900 39.71500
H  7.07500 58.70900 41.73800
H  1.97100 54.86500 42.47900
H  8.44500 49.65100 41.09400
H  9.74100 51.35500 38.98200
H  10.77100 50.43600 41.75900
H  11.16200 51.96200 41.34000
H  11.60200 50.61100 40.19100
H  7.78500 48.37500 39.12700
H  9.08800 49.38600 38.62400
H  6.76200 50.85700 38.14000
H  6.29400 49.21400 37.67200
H  12.15800 56.81200 40.36000
H  11.59200 55.98200 38.91800
H  11.67800 55.12300 40.39600
H  8.45300 60.29500 40.82700
H  10.07100 60.75300 41.65700
H  8.95500 59.68300 42.47700
H  4.37100 59.04200 41.41200
H  2.83800 57.45800 43.29100
H  4.72800 60.17700 43.37300
H  5.75400 58.76400 43.84100
H  3.97400 58.83300 44.22500
H  1.54600 56.84300 40.92400
H  2.41400 58.38700 40.59100
H  0.07600 57.74300 42.25500
H  0.43500 59.27400 41.44700
H  1.21500 58.99300 42.95300
H  0.89400 51.78400 41.31500
H  0.71900 52.96500 42.61700
H  1.09500 51.36000 43.00800
H  5.90000 49.09300 42.46500
H  6.14800 45.30500 40.09100
H  5.90500 46.40700 38.74100
H  4.58700 45.89300 39.86000

