158

Mg 44.82100 3.63700 47.20600
C  42.64500 6.34100 46.79400
C  42.03400 1.49400 47.31900
C  46.90500 1.00300 46.81300
C  47.49300 5.99200 46.68500
N  42.55000 3.94900 47.10600
C  41.93000 5.09200 46.83200
C  40.36900 4.87800 46.65100
C  40.20600 3.34000 46.99200
C  41.69500 2.92400 47.28200
C  39.15500 3.15700 48.15500
C  40.03000 5.16300 45.09800
C  38.83600 5.97500 44.76400
H  39.03700 7.03300 43.74500
N  44.53900 1.52500 47.17300
C  43.27300 0.88700 47.22900
C  43.57900 -0.58400 47.31700
C  44.95000 -0.72300 47.09700
C  45.54900 0.60900 46.94500
C  42.47400 -1.67300 47.44700
C  45.73700 -2.06300 47.11100
O  45.16200 -3.13700 47.31500
C  47.25300 -2.16700 46.94100
N  46.83900 3.56000 46.56800
C  47.45600 2.30500 46.67500
C  48.98200 2.53300 46.71400
C  49.13500 4.08900 46.94200
C  47.72600 4.63400 46.76900
C  49.76000 1.82500 47.81900
C  50.11200 4.80700 45.83700
C  51.13800 5.78400 46.49400
N  45.09300 5.78800 46.85000
C  46.21300 6.58300 46.72800
C  45.76200 7.90800 46.61600
C  44.37600 7.96600 46.57200
C  44.00100 6.56200 46.74200
C  46.72800 9.18400 46.34800
C  43.15900 8.77400 46.55800
O  42.92300 9.97900 46.58200
C  42.03500 7.73300 46.61600
C  41.20300 8.11200 47.76900
O  41.32300 7.68400 48.91500
O  40.22500 9.02900 47.36100
C  39.29200 9.50100 48.43700
H  41.19400 0.82000 47.14200
H  47.63300 0.18900 46.81400
H  48.40900 6.58400 46.64000
H  39.72700 5.52600 47.24900
H  39.88000 2.74600 46.13800
H  38.55700 4.06100 48.27600
H  39.55500 2.94800 49.14700
H  38.55500 2.27700 47.92600
H  39.78100 4.21900 44.61200
H  40.84500 5.65000 44.56300
H  38.53900 6.51900 45.66100
H  38.08300 5.26300 44.42600
H  42.37000 -2.38400 46.62700
H  41.56500 -1.17100 47.77800
H  42.73500 -2.38800 48.22700
H  47.83400 -1.63000 47.69000
H  47.38700 -1.89300 45.89400
H  47.57300 -3.20500 47.03400
H  49.42300 2.18400 45.78000
H  49.38400 4.32600 47.97700
H  49.28600 1.98400 48.78700
H  50.82000 2.07700 47.84200
H  49.66200 0.76100 47.60000
H  49.61500 5.18200 44.94200
H  50.78100 4.01300 45.50700
H  52.10000 5.28200 46.39500
H  50.88200 5.98700 47.53400
H  51.15600 6.68700 45.88400
H  46.51800 9.63000 45.37600
H  47.78600 8.94800 46.46300
H  46.51900 9.89000 47.15100
H  41.39300 7.84300 45.74200
H  39.61000 10.53400 48.57800
H  39.44700 9.04800 49.41700
H  38.28500 9.48200 48.02100
Mg 46.16900 24.80600 28.44300
C  47.05900 27.09200 31.08500
C  45.53200 22.45600 30.96600
C  45.53900 22.51500 26.09300
C  47.46100 26.95200 26.17700
N  46.36900 24.84600 30.75000
C  46.66600 25.83900 31.57400
C  46.26900 25.51200 33.07600
C  46.06200 23.95300 33.02800
C  46.03300 23.68300 31.46000
C  47.13700 22.99000 33.73700
C  45.06400 26.36000 33.59900
C  45.26600 27.48400 34.67600
H  44.30900 27.45200 35.85900
N  45.54400 22.84400 28.50200
C  45.35600 22.04700 29.60900
C  44.92700 20.65500 29.21300
C  44.73500 20.71900 27.79100
C  45.33800 22.00100 27.39000
C  44.66100 19.47900 30.21700
C  44.13500 19.73100 26.78500
O  43.96500 20.09000 25.59400
C  43.65400 18.31100 27.25400
N  46.43900 24.76600 26.38500
C  46.01900 23.71900 25.65100
C  46.26700 23.97600 24.13500
C  46.68500 25.50800 24.11800
C  46.84700 25.80700 25.62100
C  47.18400 23.11200 23.34600
C  45.71500 26.60700 23.44400
C  46.20000 27.62500 22.38100
N  47.03700 26.65700 28.52900
C  47.60800 27.40100 27.54100
C  48.24200 28.59900 28.13400
C  48.02600 28.59800 29.47400
C  47.30300 27.36400 29.71700
C  48.73800 29.73600 27.29400
C  48.19400 29.24400 30.81300
O  48.64400 30.32300 31.01300
C  47.51900 28.35900 31.85900
C  48.65600 28.08400 32.83100
O  49.67100 27.45800 32.57500
O  48.35600 28.60700 34.06700
C  49.33500 28.21600 35.04800
H  45.32200 21.72200 31.74600
H  45.39300 21.83600 25.25100
H  47.87500 27.60800 25.40800
H  47.17200 25.71100 33.65400
H  45.12800 23.70700 33.53300
H  46.76000 22.51800 34.64400
H  48.04800 23.50300 34.04600
H  47.52200 22.16300 33.14000
H  44.37900 25.67800 34.10400
H  44.57400 26.87900 32.77500
H  45.07900 28.43200 34.17100
H  46.20900 27.24100 35.16400
H  43.88200 18.79900 29.87200
H  44.39000 19.84100 31.20900
H  45.59500 18.93700 30.36500
H  44.38000 17.68200 27.76800
H  43.48300 17.57800 26.46500
H  42.72900 18.40400 27.82400
H  45.32800 23.87300 23.59300
H  47.63500 25.61800 23.59600
H  47.57500 23.69700 22.51400
H  46.82000 22.09800 23.18100
H  48.13300 23.12800 23.88200
H  45.25300 27.21100 24.22500
H  44.99600 25.99800 22.89700
H  45.71100 27.53000 21.41200
H  47.27000 27.54700 22.19100
H  46.04200 28.63600 22.75500
H  48.66900 30.50400 28.06500
H  48.05900 29.87500 26.45300
H  49.74100 29.47300 26.95900
H  46.75900 28.88800 32.43400
H  50.32500 28.64800 34.90400
H  49.54800 27.15700 34.89900
H  48.96400 28.27300 36.07100

