158

Mg 46.06800 3.89900 47.65600
C  44.23300 6.77900 47.09800
C  43.32800 2.03600 46.51800
C  47.84100 1.08600 47.95800
C  48.81400 5.82500 48.23400
N  44.08700 4.35500 46.70400
C  43.53100 5.60600 46.63800
C  42.16300 5.58800 46.01900
C  41.83900 4.08300 46.10600
C  43.17600 3.43300 46.36400
C  40.71300 3.60100 47.03700
C  42.09100 6.12900 44.52600
C  41.21200 7.38800 44.50800
H  41.17000 8.25400 43.19800
N  45.69900 1.85000 47.29300
C  44.48100 1.28800 46.88000
C  44.52400 -0.10700 46.74600
C  45.87000 -0.43300 47.19700
C  46.56200 0.85200 47.51300
C  43.42500 -0.89700 46.01800
C  46.36900 -1.88000 47.17200
O  45.71200 -2.86200 46.71300
C  47.76700 -2.20100 47.48400
N  48.11000 3.45300 47.72800
C  48.63100 2.23500 48.06800
C  50.10300 2.30400 48.36900
C  50.34100 3.90100 48.33000
C  48.94000 4.41800 48.13800
C  50.40900 1.62000 49.78100
C  51.36500 4.36800 47.17700
C  52.58600 5.16800 47.72700
N  46.52500 5.92400 47.63300
C  47.64300 6.58400 47.96300
C  47.45500 7.97800 48.03400
C  46.15200 8.13800 47.66200
C  45.59800 6.83300 47.43500
C  48.44100 8.94900 48.14900
C  45.09000 9.02900 47.43300
O  45.06200 10.25000 47.34800
C  43.71200 8.21000 47.07600
C  42.74300 8.45200 48.18500
O  42.57100 7.83900 49.22000
O  41.93700 9.47400 47.72900
C  40.79600 9.89200 48.47700
H  42.44200 1.46400 46.23700
H  48.37300 0.17000 48.22500
H  49.79000 6.28700 48.39800
H  41.55200 6.22600 46.65700
H  41.46000 3.71700 45.15200
H  40.07500 4.38000 47.45300
H  41.28200 3.22600 47.88700
H  40.24000 2.74400 46.55600
H  41.82000 5.33800 43.82800
H  43.08800 6.42300 44.19700
H  41.43500 8.04600 45.34800
H  40.19000 7.06600 44.70900
H  43.68000 -1.92200 45.74900
H  43.01000 -0.39500 45.14400
H  42.54700 -0.96900 46.66000
H  47.97800 -3.19500 47.09000
H  47.89300 -2.33300 48.55900
H  48.49500 -1.51100 47.05700
H  50.70200 1.86200 47.57200
H  50.65400 4.36200 49.26700
H  50.67800 0.60300 49.49400
H  49.57300 1.74400 50.46900
H  51.18900 2.27200 50.17400
H  50.93400 5.02600 46.42200
H  51.82900 3.46600 46.77800
H  52.35600 6.16500 48.10300
H  53.37400 5.31600 46.98800
H  52.97000 4.68500 48.62600
H  48.57300 9.16900 47.09000
H  49.22600 8.46200 48.72800
H  48.20500 9.93000 48.56100
H  43.38400 8.49600 46.07600
H  40.82500 9.47300 49.48300
H  40.00000 9.50300 47.84300
H  40.69200 10.97500 48.54600
Mg -9.53800 38.33400 41.00600
C  -8.26700 35.08900 40.76100
C  -6.51400 39.44700 39.78600
C  -10.89700 41.48500 40.51600
C  -12.71400 37.09800 41.68400
N  -7.60800 37.36000 40.43300
C  -7.24800 36.01000 40.48700
C  -5.83100 35.77800 40.19800
C  -5.20800 37.26100 40.30600
C  -6.48900 38.09300 40.10800
C  -4.44200 37.67200 41.68000
C  -5.79800 34.93100 38.83100
C  -5.89700 35.78000 37.57500
H  -7.08800 35.53900 36.56700
N  -8.84500 40.20700 40.28400
C  -7.54700 40.45900 39.88400
C  -7.39200 41.82900 39.43000
C  -8.58600 42.51700 39.74200
C  -9.52000 41.40100 40.19100
C  -6.10000 42.40300 38.95600
C  -8.69700 43.94900 39.57000
O  -7.75000 44.56600 39.13100
C  -9.98800 44.73300 39.83200
N  -11.57000 39.16100 41.02800
C  -11.83600 40.51700 40.89000
C  -13.34700 40.78100 41.17000
C  -13.88000 39.35000 41.54800
C  -12.65600 38.50500 41.50700
C  -13.41100 41.86300 42.25200
C  -15.12100 38.88300 40.69800
C  -16.46900 39.07400 41.40300
N  -10.39100 36.49000 41.26600
C  -11.65100 36.15900 41.63800
C  -11.72400 34.73800 41.98400
C  -10.43400 34.26300 41.57300
C  -9.62100 35.39600 41.13900
C  -12.88700 33.97700 42.48500
C  -9.59100 33.18200 41.55700
O  -9.75400 31.98600 41.83300
C  -8.27000 33.62200 40.87000
C  -7.05600 32.91800 41.33000
O  -6.18600 32.45300 40.62200
O  -7.02800 32.83500 42.71900
C  -5.81500 32.26800 43.29800
H  -5.60400 39.85900 39.34300
H  -11.32900 42.48700 40.46900
H  -13.68900 36.72200 42.00000
H  -5.29000 35.23400 40.97200
H  -4.51100 37.39100 39.47800
H  -3.39700 37.92200 41.49900
H  -4.55100 36.92600 42.46800
H  -4.93200 38.57700 42.03900
H  -6.63400 34.23400 38.76900
H  -4.82800 34.43700 38.88100
H  -4.99000 35.60100 36.99800
H  -5.95000 36.84700 37.78900
H  -6.30600 42.96100 38.04300
H  -5.34500 41.66600 38.67900
H  -5.55500 43.08200 39.61200
H  -9.71200 45.77500 39.99400
H  -10.60500 44.31600 40.62800
H  -10.62400 44.75100 38.94700
H  -13.70800 40.94000 40.15400
H  -14.08400 39.35000 42.61800
H  -13.74200 42.73600 41.69000
H  -12.47500 42.23700 42.66800
H  -14.07800 41.55300 43.05600
H  -15.04900 37.81600 40.48400
H  -15.12300 39.42500 39.75300
H  -16.54200 39.75800 42.24900
H  -16.71900 38.09800 41.81700
H  -17.15200 39.30800 40.58600
H  -12.54200 33.57700 43.43900
H  -13.17000 33.20100 41.77300
H  -13.68100 34.71700 42.58100
H  -8.29400 33.21300 39.86000
H  -5.65900 31.22700 43.01500
H  -5.89200 32.26700 44.38600
H  -4.94600 32.86000 43.01200

