158

Mg 42.22200 41.77800 26.56300
C  41.42300 44.34500 28.92900
C  43.13200 39.79600 29.20600
C  43.10400 39.42800 24.33000
C  41.67600 44.03900 24.06800
N  42.35300 42.06800 28.81800
C  41.92700 43.14400 29.58900
C  42.08100 42.84500 31.11000
C  42.78000 41.42700 31.09800
C  42.73200 41.05700 29.63600
C  44.17800 41.43000 31.80400
C  40.73900 42.83900 31.90200
C  40.80700 43.56700 33.28200
H  40.12100 42.84100 34.39300
N  43.05100 39.87700 26.72600
C  43.26800 39.20800 27.88600
C  43.77300 37.85100 27.59100
C  43.91600 37.78600 26.16000
C  43.40100 39.10900 25.70200
C  44.24900 36.91700 28.65000
C  44.46100 36.76300 25.25700
O  44.55200 36.78200 23.99900
C  44.74100 35.44800 25.82100
N  42.59700 41.76200 24.45100
C  42.71700 40.63600 23.80900
C  42.36300 40.82300 22.27700
C  41.73700 42.26600 22.22900
C  41.90700 42.70800 23.70000
C  43.62000 40.49100 21.40100
C  40.26200 42.39300 21.78700
C  39.16600 41.38000 22.25800
N  41.68800 43.76400 26.44600
C  41.59500 44.60000 25.32400
C  41.27800 45.87900 25.76600
C  41.23200 45.87800 27.13900
C  41.47000 44.52400 27.53700
C  41.15400 47.00400 24.74900
C  41.00800 46.66500 28.28500
O  40.74500 47.84800 28.45500
C  41.09700 45.75300 29.50200
C  42.09100 46.28500 30.51200
O  43.26200 46.37700 30.21200
O  41.54800 46.66000 31.71600
C  42.54000 46.77900 32.77900
H  43.29200 39.11500 30.04500
H  43.26200 38.63100 23.60000
H  41.31500 44.73800 23.31100
H  42.76500 43.52600 31.61500
H  42.12400 40.74200 31.63500
H  44.10900 40.81700 32.70300
H  44.39200 42.43900 32.15700
H  44.83300 41.11400 30.99200
H  40.36900 41.84400 32.14900
H  39.96000 43.36500 31.35000
H  40.41000 44.57900 33.21000
H  41.82500 43.70800 33.64800
H  43.79100 35.94900 28.44700
H  43.88500 37.28800 29.60800
H  45.33400 36.82500 28.70800
H  45.40400 35.55000 26.68000
H  45.09400 34.83300 24.99200
H  43.83500 35.04200 26.27100
H  41.52700 40.17700 22.00800
H  42.40200 42.91700 21.66200
H  43.92500 41.45200 20.98900
H  43.43700 39.74200 20.63100
H  44.49700 40.12900 21.93700
H  40.30300 42.22800 20.71000
H  40.03200 43.42500 22.05100
H  38.75800 41.85000 23.15300
H  39.59000 40.43600 22.59900
H  38.51900 41.32200 21.38200
H  40.22300 46.83400 24.21000
H  42.04800 47.10300 24.13300
H  41.07000 47.85400 25.42600
H  40.11300 45.61400 29.94900
H  43.04900 45.83700 32.98500
H  42.02500 47.18000 33.65200
H  43.31400 47.50300 32.52600
Mg -0.48200 34.98400 26.98300
C  -2.32100 33.04600 29.24200
C  0.82100 36.70300 29.64300
C  0.71000 37.07200 24.88500
C  -2.08600 33.21100 24.35600
N  -0.72000 34.84900 29.21500
C  -1.49800 33.95300 29.93000
C  -1.48300 34.25700 31.40600
C  -0.55900 35.50100 31.48000
C  -0.10100 35.75500 30.07500
C  -1.00800 36.83600 32.27600
C  -0.91100 33.00300 32.15200
C  -1.65500 32.52600 33.41400
H  -0.89600 32.44900 34.71700
N  0.70500 36.70100 27.23800
C  1.14300 37.24000 28.39000
C  1.95200 38.33800 28.07100
C  1.95400 38.48500 26.63300
C  1.05400 37.45900 26.22400
C  2.76400 39.15400 29.03300
C  2.66900 39.41500 25.68400
O  2.41300 39.55400 24.44000
C  3.72600 40.33400 26.25300
N  -0.51400 34.97200 24.89900
C  -0.04100 36.07300 24.23000
C  -0.34700 36.06500 22.70400
C  -1.10500 34.68900 22.56400
C  -1.23700 34.21400 24.03100
C  -1.19400 37.30700 22.25200
C  -0.55200 33.64900 21.64900
C  0.52600 32.71500 22.20600
N  -1.90300 33.43100 26.76900
C  -2.42400 32.79700 25.65800
C  -3.29900 31.72800 26.09500
C  -3.30500 31.84600 27.51600
C  -2.45300 32.88300 27.85400
C  -3.95700 30.75000 25.19100
C  -3.83900 31.22000 28.71100
O  -4.54100 30.21200 28.86700
C  -3.28300 32.11300 29.87900
C  -4.43600 32.76900 30.55100
O  -4.92100 33.82900 30.26200
O  -4.93700 31.96000 31.61000
C  -6.04300 32.52500 32.42200
H  1.29400 37.23600 30.47000
H  1.02500 37.73100 24.07500
H  -2.61200 32.68800 23.55500
H  -2.50300 34.46900 31.72900
H  0.39600 35.26600 31.95000
H  -1.37000 37.59400 31.58100
H  -0.17200 37.29600 32.80200
H  -1.75200 36.62200 33.04400
H  0.02000 33.28400 32.64400
H  -0.69000 32.13100 31.53700
H  -2.04100 31.51000 33.32400
H  -2.48400 33.23000 33.48600
H  3.79500 38.80800 29.10000
H  2.46300 39.21300 30.07900
H  2.66200 40.19300 28.71900
H  4.52100 39.87200 26.83800
H  3.28300 41.07100 26.92400
H  4.11300 40.82900 25.36200
H  0.60200 35.96900 22.17600
H  -2.09400 34.89500 22.15300
H  -1.54900 37.69100 23.20800
H  -1.99800 37.08400 21.55000
H  -0.41500 37.90000 21.77300
H  -0.16700 34.19400 20.78800
H  -1.35900 33.04400 21.23600
H  0.03800 31.99700 22.86500
H  1.26200 33.25200 22.80400
H  1.03600 32.07400 21.48700
H  -3.13600 30.51200 24.51500
H  -4.82500 31.14300 24.66200
H  -4.06200 29.81200 25.73600
H  -2.67300 31.54800 30.58400
H  -5.81600 33.11300 33.31100
H  -6.58800 31.66500 32.81200
H  -6.72200 33.12200 31.81400

