158

Mg 24.64200 -7.11100 48.67000
C  27.13700 -5.12300 47.05400
C  22.54100 -6.47400 45.91900
C  22.61600 -9.58500 49.69600
C  27.16400 -8.14100 50.94700
N  24.87300 -5.96900 46.72200
C  25.96500 -5.24700 46.32100
C  25.64100 -4.55100 44.96700
C  24.11700 -4.84000 44.61200
C  23.79600 -5.79400 45.84400
C  23.19100 -3.58600 44.59300
C  26.56800 -4.95200 43.80900
C  27.39200 -3.92000 43.09900
H  27.21600 -3.69000 41.64100
N  22.68400 -7.76600 48.14500
C  22.04300 -7.28600 47.03200
C  20.70000 -7.89700 47.05200
C  20.63500 -8.81200 48.19000
C  22.03900 -8.82600 48.68200
C  19.69300 -7.73900 46.00500
C  19.49800 -9.63200 48.79600
O  18.39300 -9.62700 48.30600
C  19.61500 -10.33500 50.10700
N  24.86800 -8.57100 50.17000
C  23.88700 -9.60800 50.33100
C  24.16600 -10.39000 51.63700
C  25.56000 -9.84200 52.12600
C  25.88100 -8.77700 51.06600
C  23.00000 -10.43700 52.70200
C  26.56000 -11.03700 52.31200
C  27.25300 -10.96300 53.66700
N  26.67500 -6.57900 49.11400
C  27.54600 -7.18800 49.95900
C  28.87900 -6.62800 49.83400
C  28.76800 -5.75800 48.72300
C  27.43400 -5.86700 48.27700
C  29.99600 -6.95900 50.76600
C  29.46700 -4.84000 47.86800
O  30.64200 -4.36400 47.98800
C  28.44000 -4.39300 46.73400
C  28.31200 -2.92000 46.97000
O  27.98400 -2.35500 48.03400
O  28.55200 -2.28200 45.79800
C  28.69800 -0.80400 45.88100
H  21.86300 -6.28400 45.08400
H  22.13100 -10.43800 50.17300
H  27.90800 -8.54300 51.63700
H  25.75400 -3.48700 45.17800
H  24.00100 -5.39200 43.67900
H  22.64900 -3.56100 43.64800
H  23.62400 -2.61500 44.83700
H  22.40900 -3.64700 45.35000
H  26.00400 -5.41000 42.99600
H  27.23400 -5.69700 44.24500
H  28.45400 -4.16100 43.07400
H  27.17900 -2.96800 43.58600
H  18.68700 -7.71000 46.42300
H  19.77000 -8.56300 45.29700
H  19.81800 -6.76800 45.52600
H  20.09800 -11.29600 49.92800
H  18.59900 -10.51700 50.45600
H  20.16300 -9.64700 50.75100
H  24.28000 -11.41800 51.29200
H  25.48500 -9.30700 53.07200
H  22.12400 -9.91900 52.31300
H  23.36500 -9.89100 53.57100
H  22.66800 -11.42800 53.01300
H  27.36600 -10.85100 51.60200
H  26.15100 -12.04000 52.18900
H  28.29100 -10.73300 53.42700
H  27.18400 -11.93700 54.15300
H  26.93300 -10.28800 54.46000
H  30.07900 -6.23600 51.57700
H  30.87300 -6.90500 50.12100
H  29.83500 -7.96100 51.16400
H  28.92600 -4.66500 45.79600
H  28.93600 -0.54200 44.85000
H  29.43900 -0.43700 46.59100
H  27.69100 -0.46300 46.12400
Mg 47.00300 34.47000 27.27000
C  45.21900 33.11700 29.93300
C  47.62300 37.25200 29.23800
C  48.14600 36.06000 24.61200
C  45.77600 31.77100 25.27300
N  46.62100 35.03200 29.31700
C  45.90800 34.25300 30.25700
C  46.06900 34.98800 31.71000
C  46.43000 36.42100 31.32700
C  46.92300 36.21200 29.88200
C  45.27100 37.41000 31.32700
C  47.14800 34.22000 32.58000
C  46.87200 34.20100 34.12100
H  45.86200 35.20800 34.72300
N  47.81900 36.34100 27.00900
C  48.08400 37.29600 27.91500
C  48.66000 38.54600 27.30100
C  48.86700 38.26600 25.94100
C  48.27400 36.87200 25.79800
C  49.06200 39.77900 28.12200
C  49.65700 38.98900 24.85800
O  49.86900 38.50500 23.76600
C  50.30600 40.33800 25.16600
N  46.90600 33.98400 25.20900
C  47.56900 34.79500 24.29200
C  47.49400 34.11700 22.86000
C  46.93200 32.74000 23.23100
C  46.47600 32.80100 24.62600
C  46.69800 34.92200 21.81000
C  47.82000 31.47800 22.88300
C  49.21100 31.48300 23.56900
N  45.82900 32.66100 27.47900
C  45.40200 31.58500 26.61800
C  44.51100 30.71100 27.35200
C  44.45800 31.27800 28.59000
C  45.26900 32.39500 28.64900
C  43.77100 29.56100 26.74500
C  43.82900 31.11800 29.86000
O  43.11400 30.20800 30.19800
C  44.06600 32.40100 30.65800
C  44.23500 32.05100 32.02800
O  45.28500 31.72600 32.61200
O  43.00200 32.08000 32.67700
C  42.99700 31.67800 34.10200
H  47.62100 38.18100 29.81200
H  48.46600 36.42600 23.63400
H  45.34400 30.98300 24.65300
H  45.06200 34.98600 32.12700
H  47.20600 36.88200 31.93900
H  45.42300 38.24700 32.00900
H  44.36900 36.91400 31.68500
H  45.03100 37.89700 30.38200
H  48.16400 34.54800 32.35800
H  47.20900 33.28400 32.02600
H  47.71200 34.47600 34.75800
H  46.64200 33.18800 34.45300
H  48.21100 40.05400 28.74500
H  49.32400 40.66700 27.54900
H  49.94100 39.42700 28.66200
H  50.88200 40.61200 24.28200
H  50.91900 40.31700 26.06700
H  49.49700 41.06000 25.27700
H  48.54300 34.00900 22.58700
H  46.05200 32.46600 22.65000
H  45.90600 34.24100 21.49600
H  47.27500 35.10200 20.90300
H  46.30100 35.78800 22.34000
H  47.86100 31.26400 21.81500
H  47.28700 30.55900 23.12900
H  50.03800 31.67600 22.88500
H  49.27700 30.54600 24.12400
H  49.20000 32.22000 24.37200
H  44.46000 29.10400 26.03400
H  42.83200 29.80200 26.24600
H  43.49400 28.81400 27.48800
H  43.18900 33.00400 30.42000
H  43.45600 32.42900 34.74600
H  43.50700 30.72000 34.20000
H  41.95900 31.55200 34.40900

