158

Mg -2.27400 17.10700 26.17800
C  -2.79700 15.21600 29.07300
C  -3.51700 19.78900 27.98200
C  -2.52500 19.15600 23.36800
C  -1.76800 14.40600 24.39200
N  -3.00400 17.50200 28.34400
C  -3.04600 16.51700 29.32200
C  -3.45200 17.23500 30.63600
C  -4.09500 18.51100 30.14400
C  -3.51700 18.64800 28.72500
C  -5.67000 18.49500 30.20600
C  -2.23100 17.34500 31.69000
C  -2.59500 16.83300 33.06400
H  -1.51000 16.39800 34.03000
N  -2.77500 19.16700 25.77700
C  -3.13100 20.08500 26.71000
C  -3.18500 21.44600 26.12400
C  -2.85300 21.26600 24.72600
C  -2.77700 19.81300 24.57100
C  -3.44400 22.76900 26.84900
C  -2.52900 22.28800 23.66300
O  -2.21500 22.00300 22.47300
C  -2.55600 23.68400 24.04800
N  -2.14800 16.84500 24.11400
C  -2.34600 17.72800 23.09600
C  -2.01700 17.05500 21.76700
C  -1.69100 15.56100 22.18000
C  -1.81400 15.60800 23.67600
C  -2.98500 17.30500 20.63900
C  -0.31900 15.08100 21.60600
C  0.96600 15.52600 22.33500
N  -2.16200 15.19100 26.60200
C  -2.03400 14.16400 25.73700
C  -2.23100 12.95700 26.42200
C  -2.42100 13.35300 27.74900
C  -2.40000 14.74100 27.79900
C  -2.27300 11.56200 25.83100
C  -2.66900 12.80400 29.07300
O  -2.70700 11.66300 29.56500
C  -2.90600 14.01000 30.00400
C  -1.91700 13.88000 31.11700
O  -0.69700 14.03800 31.11200
O  -2.59100 13.48300 32.25000
C  -1.87100 13.02500 33.39900
H  -3.91900 20.60800 28.58300
H  -2.62500 19.73200 22.44600
H  -1.40700 13.52700 23.85400
H  -4.20600 16.56600 31.05100
H  -3.89500 19.28500 30.88400
H  -6.06000 18.83000 31.16700
H  -6.00400 17.48500 29.96900
H  -6.03300 19.14300 29.40700
H  -2.02600 18.41200 31.77400
H  -1.30600 16.85100 31.39500
H  -3.29100 15.99600 33.00300
H  -2.90900 17.76300 33.53800
H  -4.22700 23.23800 26.25300
H  -2.57000 23.41100 26.96000
H  -3.85400 22.61500 27.84700
H  -3.57500 23.90000 24.36800
H  -2.16200 24.25500 23.20700
H  -1.90400 23.88200 24.89900
H  -1.20300 17.54600 21.23400
H  -2.45800 14.82900 21.93000
H  -3.20400 18.37200 20.61000
H  -3.88500 16.69100 20.68200
H  -2.63500 17.02200 19.64700
H  -0.33600 15.43700 20.57600
H  -0.28500 13.99200 21.58200
H  0.83900 16.27000 23.12100
H  1.61100 15.87500 21.52900
H  1.40300 14.65700 22.82700
H  -3.15300 11.02700 26.18700
H  -1.36300 10.98000 25.97800
H  -2.45800 11.75600 24.77500
H  -3.90100 13.84900 30.42000
H  -2.41600 13.38800 34.27100
H  -0.87000 13.42700 33.55100
H  -1.72200 11.94800 33.32500
Mg 1.34300 -0.74900 43.87100
C  4.76300 -0.18800 43.23400
C  0.65100 2.13900 42.25100
C  -1.70700 -1.74100 43.57700
C  2.37200 -4.04900 44.88800
N  2.65400 0.71400 42.91000
C  4.02800 0.81500 42.78700
C  4.39600 2.12500 42.02600
C  3.07400 2.85100 41.81900
C  1.99900 1.84500 42.38900
C  2.95100 4.14000 42.68700
C  5.35300 2.00800 40.77700
C  5.09000 0.88500 39.74900
H  5.41700 1.26400 38.31200
N  -0.33000 0.12500 43.19100
C  -0.42700 1.28500 42.56600
C  -1.79900 1.63800 42.39800
C  -2.55200 0.52500 42.87500
C  -1.48500 -0.42900 43.21000
C  -2.34400 2.91300 41.78800
C  -4.04100 0.46500 43.09100
O  -4.72700 1.46800 43.04400
C  -4.94000 -0.72900 43.61800
N  0.55200 -2.65200 43.88100
C  -0.79200 -2.68100 43.92500
C  -1.24600 -4.08800 44.34800
C  -0.03900 -4.70300 45.07500
C  1.00600 -3.78300 44.52100
C  -2.59600 -4.19900 45.23100
C  0.14500 -6.24700 44.92100
C  0.37200 -7.05600 46.21200
N  3.19100 -1.86900 44.24300
C  3.42000 -3.10200 44.72500
C  4.81700 -3.28400 44.99800
C  5.36000 -2.13500 44.40000
C  4.34500 -1.32400 43.89100
C  5.55700 -4.45600 45.61300
C  6.63300 -1.53900 44.07500
O  7.79500 -1.90100 44.29300
C  6.28100 -0.28000 43.25800
C  7.03400 0.89300 43.88500
O  6.57100 1.50300 44.82600
O  8.27800 1.05100 43.41800
C  9.19100 1.85900 44.26000
H  0.35300 3.09300 41.80900
H  -2.77600 -1.95300 43.64500
H  2.64300 -4.93900 45.46100
H  5.03500 2.57000 42.78900
H  3.05800 2.98700 40.73800
H  2.16500 4.03000 43.43400
H  2.63900 4.98100 42.06900
H  3.90900 4.39900 43.13800
H  6.36700 1.84200 41.14000
H  5.31200 3.02500 40.38900
H  4.09000 0.45800 39.83200
H  5.63500 -0.01200 40.04300
H  -3.36900 2.73300 41.46400
H  -1.70800 3.24000 40.96500
H  -2.63800 3.70600 42.47500
H  -4.80700 -1.57100 42.93800
H  -5.98800 -0.44600 43.51600
H  -4.55400 -0.87800 44.62600
H  -1.47500 -4.66100 43.45000
H  -0.14000 -4.31700 46.08900
H  -2.53500 -3.32700 45.88300
H  -2.38200 -5.07300 45.84500
H  -3.59700 -4.22700 44.80100
H  1.06800 -6.49100 44.39400
H  -0.65800 -6.73300 44.36600
H  0.41000 -6.39600 47.07900
H  1.20300 -7.76000 46.25500
H  -0.52600 -7.66000 46.34100
H  5.32400 -5.31800 44.98800
H  5.04800 -4.59600 46.56700
H  6.63500 -4.30200 45.63800
H  6.68400 -0.35500 42.24800
H  9.86800 2.49600 43.69000
H  9.71800 1.09900 44.83600
H  8.74200 2.60400 44.91700

