158

Mg -1.87900 34.65100 27.41700
C  -3.81300 33.00100 29.76200
C  -0.51900 36.53900 29.57500
C  -0.50100 36.45400 24.81500
C  -3.48200 32.74300 24.80100
N  -2.14900 34.62600 29.43600
C  -3.02500 34.00900 30.26000
C  -2.89400 34.39100 31.69500
C  -2.00800 35.70700 31.58000
C  -1.52000 35.62700 30.09700
C  -2.76400 37.02100 31.93000
C  -2.31100 33.23500 32.62200
C  -3.03800 32.76000 33.84500
H  -2.27300 32.62900 35.12300
N  -0.61600 36.25800 27.23900
C  -0.05600 36.82500 28.33200
C  0.97300 37.77000 27.92800
C  0.94100 37.81900 26.49700
C  -0.05800 36.77700 26.09500
C  1.82000 38.60900 28.91500
C  1.75900 38.64200 25.54100
O  1.38200 38.87200 24.43700
C  2.85100 39.52400 25.96900
N  -2.05400 34.72900 25.14100
C  -1.42600 35.60200 24.36200
C  -1.88800 35.44800 22.86600
C  -2.57600 33.96600 22.80500
C  -2.70100 33.80400 24.36600
C  -2.78200 36.67700 22.52000
C  -1.95800 32.92200 22.01500
C  -1.00400 33.26900 20.87000
N  -3.26200 33.12100 27.22800
C  -3.73600 32.39200 26.14900
C  -4.69500 31.37600 26.57200
C  -4.69100 31.51700 27.93700
C  -3.84000 32.61000 28.38000
C  -5.62900 30.50000 25.81100
C  -5.40100 31.12400 29.17600
O  -6.29900 30.29000 29.32400
C  -4.69600 32.02300 30.41500
C  -5.75300 32.60200 31.30500
O  -6.45700 33.59400 31.07600
O  -5.89400 31.83500 32.50400
C  -6.89400 32.35200 33.48500
H  0.01400 37.00700 30.40400
H  -0.03300 37.06800 24.04300
H  -4.08900 32.30400 24.00700
H  -3.89600 34.54100 32.09900
H  -1.15500 35.71600 32.25800
H  -3.22200 36.95200 32.91700
H  -3.51600 37.19500 31.16000
H  -1.99000 37.78700 31.96600
H  -1.28700 33.51400 32.87000
H  -2.14400 32.29500 32.09500
H  -3.68500 31.89200 33.71500
H  -3.85300 33.47900 33.92600
H  1.59400 38.46700 29.97200
H  1.61800 39.63100 28.59400
H  2.88500 38.44000 28.75900
H  3.36700 39.08000 26.82000
H  2.25700 40.34100 26.37700
H  3.53400 39.83800 25.17900
H  -0.97500 35.50000 22.27300
H  -3.60500 34.06600 22.46100
H  -3.12000 37.25000 23.38300
H  -3.74900 36.39400 22.10200
H  -2.25900 37.39000 21.88300
H  -2.78600 32.38100 21.55700
H  -1.42800 32.19900 22.63300
H  -1.16300 32.58000 20.04000
H  0.03600 33.06800 21.12800
H  -1.10700 34.27000 20.45200
H  -5.64100 29.48700 26.21200
H  -5.31600 30.48500 24.76700
H  -6.63100 30.92900 25.84000
H  -4.09300 31.35000 31.02400
H  -7.39500 31.42500 33.76600
H  -7.61900 33.05100 33.06800
H  -6.36900 32.79600 34.33100
Mg -12.56000 17.69700 40.89800
C  -9.48800 16.03800 40.25500
C  -11.03300 20.59200 40.14000
C  -15.68600 19.22200 40.58400
C  -14.19500 14.55900 40.53800
N  -10.49800 18.28400 40.39700
C  -9.36800 17.49600 40.24500
C  -8.03000 18.28500 40.19700
C  -8.61000 19.76300 40.44800
C  -10.14200 19.58600 40.39500
C  -8.05700 20.52300 41.71200
C  -7.42400 18.13100 38.73800
C  -5.85900 17.91100 38.49800
H  -5.39900 16.87900 37.56300
N  -13.29900 19.73300 40.62200
C  -12.44900 20.68000 40.15700
C  -13.24500 21.82100 39.80100
C  -14.57900 21.51600 40.07200
C  -14.61900 20.13600 40.49400
C  -12.61900 23.21200 39.37100
C  -15.70100 22.48300 39.83000
O  -15.57400 23.60600 39.52800
C  -17.11800 22.06600 40.11500
N  -14.56600 17.02200 40.74800
C  -15.64200 17.83500 40.77300
C  -16.99400 17.12800 40.57600
C  -16.53100 15.67700 40.27500
C  -14.99500 15.73800 40.52500
C  -18.03000 17.21500 41.73600
C  -16.77900 15.21300 38.77300
C  -18.20800 14.67700 38.41600
N  -11.96500 15.71400 40.64500
C  -12.76800 14.54000 40.56000
C  -11.89900 13.43100 40.45000
C  -10.60100 13.96500 40.33600
C  -10.71400 15.32800 40.41700
C  -12.23900 11.96300 40.52800
C  -9.13700 13.63600 40.26400
O  -8.63900 12.55200 40.01900
C  -8.36600 15.03700 40.26000
C  -7.54200 15.20600 41.45200
O  -7.95500 15.43300 42.55400
O  -6.24800 15.28900 41.00800
C  -5.21000 15.37100 42.03300
H  -10.46400 21.44700 39.77000
H  -16.69500 19.58500 40.38000
H  -14.63600 13.59000 40.29900
H  -7.34600 17.99600 40.99500
H  -8.36400 20.46000 39.64700
H  -8.41400 21.55000 41.79800
H  -6.96700 20.53600 41.69900
H  -8.44200 19.94700 42.55300
H  -7.60700 18.95600 38.04900
H  -7.87300 17.28400 38.21900
H  -5.43800 17.78200 39.49500
H  -5.49600 18.91900 38.29700
H  -12.78700 23.48000 38.32800
H  -11.59200 23.23200 39.73700
H  -13.12100 23.90800 40.04400
H  -17.46000 21.24500 39.48600
H  -17.75600 22.94000 39.99100
H  -17.27300 21.59800 41.08700
H  -17.50300 17.46000 39.67200
H  -17.08000 14.97400 40.90100
H  -18.09400 16.22800 42.19400
H  -18.95700 17.57500 41.28900
H  -17.78600 18.06200 42.37600
H  -16.09400 14.51600 38.29100
H  -16.64800 16.12200 38.18600
H  -18.73400 15.38600 37.77700
H  -18.66600 14.62800 39.40400
H  -18.07200 13.70100 37.95200
H  -11.46400 11.39600 41.04200
H  -12.28200 11.43800 39.57300
H  -13.12300 11.71300 41.11400
H  -7.72200 15.18600 39.39300
H  -5.52800 14.96600 42.99400
H  -4.97500 16.43500 42.02900
H  -4.35300 14.80200 41.67200

