158

Mg 24.84600 1.79200 30.20900
C  27.14100 1.43100 32.81000
C  22.43400 2.38500 32.38100
C  22.65800 1.67500 27.62000
C  27.34700 0.65300 28.01000
N  24.80500 1.90500 32.35200
C  25.86700 1.91500 33.25300
C  25.46900 2.38600 34.59100
C  23.90300 2.43000 34.52700
C  23.65300 2.19900 32.98000
C  23.25100 1.41900 35.48400
C  26.05900 3.71600 35.03200
C  27.30700 3.69200 35.92700
H  27.16100 4.28800 37.34000
N  22.81100 2.04300 30.07300
C  22.01700 2.32000 31.09800
C  20.64500 2.48200 30.64600
C  20.64700 2.09700 29.28200
C  22.11600 1.98900 28.87900
C  19.48500 2.82600 31.50300
C  19.45400 1.96800 28.31400
O  19.55800 1.70100 27.09600
C  18.06400 2.07700 28.78000
N  25.02300 1.26700 28.10000
C  23.93300 1.32500 27.26500
C  24.28600 0.85700 25.83900
C  25.76600 0.41600 26.01500
C  26.06500 0.77700 27.47800
C  23.33500 -0.18600 25.17500
C  26.68700 1.15900 25.02900
C  27.29300 2.48700 25.43900
N  26.90100 1.22300 30.30600
C  27.81200 0.70700 29.33600
C  29.13300 0.40000 29.91500
C  28.91700 0.73000 31.30500
C  27.52100 1.11300 31.51700
C  30.36400 -0.19800 29.27700
C  29.54500 0.87700 32.61900
O  30.72800 0.70900 32.94500
C  28.49900 1.11900 33.60700
C  28.46000 0.12800 34.73600
O  27.62800 -0.75400 34.83500
O  29.42300 0.39200 35.68300
C  29.27600 -0.34200 36.96800
H  21.66600 2.66600 33.10500
H  22.00000 1.82400 26.76200
H  28.17300 0.37100 27.35400
H  25.81800 1.55500 35.20500
H  23.54900 3.41100 34.84700
H  22.39300 0.96900 34.98400
H  22.88400 1.87300 36.40400
H  23.95900 0.64900 35.79000
H  25.31500 4.28100 35.59200
H  26.24700 4.29000 34.12500
H  28.12200 4.25200 35.46800
H  27.80500 2.72400 35.98900
H  19.71000 3.04100 32.54700
H  18.81300 1.97300 31.59800
H  19.01000 3.70400 31.06600
H  17.89700 1.23800 29.45600
H  17.37500 1.98300 27.94000
H  17.97000 3.04400 29.27400
H  24.26600 1.67300 25.11700
H  25.98500 -0.64200 25.87500
H  23.81700 -1.16200 25.22900
H  22.97300 -0.05800 24.15500
H  22.40600 -0.36000 25.71900
H  26.15000 1.18400 24.08100
H  27.53900 0.49500 24.88600
H  28.37500 2.39700 25.53500
H  26.83700 2.89000 26.34300
H  27.12900 3.25500 24.68200
H  31.05800 0.53000 28.85500
H  30.12700 -0.86300 28.44700
H  30.89100 -0.68100 30.09900
H  28.84400 2.07000 34.01300
H  30.16100 -0.17400 37.58200
H  28.93300 -1.37700 36.96500
H  28.50900 0.17100 37.54800
Mg 16.95500 51.73400 26.37200
C  18.92500 50.58100 29.08400
C  14.59100 52.49800 28.61700
C  15.38600 52.84700 23.88000
C  19.37400 50.20400 24.19700
N  16.85800 51.62400 28.58600
C  17.67800 51.02100 29.43100
C  17.06800 50.85300 30.85100
C  15.52900 51.12900 30.61300
C  15.62200 51.75100 29.18900
C  14.64100 49.88600 30.60700
C  17.69800 51.76400 31.91400
C  18.00400 51.23300 33.36400
H  17.13000 51.94900 34.34700
N  15.17100 52.63000 26.29900
C  14.38300 53.05300 27.30800
C  13.45700 54.01300 26.81700
C  13.65000 54.15900 25.44400
C  14.73600 53.15700 25.12300
C  12.43100 54.67500 27.74800
C  12.90700 55.05900 24.46600
O  13.25300 55.05900 23.29100
C  11.92600 55.98700 24.91700
N  17.18100 51.38800 24.32400
C  16.36800 51.93900 23.48600
C  16.76100 51.76500 22.01700
C  18.19700 51.09800 22.11800
C  18.27200 50.87400 23.60800
C  15.84500 51.09900 20.99500
C  19.35700 51.82700 21.53700
C  20.27800 51.20600 20.40600
N  18.77700 50.64000 26.56900
C  19.59700 50.04700 25.58800
C  20.74000 49.39700 26.24700
C  20.57000 49.60000 27.58200
C  19.27800 50.29900 27.75000
C  21.96000 48.72600 25.66100
C  21.12500 49.40700 28.87000
O  22.27500 49.04000 29.19800
C  20.05800 49.98100 29.89100
C  19.74300 48.70500 30.57200
O  19.12700 47.75900 30.14500
O  20.29000 48.76000 31.83800
C  20.10800 47.51800 32.58700
H  13.66300 52.54100 29.19100
H  14.90000 53.30600 23.01600
H  20.18500 49.89700 23.53300
H  17.18100 49.84500 31.25000
H  15.13200 51.79000 31.38300
H  14.92000 49.15300 29.85000
H  13.65000 50.23500 30.31500
H  14.61000 49.56000 31.64700
H  16.99500 52.58200 32.06900
H  18.51500 52.34500 31.48600
H  19.07800 51.33400 33.51800
H  17.82700 50.16600 33.23100
H  12.66900 55.72800 27.59800
H  12.35900 54.23100 28.74100
H  11.40000 54.56500 27.41400
H  11.21400 55.40300 25.50000
H  11.46200 56.26000 23.96900
H  12.31300 56.84500 25.46600
H  16.79400 52.80700 21.69900
H  18.08800 50.11200 21.66600
H  16.42200 50.41800 20.37000
H  15.13000 51.77500 20.52300
H  15.26600 50.40800 21.60800
H  20.00800 52.12100 22.36100
H  18.90900 52.69900 21.06100
H  21.31700 51.43300 20.64200
H  19.99900 51.65300 19.45200
H  20.19000 50.12900 20.26200
H  22.64600 48.28000 26.38200
H  22.44900 49.44100 25.00000
H  21.60800 47.87000 25.08600
H  20.40200 50.70000 30.63500
H  20.70800 47.75000 33.46700
H  20.35800 46.66900 31.95100
H  19.03400 47.48100 32.76700

