158

Mg 30.12000 58.38000 40.80200
C  27.41800 56.55700 39.64700
C  32.27100 56.02500 39.32500
C  32.73800 60.51400 41.36800
C  27.84100 61.06400 41.51800
N  29.89000 56.52600 39.71000
C  28.67300 55.99700 39.29000
C  28.88700 54.80900 38.43900
C  30.39700 54.46700 38.51000
C  30.91800 55.73600 39.28700
C  30.87200 53.18000 39.16600
C  28.41000 55.14900 37.01400
C  27.35500 54.17800 36.36400
H  26.51300 54.84200 35.30000
N  32.26900 58.29200 40.40900
C  32.97100 57.18000 39.87300
C  34.36500 57.47400 39.88500
C  34.47500 58.79900 40.50500
C  33.18400 59.25700 40.80700
C  35.42300 56.67200 39.28300
C  35.80700 59.47400 41.00000
O  36.83400 58.90200 40.70000
C  35.89500 60.75100 41.86300
N  30.27100 60.46900 41.25100
C  31.50900 61.07400 41.53500
C  31.35500 62.58600 41.76100
C  29.75900 62.74500 41.82600
C  29.22600 61.32400 41.62900
C  32.19600 63.09300 42.98800
C  29.16300 63.84500 40.88700
C  27.92800 64.57900 41.41800
N  28.00500 58.72200 40.87900
C  27.24800 59.87600 41.09100
C  25.88800 59.54700 40.87300
C  25.91500 58.24000 40.36600
C  27.22900 57.77600 40.28300
C  24.63700 60.30400 41.07300
C  25.01200 57.13600 39.94600
O  23.82000 56.98500 39.95200
C  26.01000 56.05700 39.32300
C  25.69400 54.74200 39.98400
O  26.18500 54.44600 41.05500
O  24.78700 54.10200 39.28900
C  24.35300 52.80800 39.89500
H  32.85500 55.18700 38.93800
H  33.44700 61.33400 41.50400
H  27.22100 61.92000 41.79200
H  28.31000 53.96100 38.80900
H  30.76700 54.41900 37.48600
H  31.44800 53.29200 40.08400
H  31.46700 52.69300 38.39300
H  30.14000 52.41500 39.42200
H  29.19900 55.03600 36.27000
H  27.97200 56.14200 36.91900
H  26.82200 53.42000 36.93900
H  27.88200 53.48900 35.70400
H  36.15000 56.35000 40.02900
H  35.92200 57.27900 38.52900
H  35.02000 55.82200 38.73200
H  35.26200 60.56000 42.72900
H  35.56300 61.65400 41.35000
H  36.93600 60.81700 42.18100
H  31.67900 63.09200 40.85200
H  29.45500 62.95600 42.85100
H  32.39400 62.20300 43.58500
H  31.67600 63.86300 43.55700
H  33.13700 63.59600 42.76500
H  28.88200 63.39900 39.93300
H  29.91300 64.60900 40.68200
H  28.14400 65.64600 41.47000
H  27.63400 64.23700 42.41000
H  27.02800 64.49100 40.81000
H  24.67100 61.29100 41.53500
H  23.87600 59.74200 41.61400
H  24.14100 60.41400 40.10900
H  25.72000 56.00400 38.27400
H  25.25500 52.20300 39.98300
H  23.67400 52.33600 39.18600
H  23.93400 52.86500 40.89900
Mg 6.89400 54.30300 41.83100
C  6.52700 50.89600 41.50300
C  10.26600 53.96300 40.71000
C  7.20000 57.72100 41.69200
C  3.52400 54.55200 42.89400
N  8.19300 52.56800 41.16900
C  7.87400 51.24000 41.12700
C  9.11800 50.41500 40.66300
C  10.29600 51.45200 40.85900
C  9.51300 52.77300 40.78900
C  10.97000 51.30800 42.25700
C  9.06800 49.86600 39.22000
C  8.47500 50.79700 38.10900
H  8.00500 50.18500 36.86500
N  8.50900 55.62700 41.24400
C  9.77200 55.29600 40.78700
C  10.57700 56.48300 40.62500
C  9.77900 57.57000 41.04900
C  8.44800 57.01900 41.39000
C  12.02600 56.43800 40.09600
C  10.23300 59.00700 41.15200
O  11.39600 59.28900 40.86600
C  9.39500 60.15700 41.73900
N  5.46900 55.89300 41.99600
C  5.85100 57.22700 41.93300
C  4.66600 58.11800 42.28700
C  3.54600 57.14600 42.77100
C  4.18000 55.76100 42.49200
C  4.92000 59.45300 43.12900
C  2.16200 57.32200 41.98100
C  2.09800 56.90300 40.53500
N  5.34300 53.07700 42.22600
C  4.08200 53.22400 42.63400
C  3.43800 51.95300 42.87600
C  4.38000 51.00700 42.47100
C  5.49400 51.74100 41.99800
C  2.18000 51.79900 43.56400
C  4.59200 49.58300 42.35800
O  3.97300 48.62500 42.66900
C  5.92700 49.48500 41.57800
C  5.89200 48.67000 40.31600
O  5.59300 49.05600 39.20900
O  6.16600 47.34600 40.63200
C  6.02100 46.40800 39.50600
H  11.33200 53.77400 40.57000
H  7.23900 58.78300 41.44300
H  2.50700 54.80200 43.20200
H  9.15700 49.53500 41.30500
H  10.99200 51.34800 40.02600
H  10.50300 50.47600 42.78500
H  10.82100 52.30400 42.67400
H  12.02900 51.07400 42.14300
H  8.66600 48.85400 39.26200
H  10.11600 49.79900 38.92700
H  9.37200 51.40500 38.00200
H  7.70900 51.41000 38.58400
H  12.06200 57.23000 39.34800
H  12.38700 55.50600 39.66200
H  12.79300 56.67400 40.83400
H  9.88600 61.12200 41.86600
H  9.05000 59.86900 42.73200
H  8.49900 60.29200 41.13400
H  4.29100 58.60600 41.38700
H  3.35800 57.24000 43.84100
H  4.23000 59.47100 43.97200
H  4.71800 60.31800 42.49700
H  5.97400 59.50900 43.40100
H  1.93500 58.38600 41.90700
H  1.42200 56.69200 42.47400
H  1.44900 56.03200 40.44400
H  3.06300 56.78600 40.04200
H  1.60800 57.74200 40.04100
H  2.37500 51.66800 44.62800
H  1.71600 50.87300 43.22400
H  1.51900 52.64500 43.37400
H  6.68400 48.92700 42.12900
H  6.56900 45.48300 39.68600
H  6.31100 46.89200 38.57300
H  4.94700 46.23200 39.43300

