158

Mg 9.06500 2.16200 27.59000
C  10.44500 0.96600 30.63700
C  6.90400 4.13500 29.58000
C  7.50000 2.96500 24.82300
C  10.70600 -0.46500 25.94900
N  8.82600 2.62400 29.91400
C  9.50600 2.02400 30.91200
C  9.13500 2.72600 32.26900
C  8.00900 3.77800 31.92100
C  7.91100 3.53800 30.38100
C  6.74500 3.72200 32.77200
C  10.46700 3.37500 32.81000
C  10.28500 4.46700 33.91600
H  10.96300 4.22600 35.25300
N  7.49300 3.36100 27.26700
C  6.69200 4.06400 28.18100
C  5.79000 4.95200 27.42200
C  6.08300 4.71400 26.04500
C  7.11900 3.67000 26.01600
C  4.76200 5.86900 28.15700
C  5.55100 5.47700 24.86700
O  5.99500 5.47400 23.74500
C  4.38300 6.41900 25.12100
N  9.12600 1.35300 25.66100
C  8.41600 1.91300 24.64700
C  8.84600 1.35800 23.23000
C  9.78500 0.25000 23.62800
C  9.93800 0.37700 25.16400
C  7.70700 1.10000 22.11600
C  11.08100 0.19400 22.96100
C  11.11500 -0.71000 21.67500
N  10.26100 0.54600 28.18800
C  10.91400 -0.34200 27.38800
C  11.86900 -1.13000 28.21600
C  11.64800 -0.71900 29.50900
C  10.73600 0.39300 29.42000
C  12.86700 -2.18600 27.85100
C  12.08400 -0.86200 30.92100
O  12.92600 -1.52800 31.42000
C  11.30800 0.25300 31.69400
C  10.51400 -0.42200 32.70800
O  9.52600 -1.00800 32.47800
O  11.17300 -0.24000 33.93800
C  10.31900 -0.42600 35.10900
H  6.01000 4.49700 30.09200
H  7.04200 3.26400 23.87700
H  11.30200 -1.23300 25.45200
H  8.93800 2.01300 33.07000
H  8.45500 4.77000 31.99100
H  5.85800 3.42300 32.21300
H  6.61500 4.65400 33.32200
H  6.75200 2.96100 33.55300
H  10.99100 3.82900 31.96900
H  11.04300 2.57700 33.27800
H  9.22600 4.61000 34.13200
H  10.70800 5.37900 33.49600
H  4.92600 6.89000 27.81300
H  4.89800 5.97100 29.23400
H  3.69300 5.68600 28.04800
H  4.67800 7.24500 25.76800
H  3.59700 5.83700 25.60100
H  4.14000 6.90400 24.17600
H  9.55100 2.16700 23.03900
H  9.04300 -0.51600 23.40400
H  7.62100 2.02700 21.54900
H  6.72500 0.82600 22.50200
H  7.98300 0.36300 21.36100
H  11.90200 -0.18100 23.57200
H  11.37600 1.18300 22.60800
H  11.17700 -0.11600 20.76400
H  10.29100 -1.40900 21.53200
H  11.98700 -1.34200 21.84700
H  13.61100 -2.32700 28.63500
H  13.40600 -1.82700 26.97400
H  12.35700 -3.11300 27.59000
H  12.02500 1.01200 32.00600
H  10.02000 -1.47200 35.05600
H  9.47400 0.26200 35.13600
H  10.88000 -0.26400 36.03000
Mg 47.01800 16.25500 28.14500
C  44.86500 16.03800 30.93600
C  49.47100 17.59100 30.21800
C  48.62000 17.39500 25.33800
C  44.48400 14.90400 26.19800
N  46.97400 16.90900 30.26700
C  46.08300 16.68500 31.31300
C  46.69100 17.09100 32.73300
C  48.10200 17.68700 32.36700
C  48.20900 17.34300 30.80100
C  48.27600 19.21600 32.76500
C  46.76100 15.91200 33.85900
C  46.29300 16.16500 35.27400
H  46.24600 17.54100 35.87200
N  48.80500 17.26400 27.83300
C  49.72300 17.73100 28.79700
C  50.90800 18.19900 28.16700
C  50.71600 18.20700 26.77100
C  49.39200 17.53700 26.55800
C  52.08200 18.57600 28.97400
C  51.74300 18.65000 25.68200
O  51.51400 18.40500 24.52400
C  53.01100 19.39800 26.02800
N  46.66300 16.12000 26.12700
C  47.41200 16.71300 25.07000
C  46.77600 16.54400 23.71700
C  45.67300 15.44000 24.00500
C  45.62300 15.43200 25.55700
C  46.18500 17.84900 23.28900
C  46.02800 13.93100 23.56600
C  44.76100 13.13300 23.00700
N  45.11600 15.61800 28.41700
C  44.24100 14.98500 27.55400
C  43.08500 14.59500 28.23200
C  43.25700 14.92800 29.56100
C  44.51500 15.61300 29.63200
C  41.93800 13.80500 27.62000
C  42.72600 14.87200 30.95400
O  41.68000 14.46700 31.46300
C  43.77600 15.62900 31.87600
C  43.03400 16.78500 32.51600
O  42.57200 17.76200 31.91300
O  42.91200 16.61400 33.83700
C  42.03800 17.67200 34.51800
H  50.37500 17.82300 30.78400
H  49.11700 17.80400 24.45500
H  43.78900 14.52700 25.44500
H  46.08700 17.91600 33.11200
H  48.72700 17.11300 33.05100
H  47.33500 19.53900 33.21000
H  48.49500 19.77200 31.85300
H  49.08800 19.30400 33.48800
H  47.79200 15.56700 33.93300
H  46.28100 15.07500 33.35300
H  46.92700 15.52100 35.88300
H  45.29700 15.72200 35.28200
H  51.98600 18.40100 30.04500
H  52.25900 19.65000 28.91700
H  52.93100 18.00700 28.59400
H  53.63600 18.69400 26.57800
H  52.77000 20.32800 26.54300
H  53.53100 19.56000 25.08400
H  47.56100 16.23400 23.02600
H  44.67300 15.68700 23.65000
H  45.10000 17.75700 23.22800
H  46.74000 18.09000 22.38300
H  46.48300 18.57000 24.05000
H  46.50000 13.41300 24.40200
H  46.84000 13.97900 22.84000
H  44.53100 12.16100 23.44400
H  44.94400 12.88900 21.96000
H  43.83300 13.70500 23.04600
H  41.20600 13.71700 28.42300
H  42.36900 12.86300 27.28200
H  41.43300 14.36000 26.83000
H  44.20300 14.98600 32.64600
H  41.65800 18.53700 33.97400
H  42.45100 17.99400 35.47500
H  41.09500 17.19800 34.79000

