158

Mg 24.60100 -8.14700 47.83800
C  27.22200 -5.95400 46.53400
C  22.74000 -6.95500 45.16200
C  22.41900 -10.49800 48.44700
C  27.02600 -9.56100 49.97500
N  24.93700 -6.48400 46.18300
C  26.07900 -5.83300 45.78700
C  25.83200 -4.86800 44.61200
C  24.35700 -5.16000 44.28700
C  23.94800 -6.24000 45.28700
C  23.35000 -3.88800 44.18700
C  26.86800 -5.16800 43.45900
C  27.70000 -3.92900 43.02400
H  27.57100 -3.58000 41.49300
N  22.84000 -8.68900 46.91300
C  22.17900 -8.01800 45.89200
C  20.85800 -8.62400 45.61300
C  20.77800 -9.73100 46.54700
C  22.02500 -9.66500 47.37300
C  19.95600 -8.15100 44.42100
C  19.52700 -10.70800 46.71400
O  18.51100 -10.63600 46.01400
C  19.50900 -11.76200 47.71500
N  24.77500 -9.84000 49.09400
C  23.59800 -10.56600 49.23500
C  23.83700 -11.65400 50.29500
C  25.31800 -11.36900 50.79400
C  25.77800 -10.22900 49.86000
C  22.71800 -11.83700 51.39700
C  26.26600 -12.58600 50.76500
C  27.12200 -12.78200 52.00700
N  26.65600 -7.78300 48.26300
C  27.45100 -8.41400 49.17100
C  28.77700 -7.78100 49.22100
C  28.69400 -6.79600 48.22300
C  27.40800 -6.81600 47.62700
C  29.95700 -8.12000 50.04700
C  29.34700 -5.69300 47.61600
O  30.43000 -5.22800 47.93400
C  28.42800 -5.10100 46.48700
C  28.11800 -3.66100 46.72600
O  27.19300 -3.22200 47.43500
O  28.87400 -2.92300 45.88600
C  28.64200 -1.46200 46.04100
H  22.14900 -6.58700 44.32000
H  21.70900 -11.29300 48.68700
H  27.69900 -9.73300 50.81700
H  25.85900 -3.92300 45.15500
H  24.30400 -5.75200 43.37300
H  23.95900 -3.01400 44.41500
H  22.65800 -3.98000 45.02400
H  22.81300 -3.80600 43.24100
H  26.35300 -5.59500 42.59900
H  27.61800 -5.84900 43.86100
H  28.72800 -4.12900 43.32600
H  27.63900 -3.02000 43.62300
H  19.96400 -8.85300 43.58700
H  20.13700 -7.15300 44.02200
H  18.89600 -8.10700 44.67200
H  20.31800 -12.40800 47.37500
H  18.51700 -12.19400 47.58900
H  19.56900 -11.46200 48.76200
H  23.74500 -12.59000 49.74300
H  25.31800 -10.94300 51.79700
H  23.04400 -12.06300 52.41200
H  22.03100 -12.64300 51.13900
H  22.17400 -10.89500 51.45600
H  26.93200 -12.58200 49.90200
H  25.67100 -13.49200 50.65600
H  26.85600 -13.74000 52.45400
H  27.06100 -12.03300 52.79600
H  28.15900 -12.81500 51.67500
H  30.26400 -7.23400 50.60100
H  30.79600 -8.43500 49.42600
H  29.79600 -8.80400 50.88100
H  29.00700 -5.19700 45.56800
H  29.23000 -0.74400 45.46900
H  28.84100 -1.21500 47.08400
H  27.61600 -1.16900 45.82000
Mg 41.13500 7.86700 28.67600
C  42.83200 9.23200 31.51600
C  38.79200 6.44700 30.69700
C  39.88300 6.33000 25.97100
C  43.96700 8.77700 26.74800
N  40.87800 7.85100 30.88100
C  41.62000 8.57400 31.83700
C  40.97800 8.42100 33.23800
C  39.72100 7.55200 32.95100
C  39.72500 7.30800 31.37700
C  39.68800 6.13500 33.65200
C  40.55100 9.81800 33.79400
C  39.93100 9.88100 35.19600
H  40.60500 10.59800 36.39300
N  39.52700 6.71100 28.41000
C  38.61400 6.25700 29.31700
C  37.57600 5.49100 28.65100
C  37.79900 5.66300 27.20300
C  39.13400 6.24700 27.13700
C  36.46000 4.71900 29.29600
C  37.01200 5.12300 25.99500
O  37.30400 5.26100 24.81200
C  35.65600 4.43600 26.26000
N  41.87700 7.53600 26.66400
C  41.16500 6.82100 25.72700
C  41.88300 6.77000 24.43800
C  43.27700 7.51100 24.70500
C  43.01100 8.05900 26.10000
C  42.08200 5.35200 23.80400
C  43.61600 8.60300 23.64100
C  43.94200 8.08900 22.24900
N  42.89400 8.89800 28.95600
C  43.89700 9.20500 28.08400
C  45.00400 9.98900 28.80300
C  44.57900 9.95200 30.14000
C  43.37400 9.21000 30.19800
C  46.27200 10.56300 28.24600
C  44.88600 10.34800 31.47600
O  45.88500 10.88300 31.88200
C  43.80200 9.90100 32.42200
C  44.33500 9.03100 33.48900
O  44.86500 7.94000 33.29700
O  44.01500 9.50000 34.73800
C  44.64600 8.72400 35.84800
H  38.10400 5.88200 31.33000
H  39.40800 5.76000 25.17000
H  44.77000 9.17000 26.12200
H  41.70700 7.92000 33.87400
H  38.82400 8.09500 33.25000
H  40.57500 6.03800 34.27800
H  39.71300 5.26500 32.99700
H  38.83000 5.93100 34.29200
H  39.84500 10.23100 33.07400
H  41.32200 10.58400 33.88000
H  39.83800 8.84200 35.51300
H  38.92200 10.29300 35.20500
H  36.41600 4.90700 30.36900
H  36.60400 3.66200 29.07200
H  35.63300 5.20100 28.77700
H  35.87600 3.67800 27.01200
H  35.30300 4.10000 25.28500
H  35.04600 5.27900 26.58700
H  41.34600 7.38400 23.71500
H  44.18300 6.90900 24.77800
H  41.51300 4.51100 24.20200
H  43.13900 5.08700 23.81700
H  41.64100 5.44100 22.81100
H  44.33600 9.37400 23.91400
H  42.77700 9.26500 23.42500
H  43.27000 8.54200 21.52000
H  43.82400 7.00600 22.26000
H  44.97800 8.36800 22.05400
H  46.98000 10.94700 28.98100
H  45.97300 11.30200 27.50200
H  46.86400 9.90300 27.61200
H  43.38300 10.77400 32.92100
H  44.40600 7.66100 35.83300
H  44.53400 9.11600 36.85900
H  45.71400 8.72800 35.63300

