158

Mg 25.46600 1.08400 29.30600
C  27.48700 0.66700 32.08500
C  22.64200 1.14400 31.34800
C  23.55800 0.88700 26.44300
C  28.23700 0.49400 27.23600
N  25.16000 0.83400 31.44300
C  26.10800 0.80800 32.41700
C  25.50000 0.85800 33.82600
C  23.94600 1.05100 33.54500
C  23.86500 1.00000 32.03800
C  22.98100 -0.00100 34.21200
C  26.07600 2.10200 34.75500
C  25.92000 1.83300 36.26200
H  25.46200 2.99700 37.15500
N  23.35800 1.05500 28.99300
C  22.39000 1.23300 29.96400
C  21.13300 1.44800 29.27900
C  21.39900 1.24500 27.83600
C  22.83500 1.01700 27.71900
C  19.92800 1.78600 30.06900
C  20.36400 1.20500 26.69300
O  20.67300 0.89400 25.51900
C  18.92600 1.54500 27.09800
N  25.84200 0.66300 27.03100
C  24.86800 0.74500 26.14800
C  25.52600 0.60000 24.75300
C  27.05600 0.67200 24.94900
C  27.07400 0.63400 26.45400
C  25.00000 -0.65900 24.03300
C  27.76200 1.85700 24.28500
C  28.18000 1.61700 22.86500
N  27.40600 0.70400 29.55800
C  28.46100 0.52200 28.60400
C  29.75700 0.32100 29.32200
C  29.44600 0.41300 30.70400
C  28.05500 0.65000 30.77500
C  31.09500 0.00100 28.66000
C  29.94100 0.40400 32.08500
O  31.08600 0.38100 32.48700
C  28.66300 0.45100 33.02000
C  28.54400 -0.65200 33.92000
O  28.13900 -1.79900 33.64500
O  28.79700 -0.31800 35.18600
C  28.26800 -1.25900 36.22000
H  21.76200 1.38300 31.94800
H  22.98400 1.00700 25.52100
H  29.16000 0.29100 26.68800
H  25.73500 -0.11500 34.25900
H  23.66900 2.04800 33.88700
H  23.01000 -0.03400 35.30100
H  23.01000 -1.00600 33.78900
H  21.99500 0.40700 33.99100
H  25.51500 3.02700 34.62200
H  27.10500 2.28000 34.44200
H  26.91800 1.65500 36.66200
H  25.31400 0.95800 36.50100
H  20.22100 2.37300 30.93900
H  19.55400 0.87100 30.52800
H  19.22400 2.39800 29.50500
H  18.34500 1.29700 26.20900
H  18.81600 2.59000 27.39100
H  18.57900 0.87400 27.88300
H  25.25800 1.37700 24.03700
H  27.54200 -0.27300 24.70200
H  25.77400 -1.42600 23.99100
H  24.65800 -0.40900 23.02900
H  24.22700 -1.10700 24.65800
H  28.62300 2.11200 24.90200
H  27.27100 2.81600 24.44600
H  27.79700 2.40900 22.22200
H  27.73600 0.72300 22.42700
H  29.27000 1.64400 22.89200
H  31.67700 0.88600 28.40500
H  30.90600 -0.56200 27.74600
H  31.66600 -0.67000 29.30200
H  28.98800 1.28400 33.64300
H  29.05200 -1.28200 36.97600
H  28.04600 -2.25300 35.83200
H  27.38400 -0.79900 36.66300
Mg -1.17800 33.95800 26.32200
C  -2.91800 32.41800 28.82800
C  0.34700 36.03200 28.72500
C  0.42800 35.43600 23.89800
C  -2.84100 31.88700 23.97500
N  -1.19700 34.17400 28.53700
C  -1.99800 33.37600 29.28600
C  -1.77200 33.79200 30.76700
C  -0.91500 35.07100 30.75500
C  -0.55000 35.14100 29.25300
C  -1.64800 36.35100 31.28000
C  -1.15000 32.58300 31.61000
C  -1.97800 32.18200 32.83300
H  -1.16600 31.93700 34.10900
N  0.24700 35.49200 26.26000
C  0.71200 36.26300 27.33000
C  1.77600 37.17200 26.84400
C  1.98100 36.83400 25.44200
C  0.90800 35.87000 25.16500
C  2.56000 38.10000 27.75000
C  2.99600 37.15700 24.38000
O  3.00300 36.72800 23.24600
C  4.11100 38.01300 24.72600
N  -1.37400 33.79700 24.22000
C  -0.61500 34.53300 23.43800
C  -0.86600 34.20400 21.94400
C  -1.76000 32.98200 21.96500
C  -1.99900 32.84700 23.48300
C  -1.36600 35.42100 21.11300
C  -1.20500 31.81300 21.23800
C  -0.53600 30.70900 22.09800
N  -2.71300 32.62900 26.32100
C  -3.24900 31.79600 25.31300
C  -4.16300 30.80300 25.84100
C  -4.04800 31.04800 27.24900
C  -3.19100 32.14100 27.47500
C  -4.93500 29.77600 25.02900
C  -4.64800 30.59500 28.49600
O  -5.51700 29.77800 28.65800
C  -3.85000 31.45100 29.61300
C  -4.82400 32.26000 30.37100
O  -5.46900 33.18300 29.87800
O  -4.97800 31.74200 31.70300
C  -6.12100 32.37700 32.36500
H  0.92700 36.53900 29.49900
H  0.91700 35.76600 22.97900
H  -3.30500 31.27700 23.19700
H  -2.80600 33.99100 31.05000
H  -0.03400 34.92100 31.38000
H  -1.81000 37.07400 30.48000
H  -0.99700 36.78600 32.03800
H  -2.60800 36.14600 31.75400
H  -0.07700 32.60400 31.79800
H  -1.16200 31.72600 30.93600
H  -2.43100 31.23000 32.55600
H  -2.70900 32.95900 33.05700
H  2.13600 38.20100 28.74900
H  2.54600 39.10800 27.33500
H  3.60200 37.79600 27.85100
H  3.86900 38.62700 25.59300
H  4.37200 38.63500 23.86900
H  5.02200 37.45900 24.94800
H  0.11800 33.94800 21.54900
H  -2.70500 33.02600 21.42500
H  -1.30600 36.35400 21.67200
H  -2.42500 35.18600 21.00200
H  -0.82600 35.43700 20.16600
H  -0.54900 32.15000 20.43500
H  -1.98800 31.27500 20.70400
H  -1.19200 29.85000 22.23900
H  -0.27400 31.11100 23.07600
H  0.34400 30.39600 21.53500
H  -4.30900 29.31000 24.26900
H  -5.64700 30.41200 24.50200
H  -5.49900 29.02800 25.58500
H  -3.39200 30.86000 30.40600
H  -5.65800 33.25400 32.81700
H  -6.61800 31.81500 33.15600
H  -6.84500 32.80200 31.66900

