158

Mg 24.38300 -7.79400 46.83300
C  26.16500 -5.12800 45.39500
C  21.68000 -7.15200 44.78900
C  23.01800 -10.70000 47.76100
C  27.39400 -8.77600 48.28300
N  24.00200 -6.34100 45.30100
C  24.94700 -5.39300 44.81300
C  24.23500 -4.58700 43.65700
C  22.69800 -4.95000 43.79200
C  22.80500 -6.24700 44.64400
C  21.78700 -3.91300 44.42800
C  24.92100 -4.77500 42.22400
C  25.39100 -3.46000 41.59800
H  24.61600 -3.00200 40.36500
N  22.53200 -8.73500 46.41600
C  21.59700 -8.32600 45.51700
C  20.45500 -9.21600 45.56800
C  20.72200 -10.15700 46.56300
C  22.11700 -9.95100 46.95100
C  19.18000 -9.04700 44.62900
C  19.75600 -11.13300 47.01800
O  18.62500 -11.09100 46.60500
C  20.07000 -12.18600 47.99400
N  25.12800 -9.48200 47.74600
C  24.37000 -10.51000 48.07000
C  25.05500 -11.64600 48.84100
C  26.45100 -11.10000 49.00100
C  26.36200 -9.73500 48.25500
C  24.42900 -12.12500 50.18800
C  27.50700 -12.05900 48.47100
C  28.77300 -12.22400 49.33200
N  26.42100 -7.06800 46.90300
C  27.45600 -7.54200 47.61100
C  28.51400 -6.58300 47.57800
C  28.10800 -5.59300 46.70800
C  26.83200 -5.99200 46.24800
C  29.72100 -6.47800 48.55400
C  28.40700 -4.38000 46.06100
O  29.48000 -3.75400 46.01700
C  27.14400 -4.03900 45.16400
C  26.66000 -2.67300 45.29800
O  26.85600 -1.84600 44.40600
O  25.79600 -2.54200 46.34800
C  25.33400 -1.24300 46.65100
H  20.86100 -6.91000 44.10800
H  22.73100 -11.69600 48.10400
H  28.25200 -9.06300 48.89500
H  24.16200 -3.52000 43.86600
H  22.24200 -5.16500 42.82600
H  22.37100 -3.00700 44.59200
H  21.52500 -4.29600 45.41400
H  20.96100 -3.61500 43.78200
H  24.18900 -5.20000 41.53700
H  25.79900 -5.42100 42.22300
H  26.40800 -3.58300 41.22700
H  25.41700 -2.58000 42.24100
H  18.48700 -8.43500 45.20600
H  18.72000 -9.97900 44.29900
H  19.42600 -8.50900 43.71400
H  20.57500 -12.98600 47.45300
H  19.17400 -12.57300 48.47900
H  20.57800 -11.68200 48.81600
H  25.00100 -12.52600 48.20000
H  26.67400 -10.83300 50.03400
H  23.42900 -11.69000 50.19700
H  24.97600 -11.76000 51.05700
H  24.34000 -13.20200 50.32800
H  27.75300 -11.81800 47.43700
H  27.08100 -13.05900 48.54400
H  29.57200 -11.66800 48.84100
H  29.13200 -13.24000 49.49300
H  28.67200 -11.71900 50.29300
H  30.38000 -7.33100 48.39200
H  29.40900 -6.53400 49.59700
H  30.20100 -5.50900 48.41600
H  27.61600 -4.05100 44.18200
H  24.37500 -1.42400 47.13700
H  25.18200 -0.48300 45.88500
H  25.94100 -0.78000 47.42900
Mg 26.63600 50.22300 26.36300
C  24.54400 51.58400 28.83700
C  28.80400 49.35100 28.84900
C  28.80900 49.06400 23.99400
C  24.53400 51.50600 23.94100
N  26.68200 50.54400 28.60800
C  25.73600 51.07800 29.40400
C  26.06400 50.91600 30.83300
C  27.59300 50.51300 30.84000
C  27.70600 50.06400 29.32600
C  28.60300 51.54500 31.36000
C  25.16700 49.86400 31.61300
C  24.46800 50.40500 32.96100
H  25.41700 51.09500 33.97800
N  28.44300 49.23300 26.42600
C  29.18400 48.96500 27.54100
C  30.45400 48.26900 27.16900
C  30.48600 48.24600 25.75000
C  29.21600 48.78900 25.35200
C  31.44800 47.75400 28.20200
C  31.53400 47.70000 24.81000
O  31.47900 47.81800 23.64300
C  32.66200 46.89100 25.30600
N  26.69300 50.31900 24.28200
C  27.68000 49.77500 23.49900
C  27.36700 49.80300 21.99600
C  25.95300 50.52300 21.95300
C  25.66000 50.79000 23.53600
C  28.44400 50.61100 21.13200
C  24.85000 49.65000 21.30700
C  23.56200 50.39800 20.89600
N  24.80900 51.37100 26.32000
C  24.09800 51.79700 25.26400
C  22.96800 52.54300 25.74900
C  23.04200 52.44300 27.18300
C  24.22400 51.73500 27.45800
C  21.80400 53.04600 25.05100
C  22.49100 52.83700 28.40200
O  21.56300 53.59000 28.65400
C  23.35300 52.27300 29.54600
C  23.90300 53.38300 30.33500
O  24.96800 53.96900 30.08900
O  23.07200 53.73200 31.38700
C  23.58300 54.80000 32.20200
H  29.43900 49.05900 29.68800
H  29.46700 48.72600 23.19100
H  23.92700 51.79200 23.07900
H  25.90000 51.90300 31.26400
H  27.70800 49.73400 31.59400
H  28.09100 52.43700 31.72300
H  29.35600 51.73700 30.59700
H  29.16500 51.09300 32.17700
H  25.84200 49.03100 31.81000
H  24.42000 49.40400 30.96500
H  23.90300 49.64000 33.49400
H  23.73400 51.16300 32.69000
H  31.47200 46.68100 28.39100
H  31.38600 48.24300 29.17400
H  32.42600 48.01000 27.79500
H  33.53300 47.44400 25.65700
H  32.91200 46.24900 24.46100
H  32.41800 46.12900 26.04600
H  27.32500 48.77000 21.64900
H  26.17900 51.46200 21.44900
H  28.64400 49.99000 20.25900
H  29.30100 50.81700 21.77400
H  28.21200 51.60500 20.75000
H  24.57200 48.71500 21.79400
H  25.30100 49.24500 20.40100
H  22.85100 50.15400 21.68500
H  23.15600 50.00900 19.96200
H  23.56100 51.48700 20.84500
H  21.83600 54.13400 25.00000
H  20.91400 52.89400 25.66200
H  21.71000 52.71500 24.01600
H  22.71900 51.63500 30.16200
H  23.77500 55.70200 31.62100
H  24.48700 54.49000 32.72600
H  22.87000 54.98400 33.00600

