158

Mg 8.70300 3.22200 28.29300
C  10.28000 1.86200 31.16700
C  6.60000 4.91700 30.29600
C  7.44300 4.45400 25.48000
C  10.35600 0.74800 26.48400
N  8.43600 3.30900 30.47200
C  9.21900 2.77000 31.43900
C  8.74800 3.21200 32.81500
C  7.44000 3.98900 32.58800
C  7.44700 4.07800 31.02200
C  6.21600 3.35000 33.19200
C  9.90600 4.08900 33.50500
C  9.46000 4.90400 34.71800
H  10.18800 4.61800 35.97400
N  7.34800 4.68700 27.90900
C  6.59000 5.28100 28.85300
C  5.62900 6.15200 28.18900
C  5.99900 6.19700 26.82500
C  6.99900 5.10900 26.65900
C  4.59500 6.93400 28.92600
C  5.48200 7.02100 25.68900
O  5.85200 6.98000 24.53800
C  4.44000 8.05900 26.05700
N  8.97100 2.80700 26.23000
C  8.32600 3.39500 25.23500
C  8.51400 2.61100 23.92600
C  9.73800 1.65700 24.28300
C  9.74700 1.76400 25.79000
C  7.25500 1.84600 23.45500
C  11.04600 2.15000 23.53100
C  11.88400 3.14100 24.35300
N  10.07800 1.65900 28.69800
C  10.63500 0.69900 27.85800
C  11.57400 -0.08600 28.56500
C  11.50000 0.35300 29.85400
C  10.54900 1.40800 29.87600
C  12.36200 -1.22700 27.93700
C  11.94800 0.11900 31.18800
O  12.78100 -0.64300 31.66700
C  11.13500 1.13600 32.04500
C  10.46000 0.32700 33.10500
O  9.63000 -0.52400 32.83000
O  10.95700 0.55400 34.37300
C  10.12600 0.07000 35.48600
H  5.83900 5.38400 30.92500
H  7.07200 4.99500 24.60700
H  10.87300 0.05800 25.81400
H  8.51400 2.34500 33.43200
H  7.48500 4.97800 33.04500
H  6.36400 2.27400 33.28300
H  5.49000 3.44700 32.38500
H  5.87000 3.91900 34.05400
H  10.26800 4.72400 32.69600
H  10.75100 3.44600 33.75000
H  8.40200 4.74100 34.92500
H  9.65800 5.94100 34.44600
H  4.71000 8.01300 29.02900
H  4.35700 6.38600 29.83700
H  3.77000 6.76700 28.23300
H  3.49100 7.52400 26.05700
H  4.45900 8.88100 25.34100
H  4.87400 8.47500 26.96600
H  8.83500 3.31500 23.15800
H  9.48000 0.63700 23.99700
H  6.44900 2.02400 24.16700
H  7.33600 0.77600 23.26300
H  6.91500 2.31600 22.53300
H  10.93400 2.55600 22.52600
H  11.67200 1.25800 23.52000
H  11.59200 3.49600 25.34200
H  12.05700 4.10600 23.87700
H  12.91600 2.81100 24.47300
H  12.38000 -1.13900 26.85100
H  11.91300 -2.17500 28.23100
H  13.38100 -1.01700 28.26300
H  11.94300 1.77300 32.40400
H  9.05600 0.19600 35.32000
H  10.33300 0.53800 36.44800
H  10.25500 -1.01100 35.52700
Mg -11.42600 38.25700 41.18200
C  -9.43800 35.62500 40.36500
C  -9.05800 40.44300 39.60100
C  -13.52500 40.86900 41.48900
C  -13.99100 35.99300 42.12100
N  -9.42400 38.06300 40.15000
C  -8.81700 36.83100 40.03100
C  -7.50500 37.00400 39.27500
C  -7.34400 38.58200 39.15700
C  -8.67000 39.06500 39.74700
C  -6.13300 39.22600 39.99900
C  -7.54700 36.28800 37.91300
C  -6.50600 35.11400 37.70600
H  -5.53000 35.27300 36.52700
N  -11.22700 40.43100 40.82900
C  -10.21400 41.05700 40.10500
C  -10.46500 42.50000 40.18500
C  -11.80800 42.66800 40.70200
C  -12.22500 41.31400 41.10500
C  -9.56600 43.62800 39.68000
C  -12.62400 43.94800 40.74200
O  -12.14600 45.01400 40.30600
C  -14.09400 44.13300 41.21700
N  -13.54000 38.35400 41.63400
C  -14.13200 39.58900 41.70900
C  -15.55600 39.39600 42.16800
C  -15.73500 37.84800 42.52100
C  -14.37400 37.35800 42.06400
C  -15.85100 40.35800 43.37600
C  -16.89700 37.12900 41.81400
C  -17.67100 35.96600 42.57900
N  -11.73900 36.19700 41.27400
C  -12.78400 35.45200 41.71000
C  -12.37600 34.03600 41.55100
C  -11.09000 34.02300 41.05400
C  -10.70800 35.33000 40.97000
C  -13.29800 32.92400 41.92100
C  -9.97400 33.18900 40.60300
O  -9.88000 31.97200 40.57100
C  -8.85100 34.22000 40.12200
C  -7.54300 33.85800 40.83300
O  -6.57100 33.33900 40.36600
O  -7.60200 34.34300 42.09500
C  -6.57500 33.96600 43.05700
H  -8.31700 41.12200 39.17500
H  -14.29000 41.64800 41.50700
H  -14.84400 35.32300 42.24800
H  -6.69900 36.54200 39.84500
H  -7.20800 38.88900 38.12000
H  -6.47200 40.00800 40.67800
H  -5.50400 39.63500 39.20800
H  -5.52700 38.55200 40.60400
H  -7.34000 36.95500 37.07600
H  -8.53200 35.83300 37.81000
H  -7.10600 34.20800 37.62200
H  -5.75900 35.04800 38.49600
H  -9.34300 44.31900 40.49300
H  -9.99500 44.20000 38.85800
H  -8.56300 43.25100 39.48100
H  -14.15900 43.75500 42.23700
H  -14.70900 43.43800 40.64500
H  -14.29400 45.20400 41.17600
H  -16.29100 39.57100 41.38200
H  -15.83300 37.64600 43.58800
H  -16.25300 39.82400 44.23600
H  -16.50300 41.18600 43.09600
H  -14.85000 40.69900 43.64200
H  -16.71600 36.81800 40.78500
H  -17.67400 37.88900 41.73000
H  -17.61000 35.16900 41.83800
H  -18.69700 36.31300 42.70600
H  -17.28900 35.78700 43.58400
H  -13.01000 31.91800 41.61400
H  -14.24700 33.02200 41.39400
H  -13.46100 32.97100 42.99800
H  -8.71800 34.07400 39.05000
H  -6.79000 34.26100 44.08400
H  -5.58200 34.32800 42.79000
H  -6.46300 32.88900 43.17500

