158

Mg 41.94100 41.39900 26.03900
C  41.39200 43.78600 28.50500
C  43.18200 39.34100 28.60200
C  42.54600 39.01300 23.78400
C  40.78200 43.59500 23.68300
N  42.30300 41.62300 28.36400
C  41.85000 42.64100 29.12500
C  41.71400 42.21800 30.59300
C  42.54300 40.83300 30.62200
C  42.68900 40.51900 29.12100
C  43.90600 40.80200 31.41400
C  40.27400 42.07100 31.20200
C  39.89500 42.83900 32.49500
H  39.46000 42.00000 33.66600
N  42.79100 39.50600 26.18000
C  43.19100 38.82700 27.25000
C  43.69500 37.53700 26.92400
C  43.49800 37.34700 25.51500
C  42.93300 38.65500 25.09300
C  44.14000 36.51700 27.82700
C  43.65500 36.06800 24.65100
O  43.51600 36.06400 23.41600
C  44.17900 34.75400 25.25400
N  41.80700 41.31800 23.99200
C  41.96200 40.20100 23.29300
C  41.47900 40.35800 21.78200
C  41.07700 41.88800 21.84100
C  41.20800 42.29700 23.25400
C  42.46400 40.04000 20.66100
C  39.76800 42.23300 21.12800
C  39.88300 42.77500 19.71700
N  41.14400 43.32500 26.01300
C  40.67700 44.03500 24.98900
C  40.26700 45.31400 25.49300
C  40.47000 45.26500 26.85600
C  41.12500 44.02400 27.12000
C  39.54700 46.32800 24.72800
C  40.36800 46.02300 28.11600
O  39.90900 47.13300 28.29800
C  41.03700 45.08700 29.19700
C  42.13600 45.82900 29.85800
O  43.30700 45.77300 29.44600
O  41.62100 46.54200 30.94600
C  42.55000 47.43100 31.64500
H  43.51800 38.70600 29.42400
H  42.65400 38.26400 22.99700
H  40.44100 44.26800 22.89300
H  42.37900 42.85500 31.17700
H  41.92000 39.98700 30.91200
H  44.75600 40.68300 30.74200
H  43.95900 39.86900 31.97500
H  44.06700 41.63900 32.09300
H  40.10600 41.01900 31.43000
H  39.53000 42.45600 30.50500
H  39.17800 43.63000 32.27500
H  40.73000 43.44800 32.84100
H  45.12800 36.12600 27.58400
H  43.45900 35.67700 27.95900
H  44.44000 36.94600 28.78400
H  44.19400 34.06700 24.40800
H  43.55800 34.38500 26.06900
H  45.22700 34.86700 25.53100
H  40.56400 39.76600 21.80800
H  41.87100 42.46100 21.36300
H  42.68200 40.88900 20.01300
H  41.91500 39.34800 20.02300
H  43.45500 39.65000 20.89400
H  39.11100 42.83500 21.75600
H  39.22000 41.29000 21.13700
H  39.91000 41.92100 19.04000
H  40.73200 43.42400 19.50300
H  39.01000 43.41600 19.59500
H  39.46500 46.03400 23.68200
H  40.04800 47.29600 24.75600
H  38.60100 46.41200 25.26200
H  40.32000 44.87500 29.99100
H  43.20400 48.03100 31.01300
H  43.10000 46.89700 32.41800
H  41.96000 48.18200 32.17100
Mg -2.08300 34.66200 27.03300
C  -4.13600 33.44700 29.59200
C  -0.80600 36.90900 29.37700
C  -0.43400 35.99800 24.47200
C  -3.87900 32.59800 24.80100
N  -2.65800 35.35500 29.23100
C  -3.31500 34.52900 30.09100
C  -3.10600 34.88800 31.56700
C  -2.13300 36.09400 31.43000
C  -1.81900 36.14600 29.88400
C  -2.64100 37.45500 31.96800
C  -2.60900 33.66600 32.45700
C  -3.40800 33.44000 33.71500
H  -2.65600 32.70900 34.74400
N  -0.93300 36.30600 26.93200
C  -0.45400 37.04800 27.98000
C  0.49500 38.03400 27.54000
C  0.60500 37.72900 26.13000
C  -0.24500 36.60600 25.75300
C  1.11900 39.06600 28.41800
C  1.53700 38.40500 25.23300
O  1.70100 37.95500 24.10400
C  2.18000 39.68200 25.55100
N  -2.25300 34.36000 24.91600
C  -1.36100 34.97200 24.09600
C  -1.39100 34.44200 22.65000
C  -2.40800 33.20500 22.81100
C  -2.85600 33.39300 24.23600
C  -1.90800 35.37000 21.51300
C  -1.65600 31.89900 22.78200
C  -2.24500 30.67300 22.09400
N  -3.64800 33.29600 27.12600
C  -4.25200 32.55100 26.14700
C  -5.23400 31.71200 26.70100
C  -5.18600 32.01300 28.03900
C  -4.21400 33.02500 28.23600
C  -6.11800 30.71100 26.01600
C  -5.66700 31.68600 29.36500
O  -6.50200 30.90800 29.70400
C  -5.03700 32.59100 30.37800
C  -6.17100 33.27100 31.06000
O  -6.86200 34.24500 30.64200
O  -6.46700 32.62000 32.22300
C  -7.70000 33.07100 32.92600
H  -0.13800 37.36900 30.10800
H  0.22600 36.30000 23.65600
H  -4.28700 31.88000 24.08600
H  -4.06700 35.28600 31.89100
H  -1.21500 35.84600 31.96300
H  -2.71300 38.20500 31.18000
H  -2.06600 37.84600 32.80700
H  -3.64100 37.43600 32.40100
H  -1.61200 33.86500 32.85100
H  -2.62800 32.72600 31.90600
H  -4.20000 32.73400 33.46500
H  -3.85300 34.35200 34.11100
H  2.20900 39.08500 28.39100
H  0.82200 39.07300 29.46600
H  0.85200 40.09000 28.16100
H  1.48800 40.44700 25.90200
H  2.67300 39.99000 24.62900
H  2.93600 39.38100 26.27700
H  -0.38400 34.04900 22.51400
H  -3.25400 33.09500 22.13300
H  -2.70800 34.89000 20.94900
H  -1.13000 35.65800 20.80700
H  -2.36900 36.18100 22.07700
H  -1.27700 31.56100 23.74700
H  -0.79200 32.13300 22.16100
H  -1.72900 30.56700 21.14000
H  -3.31500 30.81300 21.93800
H  -2.13500 29.79000 22.72500
H  -6.01800 29.80100 26.60800
H  -5.87000 30.59500 24.96100
H  -7.06700 31.24700 26.05000
H  -4.47900 32.04600 31.13900
H  -7.33600 33.65900 33.76800
H  -8.23100 32.18700 33.27900
H  -8.40600 33.71800 32.40600

