158

Mg 1.11400 7.08100 25.40600
C  1.54500 8.62800 28.50000
C  0.93500 4.00300 27.11900
C  0.85700 5.53300 22.40000
C  1.45400 10.21000 23.83200
N  1.41300 6.40400 27.52800
C  1.32100 7.25200 28.65600
C  1.23900 6.51800 29.96100
C  1.33500 4.98300 29.51100
C  1.20200 5.09600 27.93100
C  2.68300 4.35500 29.96100
C  0.11900 6.93700 30.89300
C  0.55900 7.06400 32.31200
H  1.93700 6.47300 32.87000
N  0.90000 5.01000 24.80900
C  0.79200 3.95900 25.73600
C  0.48300 2.74500 24.91400
C  0.50200 3.15900 23.50100
C  0.75500 4.64400 23.52400
C  0.14700 1.39300 25.50300
C  0.30700 2.27700 22.22500
O  0.36500 2.81300 21.10700
C  -0.02200 0.80000 22.29500
N  1.37700 7.80400 23.46800
C  1.13000 6.95100 22.34400
C  1.01600 7.75100 21.06400
C  0.99900 9.19900 21.59800
C  1.28700 9.13300 23.04200
C  2.19800 7.51200 20.03500
C  -0.28700 9.96000 21.26300
C  -0.34300 10.49200 19.80900
N  1.65000 9.07600 25.95300
C  1.70600 10.21000 25.24100
C  1.91600 11.33800 26.13000
C  1.88400 10.74800 27.44200
C  1.65400 9.36700 27.26600
C  2.16600 12.82800 25.82900
C  1.95400 11.06500 28.89700
O  2.31500 12.08100 29.48500
C  1.72000 9.66400 29.66500
C  2.84300 9.49100 30.58500
O  4.01700 9.20600 30.33900
O  2.35100 10.03800 31.76000
C  3.42200 10.45200 32.68300
H  0.76400 3.06400 27.65000
H  0.82800 5.14600 21.37900
H  1.48600 11.22100 23.42100
H  2.18000 6.82100 30.42100
H  0.51700 4.36300 29.87700
H  3.33000 3.97100 29.17200
H  2.51500 3.47800 30.58500
H  3.35100 5.10300 30.38900
H  -0.62500 6.14800 30.78600
H  -0.36800 7.87300 30.61900
H  -0.28300 6.78200 32.94300
H  0.65400 8.13000 32.51800
H  0.98500 0.75200 25.23200
H  -0.82500 1.02200 25.17800
H  0.11300 1.45500 26.59100
H  0.74900 0.13100 22.67800
H  -0.21400 0.54500 21.25300
H  -0.96000 0.62800 22.82200
H  0.11200 7.64000 20.46500
H  1.83000 9.68000 21.08100
H  3.06600 8.15600 20.17700
H  1.85800 7.52100 18.99900
H  2.59800 6.51400 20.21000
H  -0.48600 10.77000 21.96500
H  -1.08200 9.22800 21.40900
H  0.64800 10.39600 19.36600
H  -0.75500 11.49800 19.88500
H  -0.96300 9.84700 19.18500
H  2.93300 13.31200 26.43400
H  1.26500 13.37900 26.09900
H  2.44500 12.94200 24.78100
H  0.74500 9.75800 30.14300
H  3.20800 11.46400 33.03000
H  4.42200 10.48200 32.25200
H  3.41700 9.81500 33.56800
Mg -5.00600 24.49900 26.25500
C  -3.13600 26.04800 28.72200
C  -6.34400 22.43100 28.63800
C  -6.97700 23.22000 23.81100
C  -3.31700 26.37500 23.82100
N  -4.76000 24.35400 28.41800
C  -4.12300 25.20400 29.25400
C  -4.47200 24.91500 30.74600
C  -5.08900 23.42800 30.59900
C  -5.41800 23.37600 29.12300
C  -4.16700 22.28300 31.01500
C  -5.27600 26.15700 31.21200
C  -5.39000 26.52300 32.68600
H  -5.02900 25.37500 33.59400
N  -6.38000 23.05800 26.19400
C  -6.80400 22.30600 27.28700
C  -7.79600 21.40600 26.88700
C  -8.08300 21.65300 25.51500
C  -7.09000 22.70300 25.13100
C  -8.38600 20.31400 27.80700
C  -9.13000 20.98900 24.57700
O  -9.25000 21.26100 23.40500
C  -10.02200 19.98500 25.11700
N  -5.16200 24.78500 24.00700
C  -5.96200 24.07800 23.26300
C  -5.90200 24.39700 21.81100
C  -4.72700 25.35600 21.78100
C  -4.36700 25.59800 23.32100
C  -5.79500 23.22700 20.77900
C  -5.13700 26.64700 21.08700
C  -4.05800 27.15200 20.12700
N  -3.42300 25.73000 26.17500
C  -2.95400 26.58200 25.16800
C  -1.88400 27.46500 25.69900
C  -1.88900 27.22300 27.08300
C  -2.82800 26.18600 27.32300
C  -1.19200 28.59300 24.94900
C  -1.32900 27.67800 28.39100
O  -0.46000 28.55400 28.53800
C  -2.27400 27.03000 29.49600
C  -1.40100 26.42400 30.57600
O  -0.66300 25.43900 30.49400
O  -1.58100 27.11500 31.74400
C  -0.86600 26.63700 32.94200
H  -6.92900 21.86500 29.36600
H  -7.70200 22.91900 23.05300
H  -2.81900 27.13600 23.21700
H  -3.54800 24.88100 31.32200
H  -6.05700 23.39200 31.09900
H  -4.30900 22.08400 32.07700
H  -3.11100 22.55300 30.99000
H  -4.31900 21.40500 30.38800
H  -6.33000 26.17500 30.93500
H  -4.82700 26.96700 30.63800
H  -6.41400 26.84100 32.88000
H  -4.71600 27.37200 32.80500
H  -9.37200 20.64300 28.13300
H  -7.73300 20.08400 28.64900
H  -8.40700 19.45100 27.14100
H  -9.35400 19.12700 25.03700
H  -10.77900 19.86000 24.34200
H  -10.55300 20.27300 26.02400
H  -6.80700 24.91000 21.48300
H  -3.84600 24.89500 21.33500
H  -5.91200 22.27500 21.29700
H  -4.81000 23.17800 20.31600
H  -6.64500 23.33700 20.10500
H  -5.26700 27.44100 21.82200
H  -6.07700 26.59100 20.53800
H  -4.51600 27.07700 19.14000
H  -3.11000 26.61500 20.14300
H  -3.75800 28.12900 20.50300
H  -1.67900 29.55600 25.10100
H  -1.21100 28.25300 23.91300
H  -0.15400 28.65800 25.27500
H  -2.86500 27.84100 29.92300
H  0.17200 26.42200 32.68800
H  -1.42800 25.80200 33.35900
H  -0.79100 27.50600 33.59600

