158

Mg 16.88200 -1.18200 27.63300
C  15.97300 0.87900 30.27500
C  19.19700 -2.64400 29.79400
C  18.15100 -2.71900 25.02800
C  14.77600 0.72200 25.54700
N  17.50800 -0.90600 29.74300
C  16.91600 -0.01500 30.67800
C  17.47800 -0.25500 32.08500
C  18.74500 -1.13000 31.78600
C  18.48500 -1.61500 30.37200
C  20.23700 -0.52500 32.09000
C  16.39500 -0.89200 32.96000
C  16.10900 -0.14300 34.18300
H  17.26900 0.50500 34.79900
N  18.31600 -2.70800 27.55500
C  19.11500 -3.17600 28.54700
C  19.81900 -4.32800 27.97400
C  19.52900 -4.38600 26.61000
C  18.59100 -3.24800 26.25100
C  20.49400 -5.41000 28.87100
C  19.83400 -5.49200 25.58700
O  19.36500 -5.38000 24.49900
C  20.80900 -6.61500 25.90400
N  16.41600 -1.07700 25.61500
C  17.21300 -1.73700 24.71700
C  16.89400 -1.42600 23.27900
C  15.59500 -0.56800 23.43900
C  15.52200 -0.31900 24.92300
C  18.08500 -0.69400 22.55100
C  14.20000 -1.20000 22.86700
C  13.85000 -0.86400 21.44400
N  15.63600 0.46900 27.84700
C  14.80900 1.08800 26.93000
C  14.01800 2.09100 27.51500
C  14.54500 2.16200 28.80100
C  15.53200 1.13700 28.92200
C  12.92300 2.84200 26.77200
C  14.44700 2.85600 30.04700
O  13.78800 3.85700 30.39200
C  15.34700 2.00700 31.11600
C  16.33400 2.91600 31.70500
O  17.45300 3.08200 31.32100
O  15.85600 3.52300 32.82900
C  16.87900 4.36700 33.53000
H  20.02400 -3.04900 30.38000
H  18.49800 -3.24300 24.13500
H  14.23400 1.31200 24.80500
H  17.82500 0.72800 32.40500
H  18.61900 -2.03100 32.38600
H  20.61500 -1.30000 32.75600
H  20.14500 0.45300 32.56400
H  20.86400 -0.61700 31.20300
H  16.74700 -1.89400 33.20600
H  15.45500 -1.14100 32.46800
H  15.57900 -0.75100 34.91600
H  15.39100 0.63300 33.91800
H  19.86600 -6.30000 28.91500
H  20.49700 -4.99500 29.87900
H  21.52300 -5.60300 28.56800
H  21.83100 -6.24700 26.00000
H  20.72200 -7.30900 25.06800
H  20.37300 -7.17100 26.73300
H  16.56100 -2.34300 22.79300
H  15.87700 0.39300 23.00800
H  18.88700 -0.48800 23.26000
H  17.82900 0.26300 22.09800
H  18.41500 -1.38400 21.77500
H  13.39500 -0.89400 23.53500
H  14.17700 -2.27900 23.02000
H  14.32200 0.10500 21.28100
H  12.77900 -0.83300 21.24700
H  14.35300 -1.54800 20.76000
H  12.09800 2.81500 27.48500
H  12.53500 2.35600 25.87800
H  13.24600 3.85000 26.51000
H  14.89000 1.51500 31.97500
H  17.05500 5.31700 33.02600
H  17.87600 3.92600 33.52700
H  16.49000 4.50000 34.54000
Mg 36.37800 49.89800 25.72400
C  36.23500 47.98600 28.74300
C  35.12500 52.51000 27.40700
C  35.98500 51.37000 22.81800
C  37.32400 46.73800 24.09200
N  35.77300 50.22700 27.90300
C  35.95700 49.38500 28.91600
C  35.56800 50.09600 30.22900
C  35.24300 51.50300 29.82200
C  35.35500 51.42100 28.25800
C  33.88000 52.02800 30.39100
C  36.64300 49.90700 31.32500
C  36.12300 49.41000 32.68800
H  34.70300 49.65300 33.11400
N  35.77300 51.68500 25.27200
C  35.31700 52.61700 26.04500
C  34.91300 53.76700 25.22300
C  35.38300 53.54900 23.93100
C  35.74100 52.13700 23.95000
C  34.06700 54.81600 25.77000
C  35.19100 54.32800 22.62400
O  35.51100 53.99500 21.48100
C  34.50300 55.71800 22.62900
N  36.32900 48.98600 23.70700
C  36.24000 49.96000 22.67900
C  36.71300 49.24500 21.33100
C  37.12100 47.78100 21.80600
C  36.99700 47.84900 23.32000
C  35.72200 49.35300 20.23100
C  38.49900 47.31600 21.28000
C  39.76700 47.84300 21.97600
N  36.67600 47.75400 26.26000
C  37.08600 46.63700 25.48100
C  37.20600 45.49800 26.30800
C  36.86200 45.98500 27.64100
C  36.55700 47.33500 27.50000
C  37.63800 44.08300 25.87700
C  36.71100 45.61700 29.01500
O  36.75400 44.51400 29.51100
C  36.25600 46.85900 29.81200
C  34.91300 46.60400 30.47500
O  33.76600 46.66500 30.01800
O  35.19500 45.94500 31.68600
C  34.01900 45.47400 32.56300
H  34.75900 53.33600 28.02000
H  36.11700 51.89800 21.87200
H  37.68200 45.84500 23.57400
H  34.65500 49.56000 30.49000
H  36.07300 52.10800 30.18800
H  33.97600 52.83100 31.12100
H  33.30300 51.24200 30.87800
H  33.29400 52.55300 29.63600
H  37.15600 50.86100 31.44600
H  37.34600 49.13300 31.01700
H  36.75700 49.86000 33.45200
H  36.32300 48.33900 32.69800
H  34.71000 55.69400 25.69700
H  33.83600 54.77200 26.83500
H  33.14100 54.89000 25.20000
H  33.45100 55.57300 22.87500
H  34.55500 56.07100 21.59900
H  35.00300 56.32400 23.38500
H  37.61600 49.76200 21.00700
H  36.38100 47.07600 21.42700
H  34.76600 49.73200 20.59300
H  35.51500 48.42000 19.70700
H  35.98800 49.95400 19.36100
H  38.58800 47.42400 20.19900
H  38.63400 46.24700 21.44700
H  39.45000 48.77000 22.45400
H  40.60400 48.13200 21.34200
H  40.25500 47.28800 22.77800
H  36.87600 43.55700 25.30100
H  37.68100 43.39800 26.72300
H  38.61400 44.05000 25.39300
H  37.06100 46.97100 30.53800
H  33.84000 45.97100 33.51600
H  34.12500 44.39200 32.65400
H  33.01900 45.56200 32.14000

