158

Mg 16.01900 -2.58700 28.32900
C  14.92900 -0.31000 30.80300
C  17.96900 -4.11000 30.69400
C  17.62500 -4.34600 25.88500
C  14.69700 -0.33000 26.05200
N  16.41100 -2.24000 30.49900
C  15.79600 -1.29100 31.30900
C  16.24900 -1.41000 32.76200
C  17.29500 -2.60100 32.76400
C  17.26700 -3.02300 31.21200
C  18.69900 -2.21500 33.20300
C  15.09400 -1.64500 33.83900
C  15.13900 -0.76600 35.17500
H  16.49000 -0.05300 35.57600
N  17.44300 -4.16600 28.26700
C  18.09700 -4.68500 29.35300
C  18.95200 -5.77700 28.95000
C  18.79200 -5.85700 27.58200
C  17.92800 -4.78000 27.15200
C  19.71500 -6.68900 29.94000
C  19.35900 -6.89200 26.63100
O  19.16500 -6.88700 25.40500
C  20.37900 -7.97700 27.11500
N  16.22200 -2.36100 26.29900
C  16.80400 -3.24200 25.48100
C  16.72800 -2.76200 24.01800
C  15.76200 -1.53700 24.08900
C  15.56700 -1.33900 25.60600
C  18.03200 -2.45000 23.27700
C  14.39600 -1.86000 23.34500
C  13.80100 -0.79200 22.39800
N  14.70200 -0.91400 28.37600
C  14.35600 -0.04400 27.31200
C  13.61900 1.09300 27.80500
C  13.70900 0.94400 29.22500
C  14.47500 -0.21700 29.45700
C  13.02100 2.05700 26.96900
C  13.39600 1.65800 30.50600
O  12.71500 2.67100 30.69700
C  14.22900 0.88100 31.63300
C  15.03400 1.86700 32.30900
O  16.20000 2.13000 32.06200
O  14.29000 2.54900 33.16800
C  14.96100 3.69800 33.83800
H  18.63200 -4.56400 31.43400
H  18.00700 -4.89400 25.02100
H  14.36000 0.36100 25.27600
H  16.70400 -0.45500 33.02400
H  16.89400 -3.39600 33.39200
H  19.40400 -2.45900 32.40900
H  18.94100 -2.97100 33.95000
H  18.73900 -1.16100 33.48000
H  15.13800 -2.68100 34.17700
H  14.11500 -1.55500 33.36700
H  14.85200 -1.33400 36.06000
H  14.35500 -0.01400 35.07800
H  19.41500 -7.71500 29.72800
H  19.40500 -6.55400 30.97600
H  20.79900 -6.58200 29.93800
H  21.17900 -7.46100 27.64600
H  20.76000 -8.56500 26.28100
H  19.96100 -8.66200 27.85300
H  16.32800 -3.57000 23.40600
H  16.09100 -0.58400 23.67400
H  17.89600 -2.66400 22.21700
H  18.89400 -3.06800 23.53000
H  18.43300 -1.43700 23.33000
H  13.64100 -2.19800 24.05600
H  14.62100 -2.66400 22.64500
H  12.75200 -0.76500 22.69400
H  14.04800 -1.13500 21.39400
H  14.34400 0.15200 22.40800
H  12.23600 2.58600 27.50900
H  12.61100 1.59800 26.06900
H  13.75600 2.76300 26.58100
H  13.47400 0.58000 32.36000
H  14.96400 4.62700 33.26800
H  15.96800 3.40500 34.13600
H  14.41100 4.03600 34.71600
Mg 34.94800 2.28500 29.24600
C  33.03100 3.41200 32.06200
C  37.74800 2.77300 31.15800
C  36.78700 2.05000 26.43300
C  32.02800 2.57000 27.37100
N  35.29400 3.00300 31.31100
C  34.42100 3.29800 32.30600
C  35.10100 3.54800 33.63700
C  36.62100 3.52200 33.29400
C  36.57700 3.10400 31.85400
C  37.40500 4.85600 33.59900
C  34.72600 2.42700 34.71300
C  34.30000 2.95100 36.08400
H  35.30300 3.97400 36.80100
N  37.00500 2.07900 28.83700
C  38.00400 2.27000 29.78900
C  39.34500 1.96200 29.17000
C  39.06000 1.76700 27.78700
C  37.59200 1.91100 27.59900
C  40.67900 2.09600 29.89600
C  40.07400 1.52800 26.65300
O  39.83400 1.58700 25.44800
C  41.45700 1.26300 26.97500
N  34.46200 2.39400 27.26700
C  35.42800 2.16100 26.32400
C  34.83400 1.97400 24.95100
C  33.32100 1.88100 25.31200
C  33.24500 2.27300 26.76600
C  35.14600 3.21200 24.10000
C  32.74100 0.49500 25.18900
C  31.45000 0.43500 24.30700
N  32.90700 2.85400 29.58100
C  31.85400 2.90400 28.72400
C  30.67200 3.30900 29.44900
C  31.08400 3.54200 30.79700
C  32.45800 3.19800 30.78300
C  29.35500 3.37200 28.85800
C  30.61400 3.83700 32.20400
O  29.54600 4.11500 32.75200
C  31.95600 3.83400 33.01000
C  32.14000 5.16300 33.63200
O  32.41200 6.19200 33.13200
O  31.71600 5.02000 34.94900
C  31.70900 6.23000 35.75200
H  38.67100 2.75000 31.74000
H  37.27000 2.22300 25.46900
H  31.19200 2.47700 26.67500
H  34.86000 4.52900 34.04500
H  37.12000 2.69800 33.80500
H  38.15800 4.68500 34.36800
H  36.71200 5.62300 33.94500
H  37.84700 5.19100 32.66100
H  35.58100 1.90400 35.14200
H  33.97700 1.73300 34.33100
H  34.20300 2.06600 36.71400
H  33.26300 3.25200 35.94200
H  41.14500 3.06200 29.70400
H  41.29100 1.26100 29.55600
H  40.45100 1.96200 30.95400
H  41.96200 0.89600 26.08100
H  41.43200 0.42500 27.67200
H  41.87700 2.12000 27.50100
H  35.12700 1.16500 24.28100
H  32.74100 2.68600 24.86200
H  35.74100 3.90200 24.69900
H  34.23900 3.65900 23.69500
H  35.71800 2.94700 23.21100
H  32.40900 0.15000 26.16800
H  33.48500 -0.25800 24.92700
H  30.58800 0.14700 24.90900
H  31.67100 -0.38800 23.62800
H  31.29400 1.38200 23.78900
H  28.75000 4.10400 29.39300
H  28.92400 2.37100 28.89300
H  29.48500 3.75200 27.84500
H  31.91600 3.12800 33.84000
H  30.86600 6.33400 36.43600
H  31.70700 7.15100 35.17000
H  32.58200 6.15400 36.40000

