158

Mg 2.55100 -0.40100 43.84700
C  5.88100 0.73400 43.31400
C  1.42500 2.26600 42.10600
C  -0.44800 -1.99700 43.49800
C  3.95300 -3.45800 45.00600
N  3.57200 1.28600 42.87300
C  4.91500 1.67200 42.81200
C  5.08100 3.09700 42.42300
C  3.62700 3.54500 42.07000
C  2.78600 2.25800 42.39600
C  3.08000 4.65500 42.96000
C  6.10000 3.17100 41.23400
C  5.90300 2.22100 40.07100
H  6.15300 2.69600 38.64300
N  0.68600 0.08900 42.97000
C  0.47500 1.24100 42.33900
C  -0.91100 1.23600 42.00400
C  -1.56900 0.10900 42.48100
C  -0.43200 -0.70300 42.92000
C  -1.57600 2.46200 41.31300
C  -3.03300 -0.09800 42.59500
O  -3.77200 0.88000 42.35800
C  -3.54900 -1.39300 43.13100
N  1.81200 -2.44100 44.15000
C  0.52700 -2.76100 44.06900
C  0.25600 -4.23900 44.55000
C  1.62700 -4.61600 45.25000
C  2.55600 -3.42700 44.78400
C  -1.15200 -4.49000 45.34900
C  2.14200 -6.02800 44.92600
C  2.29600 -7.14400 46.04600
N  4.52200 -1.23200 44.24000
C  4.86200 -2.51800 44.70100
C  6.33500 -2.54500 44.86500
C  6.78200 -1.31200 44.30200
C  5.61800 -0.57500 43.90000
C  7.19100 -3.54600 45.56700
C  7.93200 -0.49900 43.98300
O  9.12600 -0.77700 44.13800
C  7.38100 0.86200 43.49200
C  7.59800 1.98100 44.49000
O  7.40800 1.88300 45.68700
O  8.36300 3.03200 43.94500
C  8.80700 4.10300 44.87400
H  1.10800 3.15600 41.55800
H  -1.44700 -2.40300 43.66800
H  4.36000 -4.39300 45.39700
H  5.51200 3.60300 43.28700
H  3.44700 3.69800 41.00500
H  3.20100 5.60600 42.44200
H  3.72500 4.63300 43.83900
H  2.05000 4.56900 43.30600
H  7.13800 3.08200 41.55700
H  6.05100 4.21000 40.91000
H  4.87100 1.90200 39.92400
H  6.68400 1.47200 40.20100
H  -2.03600 3.02300 42.12600
H  -2.27200 2.22500 40.50800
H  -0.87400 3.15200 40.84500
H  -4.63000 -1.24700 43.14100
H  -3.27200 -1.71600 44.13500
H  -3.25400 -2.12500 42.38000
H  0.07500 -4.78600 43.62500
H  1.46000 -4.52000 46.32300
H  -1.74400 -3.58000 45.44400
H  -0.96800 -4.77100 46.38600
H  -1.75800 -5.26200 44.87600
H  3.14200 -6.03200 44.49200
H  1.48400 -6.30000 44.10200
H  1.89200 -6.81700 47.00500
H  3.36100 -7.25300 46.24900
H  1.64800 -7.98200 45.78900
H  6.92700 -4.51400 45.14200
H  7.00600 -3.44200 46.63600
H  8.25400 -3.33300 45.45100
H  7.84800 1.12500 42.54300
H  9.10100 4.99300 44.31800
H  9.74800 3.91600 45.39200
H  8.11900 4.46800 45.63700
Mg 45.28900 5.03500 48.12300
C  43.40000 7.90100 47.31600
C  42.65400 3.13200 47.02100
C  47.41400 2.32000 48.02300
C  48.13200 7.11400 48.23900
N  43.23100 5.52200 47.30000
C  42.63600 6.78200 47.15600
C  41.14300 6.59800 46.86100
C  40.91400 5.02100 46.97100
C  42.39000 4.47900 47.00500
C  39.95700 4.44700 48.04300
C  40.51800 7.25300 45.57800
C  41.35800 7.14500 44.29300
H  41.44400 8.37400 43.29400
N  44.95400 2.98200 47.77800
C  43.84200 2.40900 47.28400
C  44.03300 1.02100 47.22400
C  45.37900 0.73000 47.58400
C  45.99900 1.98800 47.81900
C  42.96800 0.05700 46.82900
C  45.99400 -0.70000 47.66100
O  45.44000 -1.71100 47.28200
C  47.38300 -0.91300 48.23900
N  47.47700 4.74100 47.92900
C  48.04900 3.54400 48.19500
C  49.41300 3.62300 48.77400
C  49.73100 5.10000 48.65900
C  48.33100 5.71700 48.35200
C  49.59700 3.03700 50.16000
C  50.62400 5.47200 47.44400
C  52.12300 5.21500 47.60600
N  45.73300 7.10300 48.01900
C  46.92500 7.78300 48.05500
C  46.67400 9.25100 47.78500
C  45.25700 9.33500 47.56800
C  44.74100 8.00400 47.72700
C  47.62900 10.40600 47.67500
C  44.19000 10.22600 47.24200
O  44.18000 11.44300 47.09100
C  42.95200 9.37000 47.10200
C  41.97200 9.77000 48.06600
O  41.79600 9.29100 49.16200
O  41.13900 10.70700 47.46900
C  40.01300 11.13500 48.32900
H  41.77700 2.59800 46.64900
H  48.06000 1.46800 48.24600
H  48.99400 7.78400 48.25800
H  40.61900 7.04800 47.70300
H  40.45800 4.63500 46.05900
H  39.39600 5.18000 48.62300
H  40.54000 3.93300 48.80700
H  39.31400 3.64600 47.67800
H  40.20100 8.26500 45.82900
H  39.65800 6.63200 45.32700
H  40.94000 6.38100 43.63800
H  42.35300 6.73100 44.45900
H  43.33400 -0.41500 45.91800
H  42.04000 0.59000 46.62100
H  42.76200 -0.71200 47.57400
H  48.17200 -0.54700 47.58200
H  47.47400 -1.95700 48.53700
H  47.47200 -0.46300 49.22800
H  50.00500 3.04000 48.06900
H  50.18700 5.50700 49.56100
H  49.88400 1.98800 50.09800
H  48.73300 3.11700 50.82100
H  50.47000 3.44300 50.67100
H  50.42900 6.47600 47.06900
H  50.31200 4.82000 46.62800
H  52.76100 6.03100 47.26400
H  52.48400 4.40100 46.97700
H  52.38300 5.05000 48.65100
H  48.58700 10.20000 47.19700
H  47.85400 10.81900 48.65900
H  47.19700 11.22100 47.09500
H  42.52100 9.44100 46.10300
H  39.75400 10.37900 49.07000
H  39.15900 11.45100 47.72900
H  40.35600 12.01200 48.87800

