158

Mg 17.12000 -2.15900 27.30600
C  15.77100 -0.14900 29.84900
C  19.41900 -3.44600 29.41800
C  18.89400 -3.37100 24.61900
C  15.11400 -0.37700 24.99400
N  17.57000 -1.74300 29.36900
C  16.82100 -0.99400 30.28700
C  17.28400 -1.24000 31.71000
C  18.46600 -2.15700 31.56700
C  18.49400 -2.53200 30.05500
C  19.81800 -1.55000 32.05900
C  16.12500 -1.95400 32.45700
C  15.89300 -1.38300 33.95300
H  17.07000 -0.69300 34.71000
N  18.67800 -3.54200 27.14700
C  19.51000 -3.94100 28.12800
C  20.51100 -4.81900 27.54700
C  20.40800 -4.79500 26.16700
C  19.32200 -3.87400 25.90700
C  21.50400 -5.53700 28.44300
C  21.16700 -5.45300 25.14600
O  20.89600 -5.33400 23.93200
C  22.30100 -6.29000 25.33500
N  16.96100 -1.97200 25.19000
C  17.85600 -2.47500 24.27300
C  17.53300 -1.99000 22.88900
C  16.19500 -1.26000 23.00700
C  16.01700 -1.24500 24.49100
C  18.64300 -1.12900 22.24100
C  14.99500 -1.82300 22.19300
C  13.92500 -2.61800 22.96900
N  15.74000 -0.48600 27.34700
C  14.97000 0.04700 26.32200
C  14.10800 1.07900 26.93100
C  14.35600 0.98400 28.30300
C  15.37900 0.04300 28.47400
C  13.25500 2.02600 26.15900
C  14.02700 1.54800 29.64500
O  13.11900 2.31500 29.99000
C  14.89300 0.74600 30.70400
C  15.66400 1.70500 31.49800
O  16.83700 1.97800 31.19800
O  14.88500 2.34200 32.46600
C  15.69100 3.45000 33.07100
H  20.03200 -3.85300 30.22500
H  19.55100 -3.55200 23.76600
H  14.49200 0.13700 24.25900
H  17.53600 -0.24200 32.06900
H  18.36000 -3.13800 32.03100
H  20.34500 -2.33900 32.59500
H  19.69200 -0.67700 32.70000
H  20.38200 -1.21500 31.18900
H  16.25500 -3.02300 32.62200
H  15.24200 -1.92000 31.81900
H  15.43800 -2.23400 34.46000
H  15.06600 -0.67300 33.93100
H  21.78100 -6.52700 28.08000
H  21.17400 -5.66900 29.47300
H  22.48300 -5.07600 28.58000
H  22.71500 -6.58600 24.37100
H  22.05800 -7.15400 25.95400
H  22.99900 -5.63400 25.85500
H  17.32900 -2.79700 22.18500
H  16.25400 -0.20200 22.75000
H  18.15700 -0.33500 21.67400
H  19.15500 -1.62000 21.41300
H  19.39500 -0.69600 22.90100
H  15.38900 -2.56100 21.49400
H  14.54600 -0.98200 21.66500
H  13.08000 -1.97800 23.22200
H  14.30700 -3.18000 23.82200
H  13.54100 -3.35200 22.26100
H  12.65200 1.56600 25.37700
H  13.85200 2.77800 25.64300
H  12.66700 2.60900 26.86900
H  14.21900 0.15800 31.32700
H  16.38600 3.85500 32.33500
H  16.08500 2.99900 33.98200
H  15.22800 4.39300 33.36000
Mg -2.07700 34.12600 27.08400
C  -3.69100 32.47800 29.73200
C  -0.25500 35.95500 29.31200
C  -0.69400 35.74700 24.44400
C  -3.84300 31.93100 24.80000
N  -2.04600 34.16900 29.27600
C  -2.79700 33.49400 30.19200
C  -2.25100 33.72000 31.66200
C  -1.34200 34.95400 31.50900
C  -1.16300 35.04000 29.91500
C  -1.73700 36.27900 32.20700
C  -1.53200 32.44000 32.16600
C  -0.92700 32.55800 33.62300
H  -1.61400 31.60400 34.64800
N  -0.68900 35.67000 26.90100
C  -0.00800 36.30700 27.90300
C  0.93900 37.31400 27.40600
C  0.82900 37.29200 26.01200
C  -0.25500 36.17200 25.72500
C  1.84600 38.11000 28.29700
C  1.59700 38.07000 24.95500
O  1.31800 37.96400 23.76300
C  2.64600 39.03600 25.36200
N  -2.52600 34.09400 24.87400
C  -1.62500 34.73200 24.02200
C  -1.70800 34.22200 22.58300
C  -2.51500 32.83700 22.78300
C  -3.03300 32.94900 24.21200
C  -2.33800 35.29900 21.60900
C  -1.69100 31.54200 22.56700
C  -0.27400 31.39300 23.13100
N  -3.60600 32.66200 27.19100
C  -4.19300 31.86400 26.18100
C  -4.98900 30.83900 26.82400
C  -4.81100 31.10600 28.19400
C  -3.96300 32.17200 28.39300
C  -5.90500 29.85500 26.17700
C  -5.20600 30.65000 29.49100
O  -5.92400 29.69300 29.80800
C  -4.50900 31.47900 30.53500
C  -5.59400 32.10300 31.32300
O  -6.29900 33.01900 30.94800
O  -5.83900 31.43600 32.49400
C  -7.03700 31.84700 33.22200
H  0.41000 36.42500 30.04000
H  -0.11400 36.30000 23.70200
H  -4.23800 31.05000 24.28900
H  -3.12100 33.91100 32.29100
H  -0.31700 34.74200 31.81400
H  -0.90700 36.82000 32.65900
H  -2.30300 35.90700 33.06100
H  -2.33900 37.00400 31.65900
H  -0.57600 32.36000 31.64800
H  -2.06100 31.51100 31.95300
H  -1.05400 33.56300 34.02500
H  0.15700 32.44100 33.61900
H  2.02000 39.10500 27.88800
H  2.81900 37.62000 28.27600
H  1.42700 38.16400 29.30200
H  2.12300 39.85200 25.85900
H  3.11500 39.41900 24.45600
H  3.42800 38.60200 25.98600
H  -0.72000 33.92300 22.23200
H  -3.30700 32.89700 22.03700
H  -1.56000 35.57800 20.89900
H  -2.73800 36.24000 21.98800
H  -3.17400 34.84400 21.07800
H  -1.59500 31.48400 21.48300
H  -2.28900 30.65000 22.75200
H  0.32700 31.37700 22.22200
H  -0.17400 30.36300 23.47600
H  0.00000 32.15400 23.86100
H  -6.89800 30.29400 26.27600
H  -5.78800 28.96100 26.79000
H  -5.75900 29.58200 25.13200
H  -3.95400 30.83600 31.21800
H  -6.67300 32.18700 34.19100
H  -7.78800 31.07400 33.38200
H  -7.64100 32.65400 32.80600

