158

Mg -0.11900 7.36800 27.34000
C  0.83100 9.59600 29.76000
C  0.02300 4.89000 29.67400
C  -0.79700 5.17400 24.87200
C  0.59700 9.73900 24.84000
N  0.37900 7.27300 29.39500
C  0.53200 8.30300 30.20100
C  0.50100 7.86600 31.71600
C  0.51500 6.38100 31.65200
C  0.34700 6.14000 30.13900
C  1.77300 5.64700 32.21700
C  -0.61300 8.54300 32.53200
C  -0.35900 8.83100 33.98800
H  0.80900 8.41300 34.81400
N  -0.48200 5.39100 27.35400
C  -0.36900 4.50800 28.40800
C  -0.77800 3.18000 28.01100
C  -1.09000 3.21700 26.63200
C  -0.82500 4.65000 26.22100
C  -0.65300 1.98200 28.89100
C  -1.53600 2.18400 25.65300
O  -1.70100 2.32800 24.47700
C  -1.71100 0.80800 26.24000
N  -0.19600 7.49100 25.11400
C  -0.51600 6.40200 24.35800
C  -0.36300 6.80000 22.87000
C  -0.26600 8.39000 22.90400
C  0.00700 8.60800 24.36500
C  0.83000 6.00700 22.20800
C  -1.62800 9.07900 22.55600
C  -1.66800 10.34500 21.67900
N  0.60000 9.22500 27.20300
C  0.88700 10.09800 26.19000
C  1.42400 11.35800 26.68500
C  1.37600 11.20300 28.06700
C  0.93400 9.90300 28.33800
C  1.73600 12.53000 25.87300
C  1.67400 11.91500 29.37300
O  2.07500 13.03900 29.57400
C  1.32600 10.85800 30.61000
C  2.55700 10.68400 31.43800
O  3.48600 9.96700 31.14200
O  2.45000 11.43500 32.59600
C  3.61400 11.43300 33.46000
H  0.02700 4.05200 30.37400
H  -0.98400 4.52200 24.01700
H  0.67700 10.58300 24.15200
H  1.39000 8.33300 32.13900
H  -0.33400 5.96400 32.19400
H  2.30600 5.03100 31.49300
H  1.41100 5.11400 33.09600
H  2.50500 6.32200 32.66000
H  -1.47400 7.87600 32.52100
H  -0.85000 9.47900 32.02500
H  -1.29500 8.60700 34.50100
H  -0.31600 9.92000 33.97200
H  0.09400 2.12900 29.67100
H  -0.43500 1.08600 28.31000
H  -1.57500 1.85900 29.46100
H  -2.09400 0.09500 25.50900
H  -2.26500 0.84200 27.17800
H  -0.70100 0.51200 26.52400
H  -1.19000 6.42000 22.27100
H  0.42900 8.84000 22.19500
H  0.46300 5.34200 21.42700
H  1.31900 5.56100 23.07500
H  1.51000 6.72700 21.75200
H  -2.05600 9.46100 23.48300
H  -2.26400 8.27100 22.19300
H  -2.29900 10.31500 20.79100
H  -0.66300 10.59100 21.33600
H  -1.99000 11.15300 22.33600
H  2.65200 12.32700 25.31900
H  1.74600 13.38300 26.55200
H  0.83300 12.69300 25.28600
H  0.46400 11.22500 31.16700
H  3.50200 12.20700 34.21900
H  4.47000 11.62700 32.81400
H  3.71700 10.46100 33.94400
Mg 6.07500 55.70900 40.11200
C  5.57100 52.22900 39.89000
C  9.37700 55.10000 39.18200
C  6.59600 58.84200 40.03300
C  2.58200 56.14500 40.50100
N  7.30000 53.82800 39.31600
C  6.91700 52.55300 39.55300
C  7.97100 51.62000 39.26100
C  9.29000 52.45200 39.53500
C  8.66200 53.92500 39.35700
C  9.85500 52.34200 40.97100
C  7.94300 50.85400 37.80800
C  7.52400 51.65800 36.61200
H  6.94600 50.95400 35.41400
N  7.69800 56.81600 39.59700
C  8.92900 56.43300 39.24800
C  9.82200 57.54700 38.94600
C  9.07900 58.67300 39.22300
C  7.69500 58.14400 39.59800
C  11.26700 57.53500 38.46400
C  9.46700 60.17400 39.00700
O  10.62200 60.44800 38.90000
C  8.49100 61.43800 38.99400
N  4.65900 57.30500 39.77400
C  5.24300 58.48800 40.08500
C  4.07100 59.54700 40.26300
C  2.86400 58.55400 40.62100
C  3.36800 57.23000 40.18700
C  4.31800 60.57100 41.38200
C  1.52200 59.01000 40.02000
C  0.25600 59.06500 40.91800
N  4.35600 54.50800 40.15300
C  3.04400 54.83600 40.39500
C  2.31100 53.62700 40.51300
C  3.23700 52.57400 40.41900
C  4.51300 53.14700 40.19400
C  0.76600 53.49700 40.79600
C  3.33200 51.07900 40.38600
O  2.49100 50.23100 40.43300
C  4.91500 50.84100 40.15000
C  5.00000 49.95800 39.00900
O  4.73400 50.18200 37.80300
O  5.30000 48.63600 39.52000
C  5.47200 47.57300 38.50300
H  10.46100 54.98700 39.10200
H  6.78800 59.87400 40.33400
H  1.51000 56.20500 40.70300
H  7.89500 50.71300 39.86000
H  10.06100 52.18700 38.81100
H  10.93900 52.23600 40.94100
H  9.28900 51.51700 41.40500
H  9.62600 53.27600 41.48400
H  7.28000 49.99000 37.82700
H  8.97200 50.53900 37.63500
H  8.49200 52.02700 36.27200
H  6.88700 52.48700 36.92100
H  11.76700 57.89700 39.36200
H  11.53500 58.24700 37.68400
H  11.58100 56.49300 38.42000
H  8.93800 62.35000 38.59900
H  8.10300 61.60900 39.99800
H  7.67100 61.19200 38.31900
H  3.93600 60.00900 39.28500
H  2.75900 58.49600 41.70400
H  5.31700 60.47500 41.80600
H  3.65500 60.51600 42.24600
H  4.17700 61.57900 40.99200
H  1.39400 58.41300 39.11700
H  1.63000 60.02900 39.64600
H  -0.39500 58.32300 40.45700
H  -0.19600 60.04700 41.05400
H  0.52200 58.77100 41.93400
H  0.34000 52.78900 40.08500
H  0.29800 54.43500 40.49900
H  0.48200 53.06800 41.75700
H  5.40400 50.35600 40.99400
H  4.44200 47.21700 38.49400
H  6.08000 46.73800 38.84900
H  5.87300 47.86400 37.53200

