158

Mg 47.47100 16.76100 28.43700
C  45.64800 16.28300 31.39300
C  49.55800 18.89700 29.97300
C  48.95600 17.27900 25.34500
C  44.66600 15.30500 26.68000
N  47.57900 17.53600 30.49200
C  46.80600 17.11500 31.55100
C  47.39000 17.65600 32.89800
C  48.58000 18.65000 32.33200
C  48.64700 18.30300 30.85200
C  48.42300 20.16500 32.48800
C  47.99000 16.45900 33.73600
C  48.33200 16.89700 35.19800
H  48.19500 18.40100 35.56100
N  49.06500 17.79400 27.81000
C  49.86300 18.61400 28.57800
C  50.99100 19.05900 27.84700
C  50.95600 18.37900 26.61500
C  49.64100 17.70700 26.51900
C  52.08000 20.03800 28.45100
C  51.97600 18.41300 25.63500
O  51.90500 17.85400 24.50000
C  53.29900 19.10400 25.86100
N  46.88600 16.37800 26.38200
C  47.66400 16.79600 25.26300
C  47.00200 16.48200 23.92700
C  45.79100 15.70500 24.41300
C  45.67700 15.81000 25.93700
C  46.66900 17.72700 23.08400
C  45.68000 14.21800 23.87900
C  44.81300 13.96500 22.60700
N  45.55000 15.79600 28.85200
C  44.46700 15.32400 28.06200
C  43.37900 14.94000 28.88400
C  43.79200 15.20700 30.22000
C  45.11300 15.80500 30.15000
C  42.15300 14.28800 28.38100
C  43.41400 15.15600 31.62700
O  42.34300 14.77700 32.12000
C  44.57700 15.79300 32.38000
C  43.98200 16.90200 33.22000
O  43.22800 17.76000 32.81300
O  44.46200 16.92700 34.45200
C  44.02900 18.02600 35.35000
H  50.28900 19.35800 30.64100
H  49.44300 17.48300 24.38900
H  43.84900 14.90100 26.07800
H  46.65200 18.24600 33.44100
H  49.58000 18.41700 32.70000
H  49.24100 20.66400 33.00700
H  47.47600 20.30000 33.01000
H  48.28100 20.69600 31.54700
H  48.94700 16.17700 33.29500
H  47.37800 15.56500 33.85000
H  49.35400 16.55700 35.36800
H  47.72600 16.31800 35.89600
H  52.56000 20.75800 27.78800
H  52.78500 19.37500 28.95300
H  51.67400 20.57100 29.31000
H  54.02900 18.80000 25.11000
H  53.72500 18.70200 26.78100
H  53.23400 20.18900 25.78600
H  47.76300 15.83300 23.49400
H  44.88500 16.19800 24.05800
H  47.10500 18.57600 23.61000
H  45.62700 17.73800 22.76400
H  47.17000 17.65800 22.11800
H  45.22200 13.57400 24.63000
H  46.69500 13.84700 23.73200
H  44.13100 14.78400 22.37600
H  44.26400 13.02600 22.54300
H  45.57000 13.94200 21.82300
H  41.61500 13.89200 29.24300
H  42.45400 13.56200 27.62600
H  41.42800 14.93900 27.89200
H  44.94500 15.01200 33.04600
H  43.70200 18.93300 34.84100
H  44.80900 18.41100 36.00700
H  43.16900 17.73200 35.95200
Mg 30.45600 57.54200 40.28600
C  27.82200 55.44700 39.04100
C  32.57900 55.16600 39.54600
C  32.89900 59.73600 40.76300
C  28.13200 60.11400 40.63500
N  30.21800 55.58500 39.26000
C  29.13100 54.89400 38.96200
C  29.43100 53.48100 38.46300
C  30.92700 53.29100 38.96300
C  31.29500 54.75400 39.30100
C  31.06700 52.26100 40.18000
C  29.23800 53.18300 36.86400
C  29.63200 54.19900 35.78600
H  28.48300 54.58000 34.79400
N  32.49900 57.48300 40.13500
C  33.13200 56.37500 39.81500
C  34.57700 56.71100 39.81500
C  34.68800 57.99500 40.14400
C  33.29300 58.51200 40.32500
C  35.63400 55.63800 39.34500
C  36.02000 58.74800 40.19100
O  37.08200 58.12200 40.03300
C  36.18900 60.13400 40.27800
N  30.47600 59.62800 40.64100
C  31.64100 60.23300 41.04400
C  31.52800 61.70600 41.41200
C  29.94400 61.77000 41.48500
C  29.40700 60.45500 40.92800
C  32.27800 62.21800 42.63000
C  29.29100 63.03300 40.86900
C  28.04000 63.56900 41.55500
N  28.35400 57.78100 39.93200
C  27.60800 58.89300 40.06300
C  26.21500 58.55100 39.85600
C  26.29800 57.21800 39.37300
C  27.61300 56.79600 39.44100
C  24.96800 59.39200 39.82100
C  25.53900 56.13900 38.78000
O  24.37900 56.16600 38.43900
C  26.52000 54.86300 38.58000
C  25.93300 53.79400 39.36800
O  26.15000 53.62000 40.54700
O  24.99400 53.13900 38.70600
C  24.44600 52.01900 39.45400
H  33.35200 54.39500 39.56700
H  33.69200 60.48000 40.86100
H  27.37500 60.84100 40.93600
H  28.70500 52.85500 38.98100
H  31.54800 53.01900 38.11000
H  30.07700 51.91000 40.47100
H  31.59500 52.75900 40.99400
H  31.71300 51.45300 39.83400
H  28.18200 52.99100 36.67500
H  29.75400 52.25800 36.60600
H  30.41600 53.71500 35.20300
H  29.99000 55.09400 36.29500
H  36.36400 56.10500 38.68400
H  35.21900 54.76400 38.84300
H  36.15800 55.23200 40.21000
H  37.21000 60.43100 40.03900
H  35.92500 60.48500 41.27600
H  35.51200 60.65000 39.59800
H  31.88100 62.19300 40.50300
H  29.61300 61.74000 42.52300
H  32.71600 61.34100 43.10700
H  31.54700 62.75500 43.23500
H  33.11600 62.86700 42.37400
H  29.08900 62.89400 39.80700
H  29.95800 63.89500 40.83900
H  27.20700 63.41200 40.86900
H  28.20800 64.58800 41.90400
H  27.67100 62.98200 42.39600
H  24.17900 58.72500 40.16900
H  24.75600 59.70000 38.79800
H  25.03800 60.23600 40.50700
H  26.59600 54.44600 37.57600
H  24.17200 51.30800 38.67500
H  23.61500 52.39100 40.05300
H  25.13300 51.41300 40.04500

