158

Mg 45.80400 3.88700 47.94600
C  43.80100 6.68800 47.05200
C  43.15900 1.94700 47.17900
C  47.97800 1.30500 47.83000
C  48.63200 6.17500 48.10400
N  43.68500 4.27800 47.04600
C  43.03500 5.46100 47.01400
C  41.62800 5.34800 46.53700
C  41.35100 3.78900 46.75400
C  42.82500 3.31600 47.02200
C  40.22100 3.47300 47.70300
C  41.42100 5.66700 45.00700
C  40.26000 6.58600 44.68100
H  40.47400 7.54600 43.47600
N  45.57900 1.85900 47.67700
C  44.35000 1.24300 47.46000
C  44.51000 -0.12100 47.54200
C  45.90100 -0.38200 47.75500
C  46.56900 0.93100 47.77600
C  43.43900 -1.03700 47.20200
C  46.59300 -1.76000 47.86900
O  45.90000 -2.74500 47.91800
C  48.04000 -1.94400 48.16200
N  47.99500 3.79800 47.89300
C  48.58400 2.55100 47.99000
C  50.11500 2.67500 48.15200
C  50.29300 4.27000 48.19000
C  48.89600 4.81800 48.07500
C  50.68400 2.02300 49.37400
C  51.15900 4.76000 47.08200
C  52.28900 5.68000 47.58800
N  46.18700 5.96300 47.65800
C  47.33900 6.77200 47.84200
C  47.00900 8.17600 47.66300
C  45.62500 8.09800 47.36800
C  45.18900 6.80600 47.40800
C  47.85600 9.34400 47.66100
C  44.54200 9.02100 47.06200
O  44.65200 10.21400 46.87000
C  43.29800 8.09500 46.93800
C  42.35800 8.44800 48.00000
O  42.14100 7.82500 49.03300
O  41.67100 9.55200 47.54500
C  40.59100 10.08100 48.37900
H  42.26300 1.35600 46.98200
H  48.75300 0.54100 47.92300
H  49.41200 6.93700 48.16100
H  40.99500 5.93400 47.20200
H  41.10900 3.20200 45.86800
H  40.27400 4.07900 48.60800
H  40.19700 2.41800 47.97300
H  39.24900 3.66500 47.25000
H  41.06400 4.70300 44.64600
H  42.36400 6.00500 44.57700
H  40.13400 7.32900 45.46800
H  39.42300 5.93900 44.41600
H  42.50200 -0.59100 46.86700
H  43.29500 -1.70800 48.04900
H  43.74000 -1.59000 46.31200
H  48.29700 -2.93600 48.53400
H  48.28100 -1.25800 48.97400
H  48.68100 -1.71700 47.31000
H  50.50200 2.22700 47.23700
H  50.58100 4.70100 49.14900
H  49.80300 1.76300 49.96000
H  51.40100 2.63700 49.91900
H  51.26300 1.21400 48.92800
H  50.59600 5.45500 46.45800
H  51.61200 3.95300 46.50700
H  52.45700 6.57200 46.98400
H  53.15600 5.02500 47.49800
H  52.13600 5.86100 48.65200
H  47.29600 10.17200 47.22600
H  48.66600 9.34900 46.93200
H  48.33700 9.48500 48.62900
H  42.73800 8.26800 46.01800
H  39.59800 9.92000 47.95800
H  40.66500 11.16200 48.49700
H  40.52400 9.73000 49.40900
Mg 55.29000 23.59400 44.66600
C  53.14400 26.19200 43.71700
C  52.93300 21.23200 43.67400
C  57.65600 21.23200 44.73400
C  57.75900 26.14300 45.32500
N  53.32900 23.76500 43.73200
C  52.61700 24.94100 43.45400
C  51.25200 24.57800 42.82100
C  51.11600 23.02800 43.19900
C  52.55300 22.60600 43.59700
C  50.03800 22.72700 44.32600
C  51.04900 24.82400 41.29100
C  49.73300 25.37500 40.90200
H  49.00900 24.61600 39.86000
N  55.25300 21.47600 44.31500
C  54.21200 20.70400 43.96200
C  54.59700 19.28200 43.95600
C  55.98100 19.23900 44.31200
C  56.34200 20.67900 44.51900
C  53.69000 18.15300 43.57400
C  56.71900 18.01200 44.53300
O  56.19700 16.96000 44.35400
C  58.20300 17.98600 45.00100
N  57.42500 23.68900 44.93400
C  58.13800 22.58400 44.86200
C  59.64600 22.87200 45.10800
C  59.63100 24.40700 45.51900
C  58.18300 24.78900 45.15300
C  60.46200 21.95800 46.15900
C  60.84800 25.25500 44.95700
C  61.70700 26.00800 46.00000
N  55.38400 25.71200 44.73800
C  56.42100 26.60600 45.05100
C  55.88000 27.95400 45.08100
C  54.63100 27.83700 44.48800
C  54.40800 26.47700 44.28600
C  56.57300 29.21800 45.58900
C  53.44100 28.56100 44.18600
O  53.28300 29.75600 44.40000
C  52.47700 27.58200 43.48900
C  52.34400 27.94500 42.05000
O  53.06300 27.70700 41.14400
O  51.19700 28.68600 41.90500
C  50.89200 29.04700 40.53600
H  52.13100 20.53200 43.43200
H  58.34500 20.40600 44.55100
H  58.51600 26.86900 45.63000
H  50.49500 25.14800 43.36000
H  50.82200 22.39400 42.36200
H  49.16300 22.27000 43.86400
H  49.57700 23.62700 44.73200
H  50.55200 22.08900 45.04500
H  50.99300 23.82400 40.86100
H  51.94100 25.29100 40.87500
H  49.89200 26.43800 40.71900
H  49.07400 25.53600 41.75400
H  54.24600 17.40800 43.00500
H  52.98700 18.49400 42.81400
H  53.30900 17.72700 44.50200
H  58.85300 18.42500 44.24300
H  58.57700 17.01400 45.32000
H  58.26800 18.64100 45.87000
H  60.09500 22.61600 44.14800
H  59.58100 24.51500 46.60200
H  59.85900 21.19200 46.64600
H  60.91400 22.61400 46.90300
H  61.22700 21.58600 45.47700
H  60.58100 25.91500 44.13200
H  61.44100 24.56200 44.36000
H  62.70500 25.57000 45.98300
H  61.22900 25.92900 46.97700
H  61.74200 27.06300 45.72800
H  56.77500 29.83500 44.71300
H  57.51000 29.01900 46.11100
H  55.78000 29.72200 46.14200
H  51.48000 27.56400 43.92800
H  50.22200 29.90300 40.60800
H  50.50900 28.23500 39.91700
H  51.78500 29.44200 40.05100

