158

Mg 0.56800 8.05000 27.07600
C  1.10200 10.26600 29.61300
C  0.90500 5.46100 29.35900
C  0.56300 5.79400 24.38300
C  0.74300 10.69100 24.87900
N  1.00700 7.89100 29.16700
C  1.03400 8.97200 30.06500
C  0.95800 8.52800 31.53100
C  1.26200 7.04700 31.35800
C  1.06500 6.74800 29.86600
C  2.56700 6.55700 32.00800
C  -0.46800 8.87600 32.04700
C  -0.71600 8.98700 33.57200
H  0.42500 8.62900 34.54800
N  0.54900 5.91800 26.93600
C  0.67000 5.04800 28.00500
C  0.45900 3.71800 27.55300
C  0.20200 3.76400 26.13200
C  0.50100 5.21600 25.72700
C  0.51200 2.52100 28.52200
C  -0.14800 2.63800 25.18300
O  -0.19400 2.82100 24.00100
C  -0.51200 1.24500 25.75200
N  0.60400 8.24300 24.98300
C  0.61700 7.17500 24.06900
C  0.68900 7.74100 22.65600
C  0.17300 9.15900 22.88000
C  0.57900 9.40500 24.33900
C  2.12100 7.55600 22.04600
C  -1.41300 9.41800 22.63900
C  -1.69400 10.35600 21.39000
N  0.83700 10.09600 27.14300
C  0.93800 11.03900 26.17200
C  1.12900 12.36000 26.70200
C  1.17400 12.15600 28.05100
C  1.01000 10.71100 28.32900
C  1.34300 13.64900 25.97700
C  1.42300 12.77600 29.32500
O  1.63500 13.92800 29.65600
C  1.23800 11.60200 30.36900
C  2.36600 11.69300 31.34200
O  3.47700 11.27000 31.12400
O  1.94300 12.12500 32.51800
C  2.85700 12.01400 33.61700
H  0.69400 4.63900 30.04700
H  0.38300 5.15700 23.51500
H  0.64300 11.49900 24.15100
H  1.69100 9.03100 32.16100
H  0.52200 6.44800 31.88800
H  3.16000 7.43300 32.27300
H  3.09900 6.04500 31.20500
H  2.47300 5.81400 32.79900
H  -1.08400 8.10700 31.58000
H  -0.87000 9.76200 31.55600
H  -1.58500 8.38900 33.84900
H  -0.96800 10.04000 33.70000
H  0.87500 2.78000 29.51700
H  1.21900 1.74100 28.24100
H  -0.46900 2.17700 28.85000
H  -1.30200 1.19100 26.50000
H  0.34800 0.81300 26.26500
H  -0.91900 0.69600 24.90200
H  0.02700 7.28200 21.92100
H  0.80400 9.76900 22.23400
H  2.49400 6.55900 22.28300
H  2.78300 8.34300 22.40500
H  2.08900 7.66300 20.96200
H  -1.93400 9.80300 23.51600
H  -1.84000 8.42800 22.48000
H  -2.38100 9.75400 20.79600
H  -0.84600 10.55700 20.73600
H  -2.12400 11.28000 21.77900
H  1.70900 13.50700 24.96000
H  2.01500 14.17300 26.65700
H  0.39000 14.17800 25.97400
H  0.34200 11.64400 30.98900
H  3.39300 12.95700 33.72700
H  3.59100 11.21600 33.50100
H  2.28000 11.89000 34.53300
Mg 16.82000 51.63500 27.06000
C  18.75800 50.44300 29.86300
C  14.36800 52.42900 29.34700
C  14.90100 52.23300 24.53900
C  19.35900 50.32500 24.95600
N  16.64500 51.44500 29.34500
C  17.57500 50.97400 30.26200
C  16.95700 51.21100 31.65100
C  15.46600 51.48700 31.39100
C  15.48700 51.83500 29.90100
C  14.46900 50.29500 31.67000
C  17.87300 52.36300 32.37300
C  18.02000 52.11900 33.94600
H  17.15200 52.93900 34.96200
N  14.88700 52.39000 27.00800
C  14.05000 52.72000 27.99700
C  12.76600 53.19300 27.40600
C  12.81600 52.99500 26.00100
C  14.21300 52.54400 25.77500
C  11.64700 53.61900 28.24900
C  11.70300 53.16900 24.91100
O  11.89100 52.87100 23.75700
C  10.43600 53.77000 25.22400
N  17.06300 51.28100 24.98500
C  16.15000 51.72200 24.15800
C  16.66700 51.68900 22.73100
C  18.03900 51.04600 22.84000
C  18.18600 50.88500 24.35700
C  15.76600 51.07700 21.61700
C  19.25200 51.78100 22.04600
C  20.15900 52.86400 22.73900
N  18.66700 50.58500 27.33900
C  19.58000 50.12600 26.34300
C  20.62500 49.42600 26.95300
C  20.38600 49.63300 28.34300
C  19.18800 50.27600 28.52100
C  21.72500 48.65900 26.29000
C  20.86900 49.35100 29.67600
O  21.78100 48.65700 30.03200
C  19.86300 49.96000 30.75000
C  19.37000 48.92500 31.79800
O  18.60400 48.02700 31.54200
O  19.77600 49.27400 33.07600
C  19.19900 48.38500 34.18800
H  13.58000 52.77700 30.01800
H  14.16500 52.37100 23.74400
H  20.07800 50.10300 24.16500
H  17.04800 50.22000 32.09500
H  15.11300 52.30800 32.01600
H  13.56900 50.29500 31.05500
H  14.04600 50.17000 32.66700
H  15.00700 49.38800 31.39500
H  17.28700 53.27500 32.25800
H  18.86200 52.46200 31.92600
H  19.05100 52.20000 34.29000
H  17.85200 51.07800 34.22100
H  11.43200 54.63300 27.91100
H  11.83600 53.49700 29.31500
H  10.72100 53.06400 28.09800
H  10.54200 54.83200 25.44600
H  9.80800 53.08200 25.79000
H  9.85200 53.79200 24.30400
H  16.92000 52.72000 22.48000
H  18.00200 50.04600 22.40700
H  14.90400 50.48600 21.92800
H  16.37400 50.44600 20.96800
H  15.43700 51.93800 21.03600
H  18.79900 52.37400 21.25100
H  19.84600 50.99000 21.58700
H  19.92400 53.72800 22.11700
H  21.23700 52.71100 22.69200
H  19.89400 53.17300 23.75000
H  22.46600 49.38300 25.94900
H  21.46700 48.17500 25.34800
H  22.14300 47.90000 26.95200
H  20.35900 50.78100 31.26800
H  19.73200 47.43500 34.22200
H  18.12400 48.22900 34.09400
H  19.30900 48.75500 35.20800

