158

Mg 17.09100 -2.32600 27.17900
C  16.17700 -0.36700 29.85900
C  18.94200 -4.26200 29.31600
C  18.36000 -3.90400 24.48500
C  15.73100 0.02300 25.00100
N  17.43800 -2.34200 29.44600
C  16.97100 -1.45100 30.31400
C  17.35000 -1.84700 31.69100
C  18.51000 -2.97400 31.49900
C  18.28900 -3.22200 30.02700
C  19.96600 -2.58000 31.98200
C  16.20600 -2.30700 32.59500
C  16.19800 -1.66000 33.99400
H  17.40300 -1.05600 34.63900
N  18.29800 -3.93400 26.92500
C  18.99400 -4.61300 27.93100
C  19.83100 -5.70200 27.31000
C  19.56700 -5.62700 25.89400
C  18.69300 -4.47000 25.71100
C  20.62900 -6.66100 28.09900
C  20.17600 -6.54200 24.76100
O  19.99300 -6.29300 23.54600
C  21.08700 -7.73700 25.15200
N  16.85500 -2.11200 25.03400
C  17.59100 -2.82000 24.14300
C  17.74300 -2.14100 22.79000
C  16.55900 -1.09600 22.87700
C  16.31800 -1.04300 24.37800
C  19.13800 -1.50100 22.44800
C  15.24700 -1.46600 22.14600
C  14.93100 -0.49200 21.02100
N  15.93600 -0.59400 27.27800
C  15.52600 0.31900 26.36100
C  14.86000 1.41800 27.00900
C  15.10100 1.23900 28.35600
C  15.74100 -0.04400 28.47600
C  14.23900 2.64700 26.30400
C  14.89400 1.83200 29.68300
O  14.25200 2.82000 29.99000
C  15.52600 0.81700 30.64100
C  16.41800 1.52900 31.56500
O  17.62200 1.64000 31.32500
O  15.81000 2.06000 32.65000
C  16.72300 2.96800 33.44300
H  19.56800 -4.84600 29.99400
H  18.78300 -4.36100 23.58800
H  15.37700 0.76700 24.28400
H  17.80000 -0.91600 32.03700
H  18.23800 -3.86800 32.06000
H  19.97400 -1.56900 32.38900
H  20.73600 -2.83200 31.25400
H  20.07000 -3.16600 32.89600
H  16.22900 -3.38100 32.78300
H  15.30400 -1.98900 32.07300
H  15.94100 -2.43600 34.71500
H  15.36600 -0.96000 34.06000
H  20.82200 -6.25800 29.09300
H  21.56200 -6.92600 27.60200
H  20.00900 -7.55100 28.20700
H  20.37500 -8.33200 25.72400
H  22.00300 -7.51600 25.70000
H  21.43800 -8.30200 24.28800
H  17.44400 -2.98000 22.16200
H  16.92400 -0.12800 22.53400
H  20.03500 -2.05100 22.73100
H  19.30800 -0.55000 22.95300
H  19.07200 -1.58700 21.36300
H  14.37800 -1.57000 22.79600
H  15.37700 -2.45800 21.71300
H  13.98000 -0.01800 21.26300
H  14.70700 -1.13400 20.16900
H  15.69200 0.26200 20.82000
H  13.23500 2.35100 25.99900
H  14.85100 2.91600 25.44300
H  14.07300 3.43700 27.03600
H  14.84600 0.37400 31.36700
H  16.22600 3.14600 34.39700
H  16.71800 3.88800 32.85900
H  17.74800 2.61400 33.55600
Mg 0.18100 43.29200 25.53600
C  2.65800 42.80900 27.86900
C  -2.16000 42.29100 27.67800
C  -1.99800 43.74100 22.97100
C  2.76100 43.61000 23.09900
N  0.26300 42.47500 27.54400
C  1.39400 42.49200 28.34400
C  0.92800 42.28100 29.81800
C  -0.65600 42.04100 29.71200
C  -0.90800 42.38000 28.20400
C  -1.08400 40.64000 30.07900
C  1.24500 43.55000 30.70700
C  1.82400 43.16100 32.15100
H  1.51100 41.81500 32.83500
N  -1.79900 43.08400 25.41200
C  -2.58800 42.62300 26.38600
C  -3.93900 42.61300 25.96900
C  -3.97600 43.10400 24.58700
C  -2.52900 43.33600 24.26300
C  -5.07600 41.98100 26.86900
C  -5.19900 43.26800 23.69400
O  -5.15100 43.60400 22.47700
C  -6.52600 42.95800 24.26900
N  0.33200 43.46500 23.29500
C  -0.70600 43.78300 22.51900
C  -0.34400 44.09600 21.06900
C  1.19300 44.08700 21.16200
C  1.47700 43.73600 22.62900
C  -1.09100 43.16200 20.06900
C  1.79200 45.34500 20.64500
C  2.29000 46.43800 21.61200
N  2.30300 43.16500 25.42200
C  3.25400 43.34600 24.39100
C  4.64200 43.26300 24.82200
C  4.39300 43.12400 26.21900
C  3.01800 43.03900 26.51100
C  5.84000 43.35900 23.85900
C  5.08000 42.95600 27.51300
O  6.28800 42.81500 27.75500
C  3.90800 42.84800 28.63400
C  4.29300 41.64100 29.45100
O  4.11100 40.45600 29.18900
O  4.71600 42.06200 30.67600
C  5.18100 40.98100 31.56000
H  -2.97300 42.14900 28.39300
H  -2.73300 43.83000 22.16800
H  3.49300 43.92800 22.35400
H  1.38600 41.38300 30.23100
H  -1.14600 42.78300 30.34300
H  -1.25200 40.02500 29.19400
H  -1.94200 40.67600 30.75000
H  -0.24600 40.16300 30.58600
H  0.37900 44.19300 30.86100
H  1.95200 44.25300 30.26700
H  1.42700 44.01100 32.70800
H  2.90000 43.24500 32.30000
H  -5.80600 41.37600 26.33100
H  -5.65600 42.68400 27.46600
H  -4.70900 41.32900 27.66200
H  -7.38000 43.26800 23.66600
H  -6.66500 43.56200 25.16600
H  -6.57900 41.87500 24.38000
H  -0.61100 45.14100 20.91000
H  1.41000 43.19800 20.56900
H  -1.27300 43.71500 19.14800
H  -2.10600 42.86800 20.33700
H  -0.49900 42.28500 19.80500
H  1.05300 45.78200 19.97400
H  2.54000 45.17500 19.87000
H  1.84000 47.36900 21.26600
H  3.37900 46.46200 21.60500
H  1.86500 46.48600 22.61400
H  5.66400 44.06400 23.04600
H  6.19200 42.41000 23.45500
H  6.66000 43.76000 24.45400
H  4.03100 43.70300 29.29900
H  5.98100 40.37400 31.13700
H  4.27400 40.46800 31.88200
H  5.69300 41.42500 32.41400

