158

Mg 46.21300 44.25300 43.08100
C  42.90200 43.38000 42.53000
C  46.92400 40.94600 42.69100
C  49.49900 45.07500 42.80300
C  45.38400 47.68900 43.23000
N  45.07000 42.42700 42.64200
C  43.72500 42.27200 42.45600
C  43.21200 40.81500 42.39500
C  44.51300 40.03800 42.57800
C  45.58000 41.22100 42.66800
C  44.42800 39.07300 43.78200
C  42.41900 40.34700 41.18500
C  43.03800 40.93200 39.85800
H  42.57000 40.10700 38.66900
N  47.98200 43.12600 42.84200
C  48.05900 41.79500 42.69700
C  49.53700 41.39200 42.54700
C  50.29600 42.59000 42.75200
C  49.25000 43.66500 42.82500
C  50.01900 39.91500 42.38600
C  51.89000 42.72400 42.84300
O  52.57000 41.73600 42.70100
C  52.63700 43.99200 43.03900
N  47.19400 46.09400 42.86400
C  48.55700 46.13500 42.85500
C  49.09800 47.59100 42.76600
C  47.80300 48.35800 43.05800
C  46.70600 47.34000 43.00200
C  50.29600 47.96400 43.65100
C  47.58000 49.71400 42.27600
C  47.23000 50.92400 43.14900
N  44.48100 45.42300 42.82100
C  44.26500 46.76800 43.07700
C  42.79700 46.95200 42.98900
C  42.22500 45.64800 42.83300
C  43.34700 44.74400 42.71600
C  42.03300 48.23700 42.95200
C  40.96300 44.95200 42.67900
O  39.78500 45.26000 42.65800
C  41.42300 43.42500 42.58100
C  40.62000 42.57900 43.54600
O  40.03700 41.56300 43.26500
O  40.81500 42.95300 44.88600
C  40.32800 41.96300 45.81800
H  47.13900 39.87600 42.73100
H  50.51700 45.42900 42.62400
H  45.09500 48.71700 43.46100
H  42.73000 40.77300 43.37200
H  44.78700 39.43800 41.71000
H  43.42800 38.64500 43.84800
H  44.53600 39.67800 44.68200
H  45.18700 38.29600 43.69300
H  41.39900 40.69600 41.34600
H  42.53600 39.26500 41.25000
H  44.10700 41.13200 39.92700
H  42.50300 41.87300 39.72700
H  51.02800 39.94600 41.97400
H  49.37100 39.37500 41.69600
H  49.95000 39.42500 43.35700
H  52.68900 44.48900 42.07000
H  53.65300 43.81200 43.39000
H  52.20200 44.70200 43.74200
H  49.44500 47.66400 41.73500
H  47.70100 48.60800 44.11400
H  50.74200 47.08000 44.10700
H  49.80400 48.52000 44.44800
H  51.09200 48.49300 43.12600
H  46.71400 49.58600 41.62700
H  48.41400 49.93300 41.60900
H  47.79000 50.86400 44.08300
H  46.15700 50.91500 43.34100
H  47.41600 51.84500 42.59700
H  42.07000 48.43300 41.88100
H  42.48900 49.00100 43.58300
H  41.01200 48.19600 43.33100
H  41.05800 43.05800 41.62200
H  39.24000 41.90600 45.85100
H  40.64100 42.25400 46.82000
H  40.67900 40.94600 45.64300
Mg 47.13900 34.47900 28.18000
C  45.63000 32.62200 30.79300
C  47.49600 37.19200 30.28700
C  48.14800 36.28600 25.48000
C  46.42200 31.84000 26.00300
N  46.63100 34.84300 30.30200
C  46.16300 33.86100 31.20300
C  46.34700 34.46800 32.64200
C  46.53300 36.04200 32.37600
C  46.97400 36.05200 30.94100
C  45.30800 36.99900 32.63000
C  47.56500 33.89400 33.36900
C  47.50900 33.57500 34.82000
H  46.51900 34.36700 35.71200
N  47.85800 36.39200 27.91300
C  47.95300 37.35600 28.94800
C  48.58200 38.52700 28.39400
C  48.73300 38.33900 26.96700
C  48.22200 37.01600 26.71100
C  48.97800 39.75400 29.26100
C  49.21800 39.30100 25.91800
O  49.34500 38.92600 24.77400
C  49.51300 40.74400 26.23900
N  47.13900 34.14700 26.03700
C  47.66600 35.01900 25.18400
C  47.89100 34.45400 23.77100
C  47.14300 33.12600 23.83000
C  46.92800 33.01500 25.39600
C  47.51500 35.29400 22.55600
C  48.00100 31.97100 23.22700
C  47.21600 30.96900 22.50400
N  46.29900 32.61900 28.32700
C  46.06300 31.67400 27.34400
C  45.54000 30.44700 27.91600
C  45.41100 30.82000 29.26000
C  45.84600 32.07200 29.46300
C  45.03200 29.11500 27.26600
C  44.90100 30.30300 30.53900
O  44.54200 29.19600 30.81200
C  44.82800 31.56200 31.49500
C  45.31800 31.09800 32.85500
O  46.35600 30.49400 33.03000
O  44.32200 31.34500 33.73300
C  44.39900 30.45900 34.89800
H  47.65900 38.02900 30.96900
H  48.50600 36.77800 24.57300
H  46.29900 31.00600 25.30800
H  45.39800 34.43000 33.17700
H  47.27200 36.38000 33.10200
H  45.64500 37.67000 33.42000
H  44.37900 36.47200 32.84900
H  45.10300 37.54000 31.70700
H  48.46100 34.46000 33.11500
H  47.62400 32.92100 32.88100
H  48.51900 33.80100 35.16300
H  47.35000 32.49900 34.88300
H  49.98400 40.10500 29.03200
H  48.97900 39.56300 30.33400
H  48.23100 40.51100 29.02500
H  49.57600 41.49900 25.45500
H  50.52100 40.71800 26.65300
H  48.79300 41.16200 26.94300
H  48.97100 34.33200 23.69600
H  46.14400 33.29800 23.42900
H  47.12200 36.21200 22.99200
H  46.73600 34.87800 21.91700
H  48.33700 35.55800 21.89000
H  48.50600 31.56300 24.10300
H  48.79400 32.29500 22.55300
H  47.31900 31.13900 21.43300
H  46.16200 31.05400 22.77000
H  47.54000 29.95100 22.72000
H  45.95200 28.62100 26.95500
H  44.40100 29.33800 26.40600
H  44.52900 28.62200 28.09800
H  43.81400 31.94100 31.62400
H  44.69900 29.43200 34.68900
H  43.34900 30.49600 35.18800
H  45.13600 30.90300 35.56700

