158

Mg 3.03800 -2.29000 45.20700
C  6.37900 -1.66300 44.75400
C  2.22300 0.01000 42.91400
C  -0.01900 -3.48500 45.30200
C  4.06400 -4.99300 47.34400
N  4.19700 -0.93000 43.92500
C  5.54400 -0.83300 43.96200
C  5.95700 0.42400 43.06900
C  4.54500 1.07700 42.82600
C  3.61000 0.02900 43.24100
C  4.26200 2.39900 43.60200
C  6.82100 -0.04500 41.83000
C  8.18200 0.63100 41.61900
H  8.45500 1.09000 40.16800
N  1.35400 -1.86200 44.13000
C  1.21800 -0.87400 43.28200
C  -0.14800 -0.80100 42.84700
C  -0.87700 -1.75200 43.57600
C  0.18700 -2.37700 44.42700
C  -0.68100 0.25900 42.01600
C  -2.38100 -2.08800 43.46800
O  -3.02700 -1.59800 42.53300
C  -3.19200 -3.10300 44.27700
N  2.19900 -4.00400 46.14400
C  0.88100 -4.23800 46.07600
C  0.43800 -5.58300 46.69600
C  1.72500 -5.94900 47.40500
C  2.75600 -4.93900 46.97800
C  -0.89200 -5.60300 47.49200
C  2.06600 -7.47200 47.25000
C  1.95800 -8.35500 48.46100
N  4.84300 -3.17600 45.97200
C  5.13700 -4.27100 46.80700
C  6.59000 -4.43300 46.96300
C  7.09500 -3.33900 46.25700
C  5.98800 -2.69200 45.62700
C  7.31500 -5.43700 47.76500
C  8.35400 -2.66600 45.89700
O  9.46100 -2.91000 46.31500
C  7.95800 -1.50000 44.98100
C  8.11900 -0.26400 45.75400
O  7.76700 -0.11100 46.92400
O  8.69200 0.71400 44.98000
C  8.98800 1.97500 45.64600
H  2.03900 0.79600 42.17900
H  -1.01400 -3.93300 45.33000
H  4.40100 -5.87100 47.90000
H  6.46300 1.09500 43.76300
H  4.37000 1.19600 41.75700
H  5.28100 2.68700 43.86300
H  3.64800 2.13600 44.46400
H  3.79900 3.13400 42.94400
H  6.18200 0.13100 40.96400
H  6.98000 -1.11400 41.96900
H  8.99400 -0.00200 41.97600
H  8.15600 1.55500 42.19600
H  -0.69500 -0.12100 40.99400
H  -0.24000 1.25300 42.08500
H  -1.68100 0.47500 42.39300
H  -3.15600 -2.93200 45.35300
H  -2.80200 -4.09700 44.05700
H  -4.24300 -3.05900 43.99300
H  0.38900 -6.12300 45.75100
H  1.55300 -5.72400 48.45800
H  -1.42400 -6.54200 47.33900
H  -1.48200 -4.70200 47.32400
H  -0.61100 -5.64100 48.54400
H  3.07100 -7.56900 46.84000
H  1.39400 -8.07000 46.63400
H  2.84200 -8.37100 49.09900
H  1.71300 -9.35900 48.11400
H  1.18200 -7.88800 49.06700
H  8.38900 -5.27600 47.86000
H  6.96600 -6.41800 47.44200
H  6.89500 -5.35500 48.76800
H  8.52200 -1.51100 44.04900
H  8.07400 2.55500 45.76800
H  9.78800 2.41400 45.05000
H  9.47800 1.85500 46.61200
Mg -5.74900 24.67400 25.78600
C  -4.02300 26.22800 28.49700
C  -7.02800 22.46700 28.20100
C  -7.11700 22.99600 23.34300
C  -4.13900 26.82800 23.66800
N  -5.57500 24.46700 28.09200
C  -4.88600 25.18400 28.97900
C  -5.28300 24.98200 30.48700
C  -6.02600 23.59300 30.30400
C  -6.26200 23.48200 28.73400
C  -5.34700 22.36000 30.92300
C  -6.08100 26.22800 31.01000
C  -5.77900 26.78500 32.41100
H  -5.23400 25.78700 33.40600
N  -7.00100 23.04500 25.79300
C  -7.44300 22.26500 26.85700
C  -8.28800 21.20300 26.30200
C  -8.48400 21.42300 24.88300
C  -7.47900 22.52100 24.61600
C  -8.98500 20.10000 27.16600
C  -9.44600 20.77200 23.97200
O  -9.56000 20.95000 22.76900
C  -10.51700 19.82700 24.50900
N  -5.53200 24.77300 23.73200
C  -6.22600 23.95700 22.91300
C  -5.93500 24.28500 21.45000
C  -4.96400 25.59500 21.46600
C  -4.87500 25.73100 23.03100
C  -5.39900 22.97200 20.75500
C  -5.57400 26.71700 20.57800
C  -4.59500 27.30200 19.57200
N  -4.23500 26.13400 26.01900
C  -3.84200 27.02100 25.05100
C  -2.87700 27.94400 25.55700
C  -2.92200 27.68700 26.95200
C  -3.78600 26.58500 27.18600
C  -2.15900 29.11800 24.90700
C  -2.52300 28.24200 28.17800
O  -1.87400 29.21200 28.36100
C  -3.19800 27.26000 29.31900
C  -2.10800 26.59300 30.10800
O  -1.15000 25.94300 29.63700
O  -2.36400 26.92600 31.44000
C  -1.26900 26.57900 32.34400
H  -7.36400 21.70000 28.90200
H  -7.57000 22.39800 22.54900
H  -3.64900 27.48700 22.94900
H  -4.37500 24.99600 31.09000
H  -7.05300 23.55900 30.66800
H  -4.67900 22.73000 31.70100
H  -4.81300 21.74400 30.20000
H  -6.24200 21.81100 31.21500
H  -7.12300 25.91200 31.05900
H  -6.18500 27.05800 30.31100
H  -6.67200 27.28800 32.78400
H  -5.10900 27.61100 32.17400
H  -9.26500 19.14000 26.73100
H  -9.91400 20.46500 27.60400
H  -8.22600 19.88800 27.91800
H  -10.96900 20.15900 25.44400
H  -10.16900 18.80100 24.62500
H  -11.32000 19.66800 23.78900
H  -6.88900 24.54900 20.99400
H  -4.00500 25.29900 21.04200
H  -4.44800 23.26600 20.31000
H  -6.02600 22.76100 19.88900
H  -5.13200 22.12000 21.38000
H  -5.86700 27.53900 21.23100
H  -6.49300 26.46200 20.05000
H  -3.80800 26.61400 19.26300
H  -4.19400 28.20000 20.04200
H  -5.07400 27.52300 18.61800
H  -1.72600 29.89100 25.54200
H  -2.92500 29.53300 24.25100
H  -1.40400 28.65800 24.26900
H  -3.77300 27.86900 30.01700
H  -0.44000 27.20900 32.02300
H  -0.87100 25.58700 32.13200
H  -1.49000 26.73600 33.40000

