158

Mg 16.16200 -1.80900 27.30500
C  15.08600 0.21000 29.91700
C  18.31200 -3.36800 29.45800
C  17.53900 -3.23300 24.71600
C  14.19000 0.34900 25.10500
N  16.63300 -1.52000 29.41000
C  16.00500 -0.79400 30.35000
C  16.67300 -0.88700 31.74000
C  17.80600 -1.96600 31.50500
C  17.59600 -2.31600 29.98900
C  19.25800 -1.54200 31.80400
C  15.72500 -1.09800 32.91200
C  16.05700 -0.63000 34.35900
H  17.55100 -0.41200 34.75100
N  17.66300 -3.25900 27.11900
C  18.44400 -3.77800 28.12800
C  19.33800 -4.78200 27.56800
C  19.03600 -4.84100 26.17700
C  18.05800 -3.74200 25.93800
C  20.37800 -5.44000 28.39900
C  19.60700 -5.76700 25.17900
O  19.35800 -5.70600 24.02300
C  20.50100 -6.89300 25.47700
N  15.93700 -1.48600 25.19200
C  16.51500 -2.31000 24.29800
C  16.12700 -2.04200 22.83700
C  15.05000 -0.88000 23.04500
C  15.04100 -0.64300 24.56500
C  17.34600 -1.54900 22.00100
C  13.59700 -1.32700 22.49700
C  13.10500 -0.43100 21.28500
N  14.81000 -0.15300 27.48000
C  14.09100 0.53700 26.51900
C  13.31000 1.54700 27.13200
C  13.64000 1.47000 28.47100
C  14.59100 0.42100 28.61500
C  12.37600 2.38000 26.32300
C  13.47000 1.97900 29.76800
O  12.87500 2.98600 30.25900
C  14.38100 1.18900 30.74400
C  15.21700 2.19900 31.48300
O  16.20400 2.76700 31.02500
O  14.68100 2.38200 32.72700
C  15.26400 3.59600 33.33900
H  18.90000 -3.90800 30.20300
H  17.78400 -3.80000 23.81600
H  13.49800 0.82000 24.40300
H  17.06100 0.10800 31.95700
H  17.60800 -2.82000 32.15300
H  19.72100 -2.24200 32.49900
H  19.38400 -0.49800 32.09100
H  19.90900 -1.67900 30.94000
H  15.69300 -2.18000 33.03700
H  14.71700 -0.78600 32.63900
H  15.61400 -1.35800 35.04000
H  15.67200 0.36300 34.59500
H  21.36700 -5.22400 27.99300
H  20.12500 -6.47800 28.61500
H  20.40500 -5.00200 29.39700
H  20.52800 -7.61200 24.65900
H  20.06000 -7.28800 26.39300
H  21.52900 -6.57300 25.65100
H  15.71800 -2.96900 22.43600
H  15.34300 -0.02600 22.43400
H  17.37000 -0.46200 22.07600
H  17.36200 -1.85700 20.95600
H  18.29100 -1.83900 22.46000
H  12.89200 -1.24100 23.32400
H  13.50900 -2.39400 22.29100
H  12.33900 0.27400 21.60800
H  12.73300 -1.18100 20.58700
H  13.94700 0.02000 20.76000
H  12.13200 3.27800 26.89100
H  11.47400 1.79200 26.15500
H  12.72400 2.85000 25.40300
H  13.66600 0.74800 31.43800
H  15.42100 4.46500 32.70000
H  16.21300 3.34000 33.80900
H  14.60000 3.74400 34.19100
Mg -11.77400 38.40000 42.27900
C  -9.57400 35.93300 41.05400
C  -9.85700 40.72100 40.53200
C  -14.27700 40.54300 42.58200
C  -13.98400 35.79600 43.47400
N  -10.05600 38.27300 40.81500
C  -9.19600 37.19100 40.61700
C  -7.84900 37.53300 39.92200
C  -8.02200 39.04400 39.74400
C  -9.41300 39.39100 40.35800
C  -6.89100 39.89300 40.30500
C  -7.63400 36.82300 38.55500
C  -6.31600 36.03800 38.35900
H  -5.47100 36.31600 37.11300
N  -11.94800 40.41300 41.79000
C  -11.04500 41.14200 41.09400
C  -11.56600 42.46700 41.00000
C  -12.83300 42.48100 41.54500
C  -13.07000 41.11000 42.04500
C  -10.74200 43.66100 40.42800
C  -13.78500 43.67800 41.54800
O  -13.46000 44.74700 41.05800
C  -15.18200 43.57800 42.06800
N  -13.93500 38.18100 42.97200
C  -14.66600 39.27700 42.99200
C  -16.06700 38.95400 43.54700
C  -15.94000 37.35300 43.84700
C  -14.50900 37.09700 43.45900
C  -16.67600 39.84400 44.72600
C  -16.94500 36.46300 43.11900
C  -18.17400 36.01600 43.86300
N  -11.84100 36.25500 42.23500
C  -12.75300 35.40700 42.82600
C  -12.10800 34.07000 42.83700
C  -10.86400 34.23600 42.20100
C  -10.78200 35.57200 41.79100
C  -12.60900 32.79200 43.44600
C  -9.58400 33.58000 41.83100
O  -9.15500 32.44900 42.13000
C  -8.73000 34.56600 41.00800
C  -7.39500 34.58600 41.63000
O  -6.46700 33.80800 41.32100
O  -7.28000 35.48900 42.68600
C  -6.04700 35.24200 43.53500
H  -9.14200 41.43100 40.11100
H  -15.07500 41.28500 42.64300
H  -14.65200 35.09100 43.97300
H  -7.03900 37.27400 40.60400
H  -8.09600 39.36100 38.70400
H  -7.09500 40.07300 41.36100
H  -6.70700 40.82100 39.76300
H  -5.97300 39.31500 40.19900
H  -7.68300 37.51100 37.71100
H  -8.51000 36.20600 38.35400
H  -6.63400 34.99600 38.32800
H  -5.78500 36.24600 39.28800
H  -10.80000 43.75200 39.34400
H  -9.71700 43.42000 40.70900
H  -11.00600 44.58800 40.93800
H  -15.74200 44.47800 41.81700
H  -15.06700 43.38900 43.13500
H  -15.73600 42.77500 41.58100
H  -16.76000 39.14500 42.72800
H  -16.07100 37.17100 44.91400
H  -15.75300 40.33200 45.04000
H  -17.07700 39.31000 45.58800
H  -17.34200 40.59600 44.30200
H  -16.48000 35.55000 42.74800
H  -17.20200 36.95300 42.17900
H  -18.79800 35.66900 43.03900
H  -18.66800 36.77400 44.47200
H  -17.97200 35.11900 44.44800
H  -12.84100 32.07800 42.65600
H  -13.48800 33.00700 44.05400
H  -11.80500 32.42700 44.08400
H  -8.63600 34.37400 39.93900
H  -6.16400 35.80800 44.45900
H  -5.11500 35.51600 43.04000
H  -6.00000 34.20800 43.87700

