158

Mg -0.04400 7.76500 27.17800
C  0.74500 9.58700 29.93800
C  0.08900 4.99600 29.17500
C  -0.24700 5.80600 24.31900
C  0.33400 10.56500 25.10100
N  0.45300 7.30000 29.37800
C  0.57100 8.26600 30.33400
C  0.40700 7.66500 31.78000
C  0.61100 6.11600 31.45800
C  0.31800 6.12400 29.95300
C  1.96900 5.58300 31.67900
C  -0.91600 7.99000 32.47200
C  -0.92800 8.44700 33.93900
H  0.19900 7.88900 34.81000
N  -0.07800 5.66500 26.77500
C  -0.13000 4.68800 27.74700
C  -0.35000 3.36300 27.15200
C  -0.54300 3.65200 25.70700
C  -0.33100 5.08400 25.57300
C  -0.49500 2.04100 27.86300
C  -0.92900 2.77600 24.55500
O  -1.28400 3.28400 23.47700
C  -0.92900 1.28800 24.67800
N  0.04000 8.12400 25.03400
C  -0.21800 7.20200 24.07500
C  -0.53400 7.77300 22.67000
C  -0.30600 9.33000 23.01000
C  0.01100 9.36100 24.44900
C  0.50200 7.25500 21.57400
C  -1.48300 10.20200 22.69100
C  -2.09400 9.85600 21.32100
N  0.41800 9.75000 27.38000
C  0.55300 10.78100 26.47000
C  1.09700 11.91500 27.14100
C  1.06500 11.57100 28.52100
C  0.70000 10.16000 28.60700
C  1.52600 13.12500 26.39100
C  1.39700 12.03000 29.86900
O  1.88200 13.10500 30.25100
C  0.91000 10.81500 30.83000
C  1.86700 10.63800 31.94500
O  2.96700 10.14900 31.82500
O  1.38900 11.32200 33.01100
C  2.38200 11.55900 34.00200
H  0.09500 4.11200 29.81700
H  -0.36600 5.31800 23.35000
H  0.33700 11.52800 24.58700
H  1.26300 8.09000 32.30400
H  0.01000 5.46000 32.08800
H  2.76700 6.30700 31.84500
H  2.22400 4.97600 30.80900
H  2.00100 4.93900 32.55800
H  -1.63400 7.17100 32.44400
H  -1.32800 8.80200 31.87200
H  -1.88600 8.32000 34.44300
H  -0.68600 9.51000 33.93500
H  -0.26200 2.09000 28.92600
H  0.06100 1.16500 27.52700
H  -1.49500 1.62600 27.73500
H  -1.38200 0.87400 23.77700
H  -1.63700 1.13800 25.49200
H  0.07800 0.95500 24.93100
H  -1.56300 7.44800 22.51700
H  0.48000 9.75700 22.38700
H  1.30100 6.71600 22.08200
H  0.89200 7.99600 20.87700
H  0.00800 6.50900 20.95000
H  -1.45100 11.29000 22.75800
H  -2.19100 10.00400 23.49500
H  -1.64800 9.02400 20.77600
H  -1.89000 10.70500 20.66900
H  -3.16300 9.66300 21.41100
H  2.23000 13.70700 26.98600
H  0.63700 13.65500 26.04900
H  1.87600 12.75500 25.42800
H  -0.04300 11.06300 31.29700
H  2.86900 12.53400 33.98700
H  3.19700 10.84300 34.10900
H  1.90700 11.50300 34.98200
Mg 34.71100 2.43300 29.61700
C  32.52700 3.42500 32.12600
C  37.27900 2.43300 31.80000
C  36.73400 1.46000 27.05500
C  32.11300 2.96800 27.31900
N  34.90600 2.92000 31.63300
C  33.85300 3.23200 32.51100
C  34.32600 3.13000 33.99100
C  35.90200 3.25300 33.79100
C  36.05400 2.81300 32.32200
C  36.46300 4.67700 34.07700
C  33.86700 1.84600 34.72400
C  33.13000 2.09200 36.09900
H  33.72000 3.09000 37.02900
N  36.71700 1.96000 29.47500
C  37.58600 1.95700 30.49000
C  38.85800 1.47600 29.98500
C  38.76100 1.23500 28.64200
C  37.35600 1.49400 28.30900
C  40.01700 1.28200 30.91100
C  39.80500 0.76700 27.66300
O  39.62400 0.68600 26.48200
C  41.18500 0.48700 28.13800
N  34.46300 2.17100 27.54300
C  35.44400 1.80100 26.69100
C  34.98500 1.75600 25.28600
C  33.42300 1.95700 25.44700
C  33.30900 2.43100 26.89800
C  35.58500 2.79600 24.29800
C  32.57000 0.65400 25.27200
C  31.43700 0.71800 24.17200
N  32.80600 3.11900 29.59000
C  31.82500 3.26500 28.67700
C  30.54500 3.71400 29.25500
C  30.79700 3.65800 30.62500
C  32.14600 3.34000 30.78000
C  29.24200 3.92900 28.47900
C  30.18100 3.72000 31.92200
O  29.04000 3.86800 32.34600
C  31.38900 3.66700 32.92400
C  31.51800 5.07700 33.45300
O  31.87400 6.09100 32.84800
O  31.02500 5.15700 34.76100
C  31.21600 6.45400 35.40200
H  38.12000 2.60100 32.47600
H  37.32000 1.07700 26.21700
H  31.28600 3.04500 26.61000
H  33.76800 3.99700 34.34300
H  36.49100 2.56000 34.39200
H  37.37800 4.68000 34.67000
H  35.70400 5.23700 34.62300
H  36.78900 5.27700 33.22800
H  34.74900 1.21800 34.84600
H  33.10400 1.27600 34.19300
H  33.25300 1.20500 36.72000
H  32.05300 2.08400 35.92900
H  40.48100 0.30400 30.78300
H  39.78400 1.37600 31.97100
H  40.78200 2.00900 30.63700
H  41.89800 0.38600 27.32100
H  41.17500 -0.33800 28.85000
H  41.40900 1.42400 28.64800
H  35.23000 0.74900 24.94900
H  33.09700 2.80500 24.84400
H  36.21100 2.21100 23.62400
H  36.13000 3.54100 24.87600
H  34.78500 3.28400 23.74100
H  32.01800 0.51300 26.20200
H  33.17300 -0.24000 25.11600
H  30.46800 0.38400 24.54500
H  31.77000 0.05000 23.37800
H  31.33300 1.73000 23.78100
H  29.55200 4.45300 27.57400
H  28.69700 4.74400 28.95500
H  28.69000 2.99800 28.35100
H  31.15800 2.97900 33.73800
H  30.85100 7.25400 34.75800
H  32.27300 6.49700 35.66400
H  30.65100 6.34700 36.32900

