158

Mg 17.17000 52.28900 26.52400
C  19.09100 50.83300 29.28200
C  14.63300 52.66600 28.80800
C  15.25800 53.10800 23.94900
C  19.57100 50.70900 24.27000
N  16.92400 51.72800 28.79400
C  17.90600 51.36500 29.69100
C  17.40300 51.49600 31.12700
C  15.82300 51.80800 30.91100
C  15.76600 52.10900 29.43300
C  14.95800 50.55300 31.27900
C  18.23000 52.58100 31.81500
C  18.56300 52.47100 33.34600
H  17.69000 51.59500 34.25400
N  15.33900 53.04700 26.46000
C  14.41100 53.16800 27.51300
C  13.23800 53.86200 26.98200
C  13.40000 54.01400 25.52500
C  14.68000 53.39000 25.28000
C  12.10300 54.31800 27.90000
C  12.55200 54.76500 24.50000
O  12.94200 54.98700 23.35000
C  11.21900 55.27900 24.85700
N  17.37800 51.93900 24.43900
C  16.53100 52.56500 23.57900
C  16.97100 52.38900 22.08400
C  18.45600 51.90300 22.26500
C  18.46900 51.42100 23.71000
C  16.09100 51.47600 21.19100
C  19.52700 52.91800 21.94700
C  20.63500 52.47500 20.97700
N  18.99500 51.06500 26.74300
C  19.79200 50.47900 25.66300
C  20.84700 49.82900 26.28000
C  20.69600 49.99100 27.67100
C  19.49700 50.66100 27.90800
C  21.99400 49.16200 25.56100
C  21.24200 49.67300 29.04200
O  22.21600 48.97500 29.36700
C  20.14800 50.18200 30.06900
C  19.61200 48.95100 30.74500
O  18.81100 48.13000 30.28400
O  19.96000 49.02500 32.11000
C  19.58000 47.85500 32.94300
H  13.76900 52.67200 29.47500
H  14.70800 53.41500 23.05700
H  20.29700 50.38700 23.52000
H  17.46300 50.52400 31.61600
H  15.45900 52.60300 31.56200
H  15.08100 50.26900 32.32400
H  15.31200 49.69300 30.71100
H  13.93100 50.89500 31.15200
H  17.65700 53.50000 31.69100
H  19.21100 52.76700 31.37700
H  18.71000 53.47900 33.73400
H  19.53200 52.01000 33.53800
H  12.20400 53.79200 28.84900
H  11.09300 54.15300 27.52400
H  12.15000 55.38200 28.13100
H  11.25700 56.24600 25.35900
H  10.72100 54.44400 25.35000
H  10.66400 55.55000 23.95900
H  16.95200 53.35800 21.58500
H  18.51700 50.98000 21.69000
H  15.02100 51.64600 21.31200
H  16.34900 50.45100 21.46000
H  16.35000 51.74900 20.16900
H  19.95100 53.06400 22.94100
H  19.09900 53.88600 21.68700
H  20.91900 53.25100 20.26600
H  20.35600 51.56900 20.43800
H  21.53100 52.29400 21.57100
H  22.82800 49.07300 26.25700
H  22.26300 49.82500 24.73900
H  21.64300 48.25000 25.07700
H  20.69200 50.80000 30.78200
H  20.45900 47.21100 32.95900
H  18.73300 47.34900 32.47900
H  19.36300 48.06400 33.99000
Mg -1.62900 33.49300 26.85600
C  -3.10200 31.92600 29.59500
C  -0.32300 35.88300 29.21500
C  -0.50300 35.32000 24.25600
C  -3.22700 31.26600 24.74800
N  -1.59800 33.76300 29.18500
C  -2.33000 32.97000 30.01600
C  -2.19600 33.43700 31.44300
C  -1.45200 34.82800 31.21400
C  -1.05000 34.82900 29.75800
C  -2.14600 36.09900 31.74500
C  -1.36400 32.42900 32.36500
C  -2.03300 32.03800 33.65200
H  -1.09900 31.93300 34.91300
N  -0.55900 35.24400 26.74300
C  -0.12900 36.05900 27.79500
C  0.56600 37.17500 27.26700
C  0.51100 37.10000 25.85400
C  -0.19200 35.84100 25.53400
C  1.34100 38.21400 28.19200
C  1.03900 38.05500 24.80200
O  0.93800 37.93900 23.52900
C  1.62900 39.45100 25.21400
N  -2.00200 33.46400 24.75100
C  -1.25600 34.21300 23.89800
C  -1.37500 33.58100 22.43600
C  -2.40200 32.51400 22.67600
C  -2.52200 32.33100 24.14500
C  -1.79300 34.56700 21.29600
C  -2.14800 31.17300 21.93500
C  -0.95400 30.40900 22.48400
N  -2.93600 31.93500 27.08200
C  -3.47500 31.07500 26.11400
C  -4.24000 30.08900 26.76100
C  -4.15200 30.40700 28.11200
C  -3.32000 31.51600 28.21400
C  -4.97200 29.02400 25.99200
C  -4.58500 29.99000 29.44600
O  -5.31000 29.07900 29.86400
C  -4.01200 30.98800 30.46800
C  -5.04600 31.69400 31.28100
O  -5.60700 32.73700 30.87300
O  -5.26600 31.12500 32.46800
C  -6.36500 31.68400 33.30200
H  0.09500 36.44800 30.05200
H  -0.07800 35.83900 23.39500
H  -3.68300 30.44900 24.18400
H  -3.16200 33.64000 31.90600
H  -0.48000 34.81700 31.70700
H  -1.36100 36.72500 32.16900
H  -2.71300 35.82000 32.63400
H  -2.73000 36.60400 30.97600
H  -0.46100 32.94300 32.69300
H  -1.20600 31.50700 31.80600
H  -2.41200 31.01800 33.59400
H  -2.93600 32.64300 33.73400
H  2.37700 38.36300 27.88700
H  1.28400 37.88200 29.22900
H  0.82300 39.17300 28.20500
H  2.65600 39.33400 25.56300
H  1.08700 39.86700 26.06400
H  1.49700 40.08100 24.33500
H  -0.46800 33.04200 22.16200
H  -3.40600 32.79600 22.35800
H  -0.94800 34.53600 20.60900
H  -1.99700 35.54100 21.74000
H  -2.62700 34.28500 20.65300
H  -1.94100 31.45100 20.90200
H  -3.07300 30.59900 21.98700
H  -0.07600 30.47600 21.84100
H  -1.24400 29.35900 22.47000
H  -0.60900 30.62000 23.49600
H  -4.62300 28.69100 25.01500
H  -5.98800 29.41000 25.91100
H  -5.00300 28.24500 26.75400
H  -3.30400 30.44200 31.09100
H  -6.03200 32.61600 33.75900
H  -6.75300 30.90000 33.95100
H  -7.15100 31.91200 32.58300

