158

Mg 6.70500 53.93000 40.99900
C  5.91600 50.49900 40.89900
C  9.79400 53.05800 39.77700
C  7.06400 57.12400 40.04100
C  3.46000 54.53200 42.01000
N  7.70500 51.94400 40.38100
C  7.23400 50.72800 40.42700
C  8.28100 49.65800 40.00200
C  9.60400 50.47000 40.11200
C  9.03100 51.89800 40.03600
C  10.42800 50.23100 41.39200
C  8.03600 49.03100 38.54300
C  7.68000 49.96400 37.40300
H  6.45600 49.63000 36.50300
N  8.23300 54.95200 40.00500
C  9.43500 54.37600 39.67900
C  10.25800 55.51000 38.95100
C  9.46900 56.69600 38.99200
C  8.19000 56.28800 39.69700
C  11.61400 55.29200 38.32900
C  9.84800 58.03700 38.34600
O  10.96000 58.10400 37.76800
C  9.05700 59.22400 38.47800
N  5.31300 55.61500 40.83200
C  5.87600 56.85500 40.63300
C  4.91500 57.94100 41.21800
C  3.60200 57.11800 41.52700
C  4.13300 55.66700 41.52000
C  5.52100 58.62700 42.39700
C  2.63700 57.33100 40.30200
C  1.25500 56.66700 40.26900
N  5.03100 52.81800 41.52600
C  3.87000 53.22100 42.06200
C  3.15200 52.04000 42.57100
C  3.87700 50.99000 42.13400
C  5.00600 51.49400 41.38400
C  1.84200 52.06600 43.24600
C  3.93600 49.57200 42.14800
O  3.18200 48.88700 42.72900
C  5.24700 49.15900 41.32900
C  4.67500 48.34700 40.23200
O  3.86700 48.82300 39.41000
O  5.22900 47.08800 40.26300
C  4.48800 46.17700 39.42200
H  10.79300 52.87500 39.37600
H  7.36800 58.16300 39.89300
H  2.42300 54.75200 42.27100
H  8.31800 48.81200 40.68900
H  10.26600 50.21700 39.28400
H  10.50500 51.14700 41.97800
H  11.44300 49.97600 41.08800
H  10.09200 49.45100 42.07500
H  7.15500 48.39300 38.60600
H  8.99000 48.57100 38.28500
H  8.54600 50.00900 36.74200
H  7.47600 50.97300 37.76000
H  11.78100 55.55500 37.28400
H  11.76100 54.21400 38.25800
H  12.41600 55.78600 38.87700
H  8.09800 59.06600 37.98600
H  9.50500 60.08500 37.98100
H  8.84000 59.36000 39.53800
H  4.77900 58.58500 40.35000
H  3.11100 57.28600 42.48500
H  6.61000 58.59900 42.42700
H  5.15100 58.21400 43.33600
H  5.34000 59.69500 42.27400
H  3.19900 57.01900 39.42100
H  2.40600 58.39500 40.34300
H  0.47100 57.40200 40.08900
H  0.89500 56.32000 41.23800
H  1.28300 55.86900 39.52700
H  1.28300 52.99100 43.10700
H  1.85500 52.05400 44.33600
H  1.21300 51.24300 42.90500
H  5.89300 48.48500 41.89200
H  3.41400 46.18600 39.61100
H  4.93000 45.18400 39.50500
H  4.61500 46.53400 38.40000
Mg -6.07400 24.97200 24.90700
C  -4.42900 26.22300 27.78700
C  -7.94000 22.81700 26.84600
C  -7.43400 23.55000 22.01600
C  -4.15200 27.09000 23.00000
N  -6.07800 24.46900 27.05400
C  -5.37900 25.14000 28.04100
C  -5.98900 24.81000 29.37500
C  -6.89000 23.53300 29.07400
C  -6.92000 23.52700 27.53300
C  -6.46500 22.13400 29.69100
C  -6.84100 25.96500 29.98600
C  -6.85400 26.03600 31.51100
H  -6.17600 24.91200 32.26400
N  -7.54200 23.41300 24.49700
C  -8.18800 22.68500 25.41700
C  -9.09900 21.74000 24.83300
C  -9.04100 22.01800 23.36800
C  -7.97600 23.01500 23.23300
C  -9.97000 20.80000 25.64300
C  -9.71800 21.23100 22.26600
O  -9.49600 21.35300 21.10100
C  -10.83500 20.20700 22.60600
N  -5.66800 25.12000 22.86300
C  -6.40200 24.52000 21.84600
C  -6.01900 25.02900 20.52800
C  -5.11400 26.25300 20.84600
C  -5.01500 26.18400 22.31700
C  -5.33300 23.97500 19.63500
C  -5.63400 27.67100 20.30400
C  -6.70000 28.29100 21.24200
N  -4.68900 26.39600 25.23000
C  -3.98200 27.15400 24.37200
C  -3.14800 28.11700 25.14900
C  -3.24600 27.74800 26.51700
C  -4.17700 26.72500 26.49100
C  -2.30300 29.21600 24.50700
C  -2.79800 27.98500 27.85800
O  -1.99700 28.76600 28.29700
C  -3.64900 27.07000 28.77000
C  -2.81500 26.28600 29.70500
O  -2.49100 25.13100 29.57000
O  -2.67500 27.04700 30.87100
C  -1.83400 26.59000 32.05000
H  -8.63500 22.23800 27.45700
H  -7.97300 23.29300 21.10100
H  -3.42100 27.69800 22.46200
H  -5.20200 24.46300 30.04400
H  -7.85600 23.71500 29.54700
H  -5.37700 22.17800 29.73600
H  -6.72100 21.30900 29.02600
H  -6.95700 22.02000 30.65700
H  -7.90500 25.76200 29.86200
H  -6.68700 26.95400 29.55500
H  -7.89700 25.99500 31.82700
H  -6.34500 26.98700 31.66500
H  -9.69900 19.78300 25.35800
H  -10.97200 21.08100 25.31800
H  -9.95200 20.91100 26.72700
H  -10.41100 19.33800 23.10800
H  -11.25500 19.99400 21.62300
H  -11.57700 20.73200 23.20800
H  -6.83800 25.38600 19.90400
H  -4.15700 26.03600 20.37400
H  -4.33300 23.73500 19.99500
H  -5.20900 24.31900 18.60900
H  -6.02400 23.13600 19.72000
H  -6.08800 27.58900 19.31600
H  -4.83300 28.40500 20.21600
H  -7.48900 28.78300 20.67400
H  -6.27900 29.05600 21.89600
H  -7.17000 27.55500 21.89400
H  -2.91300 29.76100 23.78700
H  -1.42000 28.71400 24.11200
H  -2.05500 29.87900 25.33600
H  -4.24500 27.75900 29.36900
H  -2.36400 26.34200 32.96900
H  -1.21300 27.44700 32.31000
H  -1.25800 25.71100 31.76200

