158

Mg 15.71200 -1.50200 28.16500
C  14.55800 0.49100 30.86300
C  17.89600 -3.10600 30.38300
C  16.66300 -3.43200 25.68800
C  13.88500 0.51000 26.00000
N  16.24200 -1.21900 30.33700
C  15.52300 -0.45200 31.23500
C  16.08600 -0.67700 32.70500
C  17.15300 -1.82900 32.50800
C  17.13200 -2.05100 30.93800
C  18.57500 -1.52800 33.04400
C  14.93900 -1.11600 33.72000
C  15.09500 -0.73500 35.18700
H  16.35300 -0.07400 35.76600
N  17.17500 -2.99100 28.01100
C  17.85000 -3.57600 29.07700
C  18.73300 -4.59600 28.48300
C  18.24900 -4.89800 27.15200
C  17.32700 -3.75000 26.89400
C  19.69100 -5.32500 29.36700
C  18.51800 -5.96400 26.12700
O  17.71800 -6.13100 25.19800
C  19.41900 -7.09700 26.54400
N  15.37300 -1.49300 26.14700
C  15.83900 -2.42400 25.33500
C  15.43200 -2.15200 23.85000
C  14.49500 -0.88500 23.96900
C  14.57000 -0.63000 25.50200
C  16.58200 -1.95300 22.81500
C  13.06700 -1.02200 23.38100
C  11.90500 -1.65900 24.15400
N  14.37000 0.09300 28.37500
C  13.74600 0.81500 27.32700
C  12.95900 1.81000 27.97200
C  13.28400 1.79700 29.37000
C  14.11600 0.74300 29.52500
C  12.19600 2.85900 27.22200
C  13.05600 2.44700 30.62900
O  12.37700 3.42700 30.83400
C  13.70500 1.47700 31.70200
C  14.49000 2.38800 32.56400
O  15.58200 2.91500 32.35400
O  13.77800 2.68800 33.66200
C  14.38900 3.59000 34.65500
H  18.59000 -3.52600 31.11400
H  16.85800 -4.00800 24.78100
H  13.29800 1.10300 25.29600
H  16.54500 0.29700 32.87200
H  16.94800 -2.74900 33.05500
H  18.41300 -0.60500 33.60200
H  19.27900 -1.25800 32.25700
H  18.82500 -2.43000 33.60200
H  15.03600 -2.19900 33.65000
H  14.00400 -0.80700 33.25400
H  14.87800 -1.65700 35.72700
H  14.30500 -0.02100 35.42100
H  20.65900 -5.56000 28.92600
H  19.25800 -6.24200 29.76900
H  19.92600 -4.71500 30.23900
H  19.35600 -7.95900 25.88000
H  19.12900 -7.46900 27.52700
H  20.45300 -6.76600 26.45600
H  14.80000 -2.93900 23.43700
H  15.04600 -0.05900 23.51900
H  17.47500 -1.93000 23.44000
H  16.46100 -1.19600 22.04000
H  16.62400 -2.88700 22.25400
H  13.05900 -1.60400 22.45900
H  12.61900 -0.07100 23.09300
H  12.14000 -2.20600 25.06700
H  11.39500 -2.37300 23.50800
H  11.32100 -0.84100 24.57600
H  12.67700 3.14700 26.28700
H  12.02700 3.65700 27.94500
H  11.19600 2.46700 27.03500
H  12.96000 0.96300 32.31000
H  14.36500 4.61600 34.28700
H  15.45400 3.39100 34.77000
H  13.78100 3.64100 35.55800
Mg 9.43700 47.90900 26.07400
C  7.42700 47.69900 28.90100
C  11.92500 49.01800 28.09500
C  11.15300 48.48200 23.40300
C  6.61700 46.92300 24.02400
N  9.54500 48.58600 28.27000
C  8.67500 48.26900 29.26000
C  9.23700 48.81400 30.69100
C  10.78200 49.01500 30.41500
C  10.73400 48.92900 28.78100
C  11.23000 50.50400 30.88200
C  8.94800 47.91700 31.89600
C  9.64600 48.17900 33.31200
H  8.84300 47.91100 34.56500
N  11.32600 48.58000 25.78500
C  12.23100 48.86600 26.70800
C  13.48600 49.08500 26.09700
C  13.29400 49.01200 24.70500
C  11.84600 48.72800 24.58100
C  14.78100 49.36100 26.91800
C  14.29700 49.07300 23.60500
O  13.99900 48.92600 22.45100
C  15.76200 49.16500 23.90500
N  8.89800 47.88000 24.04300
C  9.88700 48.00000 23.14700
C  9.36900 47.94000 21.71300
C  8.02600 47.14800 21.95100
C  7.85900 47.29000 23.43100
C  9.27300 49.30500 21.03700
C  7.98000 45.66300 21.49100
C  9.22600 44.68300 21.75600
N  7.44500 47.35100 26.37700
C  6.46800 46.91700 25.51000
C  5.33200 46.45600 26.22700
C  5.62100 46.80100 27.60300
C  6.97500 47.29200 27.61200
C  4.07200 46.02200 25.58300
C  5.10800 46.87500 28.96100
O  3.96400 46.73400 29.39500
C  6.30700 47.24400 29.86800
C  6.77100 46.00200 30.56600
O  7.51100 45.13900 30.10800
O  6.21800 46.01900 31.83900
C  6.61000 44.89900 32.71400
H  12.84800 49.17000 28.65800
H  11.70200 48.57900 22.46400
H  5.70600 46.57400 23.53400
H  8.75000 49.77300 30.87000
H  11.40300 48.18000 30.73700
H  10.44900 51.00000 31.45900
H  11.23200 51.15200 30.00500
H  12.21400 50.54000 31.35000
H  9.08800 46.86500 31.64700
H  7.89100 48.04800 32.12600
H  9.99300 49.20800 33.41100
H  10.59000 47.64100 33.40000
H  14.59200 48.98700 27.92400
H  15.06600 50.40900 27.00800
H  15.62500 48.77200 26.56100
H  16.01000 49.85500 24.71100
H  16.24900 49.39900 22.95900
H  15.97500 48.12600 24.15500
H  10.15100 47.37800 21.20300
H  7.19500 47.73100 21.55500
H  9.53700 50.11700 21.71400
H  8.27500 49.57900 20.69700
H  10.02200 49.22800 20.24800
H  7.82200 45.72300 20.41500
H  7.19200 45.12100 22.01500
H  10.05900 45.34700 21.98800
H  9.49200 44.13500 20.85200
H  9.00300 44.06200 22.62300
H  4.40400 45.56200 24.65200
H  3.48300 46.92500 25.42200
H  3.43700 45.36700 26.17900
H  5.94800 47.94800 30.61900
H  7.61600 45.08700 33.08800
H  6.49500 43.95100 32.18900
H  6.00500 44.88500 33.62100

