158

Mg 41.30600 9.57600 29.94900
C  42.66400 10.66800 33.01300
C  38.89500 7.86800 31.72200
C  40.38500 8.20100 27.00900
C  44.25000 10.76800 28.35600
N  40.96900 9.19000 32.16200
C  41.52200 9.88200 33.22700
C  40.68700 9.76600 34.46200
C  39.53700 8.78000 33.99800
C  39.77800 8.59200 32.50600
C  39.33900 7.41800 34.78600
C  40.19800 11.03800 35.18100
C  40.31300 10.99800 36.71300
H  40.73700 12.20800 37.62400
N  39.74200 8.27600 29.44400
C  38.79700 7.67400 30.32400
C  37.86200 6.91800 29.49500
C  38.23100 7.06600 28.09600
C  39.52300 7.82500 28.10300
C  36.60000 6.30700 30.01400
C  37.39600 6.78500 26.85300
O  37.72400 7.18900 25.76900
C  36.26300 5.89600 27.05000
N  42.15900 9.55500 27.93600
C  41.56400 8.92200 26.90800
C  42.43000 9.07900 25.58800
C  43.44300 10.21800 26.02900
C  43.30800 10.21500 27.54900
C  42.98900 7.67700 25.20200
C  43.06700 11.69600 25.47400
C  41.59000 12.13600 25.53400
N  42.97900 10.59900 30.49800
C  44.05400 11.01900 29.70200
C  44.81200 11.97000 30.54100
C  44.37000 11.76500 31.83900
C  43.23600 10.90600 31.76100
C  46.01500 12.75900 30.02100
C  44.72700 11.95900 33.19600
O  45.74800 12.47400 33.71900
C  43.50900 11.46900 34.02300
C  43.97800 10.55500 35.09800
O  44.77800 9.64000 34.93500
O  43.55500 11.04500 36.33900
C  44.09100 10.42700 37.53700
H  38.11200 7.41000 32.33000
H  40.04500 7.97500 25.99700
H  45.04300 11.31100 27.83900
H  41.33900 9.19000 35.11900
H  38.55600 9.25600 34.00900
H  38.32400 7.09200 35.01000
H  39.88800 7.45300 35.72700
H  39.94500 6.69800 34.23500
H  39.13800 11.15400 34.95700
H  40.76600 11.86800 34.76200
H  40.64700 10.01900 37.05600
H  39.24600 10.96600 36.93400
H  36.71600 5.23900 29.83000
H  35.68400 6.63800 29.52600
H  36.60000 6.40900 31.09900
H  35.76900 5.53000 26.15000
H  35.50200 6.41000 27.63700
H  36.57600 4.94300 27.47700
H  41.72700 9.42900 24.83300
H  44.49400 10.05700 25.79200
H  43.00400 6.93900 26.00400
H  43.98200 7.84700 24.78500
H  42.33200 7.22500 24.46000
H  43.24100 11.64200 24.39900
H  43.67300 12.45100 25.97700
H  41.54400 13.20400 25.74500
H  41.14200 11.63900 26.39400
H  41.10000 11.86000 24.60000
H  46.00100 12.66400 28.93500
H  46.98300 12.38800 30.36000
H  45.91300 13.78500 30.37300
H  42.92200 12.33100 34.33900
H  43.31400 10.57700 38.28700
H  45.01000 10.84700 37.94500
H  44.14000 9.36600 37.29100
Mg 10.00900 47.34400 26.19600
C  7.79600 47.34100 29.02800
C  12.30800 48.67500 28.29800
C  12.00400 47.57800 23.61700
C  7.25400 46.84200 24.18400
N  10.03200 47.87100 28.48900
C  9.04000 47.74300 29.44300
C  9.54300 48.19900 30.82300
C  10.73700 49.11700 30.32000
C  11.07500 48.56000 28.94600
C  10.41900 50.66800 30.19400
C  10.10700 46.98000 31.80700
C  9.58200 46.94400 33.29000
H  9.75400 45.72700 34.12000
N  11.89200 47.86400 25.93200
C  12.69100 48.28800 26.96200
C  14.09700 48.27600 26.45800
C  13.99500 47.90200 25.11700
C  12.61900 47.79100 24.83900
C  15.27300 48.71000 27.24100
C  15.11700 47.57200 24.09800
O  14.81300 47.34500 22.94100
C  16.47800 47.51000 24.54900
N  9.62500 47.37500 24.14400
C  10.64500 47.39400 23.27400
C  10.24100 47.19600 21.73900
C  8.70100 46.98000 22.01700
C  8.48600 47.12100 23.54600
C  10.58400 48.41200 20.82700
C  7.95800 45.75700 21.42700
C  8.19600 44.42700 22.08200
N  7.96400 47.04700 26.46400
C  6.99300 46.85700 25.54300
C  5.71000 46.73400 26.18200
C  6.00600 46.76000 27.50900
C  7.35700 47.10100 27.68100
C  4.38000 46.41700 25.49200
C  5.43400 46.62400 28.84200
O  4.27900 46.29700 29.18600
C  6.58500 47.02200 29.84700
C  6.88300 45.81600 30.73400
O  7.70800 44.99000 30.41400
O  5.97900 45.76700 31.77000
C  6.10900 44.59100 32.64500
H  13.16200 49.13700 28.79700
H  12.62700 47.53600 22.72100
H  6.41900 46.75700 23.48500
H  8.81500 48.76200 31.40800
H  11.64800 48.97100 30.90200
H  11.27300 51.17700 30.64200
H  9.50800 50.92800 30.73300
H  10.32900 51.02200 29.16800
H  11.18600 47.08800 31.92200
H  10.06900 45.98900 31.35500
H  8.51900 47.18200 33.23800
H  10.20200 47.72900 33.72200
H  15.06700 48.88600 28.29700
H  15.69900 49.66200 26.92600
H  16.02400 47.92500 27.16100
H  17.16000 47.32300 23.71900
H  16.51800 46.65400 25.22300
H  16.87500 48.39700 25.04200
H  10.63900 46.32800 21.21500
H  8.12200 47.80900 21.61100
H  11.17900 49.12800 21.39300
H  9.71200 48.99900 20.53700
H  11.22000 48.25700 19.95500
H  8.39700 45.62100 20.43900
H  6.89800 46.00200 21.36800
H  7.23900 44.05000 22.44300
H  8.84900 44.48600 22.95300
H  8.65300 43.68700 21.42600
H  4.62600 45.96200 24.53300
H  3.73400 47.29500 25.47300
H  3.88700 45.61200 26.03700
H  6.26700 47.80500 30.53500
H  6.41400 44.92600 33.63600
H  6.72900 43.75700 32.31800
H  5.09300 44.21200 32.75400

