158

Mg 48.96900 45.89900 43.30800
C  45.69900 46.22300 42.13200
C  48.92200 42.51500 42.40400
C  52.39300 45.79400 43.56500
C  49.06200 49.29800 43.75900
N  47.55500 44.61400 42.23000
C  46.26200 44.95100 41.87800
C  45.48800 43.68600 41.48200
C  46.42200 42.57600 41.85000
C  47.73300 43.25800 42.23400
C  45.83400 41.72300 42.96100
C  44.99300 43.64100 40.01700
C  45.86500 44.32400 38.92500
H  46.14800 43.42500 37.64100
N  50.44800 44.34400 43.04800
C  50.17500 43.07500 42.64200
C  51.44800 42.36600 42.49500
C  52.47800 43.23800 42.92100
C  51.83000 44.54200 43.16000
C  51.44000 40.94300 42.28200
C  53.93600 42.80200 42.92600
O  54.25200 41.71000 42.59200
C  55.05700 43.80800 43.20100
N  50.54700 47.37100 43.47300
C  51.83600 47.04100 43.80700
C  52.75000 48.26700 44.09000
C  51.64800 49.30400 44.43900
C  50.35100 48.65100 43.88400
C  53.77700 48.01300 45.19000
C  51.95800 50.76800 43.95800
C  52.36700 51.70300 45.10500
N  47.65400 47.48500 43.13000
C  47.91000 48.79800 43.34100
C  46.61600 49.52900 43.02300
C  45.71400 48.55400 42.60600
C  46.41300 47.31800 42.66000
C  46.36300 51.00400 42.93700
C  44.34800 48.32300 42.09700
O  43.35900 49.00400 41.98300
C  44.36600 46.78400 41.71000
C  43.12600 46.12300 42.22800
O  42.37300 45.55300 41.51600
O  42.96000 46.19300 43.57000
C  41.74600 45.58100 44.02000
H  48.74300 41.45700 42.19800
H  53.47800 45.85200 43.67000
H  49.16700 50.35900 43.99700
H  44.61200 43.70000 42.12900
H  46.55800 41.93000 40.98300
H  44.75400 41.59000 42.90700
H  46.04800 41.99600 43.99500
H  46.26100 40.72100 42.91500
H  43.99000 44.06300 39.95900
H  44.84400 42.58600 39.78400
H  46.84100 44.59600 39.32700
H  45.27900 45.18300 38.59800
H  51.98000 40.68900 41.37000
H  50.51300 40.37400 42.20500
H  51.93000 40.49900 43.14800
H  54.93700 44.68000 42.55800
H  55.97400 43.43600 42.74500
H  55.21100 44.02100 44.25800
H  53.29200 48.41800 43.15700
H  51.39100 49.32500 45.49800
H  53.57300 47.13000 45.79600
H  53.69200 48.90500 45.81000
H  54.75700 47.96900 44.71400
H  51.09800 51.20300 43.44900
H  52.72700 50.77000 43.18500
H  51.60400 52.41400 45.42400
H  53.20200 52.35500 44.85000
H  52.73900 51.29300 46.04400
H  46.82100 51.27500 41.98600
H  46.86900 51.58200 43.71100
H  45.28300 51.15000 42.94700
H  44.27500 46.60700 40.63800
H  40.89400 45.73900 43.35900
H  41.46900 45.98500 44.99400
H  41.77500 44.49600 44.12200
Mg 16.81500 51.74300 26.41900
C  18.82700 50.52200 29.03900
C  14.62200 52.79900 28.98100
C  14.59800 52.53700 23.97800
C  18.96500 50.44100 24.06700
N  16.67900 51.58700 28.77800
C  17.56400 50.92100 29.54900
C  17.10400 50.99400 31.01600
C  15.70100 51.53400 30.93400
C  15.62500 51.95100 29.48000
C  14.57000 50.52200 31.30300
C  18.02400 51.71300 32.02200
C  18.12500 51.19200 33.47800
H  17.36200 51.91100 34.49100
N  14.90400 52.54300 26.47900
C  14.28600 53.11400 27.61900
C  13.19700 53.93000 27.16100
C  13.12400 53.85000 25.73800
C  14.25100 52.95100 25.32800
C  12.41100 54.76600 28.12700
C  12.12200 54.54900 24.87500
O  12.29000 54.63100 23.64800
C  10.94000 55.33400 25.41800
N  16.69500 51.31200 24.39500
C  15.64900 51.76700 23.58100
C  16.03700 51.65200 22.13500
C  17.60800 51.25000 22.16800
C  17.76900 50.99700 23.63100
C  15.19100 50.61700 21.29100
C  18.70700 52.28900 21.70000
C  19.70300 51.71400 20.67000
N  18.59600 50.67900 26.43200
C  19.38000 50.28900 25.40000
C  20.57800 49.72000 25.98900
C  20.42800 49.68700 27.38100
C  19.13700 50.35400 27.62300
C  21.71800 49.06700 25.26200
C  20.98200 49.42800 28.61400
O  22.03500 48.92000 28.89900
C  20.03400 49.90000 29.79700
C  19.77800 48.86900 30.81500
O  19.09600 47.86200 30.68400
O  20.40900 49.11400 31.99500
C  20.23800 48.15000 33.14300
H  13.97800 53.23800 29.74700
H  14.07500 53.09800 23.20100
H  19.72400 50.10300 23.35800
H  17.00500 49.92600 31.21100
H  15.59800 52.39500 31.59400
H  13.99600 50.10400 30.47500
H  14.02200 50.87600 32.17600
H  15.04200 49.64400 31.74300
H  17.63500 52.73100 32.01900
H  19.00800 51.90200 31.59300
H  19.17200 51.19500 33.78300
H  17.82500 50.14400 33.51100
H  12.02300 55.72600 27.78700
H  13.00400 54.98300 29.01600
H  11.57300 54.17400 28.49400
H  10.09200 55.49700 24.75300
H  11.32600 56.31300 25.70000
H  10.47800 54.76700 26.22600
H  15.95700 52.65500 21.71600
H  17.73300 50.32200 21.60900
H  14.13700 50.83900 21.46000
H  15.45800 49.63200 21.67300
H  15.36300 50.75100 20.22300
H  19.24500 52.71700 22.54600
H  18.16900 53.03100 21.11100
H  19.89100 52.43600 19.87500
H  19.51900 50.69500 20.33200
H  20.57400 51.55900 21.30800
H  22.02700 49.86300 24.58300
H  21.36900 48.23800 24.64600
H  22.34000 48.84100 26.12800
H  20.59500 50.74500 30.19500
H  20.64300 48.63900 34.02900
H  20.84900 47.26100 32.98300
H  19.17500 47.93200 33.24900

