158

Mg 43.92400 2.67200 47.88500
C  41.85400 5.32400 46.96800
C  41.11500 0.67800 47.91400
C  45.89300 -0.08600 47.97400
C  46.71000 4.54700 47.19000
N  41.69300 2.99600 47.34800
C  41.08100 4.16700 47.09600
C  39.57500 3.88700 46.80700
C  39.34900 2.48500 47.43200
C  40.82300 1.98500 47.53200
C  38.47800 2.47400 48.74100
C  39.17300 4.00300 45.30200
C  38.26100 5.27100 45.01700
H  38.76000 6.23500 43.89200
N  43.56100 0.61400 48.02200
C  42.33100 0.01900 48.07700
C  42.52900 -1.38400 48.33600
C  43.94400 -1.73300 48.19200
C  44.50800 -0.36400 47.99600
C  41.35000 -2.32200 48.55100
C  44.54500 -3.10600 48.35500
O  43.79500 -4.09000 48.63100
C  45.99100 -3.37000 48.20100
N  46.03900 2.16700 47.37400
C  46.61600 1.01200 47.75800
C  48.17900 1.17100 47.66400
C  48.37600 2.69300 47.40000
C  46.94300 3.16300 47.26400
C  49.02300 0.75700 48.85800
C  49.34500 3.03000 46.21400
C  50.32700 4.22900 46.51600
N  44.24000 4.51900 47.31000
C  45.39700 5.18900 47.11500
C  45.15200 6.55200 46.92600
C  43.75300 6.65800 46.83600
C  43.23000 5.43700 47.07500
C  46.15800 7.65400 46.64400
C  42.64900 7.60200 46.54900
O  42.64900 8.82000 46.32400
C  41.32800 6.73100 46.65300
C  40.39400 7.29000 47.53600
O  40.06900 6.79500 48.60200
O  39.92600 8.47200 47.06100
C  38.97100 9.24100 47.86200
H  40.24900 0.05300 48.14100
H  46.55900 -0.91400 48.22500
H  47.56800 5.20800 47.05500
H  38.94100 4.54600 47.39900
H  38.89800 1.77700 46.73600
H  37.67400 1.74100 48.81500
H  38.01800 3.44200 48.94100
H  39.13700 2.38300 49.60300
H  38.54700 3.17400 44.97200
H  40.12300 3.98600 44.76600
H  37.99000 5.81600 45.92200
H  37.33200 4.87900 44.60300
H  40.43800 -1.78000 48.29900
H  41.26700 -2.54400 49.61500
H  41.14500 -3.29100 48.09500
H  46.27400 -2.90300 47.25800
H  46.33900 -4.40000 48.27800
H  46.51500 -2.81300 48.97900
H  48.48300 0.71500 46.72200
H  48.70200 3.25600 48.27400
H  49.84400 1.45700 49.01300
H  49.45900 -0.22800 48.69000
H  48.49900 0.62100 49.80400
H  48.80900 3.29000 45.30100
H  49.76000 2.05300 45.97000
H  51.33700 3.95800 46.20800
H  50.29700 4.43300 47.58600
H  50.00000 5.15800 46.04800
H  46.84100 7.80500 47.47900
H  45.64600 8.61600 46.68200
H  46.72700 7.52500 45.72200
H  40.86400 6.70100 45.66700
H  38.33500 9.82800 47.19900
H  39.55900 9.87300 48.52800
H  38.32200 8.68600 48.53900
Mg 15.45600 52.21700 26.25400
C  17.67300 51.46500 28.77200
C  12.94100 52.62400 28.53700
C  13.23900 52.38000 23.70600
C  18.05300 51.28600 23.89900
N  15.34600 51.91200 28.36700
C  16.36000 51.68800 29.25100
C  15.94900 52.01700 30.65400
C  14.40500 51.83900 30.53300
C  14.19700 52.19500 29.05100
C  13.88300 50.45200 30.99300
C  16.54100 53.40100 31.11900
C  16.56500 53.78900 32.57500
H  15.72900 52.90500 33.49900
N  13.37000 52.47400 26.09900
C  12.56600 52.74300 27.13200
C  11.21800 53.12600 26.69700
C  11.27900 52.99700 25.26700
C  12.64300 52.47200 24.96900
C  10.14400 53.66100 27.62100
C  10.15000 53.22000 24.27900
O  10.33900 52.94700 23.12100
C  8.87900 53.72800 24.70900
N  15.58600 51.98100 24.14200
C  14.54500 52.18900 23.31500
C  14.95800 52.12900 21.90300
C  16.48200 51.78200 21.90900
C  16.72400 51.65600 23.38500
C  14.01700 51.15000 21.06700
C  17.34600 52.88700 21.22400
C  18.18200 52.52100 20.01700
N  17.54300 51.57600 26.29500
C  18.48100 51.26600 25.25600
C  19.68000 50.78300 25.89100
C  19.39800 50.89400 27.25800
C  18.10900 51.44400 27.47100
C  20.97000 50.37200 25.28700
C  19.96100 50.71900 28.59500
O  21.06000 50.25600 28.92000
C  18.93900 51.12900 29.62600
C  18.76400 50.02300 30.62600
O  18.48900 48.84800 30.41600
O  18.93400 50.54300 31.91600
C  18.81600 49.61300 32.99700
H  12.17300 52.80700 29.29100
H  12.72600 52.68200 22.79100
H  18.83100 50.95400 23.20900
H  16.42800 51.27300 31.29100
H  13.81300 52.58400 31.06500
H  14.65200 49.69000 30.86500
H  12.97600 50.20300 30.44200
H  13.67000 50.64000 32.04500
H  15.97800 54.15700 30.57100
H  17.54100 53.34400 30.69000
H  16.26600 54.83500 32.65500
H  17.62000 53.75400 32.84800
H  10.23300 53.20100 28.60600
H  9.18300 53.19600 27.40000
H  10.12500 54.75100 27.63300
H  8.54900 52.98600 25.43700
H  8.17500 53.78700 23.87900
H  9.01300 54.69900 25.18400
H  14.55400 53.08000 21.55800
H  16.52100 50.75300 21.55000
H  14.57300 50.58000 20.32200
H  13.21300 51.74500 20.63300
H  13.67600 50.41800 21.79900
H  18.09100 53.36700 21.85900
H  16.67800 53.73900 21.10400
H  18.00000 51.48200 19.74000
H  19.23300 52.56600 20.30400
H  17.93900 53.28800 19.28100
H  20.92500 50.75500 24.26800
H  20.90800 49.28400 25.33300
H  21.78500 50.79900 25.87100
H  19.20400 51.96200 30.27700
H  17.87000 49.07400 32.94600
H  18.83900 50.16500 33.93600
H  19.65200 48.91500 33.03400

