158

Mg 17.15400 -2.25800 28.13500
C  16.13700 -0.05400 30.80700
C  18.99800 -3.88200 30.42800
C  18.74100 -3.62900 25.50600
C  15.80400 0.17800 25.91900
N  17.47700 -1.93500 30.43700
C  16.87300 -1.14400 31.28700
C  17.30600 -1.45000 32.68200
C  18.30400 -2.61300 32.53000
C  18.26500 -2.81000 31.01100
C  19.74200 -2.31300 32.99400
C  16.13700 -1.62900 33.66900
C  16.59500 -2.19700 35.01300
H  17.85800 -1.66800 35.75200
N  18.52200 -3.72100 28.04300
C  19.15000 -4.31900 29.08800
C  19.97000 -5.37600 28.51100
C  19.97000 -5.31800 27.06700
C  18.99900 -4.19400 26.78200
C  20.64600 -6.41100 29.40900
C  20.67200 -6.19400 26.02800
O  20.45300 -6.05400 24.83300
C  21.61200 -7.30100 26.41000
N  17.08500 -1.87900 25.96600
C  17.90800 -2.52700 25.15900
C  17.80100 -2.02900 23.74000
C  16.75200 -0.87000 23.81200
C  16.57400 -0.83200 25.28200
C  19.19300 -1.68700 23.04100
C  15.54100 -1.11000 22.96000
C  14.26200 -1.67900 23.70300
N  15.99600 -0.46000 28.23800
C  15.54400 0.39300 27.22900
C  14.99300 1.56000 27.81100
C  15.16500 1.39600 29.18200
C  15.85800 0.19700 29.41800
C  14.43800 2.64300 27.07200
C  14.81100 2.00700 30.39900
O  14.27100 3.05900 30.65400
C  15.40200 1.03000 31.52100
C  16.35000 1.79500 32.49500
O  17.49900 2.07500 32.18900
O  15.70800 2.23400 33.62400
C  16.44000 3.14600 34.40500
H  19.58800 -4.50500 31.10300
H  19.31700 -4.07400 24.69100
H  15.38200 0.94600 25.26800
H  17.91100 -0.55300 32.81700
H  17.89500 -3.48700 33.03500
H  19.85400 -1.36200 33.51500
H  20.37200 -2.24500 32.10700
H  20.06600 -3.14900 33.61400
H  15.44200 -2.33400 33.21200
H  15.78300 -0.61700 33.87000
H  16.59400 -3.27400 34.84600
H  15.76200 -2.01700 35.69400
H  20.54200 -7.36300 28.88900
H  20.48300 -6.40300 30.48700
H  21.68800 -6.10300 29.32100
H  22.24500 -7.06000 27.26500
H  22.32500 -7.56900 25.63000
H  21.03800 -8.21300 26.57200
H  17.39200 -2.93000 23.28400
H  17.31400 -0.03200 23.39800
H  19.31300 -0.64900 22.72800
H  19.48900 -2.34800 22.22700
H  19.96300 -1.80800 23.80300
H  15.70300 -1.77600 22.11300
H  15.14200 -0.15600 22.61400
H  13.70800 -0.80800 24.05300
H  14.57700 -2.39200 24.46500
H  13.68200 -2.27700 23.00000
H  13.87400 3.31600 27.71700
H  13.64600 2.29300 26.41000
H  15.25600 3.12000 26.53000
H  14.60800 0.66100 32.17000
H  15.93800 3.47700 35.31400
H  16.70100 4.03500 33.83000
H  17.36600 2.68700 34.75100
Mg 26.21100 50.49600 26.19900
C  23.92500 51.68700 28.60000
C  28.45700 49.74900 28.76600
C  28.44300 49.65700 23.92400
C  24.08300 51.67800 23.70200
N  26.18400 50.83000 28.35900
C  25.09700 51.10000 29.13000
C  25.43100 50.81300 30.57900
C  27.00300 50.62400 30.66200
C  27.28800 50.40800 29.14600
C  27.86500 51.72900 31.21700
C  24.63000 49.69100 31.30900
C  24.00000 50.12500 32.67000
H  25.05700 50.58400 33.71500
N  28.10900 49.65000 26.33400
C  28.86900 49.40300 27.45800
C  30.07600 48.82700 27.06200
C  30.17300 48.89500 25.62800
C  28.86000 49.37400 25.19100
C  31.27500 48.42500 27.94700
C  31.32400 48.66800 24.71000
O  31.24600 48.74200 23.46500
C  32.78400 48.35500 25.18600
N  26.27100 50.65200 24.11100
C  27.29200 50.32500 23.37700
C  26.99800 50.36700 21.83200
C  25.47400 50.80800 21.80800
C  25.22800 51.05600 23.31800
C  27.90300 51.28500 20.98300
C  24.37300 49.84100 21.23500
C  23.79700 48.73500 21.99700
N  24.33100 51.58300 26.08800
C  23.62500 52.00500 25.02600
C  22.39800 52.61000 25.50000
C  22.44400 52.55300 26.87000
C  23.65100 51.89800 27.23300
C  21.39700 53.39300 24.58700
C  21.76200 52.89900 28.19300
O  20.66700 53.45200 28.32200
C  22.68400 52.25700 29.32300
C  23.12700 53.30000 30.22700
O  23.96300 54.19400 29.93700
O  22.48900 53.13200 31.47800
C  22.92500 54.00900 32.58500
H  29.05100 49.29500 29.56200
H  29.11300 49.30800 23.13500
H  23.49100 52.08800 22.88100
H  25.20500 51.71100 31.15400
H  27.19900 49.66600 31.14400
H  27.26900 52.64100 31.25500
H  28.75500 51.78900 30.59100
H  28.12900 51.52900 32.25500
H  25.11900 48.71800 31.35800
H  23.85700 49.41700 30.59200
H  23.60000 49.16300 32.98900
H  23.23700 50.90200 32.61500
H  30.99600 48.33600 28.99700
H  32.04100 49.19800 27.88300
H  31.70900 47.43900 27.77900
H  33.00200 49.06200 25.98700
H  33.48000 48.41300 24.34900
H  32.85600 47.32700 25.54100
H  27.06800 49.38400 21.36600
H  25.33900 51.85100 21.52300
H  28.75200 50.81100 20.49000
H  28.31000 52.03500 21.66100
H  27.45900 51.91400 20.21100
H  24.87000 49.34500 20.40000
H  23.63600 50.40900 20.66800
H  24.08500 48.68200 23.04600
H  24.06900 47.77100 21.56700
H  22.72600 48.90500 21.88500
H  21.41800 53.11900 23.53300
H  21.59500 54.46500 24.55800
H  20.44600 53.08700 25.02300
H  22.25000 51.49300 29.96800
H  23.00400 55.02100 32.18800
H  23.88000 53.71500 33.02200
H  22.25100 54.01700 33.44200

