158

Mg 54.00200 24.82700 45.47400
C  51.39200 27.08800 44.70100
C  52.02200 22.25800 44.44200
C  56.83100 22.85500 45.64100
C  55.94900 27.54600 46.52500
N  52.05000 24.78200 44.38300
C  51.09600 25.79600 44.27700
C  49.78300 25.21000 43.70700
C  49.97000 23.67900 43.95500
C  51.50100 23.51900 44.25500
C  49.14100 23.12300 45.10000
C  49.61400 25.45300 42.15900
C  48.08400 25.40300 41.65100
H  47.87900 25.10600 40.12400
N  54.35600 22.81800 45.04700
C  53.39000 21.95600 44.75100
C  54.00900 20.60500 44.63600
C  55.41900 20.76200 44.85500
C  55.61100 22.20900 45.19400
C  53.41300 19.43300 44.01700
C  56.43400 19.58800 44.78300
O  56.09100 18.43200 44.69400
C  57.90700 19.78300 44.79600
N  56.06300 25.09800 46.13800
C  57.04700 24.14300 46.11200
C  58.35400 24.71200 46.65200
C  58.07600 26.24900 46.53800
C  56.59800 26.33500 46.39400
C  58.53700 24.28000 48.11800
C  58.60600 26.79400 45.18300
C  59.75300 27.80800 45.37200
N  53.68800 26.86400 45.70400
C  54.62100 27.81700 46.14100
C  53.94500 29.17100 46.25600
C  52.70200 28.93300 45.66100
C  52.60000 27.54100 45.31000
C  54.56000 30.46400 46.87800
C  51.45900 29.50900 45.27800
O  51.09500 30.62900 45.46000
C  50.53900 28.32600 44.62600
C  50.17000 28.73400 43.27900
O  51.01400 28.76700 42.35700
O  48.86800 28.90400 43.20300
C  48.32900 29.19300 41.85400
H  51.38000 21.38600 44.29500
H  57.67200 22.20000 45.87700
H  56.58100 28.37300 46.85700
H  48.87000 25.52800 44.21000
H  49.90000 23.03700 43.07700
H  49.83600 22.94500 45.92100
H  48.75300 22.17600 44.72500
H  48.31600 23.75300 45.43200
H  50.26800 24.73800 41.65800
H  49.99700 26.42600 41.85000
H  47.39700 26.21800 41.87600
H  47.77500 24.51500 42.20300
H  54.01300 19.19800 43.13700
H  52.40900 19.68700 43.67700
H  53.45600 18.56200 44.66900
H  58.21700 20.64700 44.20900
H  58.42400 18.87000 44.50200
H  58.14700 19.82300 45.85900
H  59.14800 24.35800 45.99400
H  58.36600 26.85100 47.39900
H  58.49300 23.19200 48.14200
H  57.75400 24.69600 48.75200
H  59.48400 24.54100 48.59100
H  57.84500 27.32400 44.61000
H  58.98700 26.02800 44.50800
H  60.48500 27.59500 44.59400
H  60.24500 27.82500 46.34500
H  59.45300 28.85600 45.34900
H  55.64400 30.56900 46.92000
H  54.23700 30.42100 47.91800
H  54.17900 31.29400 46.28300
H  49.61300 28.27600 45.20100
H  48.02900 30.24100 41.87600
H  47.38900 28.65600 41.72000
H  48.92900 28.84500 41.01400
Mg 36.16000 48.77400 25.95700
C  36.34300 47.22600 29.08100
C  34.67800 51.48300 27.58800
C  35.54200 50.07500 22.97400
C  37.03200 45.78000 24.49500
N  35.52700 49.25600 28.06700
C  35.86400 48.55100 29.13900
C  35.46700 49.32700 30.46200
C  34.67700 50.56300 29.94300
C  34.99600 50.44700 28.42700
C  33.19900 50.64100 30.31400
C  36.79700 49.73500 31.19600
C  37.09500 49.18500 32.57200
H  36.10800 49.53800 33.74500
N  35.32300 50.61300 25.33800
C  34.77200 51.59500 26.20800
C  34.32700 52.69100 25.37700
C  34.61300 52.32100 23.97100
C  35.08800 50.95600 24.03700
C  33.82700 54.06600 26.02800
C  34.41600 53.05700 22.67500
O  34.62200 52.56000 21.54000
C  33.87100 54.42200 22.69900
N  36.22900 48.00500 24.00600
C  36.06400 48.80200 22.99100
C  36.27300 48.03000 21.66200
C  36.81300 46.57900 22.15400
C  36.83300 46.82900 23.60200
C  34.97700 47.99700 20.80700
C  38.18500 46.33100 21.54700
C  38.22900 45.30200 20.42100
N  36.46600 46.83500 26.57800
C  36.82200 45.70900 25.92400
C  36.96200 44.57000 26.84000
C  36.85800 45.16500 28.10600
C  36.54300 46.51100 27.88500
C  37.26400 43.14700 26.49400
C  36.96700 44.85500 29.54500
O  37.24100 43.84900 30.10700
C  36.67400 46.24200 30.24400
C  35.55300 46.12200 31.17100
O  34.34400 46.16200 30.88400
O  36.00800 45.74100 32.45900
C  35.08800 45.39500 33.50200
H  34.05200 52.25300 28.04500
H  35.44000 50.49400 21.97000
H  37.19100 44.81400 24.01000
H  34.81800 48.69000 31.06400
H  35.07600 51.52600 30.26300
H  32.62300 50.65900 29.38900
H  33.08200 51.56300 30.88200
H  33.04200 49.74100 30.90900
H  36.77400 50.81000 31.37700
H  37.65200 49.59500 30.53500
H  38.09500 49.53900 32.82300
H  37.29600 48.11500 32.62100
H  34.61500 54.72500 26.39300
H  33.17400 53.89900 26.88400
H  33.29900 54.55900 25.21100
H  34.39200 55.23100 23.21200
H  32.85300 54.39600 23.09000
H  33.71900 54.64000 21.64100
H  37.00900 48.58300 21.07800
H  36.13200 45.75300 21.95300
H  34.90700 47.02300 20.32100
H  34.92200 48.81100 20.08500
H  34.08300 48.18600 21.40100
H  38.80700 45.79400 22.26300
H  38.71100 47.21000 21.17500
H  38.50400 45.75000 19.46600
H  37.25400 44.85700 20.21900
H  38.97500 44.54300 20.65700
H  38.20100 42.99400 27.02900
H  37.45900 43.01300 25.43000
H  36.60000 42.34100 26.80500
H  37.52500 46.60300 30.82000
H  35.34800 44.36900 33.76100
H  34.03100 45.52400 33.26900
H  35.10900 46.02400 34.39100

