158

Mg 8.43400 3.35000 27.68700
C  10.01000 2.06200 30.42600
C  6.44400 5.28500 29.79500
C  6.58600 4.29400 24.96600
C  10.26400 1.06200 25.66800
N  8.24800 3.57300 29.83900
C  8.98900 2.93600 30.81300
C  8.57100 3.43400 32.27800
C  7.45300 4.48300 31.93600
C  7.36600 4.48000 30.42100
C  6.08800 4.19300 32.60400
C  9.81600 3.98800 33.03400
C  9.52100 5.11800 34.10700
H  10.20200 5.02400 35.47800
N  6.78000 4.53800 27.38400
C  6.17900 5.32200 28.35900
C  5.18900 6.27900 27.71600
C  5.28300 6.02200 26.33200
C  6.24000 4.89500 26.16700
C  4.35200 7.29300 28.41900
C  4.57500 6.75800 25.19800
O  4.68500 6.45900 23.99300
C  3.61400 7.86200 25.50000
N  8.25300 2.56700 25.68400
C  7.49200 3.29500 24.71200
C  7.97100 2.92300 23.28900
C  9.25600 2.12900 23.52000
C  9.25100 1.90700 25.03600
C  6.79600 2.13700 22.49200
C  10.57800 2.83000 22.97100
C  11.28100 3.90100 23.86000
N  9.72300 1.71000 27.97000
C  10.40000 0.94500 27.04700
C  11.43200 0.23400 27.70700
C  11.29700 0.60300 29.12600
C  10.26400 1.49900 29.18900
C  12.47100 -0.68600 26.96900
C  11.83500 0.43400 30.43800
O  12.71800 -0.34900 30.80100
C  11.04900 1.38700 31.36500
C  10.38700 0.62300 32.43300
O  9.47300 -0.18100 32.26200
O  11.07000 0.72400 33.59900
C  10.42100 0.08800 34.72600
H  5.76500 5.89000 30.40000
H  6.21800 4.77000 24.05500
H  10.96300 0.45800 25.08700
H  8.20900 2.51100 32.73100
H  7.76400 5.49700 32.18900
H  5.49300 3.47300 32.04200
H  5.74400 5.22600 32.55900
H  6.11600 3.79500 33.61800
H  10.52600 4.34300 32.28800
H  10.35900 3.23200 33.60000
H  8.44400 5.02700 34.25300
H  9.73900 6.00000 33.50500
H  3.27800 7.24100 28.24200
H  4.67600 8.29600 28.14200
H  4.44400 7.16700 29.49800
H  2.71500 7.43000 25.94000
H  3.37400 8.16200 24.48100
H  4.14800 8.65400 26.02600
H  8.14100 3.85500 22.74900
H  9.11200 1.19900 22.97100
H  5.88400 2.08100 23.08700
H  7.02600 1.12900 22.14600
H  6.51600 2.76700 21.64800
H  10.28300 3.28000 22.02300
H  11.35200 2.08700 22.77500
H  10.70800 4.04600 24.77600
H  11.27000 4.87000 23.36200
H  12.27000 3.51900 24.11400
H  12.77800 -0.09600 26.10600
H  11.93300 -1.61200 26.76700
H  13.25700 -0.91500 27.68800
H  11.76000 2.08300 31.81000
H  9.90900 0.90900 35.22800
H  11.23300 -0.27300 35.35700
H  9.76200 -0.74500 34.48200
Mg 17.41800 -0.93500 27.92900
C  16.34400 0.92200 30.63300
C  19.37800 -2.67100 30.16700
C  18.93000 -2.35700 25.29200
C  15.44300 1.00700 25.82400
N  18.05400 -0.70700 30.18800
C  17.43500 0.07600 31.05600
C  17.85600 -0.28400 32.51800
C  19.01200 -1.34300 32.33800
C  18.82400 -1.58500 30.80200
C  20.40500 -0.73400 32.70700
C  16.65800 -0.79500 33.39400
C  16.55500 -0.18300 34.80000
H  17.79000 0.39300 35.46600
N  18.87900 -2.38200 27.78100
C  19.48800 -3.04200 28.81100
C  20.17700 -4.23100 28.24800
C  20.13300 -4.11600 26.80100
C  19.27300 -2.91300 26.55300
C  20.86200 -5.27800 29.20300
C  20.76200 -4.97300 25.71700
O  20.47500 -4.85500 24.55100
C  21.65700 -6.11800 26.07400
N  17.30600 -0.65300 25.89400
C  18.08000 -1.31800 24.98800
C  17.70800 -0.95000 23.61200
C  16.45200 -0.01100 23.75700
C  16.38900 0.16600 25.31700
C  18.90100 -0.33300 22.86100
C  15.06400 -0.44300 23.18200
C  14.47700 0.22100 21.94500
N  16.18700 0.62800 28.13500
C  15.34900 1.26700 27.24400
C  14.52400 2.30900 27.90000
C  14.86000 2.13100 29.22200
C  15.94400 1.16400 29.34400
C  13.60700 3.23300 27.20200
C  14.53600 2.64100 30.47900
O  13.69000 3.43900 30.81300
C  15.48400 1.90800 31.49000
C  16.25700 2.89000 32.21700
O  17.10400 3.56600 31.64100
O  16.03000 2.90700 33.56900
C  16.51200 4.10000 34.30300
H  20.02500 -3.19500 30.87300
H  19.32100 -2.96300 24.47100
H  14.81100 1.59200 25.15300
H  18.38000 0.54800 32.98900
H  18.82800 -2.25300 32.90800
H  21.19200 -1.20400 32.11800
H  20.56800 -0.94800 33.76300
H  20.50700 0.33600 32.52500
H  16.81700 -1.86600 33.52100
H  15.74500 -0.62200 32.82500
H  16.40900 -1.00900 35.49600
H  15.74800 0.54700 34.85900
H  21.86500 -5.45700 28.81700
H  20.35200 -6.23500 29.31900
H  20.86000 -4.88400 30.21900
H  22.64300 -5.71700 26.31100
H  21.63900 -6.73800 25.17800
H  21.33000 -6.71000 26.92900
H  17.53900 -1.84700 23.01700
H  16.70500 0.98800 23.40300
H  19.79900 -0.27000 23.47600
H  18.67500 0.66400 22.48300
H  19.08000 -1.03900 22.05000
H  14.27900 -0.42200 23.93800
H  15.13700 -1.51100 22.97900
H  13.53300 0.65400 22.27700
H  14.24200 -0.45000 21.11900
H  15.12700 1.00200 21.55000
H  12.61300 2.80600 27.06400
H  13.96100 3.70300 26.28500
H  13.54200 3.92900 28.03800
H  14.71000 1.53400 32.16000
H  17.45800 3.82900 34.77000
H  15.78000 4.34800 35.07200
H  16.55300 4.96300 33.63900

