158

Mg 1.72400 -0.87600 43.93200
C  5.32100 -0.90500 42.82200
C  1.58600 1.96200 41.97700
C  -1.52300 -1.40900 43.84800
C  2.42400 -3.95200 45.41300
N  3.38900 0.46100 42.62000
C  4.68600 0.20100 42.24500
C  5.31900 1.35300 41.39900
C  4.14800 2.39500 41.46000
C  2.93100 1.56200 42.04700
C  4.37400 3.73600 42.29600
C  5.80800 0.83200 40.02300
C  6.95600 1.54800 39.30500
H  6.49600 2.23400 38.05400
N  0.26200 0.26400 43.15800
C  0.35500 1.42000 42.38400
C  -0.98100 1.88200 42.19600
C  -1.88900 0.87300 42.66000
C  -1.08100 -0.17800 43.20000
C  -1.29200 3.08600 41.45600
C  -3.41000 0.96600 42.59100
O  -3.91600 2.05100 42.20100
C  -4.34900 -0.11500 42.93300
N  0.68900 -2.45600 44.55200
C  -0.68700 -2.41700 44.48300
C  -1.27200 -3.74600 45.03600
C  -0.06300 -4.46500 45.66000
C  1.11000 -3.56200 45.28500
C  -2.57900 -3.68300 45.84700
C  0.04500 -5.98500 45.24200
C  -0.09500 -6.96100 46.36700
N  3.41300 -2.17600 44.09700
C  3.54600 -3.27300 44.91900
C  4.88600 -3.78100 45.00600
C  5.57500 -2.88200 44.18100
C  4.66500 -1.90300 43.66600
C  5.44500 -4.98400 45.84200
C  6.89600 -2.53400 43.81700
O  7.92000 -3.04800 44.16200
C  6.77900 -1.33900 42.81200
C  7.76600 -0.28400 43.18500
O  7.68800 0.40400 44.28300
O  8.74500 -0.11000 42.24000
C  9.70200 0.94900 42.58900
H  1.52800 2.96000 41.53800
H  -2.59400 -1.61800 43.86100
H  2.66400 -4.83200 46.01300
H  6.20900 1.76400 41.87500
H  3.81100 2.71100 40.47300
H  3.75100 3.64400 43.18600
H  3.94800 4.57000 41.73700
H  5.38400 3.96600 42.63700
H  5.00200 0.79300 39.29000
H  6.12400 -0.19700 40.19400
H  7.72600 0.80700 39.08800
H  7.39600 2.28500 39.97700
H  -2.04800 2.90200 40.69300
H  -0.39600 3.50100 40.99300
H  -1.65500 3.81000 42.18600
H  -5.40200 0.00800 42.67900
H  -4.25900 -0.29500 44.00400
H  -4.05500 -0.97100 42.32600
H  -1.64300 -4.23000 44.13200
H  -0.02200 -4.27400 46.73200
H  -3.50300 -3.88100 45.30200
H  -2.64400 -2.63800 46.15200
H  -2.55400 -4.30300 46.74200
H  1.03600 -6.08300 44.79900
H  -0.74800 -6.24100 44.54000
H  0.74600 -7.65400 46.39000
H  -1.08500 -7.41000 46.27900
H  -0.16100 -6.40300 47.30100
H  4.62200 -5.49600 46.34100
H  6.11000 -4.75000 46.67300
H  5.96000 -5.63500 45.13600
H  6.97500 -1.73600 41.81600
H  10.06500 0.80800 43.60700
H  9.18800 1.89400 42.41000
H  10.52000 0.93000 41.86900
Mg 6.87900 53.44300 40.82800
C  6.52200 50.04100 40.46700
C  10.36600 52.99100 40.50100
C  7.29300 56.77800 40.32600
C  3.41800 53.82700 40.84700
N  8.19300 51.75700 40.37500
C  7.83600 50.40200 40.37300
C  9.05200 49.49500 40.27600
C  10.26000 50.42600 40.51700
C  9.58400 51.83700 40.52100
C  11.10300 50.07400 41.83800
C  9.22600 48.70700 38.96200
C  9.10000 49.29300 37.56000
H  7.97900 48.81200 36.62600
N  8.56200 54.72500 40.59000
C  9.87300 54.31900 40.42400
C  10.71100 55.49400 40.21200
C  9.80100 56.59300 40.10600
C  8.48400 56.08300 40.33600
C  12.24400 55.52100 40.06400
C  10.18700 57.98800 39.65800
O  11.37800 58.17800 39.56400
C  9.20600 59.16100 39.42500
N  5.53700 55.04500 40.60600
C  5.99300 56.33200 40.54400
C  4.81000 57.33000 40.41500
C  3.57400 56.45200 40.98700
C  4.14000 55.03300 40.78000
C  4.90400 58.66000 41.20400
C  2.20600 56.77600 40.25200
C  0.89400 56.79200 41.06100
N  5.24500 52.18400 40.80700
C  3.94500 52.46600 40.89500
C  3.28000 51.22900 41.16800
C  4.22100 50.23100 41.04700
C  5.37800 50.89100 40.67300
C  1.72000 51.05400 41.36600
C  4.43200 48.82800 40.99800
O  3.67600 47.91100 41.19500
C  5.93600 48.66900 40.53200
C  5.80800 47.95900 39.18600
O  5.35400 48.44700 38.16500
O  6.08800 46.62400 39.29300
C  5.50200 45.84400 38.14400
H  11.44600 52.84100 40.56100
H  7.23400 57.84100 40.08200
H  2.35600 53.97400 41.05500
H  8.98100 48.74500 41.06400
H  11.09400 50.31900 39.82300
H  11.15100 50.97700 42.44500
H  12.15700 49.90600 41.61600
H  10.68700 49.34300 42.53200
H  8.39400 48.00900 39.04800
H  10.15700 48.16600 39.13200
H  9.99600 49.10100 36.96900
H  9.06700 50.37600 37.68400
H  12.59800 55.90700 39.10800
H  12.64000 54.51000 40.15800
H  12.72800 56.10600 40.84700
H  8.61200 58.94700 38.53700
H  9.70000 60.07700 39.09900
H  8.68600 59.20400 40.38100
H  4.72300 57.63500 39.37300
H  3.43700 56.71400 42.03700
H  5.78200 58.62800 41.84900
H  4.01500 58.86800 41.80000
H  5.01500 59.46900 40.48200
H  2.03800 56.09200 39.42000
H  2.25500 57.76700 39.80200
H  0.28900 57.65100 40.77100
H  1.09900 56.66800 42.12500
H  0.35000 55.89900 40.75300
H  1.18700 51.45200 40.50200
H  1.28500 51.57300 42.22000
H  1.49500 49.98900 41.41800
H  6.38700 48.08200 41.33200
H  5.98300 44.87200 38.02800
H  5.57800 46.25800 37.13900
H  4.44200 45.68700 38.34700

