158

Mg 0.99800 7.30000 25.59100
C  1.78500 9.13200 28.45600
C  1.20400 4.40700 27.40900
C  0.92000 5.72800 22.71500
C  1.35600 10.34700 23.79200
N  1.32800 6.86900 27.76500
C  1.57200 7.78900 28.80100
C  1.56400 6.97900 30.19500
C  1.58000 5.48400 29.71900
C  1.38100 5.58300 28.20100
C  2.97400 4.74700 30.11900
C  0.43300 7.39600 31.03300
C  0.81500 7.87300 32.42900
H  2.11000 7.47100 33.17900
N  0.88000 5.31700 25.11300
C  0.93500 4.26200 25.97500
C  0.78500 3.06800 25.22300
C  0.78400 3.38500 23.84500
C  0.88100 4.84600 23.85800
C  0.59300 1.70200 25.89500
C  0.64800 2.46600 22.68000
O  0.49900 2.91200 21.54200
C  0.52900 0.91200 22.79300
N  1.06200 7.94200 23.46900
C  1.01600 7.14000 22.45900
C  0.92000 7.78900 21.12800
C  0.66400 9.32400 21.52600
C  1.05300 9.24400 23.02200
C  2.22300 7.54200 20.17900
C  -0.77800 9.95300 21.27700
C  -0.86300 11.39300 20.73600
N  1.45500 9.31600 25.94700
C  1.53300 10.45800 25.14000
C  1.89800 11.66900 25.91600
C  2.00000 11.10300 27.19600
C  1.73300 9.71700 27.19100
C  1.87700 13.21300 25.51900
C  2.19000 11.53200 28.58800
O  2.40100 12.63300 29.10100
C  1.99300 10.22800 29.45000
C  3.08600 10.08600 30.37900
O  4.16400 9.58100 30.14600
O  2.78500 10.55400 31.63900
C  4.05000 10.80200 32.45900
H  1.23900 3.51300 28.03500
H  0.78000 5.19400 21.77300
H  1.55600 11.28100 23.26100
H  2.50700 7.17000 30.70700
H  0.83300 4.84600 30.19000
H  3.64000 5.36300 30.72200
H  3.48700 4.53900 29.18000
H  2.85400 3.88400 30.77400
H  -0.30300 6.59300 30.99900
H  0.07200 8.35000 30.64700
H  -0.01300 7.93900 33.13500
H  1.00200 8.94600 32.41600
H  -0.29500 1.30800 25.40000
H  0.41400 1.78100 26.96700
H  1.41900 1.03300 25.65200
H  1.44300 0.59500 23.29500
H  0.57300 0.44000 21.81100
H  -0.39600 0.63400 23.29900
H  0.08200 7.38700 20.55800
H  1.40400 9.89600 20.96700
H  2.23600 7.93300 19.16200
H  2.49300 6.48600 20.14900
H  2.98100 8.14200 20.68300
H  -1.46100 9.71400 22.09300
H  -1.30100 9.32700 20.55500
H  -1.22300 11.48800 19.71100
H  0.14200 11.81400 20.70800
H  -1.61200 11.85800 21.37700
H  2.88300 13.60400 25.36900
H  1.35900 13.73200 26.32500
H  1.32400 13.43100 24.60500
H  1.07000 10.33900 30.01900
H  4.77200 11.28600 31.80200
H  4.54600 9.88100 32.76400
H  3.91500 11.45500 33.32200
Mg 47.19200 24.33300 28.61300
C  48.22400 26.68800 30.99600
C  46.27300 22.22800 31.08300
C  46.87600 21.96700 26.24200
C  48.71100 26.41300 26.06900
N  47.37500 24.40600 30.82400
C  47.64500 25.48600 31.60100
C  47.25200 25.24100 33.06200
C  46.83400 23.72400 33.08600
C  46.77600 23.48700 31.60900
C  47.74800 22.67800 33.91000
C  46.21300 26.26900 33.62600
C  46.47500 26.75300 35.09600
H  45.25300 26.79000 36.04200
N  46.42900 22.41200 28.61300
C  46.19700 21.73300 29.77700
C  45.70800 20.39200 29.39800
C  46.03600 20.23200 28.02600
C  46.47200 21.58100 27.52700
C  45.15400 19.43100 30.44000
C  46.03900 18.99300 27.11700
O  46.34800 18.99300 25.92900
C  45.44600 17.77800 27.66300
N  47.78900 24.20200 26.38200
C  47.37300 23.09900 25.69900
C  47.58000 23.37500 24.22200
C  47.91500 24.91800 24.15900
C  48.15200 25.22200 25.63700
C  48.42400 22.35000 23.47900
C  46.80000 25.73700 23.51600
C  45.51300 25.98700 24.25300
N  48.29000 26.16600 28.46800
C  48.78500 26.88800 27.43900
C  49.42300 28.04200 27.89400
C  49.19200 28.06400 29.29400
C  48.54800 26.83600 29.60300
C  49.89900 29.17900 27.06200
C  49.27300 28.79000 30.55400
O  49.73300 29.92400 30.70800
C  48.62200 27.90700 31.64200
C  49.73400 27.59700 32.62700
O  50.62200 26.77700 32.42300
O  49.59500 28.36400 33.76200
C  50.45400 27.97100 34.88900
H  45.82200 21.61000 31.86200
H  46.71400 21.26500 25.42100
H  48.91900 27.16000 25.30000
H  48.11400 25.41100 33.70700
H  45.85400 23.75900 33.56200
H  47.27400 22.07800 34.68800
H  48.60000 23.15400 34.39500
H  48.25600 22.00300 33.22200
H  45.30900 25.67400 33.75000
H  46.18800 27.19500 33.05100
H  46.89400 27.74800 34.94500
H  47.27100 26.21800 35.61400
H  45.94800 18.81500 30.86400
H  44.32100 18.78100 30.17200
H  44.62100 20.01400 31.19100
H  45.33400 16.96600 26.94400
H  44.44000 17.99800 28.02000
H  46.04100 17.30200 28.44200
H  46.57600 23.17900 23.84400
H  48.83700 25.04100 23.59000
H  47.91900 21.86400 22.64400
H  48.75200 21.50300 24.08200
H  49.37500 22.78600 23.17200
H  46.54400 25.21700 22.59300
H  47.15000 26.75600 23.35200
H  45.63200 26.92600 24.79400
H  45.25600 25.24500 25.00900
H  44.64600 26.14200 23.61100
H  50.35000 28.85900 26.12200
H  50.55800 29.70700 27.75000
H  48.95300 29.67600 26.85100
H  47.81500 28.44600 32.13800
H  50.54400 28.76300 35.63200
H  51.49300 27.71000 34.69200
H  50.07600 27.08300 35.39400

