158

Mg -1.89900 18.06700 26.92700
C  -2.45400 15.88900 29.71200
C  -2.13900 20.79300 29.21100
C  -1.48400 20.05300 24.38200
C  -1.96500 15.22000 24.83700
N  -2.14300 18.32300 29.16300
C  -2.36100 17.28200 30.11400
C  -2.57700 17.80700 31.49800
C  -2.71600 19.28900 31.25700
C  -2.21600 19.51000 29.80500
C  -4.08100 19.98400 31.66000
C  -1.40000 17.46700 32.59800
C  -1.86200 16.78100 33.83200
H  -0.80700 16.46100 34.92900
N  -1.73300 20.12000 26.77900
C  -1.87600 21.06400 27.82000
C  -1.83400 22.41100 27.19500
C  -1.62700 22.27500 25.73900
C  -1.64300 20.76300 25.57700
C  -1.84900 23.69900 27.92300
C  -1.45700 23.29900 24.61600
O  -1.19000 23.03900 23.46000
C  -1.35800 24.69500 24.98200
N  -1.94500 17.72800 24.94100
C  -1.63300 18.73500 24.07800
C  -1.56600 18.16700 22.62300
C  -1.88300 16.66400 22.70200
C  -1.98700 16.45300 24.27000
C  -2.60700 18.89200 21.57900
C  -0.71000 15.83200 22.05100
C  0.57400 15.65600 22.83700
N  -2.22200 16.00500 27.12300
C  -2.17000 14.95700 26.20300
C  -2.29000 13.68300 26.92500
C  -2.32900 14.01100 28.29700
C  -2.34900 15.39500 28.36200
C  -2.31800 12.37100 26.26800
C  -2.48600 13.44600 29.64700
O  -2.57300 12.32700 30.04900
C  -2.55100 14.65800 30.61500
C  -1.36400 14.37600 31.47800
O  -0.21600 14.62100 31.19300
O  -1.74100 13.73600 32.58700
C  -0.73800 13.22800 33.46000
H  -2.27400 21.60400 29.93000
H  -1.26800 20.70200 23.53200
H  -2.06200 14.41700 24.10400
H  -3.44800 17.31000 31.92500
H  -2.05800 19.81800 31.94700
H  -4.44000 20.54600 30.79700
H  -3.97400 20.64000 32.52400
H  -4.78600 19.22200 31.99200
H  -0.73600 18.25900 32.94600
H  -0.76500 16.78700 32.03100
H  -2.28900 15.80900 33.58700
H  -2.69500 17.39700 34.17400
H  -1.95600 23.55600 28.99800
H  -2.71100 24.33200 27.71400
H  -0.90900 24.22200 27.74300
H  -2.05300 25.01700 25.75800
H  -1.57700 25.37000 24.15500
H  -0.36500 24.86500 25.39700
H  -0.53900 18.32100 22.29400
H  -2.74200 16.42700 22.07500
H  -3.11000 19.72000 22.07900
H  -3.34400 18.18300 21.20300
H  -2.06100 19.13800 20.66800
H  -0.40400 16.33100 21.13100
H  -0.97300 14.83000 21.71200
H  1.16600 16.54500 22.61900
H  1.05200 14.71300 22.57000
H  0.35900 15.48800 23.89300
H  -2.13100 11.50600 26.90500
H  -1.58900 12.37900 25.45800
H  -3.30400 12.31900 25.80600
H  -3.42300 14.56400 31.26200
H  0.11300 13.86500 33.70100
H  -0.45500 12.25400 33.06100
H  -1.29200 13.00300 34.37200
Mg 47.74700 15.86000 28.47500
C  45.91500 15.97100 31.52400
C  50.21000 17.41300 30.09700
C  49.19800 16.44900 25.50900
C  44.91500 14.72600 26.94100
N  47.97300 16.80500 30.54600
C  47.10500 16.57500 31.61700
C  47.77500 17.14600 32.89100
C  49.10300 17.88400 32.33500
C  49.17100 17.27000 30.93700
C  49.16400 19.44100 32.36200
C  48.03900 15.99400 33.87700
C  47.45300 16.17800 35.29600
H  47.03900 17.56200 35.79200
N  49.51800 16.67000 27.91300
C  50.46100 17.23500 28.72000
C  51.58300 17.57300 27.86300
C  51.34500 17.17300 26.52800
C  49.93500 16.80700 26.60200
C  52.85400 18.13900 28.45100
C  52.20300 17.30300 25.27500
O  51.81100 17.16700 24.11000
C  53.58500 17.79200 25.45300
N  47.04000 15.84400 26.51300
C  47.92100 15.95400 25.42100
C  47.24000 15.61300 24.03700
C  45.84300 15.05900 24.51000
C  45.86200 15.24800 26.06900
C  47.28900 16.71800 22.93800
C  45.53800 13.63300 24.06900
C  46.45400 12.55500 24.55300
N  45.90200 15.28400 29.04800
C  44.90600 14.70600 28.29400
C  43.90700 14.24900 29.16800
C  44.23600 14.70000 30.43200
C  45.42900 15.37800 30.29400
C  42.69000 13.39700 28.80500
C  43.80000 14.81800 31.83100
O  42.78700 14.30600 32.34000
C  44.84000 15.69900 32.60000
C  44.17200 16.89800 33.19300
O  44.12700 18.00600 32.78000
O  43.59200 16.42000 34.32700
C  42.69700 17.40800 34.90500
H  50.99900 17.94200 30.63600
H  49.77000 16.44800 24.57900
H  44.02500 14.21500 26.56600
H  47.04300 17.86400 33.26200
H  49.97000 17.59000 32.92600
H  49.98800 19.78900 32.98400
H  48.22800 19.98000 32.51200
H  49.53400 19.69100 31.36800
H  49.11400 15.82400 33.92700
H  47.69500 15.01000 33.55900
H  48.21000 15.80100 35.98400
H  46.65300 15.44500 35.40100
H  52.85300 18.70600 29.38200
H  53.18700 18.88700 27.73200
H  53.62700 17.38000 28.57100
H  54.18400 17.61700 24.55900
H  54.00900 17.09500 26.17600
H  53.64800 18.85400 25.69300
H  47.90800 14.90600 23.54600
H  45.02900 15.66600 24.11500
H  47.90400 17.55100 23.27800
H  46.30300 17.05500 22.61700
H  47.78200 16.31800 22.05200
H  45.38400 13.64100 22.99000
H  44.52000 13.44500 24.41200
H  46.50000 11.83200 23.73900
H  45.99200 12.04600 25.39900
H  47.44000 12.94600 24.80600
H  42.94100 12.44900 28.32800
H  42.04000 13.88200 28.07800
H  42.14200 13.27400 29.73900
H  45.10900 15.07400 33.45100
H  41.76700 17.55500 34.35600
H  43.13700 18.40400 34.96200
H  42.58400 17.15400 35.95900

