158

Mg 17.67000 50.84400 25.94500
C  19.39400 49.50500 28.68400
C  15.14500 51.69400 27.97700
C  15.96700 51.74700 23.24500
C  20.01800 49.25300 23.89100
N  17.28800 50.47900 28.04400
C  18.14000 50.01400 29.00500
C  17.66700 50.35400 30.38900
C  16.19100 50.73800 30.08500
C  16.17300 50.99900 28.58200
C  15.12700 49.62700 30.45900
C  18.48100 51.44400 31.20900
C  18.45600 51.34500 32.73200
H  17.53900 50.53300 33.58300
N  15.84300 51.81400 25.66800
C  14.97300 51.99200 26.62300
C  13.90600 52.87400 26.07700
C  14.18300 52.91600 24.67200
C  15.33400 52.05000 24.45700
C  12.77500 53.40300 26.86400
C  13.53100 53.71600 23.54200
O  14.03700 53.84200 22.39700
C  12.44300 54.66400 23.90700
N  18.00900 50.57300 23.80100
C  17.17700 51.08600 22.92100
C  17.51000 50.66100 21.46800
C  18.95100 49.94400 21.68400
C  18.97000 49.90400 23.19300
C  16.42600 49.79900 20.74900
C  20.23300 50.63900 21.06400
C  21.01600 51.59000 21.94500
N  19.49200 49.79900 26.18600
C  20.29500 49.19500 25.23200
C  21.43800 48.57000 25.90900
C  21.15800 48.69600 27.27000
C  19.90800 49.41200 27.32600
C  22.60700 48.00500 25.26400
C  21.63100 48.35500 28.57200
O  22.72200 47.77300 28.90100
C  20.57800 48.97600 29.53900
C  20.13300 47.89700 30.49000
O  19.45100 46.93100 30.16800
O  20.59900 48.27200 31.74500
C  20.30400 47.29800 32.72900
H  14.37600 52.10900 28.63100
H  15.46400 51.93000 22.29300
H  20.64100 48.59100 23.28800
H  17.67900 49.38700 30.89100
H  15.97300 51.65800 30.62700
H  14.23700 49.93800 31.00500
H  15.76600 48.94800 31.02400
H  14.90800 49.09800 29.53200
H  18.10600 52.42900 30.93000
H  19.53900 51.31700 30.97900
H  18.31500 52.41500 32.88900
H  19.51800 51.16400 32.89800
H  12.85900 54.46700 27.08900
H  12.81300 52.87400 27.81600
H  11.82200 53.12800 26.41100
H  12.14600 55.37000 23.13100
H  12.97900 55.37800 24.53400
H  11.56200 54.18300 24.33000
H  17.63000 51.62000 20.96300
H  18.95400 48.91100 21.33600
H  15.68400 49.48600 21.48400
H  16.66300 48.83400 20.29900
H  15.94400 50.37400 19.95800
H  19.97700 51.16300 20.14300
H  20.91100 49.80800 20.86900
H  20.75600 51.55400 23.00300
H  21.11900 52.61600 21.59300
H  22.05400 51.27900 21.82600
H  23.51400 48.32500 25.77700
H  22.85100 48.43700 24.29300
H  22.64700 46.92000 25.35600
H  21.09300 49.77400 30.07400
H  20.97900 46.45500 32.87200
H  19.30500 46.87000 32.64000
H  20.35800 47.73200 33.72800
Mg -1.63500 33.65300 27.20200
C  -3.61500 31.97900 29.63000
C  -0.30900 35.59100 29.64500
C  0.02700 35.37800 24.72700
C  -3.49700 32.08800 24.66700
N  -1.91900 33.68400 29.32900
C  -2.77300 32.99300 30.20800
C  -2.50600 33.21400 31.71600
C  -1.63700 34.53500 31.63800
C  -1.26400 34.68000 30.10000
C  -2.29400 35.84600 32.14400
C  -1.88700 31.93200 32.43600
C  -2.73300 31.39300 33.65300
H  -1.97700 31.57300 34.97400
N  -0.33800 35.22500 27.19700
C  0.17900 35.84100 28.31100
C  1.04100 36.91900 27.90400
C  1.16800 36.85100 26.47500
C  0.28500 35.74100 26.09300
C  1.56000 37.96000 28.81800
C  1.94800 37.72400 25.52800
O  1.97100 37.56200 24.32700
C  2.82200 38.76600 26.09100
N  -1.84000 33.88100 25.05600
C  -0.93300 34.52200 24.25500
C  -0.95800 33.95100 22.77500
C  -2.23200 32.99000 22.81500
C  -2.53400 32.95400 24.28100
C  -1.13900 35.00300 21.64900
C  -1.89600 31.63100 22.06900
C  -3.09900 30.99000 21.39900
N  -3.17800 32.31700 27.06100
C  -3.79700 31.72900 25.99900
C  -4.72200 30.79000 26.46700
C  -4.70700 30.78600 27.85900
C  -3.74900 31.74500 28.19900
C  -5.62100 30.05400 25.58400
C  -5.24800 30.21700 29.07500
O  -6.09500 29.37900 29.25800
C  -4.55500 30.96900 30.31500
C  -5.60700 31.68900 31.20300
O  -6.13800 32.75200 30.97900
O  -5.84300 30.90300 32.35400
C  -6.68000 31.38000 33.45800
H  0.23700 36.14500 30.41100
H  0.62300 35.74800 23.89000
H  -3.97800 31.54300 23.85100
H  -3.39400 33.48100 32.28900
H  -0.75000 34.44200 32.26500
H  -2.35200 36.64500 31.40500
H  -1.60400 36.25700 32.88100
H  -3.35300 35.75500 32.38500
H  -0.85500 32.24400 32.59800
H  -1.89900 31.10500 31.72600
H  -2.98700 30.33800 33.55200
H  -3.70600 31.87700 33.73600
H  2.63900 38.10900 28.77800
H  1.23900 37.77100 29.84300
H  1.04500 38.89600 28.60300
H  3.25400 39.40000 25.31700
H  3.62700 38.28500 26.64700
H  2.31600 39.48300 26.73800
H  -0.08700 33.30100 22.69900
H  -3.04700 33.62700 22.47100
H  -1.43700 35.94900 22.10200
H  -1.91400 34.72500 20.93500
H  -0.19500 35.08400 21.11000
H  -1.64400 30.89600 22.83400
H  -1.10500 31.80500 21.33900
H  -2.89600 30.73800 20.35800
H  -3.91300 31.71500 21.39100
H  -3.38900 30.12200 21.99100
H  -5.00500 29.67100 24.77000
H  -6.35700 30.78300 25.24600
H  -6.06800 29.22100 26.12600
H  -3.90600 30.30700 30.88900
H  -7.45700 32.07200 33.13300
H  -6.08700 31.87100 34.23000
H  -7.32400 30.64700 33.94400

