158

Mg 16.06100 51.99100 25.90100
C  18.20400 50.75300 28.42000
C  13.62800 52.46500 28.39000
C  14.03900 52.62500 23.49000
C  18.52600 50.94900 23.60500
N  15.93500 51.60500 28.07700
C  16.96700 51.18100 28.90000
C  16.56400 51.49700 30.37000
C  15.04700 51.85000 30.36900
C  14.88600 52.03200 28.84300
C  14.09500 50.67600 30.77900
C  17.39300 52.64100 31.10700
C  17.54800 52.68800 32.66700
H  16.81000 51.53900 33.42100
N  14.12500 52.66400 25.94000
C  13.27200 52.79900 27.01900
C  11.96100 53.28200 26.57500
C  12.02800 53.29100 25.16000
C  13.41400 52.89300 24.76400
C  10.82000 53.60500 27.46400
C  10.90600 53.60000 24.12400
O  11.12400 53.67000 22.93900
C  9.42000 53.88100 24.55300
N  16.30800 51.89300 23.83300
C  15.30200 52.23900 23.06700
C  15.58000 52.20000 21.54700
C  17.14400 51.79400 21.59800
C  17.37800 51.46400 23.04700
C  14.66600 51.21800 20.80200
C  18.08800 52.90300 21.04400
C  19.24700 52.41100 20.18000
N  17.99300 51.09600 25.92800
C  18.91100 50.72200 24.95200
C  20.13000 50.13600 25.52600
C  19.82500 50.15500 26.86200
C  18.54300 50.73700 27.03800
C  21.41000 49.63300 24.87700
C  20.38000 49.83300 28.17400
O  21.45400 49.32200 28.32500
C  19.40000 50.36000 29.21500
C  19.05000 49.18600 30.17600
O  18.51300 48.13400 29.86400
O  19.42800 49.44100 31.46300
C  19.34500 48.32400 32.48600
H  12.83200 52.70000 29.10000
H  13.40900 52.91600 22.64700
H  19.29000 50.63400 22.89000
H  16.70500 50.58600 30.95100
H  14.79900 52.77500 30.88900
H  14.74900 49.80400 30.79800
H  13.24800 50.61800 30.09500
H  13.65400 50.75100 31.77300
H  16.93800 53.56400 30.74800
H  18.39800 52.78800 30.71100
H  17.25100 53.67800 33.01200
H  18.58700 52.42700 32.86900
H  10.48000 54.63700 27.38500
H  11.03000 53.54200 28.53200
H  9.96700 52.94200 27.32100
H  8.87000 52.94800 24.67800
H  8.96000 54.50800 23.79000
H  9.41000 54.55100 25.41300
H  15.56000 53.22800 21.18500
H  17.30700 50.92400 20.96100
H  14.56300 51.60800 19.78900
H  13.66100 51.20300 21.22300
H  14.96700 50.17200 20.84600
H  18.34400 53.67500 21.77000
H  17.54700 53.45800 20.27800
H  19.25100 52.59600 19.10500
H  19.42000 51.34100 20.29200
H  20.18800 52.81100 20.55600
H  21.71800 50.29200 24.06500
H  21.28100 48.65200 24.41900
H  22.22200 49.76400 25.59200
H  19.80200 51.14000 29.86200
H  18.32900 47.93100 32.47000
H  19.48100 48.84600 33.43300
H  20.22200 47.67700 32.50400
Mg -0.28200 43.18900 26.26600
C  2.20300 42.48500 28.70800
C  -2.65300 41.82400 28.39400
C  -2.37500 43.19400 23.76700
C  2.41100 43.66000 23.90700
N  -0.22400 42.21400 28.36800
C  0.87500 42.24200 29.19300
C  0.44000 41.90400 30.65400
C  -1.06700 41.47200 30.46100
C  -1.37000 41.84900 28.95600
C  -1.26200 39.98500 30.69800
C  0.92100 43.12700 31.47800
C  0.27400 43.31200 32.93700
H  -0.25900 42.05500 33.71600
N  -2.28000 42.80200 26.18000
C  -3.10700 42.29400 27.15700
C  -4.48700 42.46300 26.71200
C  -4.39800 42.70100 25.32000
C  -2.97300 42.90600 25.01400
C  -5.66900 42.00300 27.49600
C  -5.48100 42.79600 24.25300
O  -5.25800 42.94500 23.09300
C  -6.91700 42.53600 24.60200
N  0.05600 43.37500 24.09600
C  -1.06500 43.48100 23.33300
C  -0.64300 44.02900 21.95100
C  0.84000 44.55000 22.11100
C  1.14700 43.82300 23.41100
C  -0.90600 42.81100 20.95100
C  1.09100 46.08300 22.40800
C  1.17700 46.97100 21.19400
N  1.87200 43.11000 26.22500
C  2.77800 43.32600 25.24500
C  4.07100 43.28500 25.83300
C  3.87900 42.83300 27.12400
C  2.56900 42.76800 27.38300
C  5.33100 43.50300 25.07100
C  4.61800 42.48100 28.32600
O  5.84200 42.33800 28.55000
C  3.57200 42.41200 29.45900
C  3.75800 41.09200 30.09900
O  3.43100 40.01800 29.63200
O  4.34600 41.21100 31.35600
C  4.54400 40.04900 32.24600
H  -3.43700 41.58300 29.11500
H  -2.97900 43.25800 22.85900
H  3.28100 43.91000 23.29600
H  1.11300 41.08400 30.90400
H  -1.61000 42.10200 31.16600
H  -0.37200 39.40300 30.93800
H  -1.72900 39.50400 29.83900
H  -1.82300 39.88600 31.62700
H  0.74800 44.02100 30.88000
H  1.99700 43.17200 31.64800
H  -0.50700 44.04300 32.73000
H  0.99700 43.70300 33.65200
H  -5.46500 41.59600 28.48600
H  -6.12100 41.19300 26.92400
H  -6.33300 42.86400 27.57200
H  -7.01300 41.53500 25.02200
H  -7.43100 42.52700 23.64200
H  -7.08800 43.24100 25.41600
H  -1.24600 44.88800 21.65400
H  1.53200 44.00800 21.46700
H  -1.38300 41.95400 21.42600
H  0.03500 42.33600 20.67300
H  -1.38000 43.19600 20.04800
H  1.94700 46.26200 23.05900
H  0.28900 46.51000 23.01000
H  0.88400 46.43200 20.29300
H  2.24300 47.15800 21.05900
H  0.61800 47.90400 21.26200
H  6.14400 43.88700 25.68800
H  5.29700 44.38300 24.42800
H  5.68800 42.65700 24.48500
H  3.60300 43.22200 30.18800
H  5.00800 39.25300 31.66400
H  3.54000 39.66900 32.43600
H  5.13000 40.24400 33.14400

