158

Mg 45.13700 4.60600 47.04900
C  43.06900 7.22500 46.35500
C  42.50400 2.29000 46.61200
C  47.43000 2.03000 47.22300
C  47.81800 6.92600 47.02600
N  43.10700 4.77100 46.51800
C  42.46200 5.95100 46.37600
C  41.05200 5.68700 46.06400
C  40.83800 4.20900 46.51000
C  42.22000 3.69000 46.50300
C  40.17700 4.02700 47.91500
C  40.67400 5.93800 44.56100
C  39.65600 7.06500 44.17300
H  39.97000 7.79000 42.83000
N  44.98400 2.47500 47.00100
C  43.84300 1.74900 46.78600
C  44.16400 0.28900 46.93500
C  45.58200 0.17900 46.92200
C  46.08300 1.57600 47.04600
C  43.12400 -0.80900 46.63300
C  46.32000 -1.14600 46.63400
O  45.73100 -2.19000 46.55800
C  47.76800 -1.15900 46.20800
N  47.29900 4.45500 47.03600
C  47.98700 3.27100 47.19500
C  49.50300 3.50300 47.35100
C  49.66500 5.07300 47.12700
C  48.18800 5.53300 47.03500
C  49.97200 2.95200 48.75400
C  50.56800 5.46300 46.02200
C  51.79700 6.25200 46.55400
N  45.45900 6.69800 46.84900
C  46.58600 7.53100 46.93300
C  46.21900 8.91100 46.64300
C  44.77100 8.86100 46.50900
C  44.42600 7.47500 46.61000
C  47.15100 10.06000 46.68200
C  43.57100 9.64700 46.23600
O  43.32800 10.81700 46.09000
C  42.47300 8.61600 46.15100
C  41.51200 8.92000 47.30200
O  41.56200 8.53200 48.48200
O  40.65000 9.87200 46.83600
C  39.67900 10.31100 47.88200
H  41.78800 1.46600 46.59500
H  48.23100 1.29900 47.09100
H  48.57100 7.70700 47.15000
H  40.41000 6.33600 46.65900
H  40.27000 3.68800 45.73900
H  40.95200 3.68300 48.60000
H  39.48100 3.23500 47.63900
H  39.65200 4.92400 48.24400
H  40.22700 5.03500 44.14400
H  41.62900 6.10300 44.06200
H  39.55300 7.76700 45.00000
H  38.68100 6.57700 44.16800
H  43.36200 -1.23700 45.65900
H  42.12900 -0.46900 46.34300
H  42.99400 -1.55800 47.41400
H  48.38700 -1.22400 47.10300
H  47.91500 -0.18400 45.74300
H  47.83500 -1.97700 45.49000
H  50.10600 2.92900 46.64800
H  50.06700 5.55300 48.01900
H  50.32500 1.93500 48.58400
H  49.06000 2.83600 49.34000
H  50.75700 3.59400 49.15500
H  50.03100 6.04100 45.27000
H  51.02100 4.59500 45.54200
H  52.72600 6.02600 46.03000
H  52.05400 6.07800 47.59800
H  51.66100 7.32400 46.40500
H  46.70800 11.03100 46.46100
H  47.87500 9.84400 45.89700
H  47.64300 10.05600 47.65500
H  42.01500 8.68600 45.16400
H  38.87600 9.57600 47.84000
H  39.27500 11.26400 47.54000
H  40.21700 10.38500 48.82700
Mg 6.08700 54.40100 40.70500
C  4.77500 51.25900 40.74400
C  8.97000 53.27300 39.32100
C  7.08600 57.65800 40.36200
C  2.96800 55.66500 42.00800
N  6.65000 52.48400 40.02300
C  6.04700 51.30800 40.16400
C  6.82100 50.21900 39.57200
C  8.28500 50.80000 39.57500
C  7.95200 52.30600 39.61900
C  9.15000 50.30500 40.78500
C  6.28100 49.84100 38.11600
C  6.50400 48.40900 37.61600
H  5.77200 48.13800 36.34300
N  7.75300 55.32400 39.89200
C  8.90300 54.65900 39.48300
C  9.87100 55.67700 39.19200
C  9.34700 57.00200 39.49900
C  7.96100 56.69000 39.96700
C  11.29200 55.21200 38.60100
C  10.09200 58.29700 39.42900
O  11.31000 58.31100 39.28500
C  9.49500 59.67900 39.39700
N  4.98300 56.47800 40.92600
C  5.80700 57.61400 40.86500
C  5.02800 58.80800 41.52800
C  3.75200 58.06800 42.08900
C  3.89000 56.64600 41.65200
C  5.83200 59.61900 42.57500
C  2.39700 58.73900 41.68600
C  1.86300 59.85100 42.60100
N  4.29900 53.67900 41.32300
C  3.15800 54.28200 41.84600
C  2.20900 53.20000 42.21600
C  2.88300 52.01300 41.86500
C  4.09000 52.37300 41.28200
C  0.75200 53.35600 42.67400
C  2.76800 50.65300 41.92500
O  1.87400 49.92700 42.38200
C  4.03800 49.96700 41.27100
C  3.60800 48.91600 40.30900
O  2.77100 48.93500 39.49200
O  4.29600 47.80800 40.67900
C  3.77900 46.48900 40.27900
H  9.86000 52.77500 38.93200
H  7.38100 58.70200 40.48600
H  2.03800 55.90600 42.52700
H  6.69100 49.28600 40.11900
H  8.93600 50.59600 38.72500
H  10.16200 50.18600 40.39900
H  8.74300 49.40600 41.24900
H  9.27400 51.01200 41.60500
H  6.88500 50.36300 37.37300
H  5.29100 50.25700 37.92700
H  6.21400 47.62700 38.31800
H  7.53300 48.24600 37.29600
H  11.62700 54.57000 39.41500
H  12.00700 56.02200 38.45400
H  11.20300 54.53600 37.75100
H  8.46400 59.67000 39.04300
H  10.10100 60.29900 38.73500
H  9.49600 60.03400 40.42800
H  4.76200 59.39700 40.65100
H  3.86100 57.98000 43.17000
H  6.72200 59.03600 42.81200
H  5.30800 59.98700 43.45700
H  5.99400 60.50500 41.96100
H  1.62600 57.96900 41.72900
H  2.53000 59.01100 40.63900
H  2.66300 60.10400 43.29800
H  0.91300 59.55400 43.04600
H  1.58700 60.71500 41.99700
H  0.72900 54.28600 43.24300
H  0.48400 52.46000 43.23400
H  0.18000 53.45100 41.75100
H  4.52600 49.53500 42.14500
H  4.55600 45.73400 40.15700
H  3.22600 46.42400 39.34200
H  3.08800 46.26600 41.09300

