158

Mg 16.89800 52.97800 26.85200
C  18.72000 51.21800 29.32700
C  14.65500 53.70400 29.26400
C  14.92700 54.20700 24.50500
C  18.99400 51.51000 24.35100
N  16.80400 52.66300 28.99900
C  17.67100 51.95500 29.81600
C  17.25500 51.92800 31.28100
C  15.75800 52.28600 31.09300
C  15.77700 52.98000 29.72300
C  14.95600 50.97700 31.30000
C  18.08900 53.01700 31.98800
C  18.47600 52.81400 33.43700
H  17.40700 52.08900 34.26700
N  15.08900 53.97700 26.87300
C  14.36200 54.25200 27.99200
C  13.22700 55.01800 27.63100
C  13.16900 54.99100 26.22900
C  14.45300 54.40100 25.77700
C  12.28700 55.55700 28.68500
C  11.98900 55.45700 25.28200
O  12.22500 55.53800 24.08900
C  10.60200 55.92200 25.81700
N  17.09700 53.02900 24.73400
C  16.05700 53.60800 24.01000
C  16.26100 53.34700 22.49600
C  17.62100 52.57500 22.49800
C  17.93700 52.44400 23.97000
C  15.11400 52.58500 21.90900
C  18.69700 53.14800 21.54800
C  19.71300 54.19700 22.04300
N  18.53300 51.59200 26.77500
C  19.30100 51.16000 25.73900
C  20.41700 50.43800 26.30800
C  20.26900 50.43900 27.69500
C  19.05500 51.05600 27.92400
C  21.56400 49.90900 25.49000
C  20.83700 50.13200 28.97000
O  21.95000 49.74100 29.26900
C  19.84500 50.61700 30.04700
C  19.46400 49.44900 30.95400
O  18.83400 48.49400 30.51400
O  19.78500 49.63200 32.29600
C  19.24200 48.68500 33.27700
H  13.97900 53.94600 30.08700
H  14.48200 54.75300 23.67100
H  19.50200 50.93500 23.57400
H  17.60900 51.06100 31.83900
H  15.38200 52.90800 31.90600
H  15.09700 50.27000 30.48200
H  13.87600 51.02700 31.43400
H  15.36600 50.50900 32.19500
H  17.55200 53.96500 32.00900
H  19.01800 53.19100 31.44600
H  18.71800 53.79300 33.85100
H  19.41300 52.25900 33.40000
H  11.96400 56.56000 28.40700
H  12.72600 55.48000 29.68000
H  11.35200 54.99800 28.70900
H  10.00100 55.16000 26.31300
H  9.92800 56.34200 25.07100
H  10.82200 56.80500 26.41700
H  16.37500 54.30000 21.98100
H  17.42800 51.55400 22.17000
H  14.57700 53.17400 21.16500
H  14.49500 52.11600 22.67400
H  15.57700 51.73400 21.41100
H  18.21100 53.88100 20.90300
H  19.17800 52.35800 20.97200
H  19.41500 54.50900 23.04400
H  19.67200 55.09000 21.42000
H  20.73300 53.81800 22.10000
H  21.97500 50.62900 24.78200
H  21.08400 49.17400 24.84200
H  22.36700 49.37700 25.99900
H  20.35200 51.28700 30.74200
H  19.61500 47.69100 33.03000
H  18.15800 48.58500 33.20900
H  19.63100 49.07400 34.21800
Mg 9.64600 48.59200 26.06500
C  7.72200 48.70200 28.94100
C  12.12100 50.07500 27.80100
C  11.41300 48.91700 23.14400
C  6.79400 47.84100 24.17400
N  9.79200 49.44200 28.13400
C  8.99400 49.21200 29.20000
C  9.59700 49.65200 30.49100
C  10.77800 50.49600 29.94500
C  10.94300 49.99400 28.50000
C  10.43800 51.98400 30.02400
C  10.05000 48.42300 31.35800
C  10.34000 48.75800 32.83300
H  9.93800 47.64500 33.89800
N  11.54300 49.21900 25.60200
C  12.46100 49.71400 26.48600
C  13.71900 49.89900 25.79600
C  13.55700 49.32400 24.50300
C  12.09900 49.11900 24.38300
C  14.96700 50.46700 26.53500
C  14.59800 48.88000 23.49400
O  14.25900 48.40100 22.40200
C  16.06300 48.81200 23.89400
N  9.21200 48.35800 23.95000
C  10.08000 48.52300 22.94400
C  9.51200 48.17500 21.56900
C  8.12400 47.52400 21.99000
C  7.98900 47.97300 23.45600
C  9.28200 49.29600 20.58200
C  8.15700 45.94100 21.83500
C  8.74600 45.06200 22.94700
N  7.65600 48.40300 26.40800
C  6.63300 48.05500 25.53500
C  5.42000 47.82700 26.26000
C  5.84800 48.03600 27.61000
C  7.19600 48.41400 27.65600
C  4.09200 47.55500 25.70300
C  5.30900 48.12500 28.90600
O  4.19600 47.98400 29.34800
C  6.55600 48.43700 29.88900
C  6.75900 47.17100 30.67000
O  7.20000 46.08700 30.24100
O  6.35400 47.40900 31.97800
C  6.60300 46.28400 32.86300
H  12.96700 50.50900 28.33700
H  12.00500 49.04900 22.23700
H  5.95800 47.53600 23.54200
H  8.88500 50.21200 31.09800
H  11.70300 50.21800 30.45000
H  9.37000 52.18600 30.11300
H  10.91900 52.54200 29.22100
H  10.86200 52.38700 30.94300
H  11.00600 48.13900 30.91900
H  9.39100 47.57300 31.17900
H  9.91100 49.69600 33.18400
H  11.40500 48.90600 33.01100
H  15.50800 49.65100 27.01300
H  14.69100 51.16100 27.32900
H  15.70400 50.93100 25.87900
H  16.08000 48.45400 24.92300
H  16.42900 49.83900 23.86000
H  16.60400 48.13100 23.23600
H  10.17300 47.42200 21.14000
H  7.23300 47.91300 21.49800
H  9.53900 50.23800 21.06700
H  8.23800 49.39700 20.28400
H  9.94600 49.24100 19.72000
H  8.84700 45.67000 21.03600
H  7.17100 45.73100 21.42000
H  8.17700 44.18200 23.24500
H  9.07300 45.74200 23.73400
H  9.73300 44.68400 22.67900
H  3.87600 48.34400 24.98200
H  3.45200 47.73100 26.56700
H  3.98800 46.52400 25.36600
H  6.32100 49.26900 30.55200
H  7.55500 45.82600 32.59300
H  5.77200 45.58000 32.89300
H  6.59800 46.75400 33.84600

