158

Mg 45.19600 5.23500 46.86200
C  42.81400 7.75600 46.16000
C  42.75000 2.90100 46.48400
C  47.60200 2.74200 47.19300
C  47.68400 7.55100 46.84000
N  42.96200 5.30400 46.22300
C  42.23500 6.47500 46.09900
C  40.72400 6.16600 46.06800
C  40.77300 4.56100 46.18000
C  42.21500 4.18100 46.27400
C  40.01900 3.96800 47.35900
C  39.86700 6.75500 44.90600
C  40.34200 6.34800 43.53500
H  40.64300 7.48000 42.50700
N  45.15900 3.11900 46.84100
C  44.03600 2.36300 46.70700
C  44.36700 1.01300 46.71700
C  45.78500 0.94500 46.85400
C  46.25900 2.31700 46.91700
C  43.36300 -0.11800 46.52900
C  46.53600 -0.33400 46.93000
O  45.95100 -1.41800 46.86100
C  48.00200 -0.39900 47.01800
N  47.45500 5.10400 46.66300
C  48.15500 4.06600 47.07100
C  49.66900 4.39800 47.10200
C  49.63300 5.90700 47.25100
C  48.18600 6.26100 46.79800
C  50.44200 3.56500 48.14900
C  50.82000 6.55000 46.47300
C  52.03900 6.93400 47.33100
N  45.32300 7.26800 46.58600
C  46.38800 8.10100 46.59800
C  45.94200 9.47200 46.62100
C  44.57500 9.37700 46.39100
C  44.25800 7.98100 46.40700
C  46.78500 10.66100 46.79600
C  43.40300 10.17100 46.20900
O  43.26200 11.35700 46.27900
C  42.16000 9.13100 46.03800
C  41.23700 9.30100 47.23100
O  41.20900 8.64500 48.27700
O  40.36700 10.27000 46.84000
C  39.29200 10.57700 47.82500
H  41.91800 2.25100 46.20600
H  48.43700 2.04500 47.28600
H  48.43600 8.33600 46.95000
H  40.32700 6.58100 46.99400
H  40.31900 4.07200 45.31900
H  40.21100 4.68500 48.15700
H  40.29100 2.92900 47.54300
H  38.95500 3.95600 47.12300
H  39.90700 7.83800 45.02100
H  38.80400 6.53100 44.98700
H  39.61600 5.74300 42.99200
H  41.26300 5.77400 43.64200
H  43.61900 -0.77400 45.69700
H  42.40800 0.27800 46.18400
H  43.25200 -0.74400 47.41500
H  48.34500 0.26500 46.22500
H  48.35200 -1.40700 46.79500
H  48.47600 -0.17400 47.97400
H  49.98200 4.19900 46.07700
H  49.77700 6.12800 48.30900
H  50.93400 4.26200 48.82800
H  51.14300 2.84300 47.73000
H  49.78800 2.91800 48.73500
H  50.51600 7.48500 46.00400
H  51.23000 5.90800 45.69400
H  51.96200 6.56300 48.35400
H  52.20600 7.99800 47.49400
H  52.92200 6.54200 46.82700
H  47.67800 10.60400 47.41900
H  46.03400 11.36400 47.15700
H  47.12000 10.99400 45.81400
H  41.69700 9.33700 45.07300
H  38.29800 10.72100 47.40000
H  39.38800 11.57200 48.25900
H  39.17700 9.76000 48.53800
Mg 26.69500 50.86400 25.92200
C  24.65000 51.94200 28.66200
C  28.92100 49.60200 28.19600
C  28.74700 50.14300 23.43300
C  24.65100 52.67200 23.77600
N  26.67800 50.75200 28.20300
C  25.80500 51.24600 29.11500
C  26.22700 50.91500 30.51300
C  27.66100 50.27800 30.28300
C  27.83200 50.27800 28.78400
C  28.76600 51.10400 31.03100
C  25.23100 50.05300 31.25100
C  24.53900 50.83700 32.48400
H  24.55100 50.12200 33.85200
N  28.54800 49.93700 25.82200
C  29.22300 49.40300 26.85500
C  30.36100 48.64000 26.37200
C  30.39700 48.89300 24.99800
C  29.21900 49.69000 24.65400
C  31.22900 47.77700 27.24700
C  31.32500 48.31200 24.01300
O  31.21100 48.56400 22.85900
C  32.41400 47.35100 24.42400
N  26.70800 51.33400 23.88800
C  27.63200 50.91000 23.05200
C  27.25000 51.20400 21.62100
C  25.78500 51.84700 21.74500
C  25.71500 51.94300 23.20600
C  28.24600 52.14200 20.81400
C  24.58800 51.07800 21.12600
C  23.99300 51.60600 19.84500
N  24.88900 51.95000 26.08400
C  24.25400 52.69900 25.16300
C  23.14100 53.46100 25.79000
C  23.23500 53.13200 27.19200
C  24.24600 52.10500 27.25600
C  22.16700 54.41200 25.05300
C  22.65500 53.43900 28.48800
O  21.70900 54.10800 28.79600
C  23.56900 52.65600 29.48900
C  24.06600 53.70800 30.47300
O  25.07800 54.29800 30.29800
O  23.30300 53.79300 31.60400
C  23.85400 54.62900 32.75000
H  29.54700 49.09600 28.93300
H  29.44500 49.95700 22.61500
H  24.00400 53.23300 23.09900
H  26.32700 51.84700 31.07000
H  27.72200 49.31300 30.78500
H  28.36600 52.07400 31.32600
H  29.61300 51.34500 30.38900
H  29.18300 50.53000 31.85900
H  25.59000 49.05700 31.51000
H  24.42400 49.87500 30.54100
H  23.50000 50.98400 32.19000
H  24.97600 51.81800 32.66900
H  31.32800 46.76500 26.85500
H  30.92000 47.57400 28.27300
H  32.24000 48.18600 27.23400
H  32.92000 47.76900 25.29500
H  33.11300 47.06700 23.63800
H  32.07800 46.36800 24.75200
H  27.13300 50.26200 21.08500
H  25.87300 52.84400 21.31300
H  29.17200 52.16200 21.38800
H  27.89100 53.17100 20.76900
H  28.40300 51.67400 19.84200
H  23.78700 51.03000 21.86400
H  24.77700 50.01500 20.98300
H  22.96700 51.90100 20.06300
H  24.08500 50.94500 18.98300
H  24.46600 52.47900 19.39500
H  22.67500 54.76900 24.15700
H  21.82600 55.14000 25.78900
H  21.31300 53.86800 24.65000
H  23.01000 52.00100 30.15800
H  22.97100 54.68300 33.38700
H  24.07600 55.64500 32.42500
H  24.62500 54.06500 33.27600

