158

Mg 24.81500 -6.98500 47.00100
C  26.42100 -4.09900 45.66800
C  22.19500 -6.40100 44.94000
C  23.70000 -9.92000 47.90400
C  27.85400 -7.34400 48.94800
N  24.42400 -5.37900 45.57700
C  25.14600 -4.29900 45.18500
C  24.42100 -3.49000 44.13700
C  22.91700 -4.04700 44.25300
C  23.18300 -5.40200 44.98000
C  21.89000 -3.08900 44.99300
C  24.91500 -3.64600 42.64600
C  25.47400 -2.34200 42.06600
H  25.20100 -2.09100 40.59800
N  23.12900 -7.98600 46.54400
C  22.14500 -7.57200 45.70200
C  21.10200 -8.63500 45.71700
C  21.59000 -9.76700 46.39800
C  22.87000 -9.24800 46.99500
C  19.74200 -8.43800 44.96300
C  20.93000 -11.09000 46.47600
O  19.79900 -11.32900 46.04000
C  21.50900 -12.18900 47.25900
N  25.83900 -8.54900 48.02200
C  25.00400 -9.52900 48.41700
C  25.76800 -10.43500 49.43200
C  27.02900 -9.59300 49.88000
C  26.92800 -8.44100 48.91100
C  24.94100 -10.75400 50.65400
C  28.41200 -10.34900 49.76900
C  28.96200 -10.86700 51.06700
N  26.72900 -5.88900 47.34000
C  27.81500 -6.20600 48.14300
C  28.81700 -5.19000 48.05000
C  28.29200 -4.37800 47.01700
C  27.04600 -4.84100 46.63700
C  30.16000 -5.12200 48.75700
C  28.57600 -3.19600 46.31000
O  29.50000 -2.37600 46.34600
C  27.49100 -3.05200 45.29700
C  27.13000 -1.69000 45.14900
O  27.31900 -1.04200 44.18100
O  26.50400 -1.26200 46.30700
C  25.90000 0.09600 46.28800
H  21.31800 -6.14300 44.34300
H  23.43700 -10.87000 48.37500
H  28.66700 -7.45200 49.66900
H  24.60800 -2.46900 44.46800
H  22.44700 -4.21300 43.28400
H  22.22600 -2.05200 44.96400
H  21.75200 -3.32700 46.04800
H  20.90100 -3.23800 44.55900
H  24.22300 -4.04800 41.90600
H  25.67700 -4.42000 42.73800
H  26.54600 -2.37100 42.26200
H  25.01000 -1.51300 42.60000
H  19.60000 -9.17900 44.17600
H  19.57900 -7.41900 44.61200
H  18.95300 -8.79800 45.62300
H  22.52700 -12.37700 46.91600
H  20.96500 -13.10200 47.01800
H  21.46300 -12.04400 48.33800
H  26.14800 -11.28400 48.86400
H  26.87600 -9.13900 50.85900
H  24.39000 -11.68500 50.52300
H  24.21400 -9.96200 50.82800
H  25.57800 -10.78000 51.53800
H  29.15700 -9.71900 49.28300
H  28.32300 -11.09800 48.98300
H  28.49200 -10.56300 52.00300
H  30.00600 -10.55800 51.11200
H  29.16400 -11.93700 51.02000
H  30.95200 -5.77700 48.39400
H  29.82100 -5.30700 49.77700
H  30.64700 -4.15300 48.85900
H  27.81200 -3.37600 44.30700
H  25.19900 0.21700 45.46200
H  26.59200 0.88900 46.00400
H  25.35500 0.41200 47.17800
Mg -3.35400 34.74800 26.88600
C  -4.88400 33.02500 29.49800
C  -1.86500 36.78400 29.28300
C  -2.45200 36.97800 24.45400
C  -5.61500 33.20600 24.61000
N  -3.50000 34.98700 29.18000
C  -3.97600 33.96900 29.97300
C  -3.63400 34.26200 31.43500
C  -2.77600 35.54800 31.42000
C  -2.69200 35.87600 29.87900
C  -3.22400 36.68300 32.32000
C  -2.96500 33.00900 32.13400
C  -3.53900 32.68800 33.49000
H  -2.58500 33.12000 34.59700
N  -2.25800 36.47000 26.83800
C  -1.67400 37.11900 27.95500
C  -0.80900 38.21500 27.46600
C  -0.92800 38.20900 26.05100
C  -1.95300 37.22100 25.70300
C  0.00200 39.05700 28.41700
C  -0.15100 39.14800 25.03600
O  -0.21200 39.04200 23.81900
C  0.86100 40.03400 25.49400
N  -3.90200 35.01200 24.85200
C  -3.39500 35.99700 24.01700
C  -4.12900 36.02400 22.62500
C  -5.00300 34.69900 22.67100
C  -4.84100 34.25600 24.12100
C  -4.91700 37.39200 22.60300
C  -4.47000 33.63000 21.66300
C  -3.20700 32.69100 22.03500
N  -4.79100 33.19500 26.91300
C  -5.68800 32.70200 25.95000
C  -6.40700 31.63900 26.56100
C  -6.08900 31.72400 27.89300
C  -5.18700 32.74300 28.11700
C  -7.38300 30.73600 25.83500
C  -6.36600 31.09400 29.16800
O  -7.00600 30.13700 29.34700
C  -5.63700 31.91000 30.30100
C  -6.71900 32.51600 31.11300
O  -7.72800 33.09000 30.75700
O  -6.46200 32.24400 32.37300
C  -7.50200 32.48600 33.43700
H  -1.19200 37.30500 29.96700
H  -2.18600 37.73500 23.71300
H  -6.39300 32.82100 23.94800
H  -4.55700 34.45700 31.98100
H  -1.74100 35.30200 31.66000
H  -4.10100 36.33300 32.86400
H  -3.41700 37.63600 31.82900
H  -2.35900 36.80900 32.97200
H  -1.95000 33.35900 32.32300
H  -2.81900 32.08900 31.56700
H  -3.64200 31.60400 33.53900
H  -4.49100 33.21000 33.59000
H  1.06300 39.08500 28.17100
H  -0.00200 38.86200 29.49000
H  -0.28900 40.08500 28.20100
H  1.42200 40.39500 24.63100
H  1.63200 39.47800 26.02700
H  0.33700 40.73600 26.14300
H  -3.32600 36.05700 21.88900
H  -6.04700 34.98400 22.53800
H  -5.95000 37.19700 22.31700
H  -4.45800 38.07000 21.88300
H  -5.08800 37.88400 23.56100
H  -4.25800 34.21600 20.76900
H  -5.41100 33.11400 21.47500
H  -2.71600 33.07000 22.93200
H  -2.45700 32.67000 21.24500
H  -3.61500 31.71900 22.31300
H  -8.16300 30.41900 26.52700
H  -6.91900 29.82100 25.46700
H  -7.80400 31.27100 24.98400
H  -4.97400 31.35400 30.96300
H  -6.89200 32.57300 34.33600
H  -8.18000 31.64900 33.59900
H  -8.12900 33.35800 33.25000

