158

Mg 0.22900 7.77900 27.37900
C  1.08400 9.81700 30.13100
C  0.25800 5.12200 29.50700
C  -0.06000 5.80200 24.69800
C  0.79000 10.57600 25.32100
N  0.71400 7.58500 29.58700
C  0.94200 8.47300 30.49600
C  0.73100 7.99300 31.94000
C  0.71000 6.48200 31.77900
C  0.49100 6.37100 30.20300
C  1.99700 5.66200 32.20600
C  -0.66500 8.43700 32.45600
C  -0.81200 8.37600 33.96300
H  0.41500 8.01100 34.86500
N  -0.00100 5.69500 27.22100
C  -0.02300 4.80500 28.17300
C  -0.33600 3.53100 27.62500
C  -0.44000 3.69200 26.23600
C  -0.18800 5.12000 25.99100
C  -0.42200 2.36900 28.53100
C  -0.71700 2.66300 25.16400
O  -0.74300 2.97200 24.02800
C  -0.98400 1.22900 25.53000
N  0.24700 8.18800 25.43100
C  0.10000 7.21200 24.44900
C  0.13100 7.72900 22.98200
C  0.15400 9.31100 23.20400
C  0.47900 9.37700 24.71000
C  1.35200 7.18600 22.28400
C  -1.22800 10.08000 23.03100
C  -1.31600 10.91500 21.70200
N  0.80600 9.78800 27.62500
C  0.89400 10.83600 26.71500
C  1.26500 12.06600 27.38700
C  1.31300 11.66900 28.71100
C  1.00900 10.31100 28.85200
C  1.38900 13.47800 26.79100
C  1.65400 12.21300 30.00200
O  2.13500 13.31600 30.30400
C  1.16000 11.05800 31.00600
C  2.09500 10.95600 32.21600
O  3.07600 10.23700 32.26700
O  1.77100 11.92400 33.18000
C  2.86800 12.25200 34.13100
H  0.26500 4.27100 30.19100
H  -0.37800 5.27800 23.79400
H  0.97400 11.45400 24.69800
H  1.58100 8.24100 32.57500
H  -0.12100 5.94000 32.22900
H  1.82200 4.62600 31.91500
H  2.30900 5.86300 33.23100
H  2.82300 5.93500 31.54900
H  -1.42400 7.76500 32.05400
H  -0.67700 9.47000 32.10700
H  -1.66600 7.75800 34.24200
H  -1.12500 9.35200 34.33400
H  -0.75600 2.65600 29.52800
H  0.50400 1.82800 28.72100
H  -1.11200 1.56400 28.27700
H  -1.87400 1.18400 26.15700
H  -0.21800 0.89000 26.22800
H  -1.04400 0.61200 24.63400
H  -0.73600 7.38500 22.41800
H  0.92400 9.78900 22.59700
H  1.05900 6.42600 21.55900
H  2.08700 6.77800 22.97700
H  1.84400 8.02000 21.78200
H  -1.44700 10.76200 23.85300
H  -2.06100 9.37700 23.06600
H  -0.63500 10.38300 21.03700
H  -0.93100 11.92000 21.87200
H  -2.32100 10.98000 21.28600
H  1.78300 13.33900 25.78400
H  2.18300 13.92700 27.38800
H  0.43800 14.00200 26.88600
H  0.13300 11.34100 31.23700
H  3.75900 12.46600 33.54100
H  3.01400 11.30200 34.64600
H  2.72400 13.15600 34.72200
Mg -6.06900 25.51200 27.19700
C  -4.58000 26.72000 30.14300
C  -7.84100 23.43300 28.82400
C  -7.22200 24.32900 24.26100
C  -3.84200 27.67100 25.41900
N  -6.15300 25.06800 29.22000
C  -5.49200 25.63000 30.37500
C  -6.09100 25.19600 31.67100
C  -6.97300 23.98100 31.26500
C  -7.00300 24.17300 29.70800
C  -6.38700 22.57700 31.57600
C  -6.87700 26.35300 32.44500
C  -6.63100 26.56200 33.94300
H  -5.94200 25.45800 34.78300
N  -7.38100 24.10900 26.61400
C  -8.07500 23.36200 27.47300
C  -8.99900 22.46600 26.82700
C  -8.81700 22.67100 25.43700
C  -7.79700 23.72500 25.39000
C  -9.87600 21.50400 27.50100
C  -9.45800 21.91500 24.27200
O  -9.30400 22.26800 23.12900
C  -10.25000 20.64600 24.41500
N  -5.59700 25.95500 25.14600
C  -6.19300 25.26600 24.16100
C  -5.51600 25.54000 22.78300
C  -4.62600 26.74600 23.18300
C  -4.67300 26.82200 24.66600
C  -4.78100 24.29500 22.23500
C  -5.24400 28.05300 22.50300
C  -6.51100 28.68000 22.99000
N  -4.49600 26.90200 27.65100
C  -3.67700 27.66700 26.85100
C  -2.82400 28.56000 27.65900
C  -3.24300 28.29500 28.99900
C  -4.13000 27.19300 28.89200
C  -1.83600 29.68000 27.10000
C  -3.00700 28.62000 30.32700
O  -2.29300 29.47300 30.82000
C  -3.91900 27.60400 31.18400
C  -3.02000 26.97100 32.17500
O  -2.66000 25.75800 32.09200
O  -2.95500 27.76500 33.30400
C  -2.29500 27.21200 34.48700
H  -8.42200 22.87200 29.56000
H  -7.71400 23.93400 23.36900
H  -3.19200 28.35000 24.86200
H  -5.28000 24.81800 32.29300
H  -7.97200 23.86700 31.68700
H  -5.65700 22.79600 32.35500
H  -5.95600 22.18800 30.65300
H  -7.08400 21.85700 32.00400
H  -7.95000 26.21800 32.30700
H  -6.78500 27.35100 32.01800
H  -7.62400 26.66900 34.37900
H  -5.96500 27.41700 34.06500
H  -9.70100 20.45900 27.24400
H  -10.93400 21.71500 27.34500
H  -9.69800 21.57800 28.57400
H  -11.03800 20.81800 25.14800
H  -9.68000 19.80900 24.81900
H  -10.52300 20.33900 23.40500
H  -6.14200 25.82700 21.93800
H  -3.56200 26.56200 23.02900
H  -5.15800 23.38400 22.70000
H  -3.69400 24.35800 22.29200
H  -4.97100 24.09800 21.18000
H  -5.54300 27.75000 21.49900
H  -4.43900 28.78700 22.44500
H  -7.30000 28.56400 22.24700
H  -6.38900 29.69500 23.36900
H  -6.96200 28.06300 23.76800
H  -0.83900 29.27300 26.92700
H  -1.71600 30.52700 27.77600
H  -2.29900 30.04300 26.18300
H  -4.62600 28.31700 31.60800
H  -1.67500 27.90500 35.05600
H  -1.48400 26.49600 34.35500
H  -3.04300 26.90100 35.21700

