158

Mg 8.99300 3.83200 27.20300
C  10.25700 2.22200 30.03000
C  7.03800 5.75000 29.24000
C  7.87400 5.47800 24.50600
C  10.69300 1.57300 25.24800
N  8.68900 3.87500 29.39200
C  9.42100 3.26600 30.38000
C  9.08000 3.90100 31.72700
C  7.85600 4.83200 31.53300
C  7.86400 4.82300 29.95800
C  6.50200 4.41100 32.08600
C  10.32200 4.54500 32.37900
C  10.16900 5.18100 33.77900
H  10.99600 4.62100 34.97700
N  7.62200 5.33900 26.89000
C  6.87300 5.98500 27.84800
C  6.09900 7.10500 27.25300
C  6.49700 7.13900 25.91800
C  7.35400 5.93100 25.72400
C  5.16700 8.02900 27.99700
C  6.18200 8.15000 24.87100
O  6.52400 7.99700 23.67700
C  5.45700 9.48700 25.24900
N  9.02200 3.37300 25.10800
C  8.68600 4.33100 24.24300
C  9.19700 4.02600 22.88300
C  10.06300 2.69200 23.02100
C  9.90600 2.46500 24.53800
C  8.08900 3.95600 21.83400
C  11.55200 2.75200 22.42900
C  11.98400 1.52600 21.67600
N  10.19100 2.15600 27.48600
C  10.82500 1.37500 26.59300
C  11.64400 0.36900 27.22100
C  11.40600 0.67000 28.59900
C  10.49200 1.76100 28.68300
C  12.55000 -0.71100 26.71900
C  11.73800 0.29700 29.87400
O  12.60000 -0.51200 30.14700
C  11.09200 1.27800 30.89900
C  10.38400 0.65700 32.05800
O  9.22200 0.24100 31.96400
O  11.19600 0.68600 33.15900
C  10.39800 0.58100 34.37400
H  6.50600 6.36400 29.96800
H  7.80600 6.24000 23.72700
H  11.26200 0.88300 24.62100
H  8.83200 3.07900 32.39700
H  8.06300 5.87600 31.76500
H  6.62100 3.41400 32.51000
H  5.69700 4.33700 31.35500
H  6.11600 4.98300 32.93000
H  10.74300 5.33600 31.75700
H  11.15600 3.84300 32.39500
H  9.14100 5.13400 34.13800
H  10.36100 6.25000 33.69500
H  5.65500 8.96400 28.26900
H  4.92800 7.59100 28.96600
H  4.23800 8.16600 27.44300
H  5.63600 10.16400 24.41300
H  5.89100 9.96700 26.12600
H  4.43100 9.12500 25.31800
H  9.82600 4.85900 22.57100
H  9.57700 1.82300 22.57700
H  7.17000 4.18300 22.37500
H  7.92600 3.07000 21.22000
H  8.14100 4.74100 21.07900
H  12.25600 2.85800 23.25500
H  11.64900 3.63700 21.80000
H  12.81900 1.00200 22.14100
H  12.20400 1.84000 20.65600
H  11.12300 0.86000 21.61400
H  12.36200 -0.85800 25.65600
H  12.41400 -1.69500 27.16600
H  13.56400 -0.39100 26.96200
H  11.97300 1.82200 31.23900
H  11.06100 0.20300 35.15200
H  9.52600 -0.07300 34.36600
H  10.07500 1.59400 34.61300
Mg 47.42600 16.34100 28.70000
C  45.19800 16.18200 31.59600
C  49.55500 18.25300 30.63400
C  49.06900 17.02700 25.98100
C  44.74400 15.01400 26.82900
N  47.43500 16.98100 30.99400
C  46.39900 16.94500 31.88100
C  46.80600 17.55400 33.27000
C  48.14900 18.35800 32.88400
C  48.44600 17.84600 31.44900
C  47.98400 19.94000 32.99600
C  47.11400 16.45700 34.28500
C  46.65000 16.64800 35.70300
H  46.51300 18.12900 36.22800
N  49.26000 17.26500 28.42000
C  49.94300 18.02600 29.29200
C  51.16000 18.47100 28.67000
C  51.00800 18.09800 27.28500
C  49.75800 17.38500 27.18700
C  52.30400 19.16300 29.41200
C  51.95200 18.28400 26.04200
O  51.73700 17.81800 24.94800
C  53.24900 19.04400 26.30900
N  46.99900 15.95500 26.74200
C  47.82000 16.45300 25.77100
C  47.10700 16.41600 24.39500
C  45.94900 15.37800 24.67000
C  45.86800 15.44800 26.17800
C  46.49300 17.79500 23.92400
C  46.22600 13.86900 24.12100
C  45.00400 13.15400 23.55400
N  45.38600 15.57400 29.07900
C  44.44900 15.06600 28.23000
C  43.37900 14.48200 28.97800
C  43.61400 14.88100 30.29900
C  44.81800 15.65500 30.28300
C  42.37900 13.52500 28.40800
C  43.10100 14.76600 31.61800
O  42.10900 14.18100 32.09700
C  44.12100 15.65700 32.52800
C  43.32800 16.67600 33.38800
O  42.86100 17.71900 32.96500
O  43.34200 16.29000 34.67100
C  42.77700 17.37500 35.60400
H  50.24200 18.89400 31.19100
H  49.59100 17.32200 25.06900
H  44.04000 14.46300 26.20100
H  46.03000 18.21100 33.66400
H  48.99600 18.00700 33.47300
H  48.36700 20.28500 32.03600
H  48.53200 20.31500 33.86100
H  46.97100 20.27600 33.21900
H  48.15400 16.14200 34.18800
H  46.56500 15.64600 33.80600
H  47.12400 15.88400 36.31900
H  45.62000 16.29100 35.71000
H  52.22800 19.08200 30.49600
H  52.19100 20.22500 29.19200
H  53.23400 18.76600 29.00400
H  53.08200 19.89700 26.96700
H  53.51200 19.46800 25.34000
H  54.08400 18.39400 26.57000
H  47.82200 16.06100 23.65300
H  45.01000 15.72500 24.24100
H  46.85700 18.48800 24.68300
H  45.41100 17.77500 23.78800
H  47.03500 18.00700 23.00300
H  46.51700 13.23800 24.96100
H  47.00400 13.99400 23.36800
H  45.19100 12.10800 23.79800
H  45.04900 13.25800 22.47000
H  44.05800 13.47200 23.99100
H  42.72400 12.49300 28.33800
H  42.12100 13.94500 27.43600
H  41.46300 13.58800 28.99700
H  44.53100 14.91800 33.21600
H  41.70800 17.18200 35.69300
H  42.88400 18.36200 35.15300
H  43.31700 17.21900 36.53800

