158

Mg -2.12100 17.49400 26.65200
C  -2.58300 15.30600 29.56500
C  -2.31900 20.11300 28.85100
C  -2.15800 19.62700 24.06200
C  -2.44400 14.81900 24.64900
N  -2.29200 17.65100 29.02600
C  -2.39700 16.65500 29.92800
C  -2.53400 17.29300 31.36700
C  -2.45600 18.81300 31.10000
C  -2.33000 18.89700 29.56000
C  -3.62300 19.72900 31.66300
C  -1.51900 16.72800 32.40100
C  -0.93500 17.60900 33.57200
H  -0.56300 16.81700 34.86000
N  -1.99900 19.62600 26.47300
C  -2.11600 20.48900 27.44100
C  -1.94700 21.81900 26.88900
C  -1.79300 21.78200 25.51200
C  -2.00300 20.30000 25.33300
C  -1.80300 23.04800 27.73100
C  -1.52500 22.78200 24.48100
O  -1.52200 22.54300 23.27100
C  -1.15300 24.19700 24.75400
N  -2.36800 17.23300 24.65600
C  -2.33000 18.26700 23.72400
C  -2.51200 17.76800 22.29400
C  -2.18700 16.23300 22.53800
C  -2.32700 16.06200 24.04700
C  -3.85400 18.13700 21.71300
C  -0.81800 15.73900 21.99100
C  0.46400 15.80100 22.91100
N  -2.43400 15.44400 27.01200
C  -2.58200 14.45000 26.03200
C  -2.64900 13.16700 26.65600
C  -2.60700 13.48700 28.05700
C  -2.54300 14.83900 28.18500
C  -2.70800 11.88400 25.94000
C  -2.60700 12.91300 29.42000
O  -2.55300 11.76200 29.75900
C  -2.65400 14.06000 30.44000
C  -1.45000 13.72700 31.26900
O  -0.32500 14.05200 30.93600
O  -1.85400 13.25400 32.50600
C  -0.71900 12.86100 33.32900
H  -2.19300 20.95100 29.53900
H  -2.07300 20.23900 23.16100
H  -2.41700 13.91800 24.03200
H  -3.51000 16.99700 31.75100
H  -1.50600 19.31800 31.27500
H  -3.33500 20.77000 31.51300
H  -3.57900 19.47300 32.72100
H  -4.55600 19.32600 31.27000
H  -0.68700 16.34700 31.80800
H  -1.87700 15.86000 32.95400
H  -1.44200 18.55300 33.77200
H  0.03600 17.98600 33.25000
H  -0.88600 23.62400 27.60200
H  -1.96900 22.82400 28.78500
H  -2.66100 23.67000 27.47600
H  -0.16500 24.09200 25.20300
H  -1.90200 24.62100 25.42300
H  -1.06200 24.70100 23.79100
H  -1.68000 18.25200 21.78200
H  -2.98500 15.63700 22.09500
H  -4.34900 18.80800 22.41500
H  -4.36100 17.18900 21.53400
H  -3.67100 18.58200 20.73500
H  -0.64800 16.31300 21.07900
H  -0.94700 14.68400 21.75000
H  0.69200 14.77000 23.17800
H  0.33000 16.33100 23.85400
H  1.34300 16.20000 22.40500
H  -1.85900 11.21300 25.81000
H  -3.21100 11.94400 24.97400
H  -3.44300 11.34900 26.54200
H  -3.55900 14.21300 31.02800
H  -0.49700 11.81700 33.11100
H  -0.97500 13.01500 34.37700
H  0.23600 13.37600 33.22400
Mg -0.14500 7.90000 26.58600
C  0.62300 9.81900 29.30500
C  -0.60200 5.23500 28.71000
C  -0.84800 6.07800 23.80900
C  0.48200 10.72900 24.56200
N  -0.19900 7.66100 28.82400
C  0.18200 8.57500 29.79800
C  -0.05400 8.05500 31.19800
C  -0.35100 6.50300 31.02200
C  -0.37500 6.41200 29.43000
C  0.62500 5.48000 31.59800
C  -1.19900 8.78900 31.99500
C  -0.86400 8.93200 33.40100
H  -1.00100 7.67500 34.24200
N  -0.62200 5.90400 26.32300
C  -0.80100 4.99000 27.27900
C  -1.15400 3.76700 26.67400
C  -1.14000 3.87300 25.25400
C  -0.92300 5.35600 25.06800
C  -1.58300 2.47300 27.45600
C  -1.20500 2.88100 24.12400
O  -1.10300 3.20800 22.96300
C  -1.26800 1.37300 24.38100
N  -0.40300 8.39800 24.52700
C  -0.41000 7.41400 23.58200
C  -0.04500 7.95300 22.18900
C  -0.07700 9.46700 22.43800
C  0.01100 9.56700 23.98200
C  1.26800 7.41700 21.65500
C  -1.37300 10.14800 21.92000
C  -1.31600 11.64300 21.44900
N  0.44900 9.89000 26.82000
C  0.70600 10.90500 25.89900
C  1.20000 12.09200 26.55000
C  1.26000 11.68700 27.95100
C  0.70800 10.35100 28.04100
C  1.56100 13.39300 25.95900
C  1.60900 12.16100 29.24300
O  2.04100 13.22300 29.67900
C  1.08100 11.03300 30.18400
C  2.18800 10.72700 31.12500
O  3.05300 9.93200 30.95400
O  1.98200 11.49900 32.28500
C  2.97700 11.45200 33.31800
H  -0.78800 4.42300 29.41600
H  -0.76700 5.39900 22.95800
H  0.81500 11.46800 23.83000
H  0.91300 8.14800 31.69400
H  -1.38300 6.31400 31.32000
H  1.51400 5.89400 32.07300
H  0.95500 4.82200 30.79500
H  0.12800 4.90900 32.38300
H  -2.09800 8.21200 31.77700
H  -1.39500 9.71800 31.46100
H  -1.47600 9.70900 33.85800
H  0.15800 9.30900 33.36200
H  -2.58600 2.13300 27.19700
H  -1.63500 2.69200 28.52200
H  -0.78100 1.73700 27.39600
H  -0.55400 1.09500 25.15600
H  -1.05300 0.94200 23.40400
H  -2.29900 1.18800 24.68300
H  -0.80600 7.58200 21.50300
H  0.73800 10.06900 22.03600
H  1.77000 8.24900 21.16100
H  1.24200 6.55200 20.99200
H  1.86200 7.09000 22.50800
H  -2.09800 10.16500 22.73400
H  -1.77400 9.51800 21.12600
H  -1.55500 11.78500 20.39500
H  -0.34300 12.09400 21.64300
H  -2.04700 12.27500 21.95200
H  2.34300 13.93500 26.49200
H  0.65900 13.99300 26.08200
H  1.85700 13.25300 24.92000
H  0.20900 11.40100 30.72500
H  3.46200 12.42800 33.35300
H  3.70600 10.66700 33.11800
H  2.54500 11.18800 34.28300

