158

Mg 35.61600 2.25900 30.19200
C  33.31200 3.25600 32.51100
C  38.05100 2.62400 32.80700
C  38.05900 1.31900 28.06900
C  33.50200 2.73300 27.71700
N  35.65800 2.99600 32.41400
C  34.54800 3.12100 33.13800
C  34.86500 3.15200 34.64000
C  36.36000 3.18800 34.61200
C  36.75500 2.85600 33.21900
C  36.98600 4.56900 35.13400
C  34.19100 1.95000 35.45100
C  33.69500 2.38700 36.86200
H  34.43500 3.47200 37.62800
N  37.75200 1.96900 30.39100
C  38.50900 2.14400 31.55600
C  39.84600 1.86300 31.18900
C  39.96700 1.49700 29.78600
C  38.56500 1.52300 29.36500
C  41.06000 2.04900 32.11100
C  41.10800 1.04800 28.89200
O  40.91600 0.63600 27.76200
C  42.59200 1.05400 29.40200
N  35.84400 2.29700 28.15200
C  36.85200 1.65200 27.53000
C  36.54500 1.43700 26.04300
C  34.97900 1.56700 25.95200
C  34.71800 2.25500 27.32400
C  37.18300 2.47500 25.01900
C  34.27600 0.12600 25.97200
C  32.99600 0.07700 25.14700
N  33.71400 2.81700 30.13200
C  32.96800 3.01800 28.98300
C  31.61900 3.40100 29.38400
C  31.63700 3.40500 30.80600
C  33.03000 3.18100 31.16700
C  30.47600 3.52600 28.49300
C  30.87200 3.63700 31.97600
O  29.69600 3.98300 32.23000
C  31.96800 3.60800 33.15300
C  32.05400 5.00100 33.76700
O  32.52600 5.98100 33.22300
O  31.41000 4.97100 34.99100
C  31.45300 6.26300 35.80500
H  38.76800 2.70700 33.62600
H  38.71500 0.93000 27.28600
H  32.73600 2.76300 26.93900
H  34.43300 4.08100 35.01200
H  36.64700 2.36400 35.26600
H  36.18500 5.30700 35.18500
H  37.80500 4.84000 34.46700
H  37.31800 4.30400 36.13800
H  34.82900 1.07500 35.57900
H  33.28100 1.54200 35.01200
H  33.76600 1.58200 37.59300
H  32.64500 2.67500 36.82800
H  41.59500 1.11900 32.30100
H  40.68200 2.54600 33.00500
H  41.72200 2.78600 31.65500
H  42.62300 0.39000 30.26500
H  42.76500 2.03300 29.84900
H  43.26100 0.79900 28.58100
H  36.76000 0.38100 25.88300
H  34.62500 2.09200 25.06400
H  36.61800 2.65200 24.10400
H  38.15600 2.04000 24.79100
H  37.37300 3.41600 25.53600
H  34.13900 -0.22000 26.99600
H  34.97400 -0.56000 25.49200
H  32.74400 1.06100 24.75100
H  32.20600 -0.34200 25.77100
H  33.07600 -0.60400 24.30000
H  30.16200 2.57400 28.06200
H  30.66400 4.29900 27.74900
H  29.70800 3.89100 29.17500
H  31.79000 2.83900 33.90400
H  30.56600 6.25600 36.43800
H  31.41700 7.03500 35.03600
H  32.41400 6.24500 36.31900
Mg 26.85300 50.13100 26.09400
C  24.79900 51.26700 28.94500
C  29.28000 49.28100 28.39500
C  28.64200 49.14100 23.48400
C  24.46500 51.69800 24.08600
N  26.91100 50.08300 28.40600
C  25.94500 50.53600 29.35800
C  26.50900 50.28900 30.76700
C  28.01500 49.99400 30.58600
C  28.11100 49.78400 29.05700
C  29.06900 50.90500 31.32400
C  25.60400 49.19900 31.50800
C  25.00700 49.50900 32.88400
H  25.62800 50.39400 33.98800
N  28.68900 49.27000 25.94900
C  29.55000 49.02600 26.97800
C  30.67000 48.23500 26.43000
C  30.53100 48.21700 25.01100
C  29.26600 48.89500 24.74800
C  31.73900 47.54500 27.21700
C  31.38400 47.46300 23.87800
O  31.08700 47.53400 22.69000
C  32.45000 46.49200 24.20400
N  26.50700 50.43400 24.14500
C  27.45400 49.85100 23.27600
C  26.85500 49.91100 21.86000
C  25.57000 50.80600 21.91400
C  25.46800 51.00500 23.43300
C  27.78700 50.42500 20.71700
C  24.25100 50.30700 21.32800
C  23.73600 48.93000 21.76600
N  25.01300 51.19600 26.42200
C  24.22000 51.78600 25.45700
C  23.04400 52.36100 26.03900
C  23.26100 52.14900 27.44400
C  24.47400 51.41400 27.61800
C  21.97700 52.97500 25.19700
C  22.69900 52.50800 28.69700
O  21.71500 53.24100 28.92100
C  23.66200 51.84700 29.71200
C  24.02800 52.94400 30.63200
O  24.93300 53.77900 30.38500
O  23.32800 52.94400 31.81200
C  23.75100 54.02200 32.76100
H  30.01200 48.95200 29.13500
H  29.15800 48.76800 22.59800
H  23.69800 52.08600 23.41200
H  26.40500 51.29100 31.18500
H  28.21200 49.05300 31.09900
H  28.44500 51.75700 31.59500
H  29.81300 51.22400 30.59300
H  29.45700 50.33800 32.17000
H  26.23900 48.33500 31.70400
H  24.88900 48.95500 30.72300
H  24.94300 48.50400 33.30000
H  23.97700 49.83700 32.74400
H  31.95000 48.09500 28.13400
H  32.68100 47.76000 26.71200
H  31.56400 46.47200 27.30300
H  33.35000 47.06800 24.41800
H  32.55500 45.85000 23.32900
H  32.27300 45.89400 25.09700
H  26.53800 48.89600 21.61900
H  25.83300 51.80000 21.55100
H  28.70200 50.80200 21.17400
H  27.29800 51.22600 20.16300
H  28.10200 49.65500 20.01300
H  24.26300 50.09400 20.25900
H  23.52500 51.11600 21.40900
H  22.65800 49.04500 21.87400
H  24.21700 48.60500 22.68800
H  23.81100 48.18400 20.97400
H  21.34400 52.20400 24.75700
H  22.48300 53.59000 24.45300
H  21.50400 53.68500 25.87500
H  22.96700 51.12500 30.14100
H  24.17200 54.90000 32.27200
H  24.30900 53.59400 33.59500
H  22.78800 54.29300 33.19300

