158

Mg 1.36700 -1.90100 45.19500
C  4.81900 -0.53800 44.45800
C  0.18800 0.80600 43.39000
C  -1.61600 -3.28400 45.37200
C  3.08100 -4.80800 46.17800
N  2.38900 -0.12300 43.93800
C  3.74400 0.29000 43.92000
C  3.81700 1.62300 43.20800
C  2.38600 2.19200 43.23900
C  1.56500 0.92600 43.54300
C  2.23500 3.39600 44.15800
C  4.41300 1.59300 41.75800
C  5.56200 2.58000 41.50100
H  6.91100 2.03300 40.95100
N  -0.42600 -1.31700 44.54300
C  -0.71200 -0.23400 43.78100
C  -2.17700 -0.04200 43.67200
C  -2.70200 -1.15500 44.31900
C  -1.55700 -2.01000 44.76600
C  -2.83800 1.19400 42.90500
C  -4.21700 -1.42400 44.55800
O  -5.07000 -0.76000 44.07200
C  -4.77300 -2.54900 45.47200
N  0.79900 -3.78400 45.55100
C  -0.49300 -4.18600 45.61900
C  -0.65500 -5.60400 46.27900
C  0.83200 -6.03700 46.32800
C  1.61900 -4.79800 46.00400
C  -1.40900 -5.78100 47.62200
C  1.15100 -7.18700 45.37400
C  1.38200 -8.60600 45.98000
N  3.38900 -2.46700 45.49000
C  3.91100 -3.72700 45.90200
C  5.37400 -3.63500 46.01100
C  5.67700 -2.33800 45.41600
C  4.49500 -1.71500 45.10600
C  6.24700 -4.83500 46.38200
C  6.88000 -1.59800 45.04000
O  8.09000 -1.74200 45.09200
C  6.33700 -0.26500 44.45600
C  6.80100 0.96400 45.25000
O  6.98100 1.06500 46.45900
O  6.91200 2.01700 44.41200
C  7.45100 3.23600 45.07000
H  -0.25000 1.61800 42.80600
H  -2.60000 -3.72300 45.55400
H  3.62800 -5.55200 46.76000
H  4.34400 2.38500 43.78300
H  2.05300 2.49600 42.24700
H  1.72400 4.19600 43.62400
H  3.17300 3.81900 44.51700
H  1.78600 3.08100 45.10100
H  3.68200 1.94500 41.02900
H  4.75000 0.58700 41.51000
H  5.92700 2.99300 42.44200
H  5.22400 3.48200 40.99000
H  -2.63500 2.03700 43.56600
H  -3.92300 1.09700 42.94100
H  -2.48100 1.45100 41.90800
H  -4.21500 -2.60400 46.40700
H  -4.76900 -3.43400 44.83600
H  -5.81900 -2.31000 45.66100
H  -1.15300 -6.26800 45.57300
H  1.10100 -6.41600 47.31400
H  -0.71200 -6.21600 48.33900
H  -2.31000 -6.34100 47.37200
H  -1.67000 -4.77500 47.95000
H  2.01100 -6.95000 44.74700
H  0.36700 -7.38400 44.64200
H  0.89600 -9.39800 45.41000
H  1.01700 -8.69000 47.00400
H  2.46200 -8.74100 45.92700
H  6.47600 -5.43000 45.49800
H  5.80700 -5.47600 47.14600
H  7.16000 -4.33200 46.70100
H  6.72300 -0.20900 43.43900
H  8.53700 3.14400 45.07100
H  7.13700 3.46900 46.08800
H  7.35200 4.12200 44.44300
Mg 0.96500 7.60000 26.93600
C  1.26200 9.67500 29.67000
C  0.86100 4.87400 29.17800
C  0.27400 5.45800 24.30100
C  1.00200 10.16400 24.87800
N  1.13600 7.28000 29.18300
C  1.13600 8.36700 30.07500
C  1.11700 7.86400 31.48400
C  1.16200 6.31200 31.32100
C  1.03700 6.08200 29.80700
C  2.42600 5.57100 31.94300
C  -0.15300 8.30900 32.31700
C  -0.14300 8.36200 33.82600
H  1.11100 7.97400 34.61800
N  0.69300 5.52900 26.80200
C  0.64500 4.54600 27.79000
C  0.45700 3.25300 27.21100
C  0.26300 3.45400 25.84900
C  0.41400 4.86000 25.56800
C  0.54600 2.02800 28.16200
C  -0.11200 2.43300 24.76600
O  -0.24300 2.59100 23.60100
C  -0.43400 1.05400 25.24200
N  0.94900 7.71300 24.88800
C  0.53700 6.77500 23.99600
C  0.46200 7.31700 22.53300
C  0.35600 8.84400 22.86500
C  0.78200 8.94400 24.25700
C  1.70900 7.14000 21.58400
C  -1.07800 9.47300 22.89200
C  -1.50100 10.01300 21.51400
N  1.05400 9.53200 27.18200
C  1.08400 10.49100 26.21800
C  1.33000 11.75500 26.78700
C  1.40000 11.53200 28.17800
C  1.17000 10.15800 28.36500
C  1.46400 13.03000 25.95600
C  1.63000 12.12600 29.46700
O  1.95000 13.27900 29.78000
C  1.41300 10.89100 30.47900
C  2.55200 10.83100 31.47700
O  3.68300 10.64900 31.14300
O  2.08100 11.37900 32.67300
C  2.95600 11.84100 33.74100
H  0.52800 4.10200 29.87500
H  0.03800 4.88700 23.40000
H  1.07600 10.91600 24.09000
H  2.00700 8.13200 32.05400
H  0.31800 5.79800 31.78100
H  2.21000 5.36800 32.99200
H  3.26800 6.24700 31.79600
H  2.68200 4.65100 31.41800
H  -1.00300 7.68000 32.05100
H  -0.42500 9.31900 32.00900
H  -0.92800 7.69300 34.17900
H  -0.45800 9.39600 33.96600
H  -0.47900 1.78100 28.44000
H  1.01900 2.31900 29.10000
H  1.09700 1.19600 27.72300
H  0.48400 0.52000 25.48700
H  -0.76500 0.46200 24.38900
H  -1.17700 1.06300 26.04000
H  -0.50200 7.03200 22.11300
H  1.02800 9.46300 22.27000
H  2.22300 6.22400 21.87700
H  2.47900 7.90700 21.50000
H  1.19900 7.02800 20.62800
H  -1.13600 10.26900 23.63500
H  -1.89400 8.81800 23.19600
H  -2.42000 9.50600 21.22100
H  -0.73000 9.81600 20.76900
H  -1.63400 11.09400 21.48200
H  1.22300 13.78500 26.70500
H  0.75400 13.15200 25.13800
H  2.48000 13.14200 25.57800
H  0.50500 10.99700 31.07300
H  3.71200 12.45100 33.24700
H  3.33600 11.11900 34.46400
H  2.37500 12.62000 34.23500

