158

Mg 8.77600 48.75400 26.23900
C  6.48800 48.32500 28.74000
C  11.04600 50.12000 28.53900
C  10.78800 49.46500 23.64600
C  6.12800 48.14900 23.92200
N  8.72300 49.14400 28.36500
C  7.76200 48.72400 29.17700
C  8.22000 49.04400 30.66200
C  9.49100 49.90400 30.60000
C  9.74100 49.82700 29.07500
C  9.39900 51.38400 31.01900
C  8.40600 47.75300 31.49100
C  9.18800 47.78800 32.83600
H  8.66600 47.08300 34.03800
N  10.72000 49.36800 26.21500
C  11.47000 49.95400 27.21600
C  12.70600 50.24400 26.68000
C  12.77700 49.91200 25.25200
C  11.34600 49.56000 25.01300
C  13.82400 50.87200 27.48200
C  14.00800 49.93500 24.23200
O  13.81800 49.52400 23.10600
C  15.34000 50.40300 24.57000
N  8.45500 48.97100 24.07400
C  9.53400 49.10900 23.23100
C  9.12700 48.79700 21.76900
C  7.72600 48.12900 21.95600
C  7.37600 48.46300 23.42100
C  9.17900 49.99800 20.78200
C  7.87400 46.54900 21.95000
C  8.20400 45.99000 20.52500
N  6.72700 48.29900 26.27500
C  5.73700 48.23300 25.30300
C  4.44900 47.95700 25.89500
C  4.71700 47.95900 27.27000
C  6.06400 48.21900 27.42800
C  3.28300 47.65900 25.08900
C  4.13900 47.76900 28.58400
O  3.04900 47.42000 28.92800
C  5.37000 47.85100 29.63100
C  5.49000 46.46000 29.99200
O  6.10300 45.64700 29.36600
O  4.76700 46.17800 31.16500
C  4.91400 44.82500 31.80300
H  11.79100 50.42400 29.27700
H  11.56600 49.76200 22.93900
H  5.42000 47.88500 23.13400
H  7.55800 49.62600 31.30400
H  10.32400 49.43700 31.12700
H  9.50600 52.08100 30.18800
H  10.18500 51.69600 31.70800
H  8.44000 51.51100 31.52100
H  8.83100 47.03300 30.79100
H  7.43200 47.27700 31.60100
H  9.23100 48.82900 33.15800
H  10.19500 47.51100 32.52500
H  14.80100 50.70600 27.02800
H  13.89700 50.59400 28.53300
H  13.63800 51.94600 27.48800
H  15.94100 49.77800 25.23200
H  15.28500 51.41500 24.97100
H  15.90700 50.34900 23.64100
H  9.93300 48.19100 21.35500
H  7.12800 48.56700 21.15700
H  9.49800 50.94700 21.21200
H  8.20600 50.20600 20.33800
H  9.91300 49.82100 19.99600
H  6.85300 46.23600 22.17100
H  8.59000 46.26900 22.72200
H  7.99800 46.77100 19.79300
H  7.62700 45.15600 20.12500
H  9.25100 45.77200 20.31600
H  3.05200 46.76300 24.51300
H  3.28900 48.44700 24.33500
H  2.44000 47.88600 25.74000
H  5.11900 48.56400 30.41600
H  4.02500 44.20400 31.69000
H  5.06100 44.92000 32.87900
H  5.71900 44.23800 31.36100
Mg -1.47000 34.17400 25.70000
C  -3.15500 32.37400 28.41300
C  -0.19700 36.28200 28.09900
C  -0.16100 35.91200 23.18800
C  -2.99200 32.08500 23.50200
N  -1.74600 34.27500 28.02200
C  -2.33300 33.39100 28.89600
C  -1.94200 33.79900 30.30700
C  -1.07500 35.08900 30.18700
C  -1.02400 35.25100 28.67300
C  -1.54800 36.46400 30.88600
C  -1.28400 32.60000 31.09800
C  -1.71400 32.47900 32.63400
H  -0.75800 32.27300 33.78000
N  -0.24300 35.87400 25.70900
C  0.16300 36.55900 26.77900
C  1.01200 37.69300 26.34400
C  1.07300 37.55900 24.86900
C  0.25200 36.38700 24.51800
C  1.67900 38.72300 27.20700
C  1.76000 38.46300 23.87600
O  1.87900 38.23000 22.68200
C  2.42400 39.80200 24.29200
N  -1.62100 34.00300 23.65900
C  -0.99600 34.84300 22.78700
C  -1.40900 34.46300 21.34700
C  -1.85500 33.03900 21.53500
C  -2.14700 32.99700 23.02200
C  -2.29100 35.48700 20.58200
C  -0.79500 31.91300 21.09200
C  0.60300 32.02800 21.64800
N  -2.91500 32.65800 25.87000
C  -3.45900 31.94300 24.85400
C  -4.42800 31.02700 25.40300
C  -4.37700 31.15800 26.79300
C  -3.36500 32.12200 27.03300
C  -5.35400 30.17000 24.55100
C  -4.98500 30.81100 28.02700
O  -5.97700 30.17700 28.36000
C  -4.20700 31.48500 29.15300
C  -5.19500 32.13200 30.08200
O  -5.92400 33.06600 29.76300
O  -5.34100 31.42000 31.27100
C  -6.38400 31.90500 32.22400
H  0.16000 36.94200 28.89300
H  0.20600 36.45500 22.31500
H  -3.49400 31.47700 22.74600
H  -2.91700 34.05100 30.72400
H  -0.09000 34.90000 30.61300
H  -0.66700 37.07300 31.08800
H  -2.14200 36.40000 31.79800
H  -2.15100 37.06700 30.20700
H  -0.20600 32.75200 31.03800
H  -1.45100 31.68000 30.53800
H  -2.33900 31.58700 32.65300
H  -2.39700 33.29900 32.85500
H  1.38300 38.54100 28.24000
H  1.34600 39.75900 27.15100
H  2.76300 38.65900 27.11300
H  2.56700 40.41100 23.39900
H  3.35300 39.58400 24.81900
H  1.72000 40.28300 24.97100
H  -0.46800 34.46000 20.79600
H  -2.72100 32.87900 20.89200
H  -1.77700 35.81500 19.67900
H  -2.32200 36.33300 21.26900
H  -3.25500 35.06700 20.29600
H  -0.72000 31.93100 20.00400
H  -1.18800 30.95600 21.43500
H  1.29200 32.66400 21.09200
H  1.02600 31.03000 21.76400
H  0.45400 32.46800 22.63400
H  -5.16000 29.11100 24.71900
H  -5.29600 30.41300 23.49000
H  -6.37900 30.46500 24.77600
H  -3.69100 30.67800 29.67400
H  -5.73700 32.46300 32.90000
H  -6.91800 31.06900 32.67500
H  -7.13900 32.62200 31.90200

