158

Mg 2.34500 -1.94200 44.07200
C  5.83300 -0.98300 43.90400
C  1.77600 0.91500 42.00600
C  -0.73500 -2.92300 43.70300
C  3.47100 -5.08500 45.30300
N  3.71600 -0.27200 42.96400
C  5.10000 -0.04900 43.16200
C  5.53300 1.19600 42.34200
C  4.20100 1.89700 41.90100
C  3.17200 0.76700 42.23600
C  3.83100 3.22800 42.67400
C  6.50400 0.97200 41.13600
C  6.04900 -0.03400 40.10700
H  5.46800 0.44400 38.72000
N  0.69300 -1.17500 42.95000
C  0.64300 0.01100 42.27900
C  -0.69900 0.16000 41.81500
C  -1.52200 -0.90400 42.32100
C  -0.52400 -1.77300 43.05200
C  -1.07000 1.42400 41.14600
C  -2.97200 -1.10300 42.26600
O  -3.62200 -0.30900 41.60600
C  -3.73000 -2.16300 43.03900
N  1.51800 -3.83800 44.43500
C  0.12300 -3.89800 44.32500
C  -0.28600 -5.35300 44.76200
C  1.00700 -6.00100 45.34900
C  2.04500 -4.94000 45.01900
C  -1.49100 -5.57300 45.65200
C  1.31700 -7.32500 44.66700
C  0.79400 -8.56400 45.16900
N  4.20700 -2.88300 44.60200
C  4.44500 -4.12000 45.11100
C  5.89400 -4.28000 45.39900
C  6.46900 -3.00200 45.03500
C  5.43100 -2.25700 44.48700
C  6.53600 -5.52800 45.93800
C  7.67400 -2.30600 44.88300
O  8.81800 -2.66300 45.09600
C  7.34700 -0.96600 44.10200
C  7.76800 0.24100 44.86000
O  7.34500 0.49600 45.97800
O  8.69500 0.89200 44.17400
C  9.06000 2.19800 44.72600
H  1.73100 1.82900 41.41000
H  -1.72900 -3.34300 43.53300
H  3.88800 -5.94800 45.82400
H  6.08500 1.85800 43.00900
H  4.26100 2.12900 40.83800
H  2.84800 3.19300 43.14400
H  3.86300 4.11100 42.03600
H  4.63700 3.32200 43.40200
H  7.45100 0.67100 41.58400
H  6.58700 1.94600 40.65400
H  5.31900 -0.76500 40.45500
H  6.89900 -0.64500 39.80400
H  -2.12600 1.33300 40.88900
H  -0.66600 1.39000 40.13400
H  -0.81000 2.27900 41.76900
H  -4.78500 -1.91400 43.14500
H  -3.31700 -2.01000 44.03600
H  -3.53600 -3.13300 42.58000
H  -0.45400 -5.77500 43.77100
H  0.90300 -6.06100 46.43200
H  -1.48400 -6.54200 46.15000
H  -2.38000 -5.53500 45.02300
H  -1.61800 -4.70100 46.29300
H  2.36200 -7.62700 44.74800
H  1.06900 -7.33300 43.60600
H  1.60900 -9.11600 45.63700
H  0.29100 -9.09600 44.36200
H  0.05800 -8.53900 45.97300
H  6.22300 -6.44000 45.42900
H  6.10400 -5.74100 46.91600
H  7.62400 -5.57500 46.00200
H  7.94500 -0.98100 43.19100
H  8.33100 2.77100 45.29800
H  9.40400 2.83000 43.90800
H  9.89300 2.03900 45.41200
Mg 6.78100 55.10300 41.83400
C  4.05700 52.78200 41.67200
C  8.65400 52.64900 40.40000
C  9.08400 57.42000 41.24800
C  4.43100 57.54600 42.82000
N  6.31000 52.93300 40.88300
C  5.14900 52.30400 40.87900
C  5.25200 51.01600 40.01000
C  6.78000 50.85600 39.88500
C  7.33900 52.17200 40.44100
C  7.43500 49.54300 40.58500
C  4.58600 51.12400 38.64500
C  4.00000 49.72100 38.12800
H  4.60100 49.20500 36.78400
N  8.72800 55.02900 41.04900
C  9.34400 53.91500 40.59400
C  10.67100 54.27000 40.14700
C  10.81300 55.64900 40.45300
C  9.51600 56.10200 40.93200
C  11.59500 53.38400 39.45900
C  12.02200 56.43800 40.12700
O  13.11300 55.93800 39.77300
C  12.09600 57.91700 40.36800
N  6.69300 57.27300 41.79900
C  7.81500 57.92900 41.61800
C  7.69200 59.38700 42.15800
C  6.20900 59.55300 42.47500
C  5.75200 58.05300 42.42200
C  8.71000 59.78200 43.25600
C  5.47400 60.48000 41.51800
C  5.87600 61.92100 41.63300
N  4.70100 55.16600 42.21400
C  3.95300 56.24700 42.68200
C  2.69600 55.78100 43.17500
C  2.69200 54.44100 42.78800
C  3.93300 54.09600 42.18300
C  1.58200 56.54700 43.78700
C  1.91300 53.20100 42.89500
O  0.83000 52.99200 43.48300
C  2.68500 52.10300 42.04800
C  1.78700 51.65400 40.87700
O  1.30200 52.37500 40.02600
O  1.65600 50.25600 40.90300
C  0.69800 49.70100 39.96000
H  9.16400 51.85400 39.85300
H  9.73900 58.28900 41.16100
H  3.80300 58.25500 43.36200
H  4.86200 50.22500 40.64900
H  7.05200 50.79500 38.83100
H  6.67200 48.86100 40.95900
H  8.08000 49.97800 41.34900
H  8.13200 49.02000 39.92900
H  5.30700 51.59700 37.97800
H  3.84100 51.91900 38.61100
H  2.92800 49.68900 37.93600
H  4.17400 48.87200 38.79000
H  11.09600 52.64600 38.83100
H  12.08900 52.86800 40.28200
H  12.27300 53.87500 38.76200
H  13.02200 58.37400 40.01900
H  11.89500 58.05100 41.43100
H  11.35900 58.57900 39.91400
H  7.90400 60.13900 41.39800
H  6.00300 59.87600 43.49600
H  8.25300 60.28100 44.11000
H  9.48800 60.41700 42.83400
H  9.23000 58.93400 43.70100
H  4.39400 60.45300 41.66600
H  5.49500 60.20300 40.46400
H  6.63900 62.01000 42.40700
H  5.04200 62.54400 41.95500
H  6.14100 62.22400 40.62000
H  1.90100 57.17700 44.61800
H  0.93800 55.82000 44.28200
H  0.90400 57.09200 43.13100
H  2.95600 51.31600 42.75200
H  -0.30300 49.88000 40.35100
H  0.80000 48.61700 39.90200
H  0.81600 50.18400 38.99000

