158

Mg 17.30200 -2.02700 28.60400
C  16.40100 0.25100 30.98900
C  19.29900 -3.60700 30.91800
C  18.48500 -4.09200 26.09400
C  15.80900 -0.09700 26.17900
N  17.94600 -1.66600 30.65600
C  17.22700 -0.76100 31.49900
C  17.69100 -0.86700 32.94400
C  18.90200 -1.85400 32.81600
C  18.70500 -2.41400 31.37500
C  20.32700 -1.35500 33.10100
C  16.45600 -1.33900 33.78100
C  16.24100 -0.68200 35.11900
H  17.54300 -0.29700 35.85500
N  18.54300 -3.72500 28.59600
C  19.27800 -4.24600 29.65800
C  20.02100 -5.48000 29.23800
C  19.66600 -5.58200 27.81900
C  18.88600 -4.42600 27.46000
C  20.79400 -6.38800 30.10000
C  20.08000 -6.68100 26.80700
O  19.65800 -6.71300 25.68000
C  20.96000 -7.82900 27.41700
N  16.90500 -2.27800 26.46400
C  17.64800 -3.09200 25.65300
C  17.35500 -2.65600 24.20800
C  16.40100 -1.44900 24.26300
C  16.39900 -1.27300 25.73100
C  18.71600 -2.14800 23.49900
C  14.92400 -1.79400 23.64000
C  13.88500 -2.38900 24.63600
N  16.32200 -0.29100 28.53300
C  15.69500 0.29800 27.48700
C  14.97700 1.51700 27.95100
C  15.23500 1.53600 29.30600
C  16.05000 0.38900 29.61200
C  14.21300 2.42700 27.08900
C  14.99500 2.22300 30.59400
O  14.32600 3.20000 30.85400
C  15.80500 1.45800 31.69500
C  16.54100 2.44000 32.61800
O  17.38500 3.17100 32.19600
O  16.01200 2.46200 33.87700
C  16.59100 3.58200 34.64500
H  19.96300 -4.16500 31.58200
H  18.93700 -4.61600 25.24900
H  15.35100 0.48400 25.37600
H  18.01400 0.11200 33.30000
H  18.76300 -2.63700 33.56100
H  20.60100 -2.01400 33.92500
H  20.22900 -0.33000 33.45700
H  21.00500 -1.38500 32.24800
H  16.69800 -2.38800 33.95100
H  15.49300 -1.32400 33.27100
H  15.81900 -1.47300 35.73900
H  15.49100 0.10800 35.08500
H  21.76200 -6.47200 29.60500
H  20.19400 -7.27800 30.29000
H  21.08900 -6.03200 31.08700
H  21.90800 -7.33900 27.63900
H  21.07900 -8.57700 26.63200
H  20.70900 -8.26900 28.38200
H  17.05600 -3.49300 23.57800
H  16.82100 -0.59300 23.73500
H  19.49000 -1.94200 24.23800
H  18.53800 -1.22100 22.95500
H  19.25600 -2.91300 22.94100
H  14.94700 -2.63500 22.94800
H  14.40000 -0.96200 23.16900
H  13.13200 -1.61000 24.75700
H  14.34500 -2.65200 25.58900
H  13.41000 -3.31500 24.31100
H  13.78900 1.86100 26.26000
H  14.80900 3.18200 26.57600
H  13.49000 2.99900 27.67100
H  15.05400 1.06800 32.38200
H  16.78500 4.47900 34.05600
H  17.48300 3.22800 35.16200
H  15.87200 3.75800 35.44400
Mg 47.43700 34.88000 27.18700
C  45.80100 33.28700 29.83600
C  47.50800 37.66200 29.23700
C  48.59800 36.50900 24.67400
C  46.53700 32.12000 25.08400
N  46.71100 35.36900 29.32200
C  46.32900 34.50500 30.25000
C  46.58000 35.01500 31.71800
C  46.60200 36.52200 31.40000
C  46.97000 36.56000 29.94100
C  45.35400 37.32600 31.75200
C  47.93300 34.39400 32.20400
C  48.12900 34.27400 33.72100
H  47.40100 35.23300 34.69300
N  47.95500 36.81200 26.97100
C  47.99000 37.80700 27.93400
C  48.75400 38.93800 27.43000
C  49.01900 38.65200 26.05300
C  48.47600 37.29300 25.81300
C  48.97200 40.21100 28.24600
C  49.81300 39.48100 25.07600
O  49.99200 39.07800 23.95600
C  50.42900 40.84600 25.42200
N  47.36300 34.47400 25.23700
C  48.07700 35.26400 24.38100
C  48.41600 34.53400 23.06900
C  47.55800 33.21900 23.15400
C  47.10500 33.23500 24.57700
C  48.10000 35.38700 21.77800
C  48.38400 31.90700 22.84900
C  49.33700 31.35600 23.93600
N  46.42400 33.01100 27.40400
C  46.14600 32.01200 26.43200
C  45.45600 30.96900 27.13200
C  45.27400 31.47200 28.38800
C  45.89300 32.67900 28.56400
C  45.09500 29.68700 26.64000
C  44.64800 31.10800 29.59200
O  44.03500 30.17900 29.92300
C  44.84800 32.35000 30.58800
C  45.28100 31.92000 31.94000
O  46.36100 31.51300 32.28300
O  44.24700 31.98900 32.82000
C  44.59200 31.81800 34.24900
H  47.57800 38.52700 29.89900
H  49.17700 36.97000 23.87100
H  46.23600 31.22000 24.54300
H  45.75800 34.63500 32.32400
H  47.38900 37.07500 31.91400
H  45.23500 38.23900 31.16900
H  45.61100 37.61600 32.77100
H  44.35600 36.89300 31.68400
H  48.79100 35.00800 31.93300
H  47.97600 33.37300 31.82400
H  49.19800 34.45500 33.83400
H  48.11300 33.23700 34.05500
H  49.06100 39.98000 29.30700
H  48.14200 40.90700 28.11800
H  49.85400 40.72700 27.86700
H  49.77700 41.53900 25.95400
H  50.54300 41.31100 24.44300
H  51.40600 40.74600 25.89500
H  49.47100 34.26300 23.04100
H  46.69900 33.27500 22.48600
H  49.01700 35.86500 21.43100
H  47.36900 36.16700 21.99100
H  47.64500 34.84500 20.94900
H  48.88500 32.03800 21.89000
H  47.67000 31.13600 22.56000
H  49.13300 30.29800 24.09900
H  49.33700 31.95100 24.84900
H  50.32400 31.30200 23.47700
H  44.07300 29.60700 26.26900
H  45.23900 29.04500 27.50900
H  45.75400 29.48800 25.79500
H  43.89900 32.84700 30.79100
H  45.28900 32.53700 34.68000
H  44.98800 30.81800 34.42500
H  43.65700 31.93800 34.79700

