158

Mg -0.80900 7.75000 26.69200
C  0.08400 9.55600 29.45900
C  -0.97500 4.81000 28.75700
C  -1.08600 5.82200 23.92300
C  0.04600 10.43100 24.59600
N  -0.56400 7.26200 28.84100
C  -0.39700 8.23200 29.78800
C  -0.52600 7.66700 31.24800
C  -0.39700 6.13500 31.01500
C  -0.75800 6.03200 29.50500
C  1.04400 5.50200 31.26800
C  -1.87700 7.96600 31.84400
C  -2.05000 8.06300 33.33200
H  -0.88800 7.67500 34.25200
N  -1.04200 5.63500 26.34600
C  -1.15400 4.63800 27.35000
C  -1.46500 3.40100 26.64800
C  -1.56900 3.66900 25.31400
C  -1.16100 5.09300 25.09200
C  -1.80000 2.23900 27.48600
C  -1.97100 2.75700 24.21900
O  -2.14900 3.16500 23.00600
C  -2.04700 1.25000 24.45500
N  -0.70100 8.07300 24.48900
C  -0.92000 7.15000 23.56400
C  -0.84700 7.69800 22.09800
C  -0.41300 9.19000 22.34000
C  -0.28500 9.22600 23.90700
C  0.04400 6.84900 21.17700
C  -1.43800 10.18800 21.83500
C  -2.75700 10.11900 22.51000
N  -0.07500 9.62400 26.93500
C  0.19300 10.64200 25.97600
C  0.64900 11.80100 26.63700
C  0.62800 11.38100 28.02100
C  0.12400 10.09900 28.16100
C  1.01900 13.07900 26.10800
C  1.02300 11.80500 29.36600
O  1.55100 12.82700 29.66800
C  0.65100 10.68200 30.35000
C  1.84100 10.23000 31.15000
O  2.57900 9.30200 30.77300
O  2.00400 11.09600 32.25900
C  3.23800 10.83600 32.97300
H  -0.97700 3.94900 29.42900
H  -1.19300 5.23200 23.01100
H  0.30900 11.29900 23.98900
H  0.28400 8.04500 31.87300
H  -1.16200 5.64400 31.61800
H  1.06000 5.02100 32.24600
H  1.78900 6.29700 31.25800
H  1.21600 4.70200 30.54800
H  -2.60200 7.20200 31.56100
H  -2.15300 8.90100 31.35700
H  -3.00100 7.63500 33.64600
H  -2.37200 9.09300 33.49000
H  -0.98300 1.51700 27.45500
H  -2.68500 1.77000 27.05500
H  -2.05500 2.45000 28.52500
H  -2.14200 0.73300 23.50000
H  -2.90900 1.01500 25.07900
H  -1.13200 0.92500 24.95100
H  -1.81500 7.75300 21.60100
H  0.52900 9.35800 21.81700
H  0.05400 5.77600 21.37200
H  1.12800 6.94400 21.10500
H  -0.34200 7.00700 20.17100
H  -1.57800 9.96600 20.77800
H  -0.99700 11.17300 21.98900
H  -3.46300 9.93800 21.69900
H  -3.09900 11.01800 23.02400
H  -2.80900 9.32400 23.25400
H  0.11900 13.69100 26.17000
H  1.49700 13.05400 25.12900
H  1.80200 13.41900 26.78600
H  -0.11600 11.14700 30.97000
H  4.15000 10.58600 32.43100
H  3.07000 10.06000 33.72000
H  3.52200 11.68100 33.60000
Mg 6.21600 54.11800 40.93300
C  3.93500 51.38700 40.97600
C  8.61400 51.84900 40.03500
C  8.22600 56.67700 40.57700
C  3.37500 56.38900 41.32700
N  6.17700 51.96600 40.42300
C  5.13300 51.11100 40.36200
C  5.57000 49.75500 39.71800
C  7.14700 49.84400 39.69700
C  7.32400 51.31100 40.19900
C  7.84400 48.81000 40.51700
C  4.86300 49.52400 38.29500
C  4.30400 48.10600 38.03500
H  4.97500 47.37000 36.87200
N  8.17800 54.22700 40.31100
C  8.96700 53.19900 39.96100
C  10.29600 53.79600 39.70000
C  10.16300 55.21100 39.85600
C  8.77400 55.44100 40.20100
C  11.49300 52.95900 39.36500
C  11.40400 56.19700 39.60600
O  12.49800 55.72200 39.37400
C  11.20400 57.61400 39.66500
N  5.73900 56.28800 40.73500
C  6.83600 57.11000 40.75000
C  6.41000 58.54800 40.96700
C  4.87000 58.40300 41.26700
C  4.63000 56.93000 41.05300
C  7.15800 59.25500 42.07900
C  3.95900 59.35200 40.47100
C  2.99900 60.16100 41.25200
N  4.06500 54.03100 41.19000
C  3.13400 54.98500 41.42300
C  1.88500 54.36400 41.66700
C  2.07500 52.89100 41.57200
C  3.47900 52.75400 41.18100
C  0.53600 55.10800 41.91800
C  1.49100 51.60100 41.70000
O  0.39100 51.27300 42.13300
C  2.65300 50.55100 41.35300
C  2.25900 49.43800 40.35600
O  1.67900 49.66900 39.29400
O  2.57800 48.18800 40.78200
C  1.87600 46.98000 40.17400
H  9.34000 51.05300 39.85900
H  8.98300 57.46300 40.52700
H  2.53700 57.08900 41.36600
H  5.36300 48.92300 40.39100
H  7.58600 49.73100 38.70700
H  8.15900 49.07400 41.52600
H  8.69700 48.37400 39.99800
H  7.26200 47.90100 40.66500
H  5.63800 49.68200 37.54500
H  4.07000 50.25600 38.14200
H  3.22100 48.22500 37.98100
H  4.58200 47.55500 38.93400
H  12.06100 53.46500 38.58500
H  11.28800 51.95200 39.00000
H  12.14300 52.71500 40.20500
H  10.35800 57.87700 39.02900
H  12.12800 58.02500 39.26000
H  11.09200 57.91400 40.70700
H  6.67300 59.08300 40.05600
H  4.64100 58.55300 42.32200
H  7.86600 59.98700 41.69000
H  7.79900 58.54300 42.60000
H  6.57500 59.73400 42.86500
H  3.46900 58.78000 39.68300
H  4.59900 60.07900 39.97200
H  3.18700 61.20300 40.99200
H  3.06400 60.03500 42.33200
H  1.96900 60.02600 40.92200
H  -0.29200 54.55600 41.47400
H  0.49000 56.14700 41.59300
H  0.26500 55.09500 42.97400
H  2.87700 50.19500 42.35800
H  1.00300 47.15300 39.54500
H  1.45000 46.41100 41.00000
H  2.53300 46.33300 39.59300

