158

Mg 47.56300 25.69300 27.83500
C  48.62900 27.84800 30.37200
C  46.68300 23.44500 30.01800
C  46.97800 23.71500 25.28300
C  49.11700 27.98500 25.54100
N  47.47000 25.75500 29.99800
C  47.89200 26.72300 30.87400
C  47.38400 26.42800 32.30600
C  46.70700 24.95500 32.10800
C  46.99200 24.68500 30.62600
C  47.11800 23.91600 33.11800
C  46.31200 27.47300 32.82000
C  45.49900 27.15700 34.17400
H  45.38600 28.14900 35.31500
N  46.81900 23.83200 27.64700
C  46.54300 23.02000 28.69600
C  46.10300 21.72400 28.17200
C  46.08500 21.75600 26.78000
C  46.64800 23.13000 26.47000
C  45.59000 20.60000 29.03600
C  45.55100 20.81500 25.69100
O  45.50600 21.08500 24.51400
C  44.92100 19.53800 26.05300
N  48.33300 25.67000 25.67400
C  47.66600 24.80200 24.84000
C  47.92400 25.12200 23.30600
C  48.86700 26.43900 23.42600
C  48.79400 26.71300 24.95200
C  48.42200 23.97500 22.43800
C  48.57100 27.62100 22.45400
C  49.66700 27.84400 21.36200
N  48.58200 27.52000 27.89400
C  49.09500 28.38700 26.90500
C  49.68800 29.57300 27.47900
C  49.51600 29.39900 28.82800
C  48.87800 28.13400 29.04700
C  50.21800 30.70300 26.68700
C  49.72100 29.96400 30.11500
O  50.22600 31.05700 30.36300
C  49.06100 29.02200 31.15200
C  50.07300 28.71100 32.18100
O  51.07100 28.03200 31.98000
O  49.74600 29.37500 33.30700
C  50.72500 29.25000 34.44100
H  46.39000 22.66200 30.72100
H  46.75000 23.03800 24.45700
H  49.60800 28.67900 24.85500
H  48.24900 26.37600 32.96600
H  45.62000 25.03000 32.15000
H  47.64400 24.38100 33.95300
H  47.61900 23.16200 32.51100
H  46.27400 23.47400 33.64700
H  45.65600 27.70900 31.98200
H  46.86500 28.34200 33.17400
H  45.80700 26.17900 34.54300
H  44.48600 27.13600 33.77100
H  44.50500 20.69400 29.00900
H  45.90500 20.69900 30.07500
H  45.85700 19.59900 28.69800
H  45.60300 18.75400 26.38100
H  44.31300 19.17300 25.22500
H  44.21300 19.75400 26.85300
H  47.00900 25.48400 22.83700
H  49.89500 26.12900 23.23500
H  49.40200 24.34000 22.12900
H  47.85900 23.84000 21.51400
H  48.54600 23.11800 23.09900
H  48.55400 28.58000 22.97200
H  47.60000 27.54100 21.96600
H  49.19700 27.66400 20.39500
H  50.59600 27.28900 21.49100
H  49.99100 28.88400 21.41000
H  51.29600 30.60800 26.55900
H  50.02500 31.68700 27.11400
H  49.72300 30.62700 25.71800
H  48.23200 29.63500 31.50500
H  51.78500 29.20800 34.18600
H  50.57400 28.39700 35.10200
H  50.61900 30.22000 34.92800
Mg 49.37500 45.85000 42.64200
C  45.95000 46.84700 41.94300
C  48.79700 43.12300 40.70800
C  52.55900 45.33300 42.90600
C  49.74800 49.31400 43.80300
N  47.59300 45.16400 41.59000
C  46.28400 45.60100 41.48700
C  45.43500 44.76300 40.57300
C  46.29300 43.43400 40.33600
C  47.65900 43.92800 40.94900
C  45.68200 42.14100 40.98200
C  44.95400 45.39900 39.23800
C  43.41100 45.35300 39.06600
H  42.97400 45.52800 37.59500
N  50.53700 44.39200 42.10300
C  50.11800 43.33000 41.30100
C  51.15000 42.43200 41.24000
C  52.28500 42.94200 41.97200
C  51.85500 44.26900 42.39800
C  51.13600 41.13100 40.37400
C  53.64900 42.32200 42.15200
O  53.92800 41.30800 41.59600
C  54.69700 42.94700 43.00700
N  50.91300 47.12400 43.12000
C  52.17300 46.61500 43.34100
C  53.16800 47.76400 43.55800
C  52.29000 49.03600 43.88900
C  50.91600 48.47900 43.59600
C  54.28200 47.48600 44.66000
C  52.61500 50.29500 43.18600
C  52.68000 51.60500 44.01100
N  48.14300 47.72800 42.90800
C  48.41500 48.93900 43.46800
C  47.25200 49.68100 43.55700
C  46.19100 48.86400 43.07200
C  46.80200 47.68600 42.59700
C  47.06800 51.04000 44.14200
C  44.82400 48.77100 42.77800
O  43.95600 49.54900 42.99000
C  44.58600 47.46600 41.95200
C  43.60700 46.78500 42.74800
O  43.54300 46.71600 43.99000
O  42.80300 46.08500 41.89500
C  41.95000 45.16600 42.61900
H  48.76200 42.23200 40.07700
H  53.64800 45.26300 42.90100
H  49.98400 50.31400 44.17300
H  44.51300 44.53300 41.10600
H  46.47800 43.19500 39.28900
H  44.62500 42.21600 41.23700
H  46.14700 41.86500 41.92900
H  45.78300 41.31500 40.27700
H  45.46100 44.88700 38.42000
H  45.29700 46.43000 39.14900
H  43.01200 46.24000 39.55900
H  42.87500 44.52600 39.53300
H  51.93300 40.46700 40.70900
H  51.41900 41.46000 39.37500
H  50.16000 40.64900 40.42900
H  54.23000 43.36600 43.89800
H  55.23300 43.73600 42.47800
H  55.45000 42.18200 43.19600
H  53.65200 47.93000 42.59500
H  52.20400 49.29300 44.94500
H  55.32800 47.50500 44.35400
H  54.11100 46.42600 44.84800
H  54.25000 48.09100 45.56600
H  51.88300 50.61500 42.44400
H  53.57400 50.13300 42.69300
H  52.86900 51.44700 45.07200
H  51.71600 52.10400 43.91100
H  53.46500 52.17900 43.52000
H  47.13400 51.79100 43.35600
H  47.89300 51.16100 44.84500
H  46.09200 51.11200 44.62000
H  44.14500 47.74900 40.99600
H  42.44900 44.22200 42.83700
H  41.08500 44.82600 42.04900
H  41.58800 45.63600 43.53300

