158

Mg 17.38200 52.99800 27.40100
C  19.23600 51.52000 29.90300
C  14.95300 53.88200 29.60900
C  15.49500 54.06400 24.72600
C  19.87000 51.90200 25.08000
N  17.16900 52.73000 29.41200
C  18.08900 52.20000 30.29800
C  17.60700 52.35400 31.75600
C  16.11500 52.77400 31.59200
C  16.07100 53.21800 30.14900
C  15.13700 51.56400 31.75500
C  18.46800 53.49900 32.34600
C  18.83700 53.32700 33.85100
H  17.94400 52.53800 34.81800
N  15.48100 53.91400 27.15400
C  14.69000 54.22200 28.22500
C  13.52600 54.94800 27.74700
C  13.63800 55.07400 26.27400
C  14.94300 54.32500 25.96900
C  12.42300 55.25000 28.69100
C  12.87600 55.87200 25.27100
O  13.16400 56.08700 24.12000
C  11.63200 56.43600 25.84100
N  17.64100 52.92600 25.19300
C  16.66700 53.41900 24.35000
C  17.18200 53.22300 22.90800
C  18.62700 52.68500 23.04200
C  18.74400 52.52400 24.56000
C  16.23700 52.43400 22.02700
C  19.76800 53.59900 22.51200
C  19.73800 55.13700 23.04600
N  19.05500 51.76800 27.43100
C  20.01500 51.53200 26.46800
C  21.06800 50.69600 26.99000
C  20.83000 50.68400 28.39100
C  19.56800 51.28600 28.55100
C  22.29100 50.16200 26.20600
C  21.25300 50.13800 29.70200
O  22.15200 49.41700 30.04300
C  20.29200 50.77200 30.76000
C  19.79900 49.59900 31.57900
O  19.29100 48.58600 31.09500
O  19.94700 49.86600 32.91300
C  19.92500 48.70100 33.81500
H  14.24000 54.05600 30.41800
H  14.96800 54.37600 23.82200
H  20.64500 51.70800 24.33500
H  17.74100 51.39700 32.26100
H  15.81600 53.61600 32.21700
H  14.66300 51.34600 30.79800
H  14.35600 51.72200 32.49800
H  15.68700 50.66400 32.02800
H  18.02200 54.49400 32.34700
H  19.36300 53.41000 31.73000
H  18.89400 54.27500 34.38500
H  19.87900 53.00800 33.88600
H  12.50000 54.76100 29.66200
H  11.44800 55.01200 28.26600
H  12.39500 56.33100 28.82600
H  10.89300 55.66600 26.06400
H  11.09600 57.00300 25.08100
H  11.91100 57.12500 26.63800
H  17.15700 54.15900 22.35100
H  18.68400 51.66200 22.66900
H  16.69100 51.54600 21.58700
H  15.71600 53.12700 21.36600
H  15.38800 51.98400 22.54100
H  19.58300 53.64100 21.43800
H  20.76500 53.16400 22.58200
H  18.82500 55.36100 23.59800
H  19.93900 55.77300 22.18400
H  20.57300 55.23900 23.73900
H  22.59400 50.83500 25.40400
H  22.09900 49.12600 25.92600
H  23.10200 50.06000 26.92800
H  20.76400 51.44400 31.47700
H  20.10300 49.02300 34.84100
H  20.64500 47.90300 33.63400
H  18.93600 48.24400 33.77300
Mg 9.65900 48.35400 26.15900
C  7.54700 48.31900 29.01200
C  12.12900 49.75800 28.06800
C  11.59800 48.47100 23.38200
C  6.84300 47.83000 24.21900
N  9.70000 49.03900 28.28900
C  8.84300 48.70200 29.29000
C  9.29500 49.21600 30.59700
C  10.70900 49.94400 30.19100
C  10.88600 49.60900 28.73500
C  10.81200 51.48100 30.49000
C  9.35000 48.17000 31.70700
C  10.01100 48.63700 33.01200
H  9.28200 48.42000 34.36100
N  11.64200 48.89400 25.79400
C  12.55000 49.37500 26.73600
C  13.92000 49.33000 26.15100
C  13.61500 49.12700 24.78500
C  12.22600 48.93000 24.57800
C  15.20500 49.68300 26.92100
C  14.56900 49.19500 23.64600
O  14.21400 49.20300 22.48200
C  16.06200 49.30300 23.96200
N  9.24700 48.24900 24.09900
C  10.23700 48.25900 23.12800
C  9.58700 47.83100 21.76500
C  8.15800 47.46100 22.11700
C  8.09000 47.77400 23.59800
C  9.72400 48.82300 20.54900
C  7.84600 46.00400 21.77600
C  8.47500 45.04100 22.72300
N  7.51000 48.14700 26.49900
C  6.51700 47.90700 25.57200
C  5.31800 47.59400 26.26300
C  5.64700 47.68900 27.61900
C  7.00500 48.02600 27.70700
C  3.93300 47.10000 25.79000
C  5.16300 47.60700 28.98700
O  4.03800 47.29100 29.36600
C  6.37300 47.99600 29.96900
C  6.55900 46.69200 30.60500
O  7.49000 45.93900 30.26300
O  5.65300 46.55900 31.60700
C  5.86600 45.36900 32.52400
H  12.90300 49.87600 28.82900
H  12.05000 48.42300 22.38900
H  5.99600 47.48000 23.62400
H  8.57900 49.98400 30.89000
H  11.51200 49.45200 30.74000
H  11.83100 51.63800 30.84200
H  10.11100 51.78100 31.26900
H  10.70100 51.95700 29.51500
H  9.92000 47.33300 31.30400
H  8.33800 47.85600 31.96100
H  10.14200 49.71900 32.98300
H  10.96900 48.14000 33.16600
H  15.96100 48.89800 26.93900
H  14.89300 49.87400 27.94800
H  15.55800 50.61000 26.46900
H  16.30800 48.58200 24.74100
H  16.32100 50.29300 24.33800
H  16.60100 49.07800 23.04200
H  10.04000 46.90200 21.41700
H  7.46500 48.03300 21.50000
H  10.15000 49.76600 20.89200
H  8.73300 49.01300 20.13900
H  10.41200 48.33200 19.86000
H  8.35600 45.71500 20.85700
H  6.75800 45.96700 21.83700
H  7.71300 44.55300 23.33100
H  9.20400 45.48100 23.40500
H  8.92700 44.24100 22.13800
H  4.02700 46.54800 24.85600
H  3.43800 48.05300 25.60500
H  3.29100 46.49700 26.43200
H  6.22200 48.84900 30.63200
H  5.96200 45.52600 33.59900
H  6.61600 44.63300 32.23500
H  4.99700 44.73600 32.34200

