158

Mg 17.23100 52.32700 26.27800
C  18.99200 50.95700 29.11000
C  14.97800 53.60700 28.53300
C  15.60800 53.59700 23.70200
C  19.43400 50.62200 24.22300
N  17.03800 52.20000 28.57800
C  17.98500 51.77000 29.48300
C  17.51800 52.26700 30.87500
C  16.04500 52.81100 30.70900
C  15.98100 52.84900 29.18700
C  15.06800 51.82400 31.29900
C  18.38400 53.42000 31.47500
C  18.40700 53.39600 33.03100
H  17.34800 52.59100 33.78900
N  15.47500 53.46300 26.17800
C  14.70800 53.89300 27.15100
C  13.65200 54.74900 26.67400
C  13.80300 54.77700 25.21400
C  15.00800 53.99600 24.96100
C  12.61500 55.53500 27.50100
C  12.96000 55.43700 24.15500
O  13.33700 55.48700 22.95800
C  11.61400 56.08800 24.53800
N  17.48600 52.08100 24.25200
C  16.69100 52.79400 23.39000
C  17.11900 52.53100 21.96300
C  18.38800 51.70000 22.17000
C  18.49800 51.51200 23.63400
C  16.04300 51.80900 21.11800
C  19.58600 52.35500 21.56700
C  20.14200 53.60000 22.32400
N  18.84100 51.02700 26.49200
C  19.64000 50.46500 25.59600
C  20.60300 49.61300 26.18600
C  20.46300 49.86600 27.60200
C  19.35700 50.65700 27.72900
C  21.59400 48.80200 25.48100
C  21.00300 49.58400 28.91700
O  22.00800 48.91600 29.18600
C  20.13300 50.34300 29.94400
C  19.68500 49.38900 30.93900
O  18.93500 48.43100 30.61600
O  20.11100 49.68100 32.23300
C  19.81700 48.67400 33.28800
H  14.23500 53.97700 29.24300
H  15.04700 53.88800 22.81100
H  20.04600 50.08100 23.49800
H  17.60600 51.34900 31.45700
H  15.70700 53.72200 31.20300
H  14.76300 51.08200 30.56100
H  14.23500 52.40500 31.69700
H  15.44600 51.21600 32.12100
H  18.00700 54.33200 31.01100
H  19.41600 53.20600 31.19700
H  18.36200 54.44200 33.33600
H  19.36900 52.95100 33.28300
H  12.60300 56.58800 27.22200
H  13.11600 55.48100 28.46800
H  11.62300 55.09200 27.60100
H  11.17700 55.43700 25.29500
H  10.82800 56.14400 23.78400
H  11.74200 57.12300 24.85700
H  17.45600 53.48800 21.56400
H  18.17000 50.78500 21.61800
H  16.56100 51.33300 20.28600
H  15.33200 52.54000 20.73300
H  15.59800 50.98600 21.67600
H  19.41400 52.50500 20.50100
H  20.42300 51.66500 21.67400
H  20.19500 54.34600 21.53200
H  21.10300 53.52200 22.83400
H  19.31600 53.85000 22.98900
H  22.41900 49.41800 25.12300
H  21.11800 48.10700 24.79000
H  22.20300 48.30900 26.23900
H  20.84400 51.05900 30.35700
H  20.46800 47.80000 33.31400
H  18.78000 48.34200 33.23100
H  19.80800 49.03400 34.31600
Mg -1.69600 34.03800 26.45600
C  -3.55300 32.84200 29.26300
C  -0.65900 36.61500 28.57600
C  -0.15000 35.28700 23.91700
C  -3.38200 31.72100 24.60800
N  -1.92300 34.56600 28.62900
C  -2.66100 33.90500 29.58100
C  -2.65300 34.54000 31.02300
C  -1.70200 35.79000 30.71100
C  -1.40600 35.67500 29.19700
C  -2.25300 37.20600 31.11400
C  -2.12300 33.63000 32.11200
C  -2.93000 33.54500 33.40000
H  -2.57200 34.60800 34.43500
N  -0.52000 35.72100 26.24500
C  -0.29400 36.72400 27.18800
C  0.50500 37.74700 26.58400
C  0.83400 37.26000 25.29000
C  0.08900 36.00700 25.11600
C  0.97300 39.07000 27.34200
C  1.66000 37.88500 24.25200
O  1.84500 37.37700 23.12900
C  2.48000 39.15200 24.59200
N  -1.81900 33.55600 24.49000
C  -0.98600 34.17200 23.65100
C  -1.12800 33.50100 22.29500
C  -2.08300 32.27200 22.46500
C  -2.40000 32.46800 23.93000
C  -1.55400 34.53900 21.17700
C  -1.39900 30.86400 22.15200
C  -2.46900 29.89500 21.58800
N  -3.07600 32.51600 26.83700
C  -3.65300 31.60400 25.99700
C  -4.54400 30.80700 26.64600
C  -4.54300 31.24700 27.94000
C  -3.64000 32.31400 28.00700
C  -5.39800 29.66400 26.08200
C  -5.17200 31.01700 29.22800
O  -5.94800 30.19200 29.59700
C  -4.50700 32.07100 30.20200
C  -5.50000 32.93100 30.79300
O  -5.85300 34.04500 30.40300
O  -6.09000 32.26500 31.87600
C  -7.06000 33.05800 32.61000
H  -0.43200 37.49500 29.18200
H  0.45000 35.63300 23.07300
H  -4.00600 31.07200 23.99000
H  -3.68800 34.85200 31.16600
H  -0.77800 35.72100 31.28500
H  -3.08500 37.07400 31.80500
H  -2.58900 37.84800 30.30000
H  -1.53700 37.74400 31.73400
H  -1.12300 33.97600 32.37300
H  -2.03500 32.59800 31.77100
H  -2.76100 32.56800 33.85200
H  -4.00600 33.68900 33.30000
H  0.84500 39.89200 26.63800
H  1.97800 38.89800 27.72800
H  0.23600 39.08300 28.14500
H  1.78600 39.97900 24.74100
H  3.10300 39.53000 23.78100
H  3.03000 38.87100 25.49000
H  -0.10400 33.17600 22.10900
H  -2.99400 32.48800 21.90800
H  -2.21700 34.06900 20.45100
H  -0.59800 34.81700 20.73400
H  -2.06800 35.44300 21.50400
H  -0.88800 30.42500 23.00900
H  -0.71800 31.08800 21.33000
H  -2.32300 28.99700 22.18800
H  -2.27300 29.73800 20.52700
H  -3.47900 30.27300 21.75200
H  -5.26000 29.53500 25.00900
H  -6.36800 29.86700 26.53600
H  -5.01400 28.76600 26.56600
H  -3.94500 31.39200 30.84300
H  -7.12200 32.49700 33.54200
H  -7.84100 32.93300 31.86000
H  -6.63300 34.04900 32.76400

