158

Mg 35.70800 0.34600 30.20900
C  33.49300 1.78100 32.39800
C  38.10800 0.57100 32.82700
C  38.25700 -0.63500 28.08000
C  33.69700 0.86300 27.42600
N  35.74000 1.06100 32.31000
C  34.64500 1.49700 33.03800
C  34.92600 1.61000 34.49900
C  36.59800 1.67400 34.48900
C  36.87000 1.01000 33.13500
C  37.32000 3.09900 34.69000
C  34.36700 0.45500 35.32300
C  33.38500 0.83700 36.41400
H  33.59200 2.13800 37.22400
N  37.85800 -0.16000 30.47800
C  38.58100 0.00500 31.59800
C  39.97500 -0.42500 31.34800
C  39.94200 -0.98400 30.02200
C  38.66000 -0.53900 29.44100
C  41.06700 -0.45100 32.37300
C  40.98900 -1.72800 29.17700
O  40.79900 -2.13800 28.00600
C  42.26400 -2.09200 29.87300
N  36.08300 0.51100 27.97100
C  37.12400 -0.11400 27.41100
C  36.95800 -0.28700 25.89100
C  35.40300 0.10000 25.63600
C  35.03200 0.48400 27.11500
C  37.87200 0.52100 25.06000
C  34.47000 -0.97600 25.15700
C  33.43800 -0.52500 24.06500
N  33.95800 1.14000 29.87100
C  33.19200 1.20100 28.74700
C  31.85500 1.71800 29.06300
C  31.93600 1.93900 30.48200
C  33.23200 1.58600 30.94400
C  30.77200 1.87200 28.12100
C  31.26000 2.46400 31.61900
O  30.16600 2.95100 31.71500
C  32.20300 2.35000 32.88000
C  32.30400 3.61800 33.58000
O  33.05800 4.54400 33.27400
O  31.39400 3.76400 34.47800
C  31.35500 5.02800 35.29200
H  38.89600 0.56100 33.58200
H  38.81800 -1.23700 27.36100
H  32.97000 0.76700 26.61700
H  34.39900 2.49500 34.85600
H  36.99000 1.02900 35.27600
H  37.93500 3.51000 33.89000
H  37.85300 3.03000 35.63800
H  36.52500 3.81500 34.90100
H  35.13100 -0.09100 35.87600
H  33.63900 -0.09300 34.72400
H  33.47400 0.07600 37.19000
H  32.35900 0.81700 36.04800
H  41.26900 -1.52100 32.41000
H  40.66400 -0.21400 33.35800
H  41.96100 0.14200 32.18000
H  42.71100 -1.12200 30.08800
H  42.84900 -2.49200 29.04400
H  42.02600 -2.65600 30.77400
H  37.04600 -1.31100 25.52900
H  35.36600 0.98400 24.99900
H  38.82600 -0.00800 25.05300
H  37.92900 1.55500 25.40000
H  37.47400 0.49300 24.04600
H  34.04000 -1.41300 26.05700
H  35.02100 -1.82700 24.75800
H  32.46800 -0.74200 24.51200
H  33.52700 -1.17500 23.19400
H  33.29700 0.54300 23.90000
H  30.73500 0.88000 27.67200
H  31.06600 2.67500 27.44500
H  29.83400 2.06900 28.64100
H  31.74600 1.72500 33.64800
H  30.66300 5.85400 35.12900
H  32.34100 5.48300 35.38900
H  31.04600 4.66400 36.27100
Mg 8.12600 48.19300 27.80500
C  6.05700 47.85700 30.64700
C  10.78800 48.41900 29.99400
C  10.07500 49.11400 25.27100
C  5.30700 49.12000 26.06900
N  8.42700 48.10100 30.08800
C  7.39500 48.03300 31.06000
C  7.97300 48.04700 32.47700
C  9.56100 48.38000 32.25200
C  9.62300 48.32400 30.71700
C  10.01800 49.73800 32.72300
C  7.73300 46.65400 33.30200
C  8.63900 46.40000 34.55000
H  8.11200 45.54400 35.70200
N  10.19800 48.44100 27.56100
C  11.09700 48.49000 28.58100
C  12.46200 48.44200 28.05500
C  12.32500 48.67300 26.66400
C  10.78100 48.72700 26.40500
C  13.69900 48.30700 28.86300
C  13.37100 48.84400 25.54300
O  13.07000 49.21000 24.40100
C  14.78700 48.68700 25.91400
N  7.76900 49.20700 26.00100
C  8.75900 49.43700 25.10800
C  8.21100 50.24100 23.88500
C  6.62500 50.05900 24.07300
C  6.54000 49.45200 25.48400
C  8.61900 51.76700 23.86400
C  5.86000 49.13000 23.05900
C  4.54200 49.62700 22.48700
N  6.07500 48.24000 28.20900
C  5.05100 48.60000 27.39100
C  3.81000 48.24900 27.92200
C  4.16000 47.91200 29.24800
C  5.51000 48.05500 29.41100
C  2.45900 48.30500 27.20200
C  3.61900 47.58900 30.52200
O  2.49400 47.29700 30.89900
C  4.84900 47.45500 31.49600
C  4.83200 46.01800 31.95900
O  5.09200 45.01800 31.33500
O  4.40500 46.00800 33.27300
C  4.17100 44.65200 33.86900
H  11.69500 48.56700 30.58500
H  10.61900 49.50500 24.40900
H  4.42100 49.46100 25.53000
H  7.51100 48.82700 33.08200
H  10.24400 47.64300 32.67600
H  9.23300 50.18700 33.33200
H  10.24300 50.46900 31.94500
H  10.93800 49.60200 33.29100
H  7.79000 45.75300 32.69100
H  6.79000 46.82400 33.82100
H  8.99800 47.35200 34.94200
H  9.46200 45.87900 34.06100
H  14.31700 47.49200 28.48500
H  13.42200 48.10500 29.89800
H  14.26000 49.24100 28.90400
H  15.18100 49.52200 26.49300
H  15.33300 48.63800 24.97200
H  14.84300 47.74600 26.46200
H  8.66200 49.77200 23.01000
H  6.31400 51.10400 24.08100
H  9.29000 51.99300 24.69200
H  7.80600 52.48700 23.77600
H  9.18800 52.02800 22.97100
H  5.66700 48.22600 23.63500
H  6.50500 48.81800 22.23700
H  3.89300 48.78400 22.72600
H  4.65500 49.74800 21.41000
H  4.25800 50.57700 22.93900
H  2.39100 49.31800 26.80400
H  1.76500 48.21800 28.03800
H  2.42600 47.58300 26.38600
H  4.80700 48.17700 32.31100
H  3.49500 44.75600 34.71800
H  5.06200 44.09700 34.16000
H  3.69800 43.99000 33.14400

