158

Mg 52.49900 24.54300 45.57100
C  50.18500 26.89600 44.20800
C  50.80200 22.14600 43.86400
C  55.09000 22.42600 45.93800
C  54.45500 27.24800 46.55500
N  50.82700 24.60500 43.97100
C  49.94500 25.63400 43.70900
C  48.77300 25.14600 42.78200
C  48.65800 23.67500 43.31100
C  50.19400 23.42000 43.69500
C  47.73100 23.38400 44.52800
C  49.14500 25.29500 41.29200
C  47.90600 25.43400 40.34900
H  48.00900 24.52900 39.10800
N  52.81500 22.54300 45.13600
C  52.02600 21.74100 44.42500
C  52.41800 20.35000 44.56300
C  53.63400 20.41700 45.34100
C  53.87200 21.83600 45.56000
C  51.63400 19.14400 43.92200
C  54.52900 19.23800 45.75000
O  54.24300 18.12100 45.34500
C  55.59600 19.42000 46.76800
N  54.43200 24.82200 46.08400
C  55.34800 23.77200 46.25900
C  56.69600 24.28300 46.78700
C  56.44200 25.80700 47.03300
C  55.03000 25.98500 46.52500
C  57.20000 23.47700 48.02100
C  57.39700 26.77200 46.28400
C  58.93700 26.42200 45.99300
N  52.25100 26.58500 45.74600
C  53.12800 27.51100 46.18100
C  52.44800 28.75500 46.26500
C  51.28100 28.62700 45.46300
C  51.26400 27.29900 45.11100
C  53.01400 30.04100 46.93600
C  50.12800 29.28000 44.94500
O  49.82000 30.47400 44.93500
C  49.35900 28.18200 44.12200
C  49.16700 28.78600 42.73900
O  49.98700 29.07400 41.87000
O  47.81400 28.84800 42.49500
C  47.43500 29.64700 41.29400
H  50.14900 21.27700 43.76300
H  56.01100 21.84500 46.02500
H  54.92300 28.12900 47.00000
H  47.88800 25.70600 43.08400
H  48.39700 22.94900 42.54000
H  48.38200 23.15900 45.37300
H  47.06500 22.53300 44.38700
H  47.16800 24.27500 44.80400
H  49.72600 24.43900 40.94900
H  49.69400 26.23400 41.21200
H  47.85100 26.49600 40.10800
H  46.95800 25.30100 40.87000
H  50.87300 18.82300 44.63300
H  52.27900 18.30100 43.67800
H  51.07200 19.38000 43.01800
H  56.58200 19.56800 46.32900
H  55.47900 18.48800 47.32100
H  55.32000 20.24300 47.42700
H  57.45000 24.17200 46.00800
H  56.38400 26.05400 48.09300
H  58.02900 22.77800 47.91500
H  56.34000 22.84500 48.24100
H  57.37200 24.15400 48.85800
H  57.47900 27.63300 46.94600
H  56.86000 27.00700 45.36500
H  59.17800 26.54300 44.93700
H  59.09400 25.38200 46.27900
H  59.54400 27.08900 46.60600
H  52.72600 29.96500 47.98500
H  52.56000 30.88000 46.40900
H  54.09000 30.15200 46.80200
H  48.42000 28.12300 44.67200
H  46.84600 29.00200 40.64200
H  48.30900 29.90700 40.69700
H  46.80900 30.49600 41.57200
Mg 36.37900 49.43100 26.20300
C  36.78900 47.12000 28.86700
C  35.52100 51.76400 28.33200
C  35.58600 51.25900 23.56700
C  36.90200 46.60200 23.96600
N  36.35000 49.44400 28.37000
C  36.46000 48.49100 29.21100
C  36.38200 49.01700 30.67600
C  35.52700 50.35700 30.46900
C  35.83300 50.55400 28.94900
C  34.05500 50.07600 30.59200
C  37.74400 49.36600 31.26800
C  37.89400 49.15900 32.73500
H  37.57700 50.32300 33.62800
N  35.75500 51.29900 25.97300
C  35.53800 52.13600 26.96800
C  35.11200 53.43100 26.46300
C  35.03500 53.32900 25.01000
C  35.51900 51.96300 24.79200
C  34.62500 54.63100 27.41200
C  34.56500 54.23200 23.97400
O  34.34200 53.83300 22.87200
C  34.27800 55.56600 24.38800
N  36.05000 48.86800 24.06400
C  35.85000 49.92700 23.21000
C  36.15000 49.55700 21.74100
C  36.74500 48.13700 21.90600
C  36.51300 47.77500 23.35200
C  34.88500 49.79300 20.75500
C  38.17000 47.94900 21.44900
C  38.34100 47.33300 20.04300
N  36.78600 47.31500 26.32100
C  36.95700 46.34700 25.32600
C  37.31400 45.13600 25.92800
C  37.21700 45.35600 27.32800
C  36.91700 46.69000 27.50600
C  37.62800 43.82400 25.25800
C  37.19500 44.73700 28.65000
O  37.40700 43.59100 28.98100
C  36.95400 45.91900 29.74700
C  35.63700 45.71100 30.45300
O  34.54600 45.60800 29.97200
O  35.92200 45.84300 31.78600
C  34.65700 46.03500 32.64400
H  35.23300 52.52900 29.05600
H  35.47700 51.75000 22.59800
H  37.20000 45.83200 23.25200
H  35.84900 48.35900 31.36300
H  35.77200 51.24500 31.05200
H  33.93500 49.30300 31.35000
H  33.57700 49.78100 29.65700
H  33.59800 50.98800 30.97600
H  38.18400 50.32500 30.99500
H  38.40800 48.63700 30.80300
H  38.89800 48.85300 33.02900
H  37.25700 48.34400 33.08000
H  34.31300 54.29600 28.40000
H  33.72700 55.15100 27.07900
H  35.49500 55.28600 27.47800
H  35.03000 55.93200 25.08600
H  33.26700 55.54600 24.79400
H  34.23200 56.16600 23.47800
H  36.89600 50.24000 21.33300
H  36.10700 47.50000 21.29400
H  34.05300 50.11700 21.38000
H  34.47800 48.89000 20.30000
H  35.12000 50.56400 20.02100
H  38.58700 47.21000 22.13300
H  38.66900 48.91600 21.51100
H  38.84000 46.36500 20.07300
H  38.91700 48.09600 19.51800
H  37.45100 47.25100 19.41900
H  38.04300 43.90000 24.25200
H  36.66800 43.31300 25.19100
H  38.37700 43.41300 25.93400
H  37.72100 45.98100 30.51900
H  34.84700 46.98300 33.14700
H  34.45600 45.27800 33.40300
H  33.71500 46.33000 32.18200

