158

Mg 24.62100 -5.52800 45.36000
C  27.17900 -3.42900 44.07000
C  22.47900 -4.05100 43.26100
C  22.66000 -8.18300 45.71100
C  27.17300 -7.12600 47.24500
N  24.88400 -3.96700 43.81100
C  25.94300 -3.15700 43.49900
C  25.55700 -2.05100 42.53600
C  23.98300 -2.10100 42.54900
C  23.74700 -3.43700 43.29300
C  23.28700 -0.88800 43.34100
C  26.19300 -2.42300 41.19000
C  26.84500 -1.25600 40.38300
H  26.25900 -1.05000 38.98400
N  22.79100 -6.00700 44.60000
C  22.00100 -5.22300 43.79000
C  20.69200 -5.86200 43.60100
C  20.68300 -7.09100 44.37100
C  22.07000 -7.18200 44.95700
C  19.58600 -5.37700 42.71200
C  19.46600 -8.03500 44.53200
O  18.32400 -7.71000 44.09600
C  19.61200 -9.32500 45.20800
N  24.88600 -7.32200 46.33900
C  23.85800 -8.23600 46.35700
C  24.18100 -9.49000 47.21000
C  25.62600 -9.20100 47.61800
C  25.93700 -7.79200 47.05100
C  23.24100 -9.77400 48.42300
C  26.64000 -10.22600 47.00600
C  26.82300 -11.51100 47.85300
N  26.71000 -5.25800 45.72500
C  27.57700 -6.01300 46.50000
C  28.85000 -5.41700 46.56400
C  28.81600 -4.35000 45.59300
C  27.46500 -4.30700 45.12400
C  29.99900 -5.82800 47.32800
C  29.59200 -3.31900 45.03500
O  30.75600 -2.98900 45.12800
C  28.61600 -2.68900 43.98500
C  28.52400 -1.25900 44.23900
O  28.08500 -0.70700 45.28700
O  28.85400 -0.45900 43.17000
C  28.79000 1.00800 43.30600
H  21.73300 -3.58400 42.61500
H  22.02200 -9.05300 45.87900
H  27.86500 -7.63900 47.91600
H  25.84600 -1.06500 42.90000
H  23.61700 -2.25400 41.53400
H  22.65800 -0.41700 42.58500
H  23.87800 -0.02500 43.65000
H  22.60800 -1.23400 44.12100
H  25.46600 -3.05200 40.67700
H  26.96100 -3.17900 41.35200
H  27.90400 -1.49200 40.27400
H  26.67200 -0.35100 40.96500
H  19.25800 -6.31600 42.26700
H  20.14500 -4.90700 41.90300
H  18.85900 -4.70700 43.17000
H  18.62500 -9.77100 45.33000
H  19.97600 -8.95500 46.16700
H  20.24600 -9.91800 44.54900
H  24.04200 -10.40500 46.63500
H  25.82500 -8.96300 48.66300
H  22.71700 -10.70400 48.20300
H  22.59100 -8.92300 48.62700
H  23.94500 -9.95900 49.23400
H  27.64700 -9.80800 46.98600
H  26.34800 -10.29700 45.95800
H  27.88800 -11.45000 48.07600
H  26.49300 -12.42300 47.35600
H  26.36100 -11.40900 48.83600
H  29.77400 -5.28500 48.24600
H  30.92100 -5.39200 46.94600
H  30.06300 -6.90600 47.47700
H  29.00100 -2.67800 42.96500
H  29.70600 1.27900 43.83100
H  27.96200 1.40400 43.89400
H  28.76700 1.40400 42.29100
Mg 9.29200 48.78900 26.00100
C  7.31000 49.00500 28.97400
C  12.07300 49.54600 27.99200
C  11.23300 48.55200 23.36700
C  6.45100 48.17200 24.22800
N  9.57600 49.29900 28.18800
C  8.66000 49.21200 29.21800
C  9.30800 49.55700 30.50700
C  10.65100 50.20900 30.01600
C  10.83500 49.64300 28.61600
C  10.74300 51.79800 29.96900
C  9.53800 48.38000 31.40400
C  8.98200 48.60000 32.84200
H  8.89900 47.44500 33.83500
N  11.41000 49.00400 25.74800
C  12.41200 49.34700 26.65200
C  13.71500 49.21100 26.08100
C  13.45900 48.77200 24.71100
C  11.98700 48.73800 24.54400
C  15.05500 49.48000 26.82600
C  14.50400 48.36900 23.56200
O  14.07100 47.93900 22.46900
C  15.97900 48.44500 23.84600
N  8.91700 48.47100 24.08300
C  9.85900 48.39100 23.10400
C  9.27500 48.03600 21.73600
C  7.76700 47.76500 22.03400
C  7.68700 48.20100 23.54000
C  9.47500 48.97300 20.60700
C  7.25400 46.29700 21.79500
C  8.11600 45.19100 22.41200
N  7.31600 48.53800 26.47200
C  6.25300 48.28700 25.59900
C  5.04200 48.21300 26.38100
C  5.40800 48.53400 27.65800
C  6.80600 48.71400 27.68600
C  3.56300 47.97000 25.85600
C  4.86500 48.72200 28.98000
O  3.72500 48.69100 29.34200
C  6.09200 49.12800 29.89900
C  5.91600 48.14100 31.01300
O  6.36500 47.03700 31.04000
O  5.03800 48.66900 31.98700
C  4.56400 47.67800 32.96900
H  12.86300 49.86200 28.67700
H  11.85700 48.47300 22.47400
H  5.58500 47.91000 23.61700
H  8.69100 50.30400 31.00500
H  11.53400 49.99700 30.61900
H  9.75500 52.25800 29.97700
H  11.17200 52.06800 29.00400
H  11.22800 52.20500 30.85600
H  10.60200 48.14300 31.42000
H  9.16200 47.45200 30.97200
H  8.00200 49.07600 32.80700
H  9.54700 49.39300 33.33200
H  15.57500 48.52500 26.91000
H  14.92700 49.76700 27.87000
H  15.61400 50.24400 26.28600
H  16.26100 47.84200 24.70900
H  16.11900 49.50500 24.05600
H  16.48100 48.12700 22.93200
H  9.73600 47.07400 21.50900
H  7.19100 48.43900 21.40000
H  9.13600 49.98300 20.83800
H  9.09500 48.49200 19.70600
H  10.55100 48.91100 20.44600
H  7.23700 46.24300 20.70700
H  6.20100 46.21100 22.06300
H  7.56800 44.36500 22.86500
H  8.78900 45.60200 23.16500
H  8.76200 44.79400 21.62900
H  3.40300 48.25800 24.81700
H  2.84100 48.49400 26.48100
H  3.32000 46.91900 26.01200
H  5.91900 50.14500 30.25100
H  5.41200 47.11200 33.35300
H  3.92100 46.96100 32.45800
H  3.96000 48.13400 33.75400

