158

Mg 47.29900 24.67600 27.67000
C  48.01000 26.97900 30.26800
C  46.58000 22.34300 30.14500
C  46.96800 22.20700 25.31300
C  48.42900 26.89300 25.45600
N  47.32600 24.69900 29.95600
C  47.48000 25.76200 30.78600
C  47.10400 25.50300 32.27000
C  46.99000 23.91900 32.21800
C  46.97000 23.62200 30.69900
C  47.90000 23.12100 33.08300
C  45.79300 26.21100 32.78800
C  45.97700 27.39300 33.78600
H  46.80400 26.97500 34.99900
N  46.71900 22.60300 27.76600
C  46.52500 21.85300 28.88800
C  46.19500 20.55000 28.53200
C  46.20500 20.42800 27.15800
C  46.58300 21.81500 26.66600
C  45.91000 19.45600 29.59400
C  45.86100 19.21100 26.28000
O  45.99200 19.22900 25.07000
C  45.23800 17.94000 26.88500
N  47.70000 24.48400 25.62200
C  47.41100 23.41300 24.87700
C  47.67800 23.80100 23.40100
C  47.97900 25.36400 23.47900
C  48.07100 25.57400 24.91000
C  48.77200 23.00800 22.59700
C  46.92100 26.35000 22.73500
C  45.62000 26.69500 23.55300
N  48.18700 26.49200 27.78400
C  48.55800 27.28900 26.77300
C  49.07700 28.54500 27.21500
C  48.87200 28.46100 28.55800
C  48.30500 27.21500 28.90700
C  49.70400 29.55700 26.29000
C  49.08500 29.19000 29.79600
O  49.62300 30.29200 29.96000
C  48.40100 28.31800 30.95000
C  49.46400 28.24600 32.02300
O  50.29400 27.35800 32.08300
O  49.25500 29.22400 32.86000
C  50.13000 29.25000 34.04100
H  46.35400 21.70800 31.00500
H  46.93000 21.39700 24.58100
H  48.78200 27.67100 24.77500
H  47.99500 25.88300 32.76900
H  45.93200 23.71100 32.37700
H  48.60700 22.47800 32.55900
H  47.33000 22.50300 33.77700
H  48.46200 23.87100 33.64000
H  45.13200 25.51300 33.30300
H  45.19100 26.56900 31.95300
H  45.01800 27.72100 34.18700
H  46.39000 28.24600 33.24700
H  46.36700 18.51100 29.30200
H  44.89400 19.32500 29.96600
H  46.38800 19.73400 30.53300
H  45.96700 17.44700 27.52800
H  45.00300 17.20600 26.11400
H  44.36000 18.27200 27.44000
H  46.78100 23.73200 22.78500
H  48.95500 25.72300 23.15100
H  49.64000 23.64900 22.43900
H  48.45300 22.77100 21.58200
H  49.06200 22.12100 23.16100
H  46.63700 25.85200 21.80700
H  47.36700 27.32800 22.55500
H  45.70300 27.76100 23.76100
H  45.55200 25.98000 24.37300
H  44.77500 26.57600 22.87400
H  50.39900 30.15100 26.88400
H  49.03400 30.17700 25.69400
H  50.39000 29.15100 25.54600
H  47.52100 28.84900 31.31300
H  51.04900 29.65400 33.61600
H  50.46500 28.31300 34.48600
H  49.61400 29.83600 34.80200
Mg 30.26300 58.24000 40.98000
C  27.50000 56.24000 39.93500
C  32.25900 55.63600 39.97700
C  32.98100 60.34300 41.05300
C  28.06500 60.96400 41.14600
N  29.90000 56.13800 40.09900
C  28.72400 55.51200 39.72500
C  28.89600 54.07000 39.23100
C  30.43300 53.86500 39.57800
C  30.92400 55.25300 39.83500
C  30.64300 52.97600 40.78200
C  28.57800 54.01800 37.62000
C  27.56100 52.96600 36.99500
H  26.65800 53.56200 35.96100
N  32.32200 58.03000 40.75700
C  32.87300 56.88800 40.24300
C  34.21600 57.14700 39.99200
C  34.57000 58.36200 40.58300
C  33.25900 58.97900 40.82300
C  35.18700 56.29300 39.25600
C  35.93200 58.90600 40.82900
O  36.90300 58.22000 40.52700
C  36.17300 60.31800 41.46100
N  30.48100 60.37300 41.08000
C  31.70700 61.01800 41.14900
C  31.49700 62.50100 41.37800
C  29.98200 62.65100 41.61000
C  29.46700 61.26400 41.26200
C  32.42700 63.04600 42.49300
C  29.32400 63.79700 40.86600
C  28.14600 64.50500 41.65500
N  28.14600 58.63100 40.69300
C  27.40900 59.74000 40.93500
C  26.00000 59.41000 40.71000
C  25.98100 58.06700 40.31100
C  27.29900 57.61100 40.34400
C  24.77700 60.38600 40.89500
C  25.19500 56.96700 39.79000
O  24.11600 56.96500 39.31000
C  26.19800 55.74000 39.50300
C  25.83400 54.56000 40.37300
O  26.14000 54.45200 41.54200
O  25.07400 53.67000 39.65500
C  24.44700 52.54500 40.34200
H  33.01800 54.92100 39.65200
H  33.90400 60.90700 40.90000
H  27.32900 61.76100 41.27100
H  28.18100 53.49400 39.81800
H  31.03400 53.51500 38.73800
H  29.92100 53.22600 41.55900
H  31.64700 53.19300 41.14700
H  30.50300 51.90800 40.61400
H  29.55700 53.91400 37.15200
H  28.10900 54.94500 37.29200
H  26.98400 52.36800 37.70000
H  28.12300 52.20300 36.45600
H  35.55600 56.92000 38.44400
H  34.73000 55.42700 38.77700
H  35.96600 55.94300 39.93300
H  36.03800 61.12800 40.74500
H  37.18400 60.27700 41.86600
H  35.65900 60.59100 42.38300
H  31.65700 62.96900 40.40700
H  29.77600 62.77100 42.67400
H  33.22800 62.36400 42.77600
H  31.84000 63.24100 43.39100
H  32.85300 63.99500 42.16600
H  29.01500 63.39700 39.90000
H  29.99400 64.62900 40.65100
H  28.24300 65.59000 41.60700
H  28.13800 64.23700 42.71100
H  27.19200 64.14800 41.26700
H  23.83800 59.93700 40.57100
H  24.86500 61.27900 40.27600
H  24.73200 60.70100 41.93800
H  26.23100 55.49000 38.44200
H  25.34400 52.02800 40.68100
H  23.86900 51.88300 39.69800
H  23.91400 52.84900 41.24300

