158

Mg 1.48000 -1.75400 44.79600
C  4.77900 -0.88200 44.30600
C  0.45000 1.35400 43.82300
C  -1.66600 -3.04300 44.55900
C  2.65200 -5.07200 45.40700
N  2.50700 0.06900 44.34200
C  3.85500 0.16200 44.11900
C  4.17300 1.57700 43.52000
C  2.79600 2.36100 43.73900
C  1.83500 1.18400 43.94900
C  2.69100 3.28000 44.93200
C  4.59300 1.41500 42.03600
C  5.97900 1.98500 41.68500
H  6.52000 1.64800 40.27500
N  -0.30300 -0.96700 44.17500
C  -0.55400 0.37800 43.89700
C  -2.01700 0.54200 43.76800
C  -2.59700 -0.74500 43.88600
C  -1.47400 -1.70000 44.16200
C  -2.69100 1.88600 43.33500
C  -4.11200 -1.00900 43.87100
O  -4.89900 -0.07100 43.77400
C  -4.73300 -2.45000 43.87600
N  0.58100 -3.77300 44.99600
C  -0.73700 -4.04900 44.92800
C  -1.10000 -5.50700 45.39400
C  0.33900 -6.06300 45.74100
C  1.27500 -4.88600 45.32800
C  -2.17300 -5.67600 46.51500
C  0.74400 -7.42000 45.11700
C  1.16800 -8.52500 46.12100
N  3.30000 -2.81100 44.96400
C  3.62400 -4.11300 45.28800
C  5.07700 -4.20800 45.40800
C  5.54900 -2.97200 45.00500
C  4.45000 -2.14800 44.72400
C  5.76200 -5.43100 45.86500
C  6.75400 -2.21100 44.86100
O  7.90500 -2.54700 45.05500
C  6.27500 -0.75600 44.30100
C  6.57600 0.36200 45.28800
O  6.01300 0.43800 46.37900
O  7.52500 1.24800 44.87000
C  7.66700 2.49500 45.74000
H  0.05000 2.33800 43.56700
H  -2.70500 -3.37700 44.51500
H  3.02000 -6.07800 45.61700
H  4.88300 2.19400 44.07200
H  2.45800 2.90200 42.85500
H  2.56100 2.69800 45.84400
H  1.94200 4.06400 44.82200
H  3.62300 3.80100 45.15000
H  3.87500 1.93600 41.40300
H  4.52800 0.39000 41.67100
H  6.75100 1.68000 42.39200
H  5.99200 3.07400 41.74200
H  -3.22900 1.82600 42.38900
H  -1.88900 2.62300 43.37500
H  -3.40000 2.12800 44.12700
H  -5.79200 -2.39200 43.62500
H  -4.60800 -2.78800 44.90500
H  -4.19800 -3.00300 43.10400
H  -1.48900 -5.99900 44.50300
H  0.37200 -6.07000 46.83100
H  -3.00200 -6.27200 46.13300
H  -2.67800 -4.74000 46.75400
H  -1.76400 -6.29200 47.31500
H  1.46300 -7.31100 44.30500
H  -0.19300 -7.75900 44.67400
H  2.23500 -8.71900 46.01000
H  0.72000 -9.51500 46.04100
H  1.09600 -8.23800 47.17000
H  5.58000 -5.59600 46.92700
H  6.83600 -5.29500 45.73800
H  5.43700 -6.34800 45.37300
H  6.70800 -0.52500 43.32700
H  8.37400 3.23900 45.37400
H  7.92500 2.29000 46.77900
H  6.66900 2.92900 45.79800
Mg 42.96600 41.77200 26.71800
C  42.09100 44.00400 29.18300
C  44.15600 39.62700 29.12100
C  44.17500 39.76100 24.27700
C  42.26600 44.34100 24.39400
N  43.17500 41.86600 28.95200
C  42.47100 42.76200 29.70700
C  42.38300 42.33600 31.21000
C  43.15900 40.95400 31.15500
C  43.60800 40.81000 29.67100
C  44.34000 40.74000 32.16100
C  40.92900 42.41700 31.82700
C  40.60300 41.59000 33.04400
H  40.10700 42.19200 34.38200
N  43.95800 39.91000 26.70000
C  44.37400 39.23300 27.80400
C  45.09800 38.00000 27.41900
C  44.81900 37.87800 26.00100
C  44.26400 39.22400 25.58300
C  45.83700 37.04300 28.40700
C  45.01700 36.81400 24.97400
O  44.68700 36.96600 23.82900
C  45.49800 35.41400 25.48100
N  43.26400 42.02900 24.70100
C  43.70600 41.00700 23.90100
C  43.66000 41.39900 22.48800
C  42.86300 42.72300 22.52000
C  42.73000 43.07900 23.96500
C  45.10200 41.43500 21.90900
C  41.45900 42.75100 21.77100
C  40.50000 41.66700 22.05100
N  42.47000 43.80400 26.73600
C  42.12100 44.70000 25.76900
C  41.57300 45.90700 26.22200
C  41.52900 45.66900 27.60800
C  42.12100 44.40500 27.85900
C  41.19800 47.15400 25.39700
C  41.18900 46.30200 28.86300
O  40.67500 47.37400 29.13000
C  41.60700 45.27800 29.93100
C  42.48000 45.95000 30.93700
O  43.56600 46.48000 30.68000
O  42.02800 45.91200 32.18400
C  42.86700 46.09000 33.38900
H  44.34400 38.86600 29.88100
H  44.51300 39.17400 23.42000
H  42.04800 45.08600 23.62600
H  42.95900 43.10200 31.72900
H  42.46900 40.16300 31.44600
H  45.38000 40.59600 31.86900
H  44.26100 39.91700 32.87100
H  44.40800 41.68500 32.69900
H  40.23300 42.18900 31.01900
H  40.84900 43.46200 32.12700
H  41.38300 40.90300 33.37200
H  39.78400 40.97800 32.66700
H  45.19500 36.17600 28.56600
H  46.12000 37.55000 29.32900
H  46.78600 36.74200 27.96500
H  45.33700 34.62200 24.75000
H  44.96300 35.30400 26.42500
H  46.57800 35.53200 25.57100
H  43.11300 40.67900 21.87900
H  43.43800 43.45300 21.95000
H  45.47800 42.43600 22.12000
H  44.95700 41.19400 20.85500
H  45.77100 40.72500 22.39400
H  41.79800 42.63300 20.74200
H  41.04800 43.75600 21.85800
H  40.93500 40.99800 22.79400
H  40.26800 41.10700 21.14600
H  39.53700 41.99500 22.44400
H  42.01300 47.81400 25.10300
H  40.53200 47.70300 26.06200
H  40.58300 46.87900 24.54000
H  40.75400 45.02700 30.56100
H  43.95600 46.10500 33.36100
H  42.59800 45.29200 34.08100
H  42.52700 47.05300 33.77100

