158

Mg -2.41300 17.05200 26.07700
C  -2.90200 14.76500 28.83900
C  -2.90300 19.57500 28.26800
C  -2.48700 18.92200 23.41400
C  -2.65600 14.06200 23.98900
N  -2.97600 17.14700 28.30600
C  -2.97300 16.15300 29.25200
C  -3.13900 16.73600 30.66600
C  -3.18000 18.27100 30.45000
C  -3.01800 18.38100 28.89700
C  -4.55400 18.87800 30.87600
C  -1.96800 16.45800 31.68300
C  -1.81000 17.24000 33.01100
H  -2.00100 16.49500 34.26000
N  -2.55900 18.97900 25.89400
C  -2.67600 19.88500 26.87800
C  -2.53800 21.22400 26.29100
C  -2.44800 21.06200 24.92800
C  -2.45300 19.59700 24.68300
C  -2.52600 22.51500 27.16200
C  -2.21500 22.09600 23.75000
O  -2.19900 21.93200 22.56400
C  -2.08400 23.47300 24.21800
N  -2.44000 16.58100 23.97200
C  -2.38900 17.55300 23.07500
C  -2.32500 16.95900 21.67800
C  -2.20900 15.47700 21.92400
C  -2.42700 15.33900 23.42500
C  -3.57900 17.35400 20.79600
C  -0.89800 14.84400 21.38300
C  0.33700 14.98900 22.26200
N  -2.73700 14.80100 26.22800
C  -2.87400 13.80300 25.29600
C  -2.99600 12.52000 26.04200
C  -3.02400 12.80900 27.40100
C  -2.82300 14.20700 27.48900
C  -2.98900 11.10600 25.39800
C  -3.12900 12.25000 28.72600
O  -3.19700 11.10500 29.10600
C  -3.03800 13.51100 29.72800
C  -1.86900 13.26900 30.61900
O  -0.76700 13.77200 30.37700
O  -2.28800 12.49800 31.65100
C  -1.33700 12.11500 32.68700
H  -3.05500 20.46400 28.88500
H  -2.48200 19.48100 22.47600
H  -2.77200 13.19400 23.33700
H  -4.12500 16.47600 31.05000
H  -2.32200 18.80700 30.85400
H  -4.23300 19.71900 31.49000
H  -5.22300 18.26200 31.47700
H  -5.20300 19.28000 30.09800
H  -1.05200 16.64000 31.12200
H  -2.08300 15.41400 31.97600
H  -2.52400 18.06200 32.96500
H  -0.82700 17.69800 32.90600
H  -2.41700 22.26200 28.21700
H  -3.42300 23.08000 26.91200
H  -1.62000 23.08800 26.96400
H  -2.89000 23.75400 24.89600
H  -2.16300 24.13100 23.35200
H  -1.11600 23.54300 24.71300
H  -1.44400 17.33900 21.16200
H  -3.00100 14.87800 21.47400
H  -4.16900 18.20800 21.12900
H  -4.40400 16.64900 20.89800
H  -3.16900 17.35400 19.78600
H  -0.59400 15.31600 20.44900
H  -1.10400 13.78200 21.25100
H  0.00200 15.30700 23.24900
H  1.02700 15.74500 21.88700
H  0.84300 14.03300 22.39000
H  -4.01800 10.88500 25.11500
H  -2.63600 10.40100 26.15000
H  -2.21300 11.08100 24.63300
H  -3.94000 13.54300 30.33800
H  -1.66700 11.24500 33.25300
H  -1.11900 12.92000 33.38900
H  -0.35200 11.80100 32.34100
Mg 30.01000 58.95000 39.57200
C  26.98300 57.29500 38.31900
C  31.68200 56.02500 38.56200
C  32.74800 60.67200 39.58100
C  28.00300 62.04800 39.40400
N  29.37500 57.05900 38.32100
C  28.13600 56.53200 38.04300
C  28.25500 55.18300 37.37900
C  29.73200 54.71200 37.76200
C  30.28000 56.02500 38.26900
C  29.80100 53.40800 38.59700
C  27.99500 55.26100 35.81000
C  26.72900 54.58600 35.32500
H  25.82800 55.32400 34.38500
N  31.91400 58.40700 39.38900
C  32.42400 57.12500 39.04000
C  33.82900 57.21300 39.11000
C  34.20500 58.60300 39.44500
C  32.95400 59.29600 39.59400
C  34.72200 56.03200 38.64600
C  35.61600 59.06600 39.47100
O  36.54000 58.21600 39.31600
C  36.15100 60.49300 39.82500
N  30.30400 61.08300 39.75800
C  31.61100 61.45200 39.54500
C  31.61400 62.99400 39.40200
C  30.15400 63.43800 39.15700
C  29.43800 62.17400 39.49700
C  32.30700 63.67700 40.57200
C  29.82200 63.96800 37.65000
C  29.07000 65.34100 37.58000
N  27.89600 59.55700 39.33500
C  27.27400 60.80700 39.29000
C  25.81100 60.59800 39.06700
C  25.67600 59.20100 38.81800
C  27.00200 58.64800 38.81900
C  24.74600 61.62800 39.08200
C  24.73800 58.16000 38.43100
O  23.56200 58.16200 38.30200
C  25.56500 56.78000 38.07300
C  25.15600 55.71800 39.01800
O  25.35000 55.72500 40.23200
O  24.43000 54.76400 38.34500
C  23.90200 53.76400 39.24200
H  32.28500 55.18300 38.21400
H  33.66000 61.26900 39.51700
H  27.42300 62.97300 39.35600
H  27.52500 54.55700 37.89300
H  30.24600 54.48800 36.82600
H  28.85100 52.90700 38.78500
H  30.37500 53.70900 39.47300
H  30.39600 52.65200 38.08500
H  28.85900 54.90600 35.24900
H  27.93200 56.30100 35.48900
H  26.17000 54.23600 36.19300
H  26.96300 53.64500 34.82800
H  34.27000 55.38400 37.89600
H  34.88900 55.55300 39.61100
H  35.61300 56.40700 38.14100
H  37.24000 60.48300 39.85700
H  35.68600 60.97300 40.68600
H  35.97200 60.99500 38.87400
H  32.15100 63.23700 38.48600
H  29.90100 64.24800 39.84000
H  31.66900 63.71900 41.45500
H  32.46800 64.71700 40.29100
H  33.24200 63.19700 40.85900
H  29.30500 63.16500 37.12600
H  30.77000 64.01400 37.11300
H  28.11200 65.28700 38.09800
H  28.91100 65.66700 36.55200
H  29.62900 66.08100 38.15200
H  24.05500 61.24200 38.33200
H  25.20300 62.59600 38.87900
H  24.35200 61.67700 40.09700
H  25.33000 56.53700 37.03700
H  24.74200 53.22800 39.68400
H  23.29900 53.08200 38.64200
H  23.24100 54.19500 39.99500

