158

Mg 35.68900 49.05100 25.73000
C  35.68000 46.90800 28.61400
C  34.82400 51.61700 27.66800
C  35.86600 50.99100 22.87900
C  36.36800 46.27700 23.80800
N  35.25500 49.13300 27.91800
C  35.35700 48.25300 28.95100
C  35.15400 48.90900 30.36800
C  34.76500 50.39500 29.98500
C  34.97500 50.39700 28.38900
C  33.35700 50.82400 30.43400
C  36.52700 48.81800 31.18100
C  36.49800 48.05400 32.43400
H  35.25400 48.24300 33.41400
N  35.21600 50.99500 25.29900
C  34.91500 51.92900 26.26800
C  34.88900 53.20700 25.62700
C  35.20400 53.01700 24.28900
C  35.49300 51.58000 24.14400
C  34.47500 54.49800 26.37500
C  35.47700 54.06000 23.22300
O  35.98900 53.82700 22.13200
C  35.14700 55.50800 23.41000
N  35.79800 48.67100 23.53400
C  35.96200 49.61700 22.61100
C  36.20600 48.94100 21.20300
C  36.62800 47.53100 21.57600
C  36.23200 47.45300 23.04800
C  35.01900 48.97700 20.22600
C  38.15500 47.19200 21.33600
C  38.52900 45.80800 20.90800
N  35.95400 47.01300 26.04700
C  36.34100 46.05400 25.20800
C  36.59600 44.76600 25.84000
C  36.29900 45.03700 27.18900
C  35.87300 46.40100 27.30000
C  36.90400 43.47200 25.18400
C  36.16700 44.41900 28.49000
O  36.37000 43.31300 28.87500
C  35.75400 45.62800 29.45300
C  34.47400 45.29800 30.09400
O  33.37000 45.59400 29.65700
O  34.71500 44.59800 31.29300
C  33.49300 44.29900 32.12200
H  34.61100 52.47800 28.30600
H  36.04500 51.65600 22.03100
H  36.70800 45.39900 23.25600
H  34.36300 48.29500 30.79800
H  35.45700 51.18700 30.27000
H  33.65300 51.79500 30.83200
H  32.78400 50.29400 31.19400
H  32.64000 51.00400 29.63300
H  36.92800 49.83200 31.21400
H  37.32700 48.34800 30.60900
H  37.31700 48.37300 33.07900
H  36.61500 46.97900 32.30300
H  33.92300 55.20200 25.75300
H  35.41400 55.01300 26.57600
H  34.03600 54.39700 27.36800
H  35.77500 55.92500 24.19700
H  34.15200 55.77800 23.76500
H  35.18000 56.13500 22.51900
H  37.01000 49.52100 20.75000
H  35.99100 46.76300 21.13800
H  34.49900 49.93300 20.28100
H  34.40100 48.08400 20.32100
H  35.40000 48.80200 19.22000
H  38.59400 47.40200 22.31200
H  38.57400 47.94700 20.67100
H  38.55600 45.70800 19.82300
H  37.73600 45.11000 21.17800
H  39.43600 45.43600 21.38500
H  37.95500 43.36000 24.91400
H  36.31200 43.22500 24.30300
H  36.75900 42.73900 25.97700
H  36.53100 45.82600 30.19100
H  32.62500 44.89700 31.84600
H  33.55500 44.34400 33.21000
H  33.11000 43.29600 31.93700
Mg -4.99200 25.89300 25.67100
C  -3.82400 27.41200 28.66400
C  -6.76700 23.70000 27.62100
C  -5.75200 24.31100 22.88400
C  -2.60700 27.93800 23.90700
N  -5.23500 25.66400 27.90200
C  -4.74300 26.39400 28.97300
C  -5.29400 25.88800 30.31000
C  -6.07800 24.59600 29.90200
C  -5.96100 24.56500 28.36000
C  -5.64000 23.31700 30.59400
C  -6.22700 26.96600 31.05900
C  -5.86300 27.34500 32.57400
H  -5.35300 26.13300 33.41100
N  -6.08100 24.27800 25.31400
C  -6.81900 23.53600 26.24100
C  -7.63400 22.63000 25.49800
C  -7.45700 22.76200 24.09500
C  -6.40800 23.86600 24.00700
C  -8.58200 21.61900 26.17900
C  -8.16700 22.11100 22.92800
O  -7.79000 22.22400 21.74800
C  -9.52600 21.40000 23.14100
N  -4.20900 26.12200 23.68100
C  -4.72700 25.32600 22.70100
C  -4.01700 25.65700 21.33200
C  -3.27900 27.02000 21.62400
C  -3.37900 27.04800 23.14300
C  -3.13800 24.50300 20.84000
C  -3.94700 28.19500 20.90400
C  -2.97400 28.82500 19.89000
N  -3.54300 27.43300 26.16300
C  -2.69200 28.13000 25.36400
C  -1.89100 29.03300 26.14800
C  -2.35000 28.81800 27.42600
C  -3.35700 27.80200 27.40300
C  -0.83900 30.13400 25.70400
C  -2.15800 29.24300 28.75600
O  -1.44900 30.05500 29.24200
C  -3.12200 28.36900 29.59800
C  -2.29600 27.64200 30.56800
O  -1.49900 26.77400 30.36300
O  -2.60500 28.09300 31.91000
C  -1.62800 27.61300 32.87600
H  -7.29600 23.02400 28.29600
H  -5.98400 23.88600 21.90600
H  -1.89600 28.65100 23.48400
H  -4.40900 25.65200 30.90100
H  -7.12900 24.73600 30.15300
H  -6.49400 22.84600 31.08200
H  -4.85300 23.54300 31.31400
H  -5.21500 22.69200 29.80900
H  -7.24600 26.58000 31.09300
H  -6.29200 27.90000 30.50100
H  -6.83600 27.71400 32.89800
H  -5.13400 28.13900 32.41100
H  -9.55800 22.10400 26.20700
H  -8.24500 21.30300 27.16600
H  -8.66300 20.68100 25.63000
H  -9.28300 20.35200 23.31500
H  -9.99100 21.46700 22.15700
H  -10.16900 21.94400 23.83300
H  -4.78200 25.75800 20.56300
H  -2.24200 26.88000 21.31700
H  -2.09700 24.81800 20.90400
H  -3.47700 24.22400 19.84200
H  -3.27500 23.71800 21.58400
H  -4.26100 28.89900 21.67500
H  -4.81800 27.85400 20.34400
H  -3.31000 28.48200 18.91100
H  -1.92100 28.55400 19.96000
H  -3.00300 29.91100 19.98200
H  -0.19700 30.51500 26.49800
H  -1.31900 30.94000 25.14900
H  -0.15700 29.67400 24.99000
H  -3.83400 28.98000 30.15200
H  -2.02200 26.68700 33.29500
H  -1.65800 28.29800 33.72300
H  -0.57600 27.49700 32.61400

