158

Mg -2.45600 34.31300 26.53100
C  -3.97400 32.45000 29.13500
C  -1.05800 36.24700 29.00000
C  -1.16200 36.16800 24.22200
C  -4.14800 32.33200 24.18700
N  -2.67300 34.39200 28.89700
C  -3.12700 33.43800 29.70200
C  -2.93900 33.81100 31.16400
C  -2.13600 35.14800 31.04200
C  -1.91800 35.29600 29.53200
C  -2.90600 36.39400 31.66600
C  -2.22400 32.76800 32.03100
C  -2.92400 32.36700 33.33300
H  -2.25200 32.36100 34.69100
N  -1.19700 36.00100 26.55300
C  -0.82000 36.69600 27.65500
C  -0.09300 37.83500 27.24200
C  -0.15700 37.94900 25.87900
C  -0.82800 36.70600 25.46200
C  0.64000 38.73500 28.25700
C  0.27900 39.09700 24.93700
O  -0.05300 39.07900 23.75100
C  1.03400 40.26300 25.34100
N  -2.62200 34.21800 24.42700
C  -1.96600 35.05700 23.67800
C  -2.21200 34.77000 22.18100
C  -2.95700 33.42000 22.20900
C  -3.22000 33.26100 23.69200
C  -2.98000 35.88600 21.42000
C  -2.28100 32.30000 21.49400
C  -1.53400 31.30300 22.42500
N  -3.75300 32.74800 26.59000
C  -4.34000 32.04400 25.54300
C  -5.20200 31.06800 26.13500
C  -5.11300 31.14300 27.50600
C  -4.21500 32.23200 27.73300
C  -6.17600 30.23800 25.29600
C  -5.58700 30.62300 28.79500
O  -6.39700 29.73600 29.05200
C  -4.80600 31.45900 29.91700
C  -5.83200 32.13500 30.87500
O  -6.43300 33.18500 30.65100
O  -5.91500 31.46800 32.01200
C  -6.98000 31.87900 32.99800
H  -0.46100 36.74100 29.77000
H  -0.62900 36.69700 23.42900
H  -4.54100 31.65200 23.42900
H  -3.92600 34.08600 31.53600
H  -1.20700 35.18300 31.61100
H  -3.73300 36.65500 31.00600
H  -2.15000 37.15800 31.85000
H  -3.34200 36.20000 32.64600
H  -1.31000 33.18000 32.45700
H  -2.14800 31.84700 31.45200
H  -3.15800 31.31100 33.19800
H  -3.86600 32.89900 33.46600
H  1.37800 39.42800 27.85100
H  1.14700 38.13700 29.01500
H  -0.18300 39.40500 28.50900
H  0.52200 40.95400 26.01100
H  1.32600 40.83800 24.46200
H  1.97000 39.86300 25.73200
H  -1.22300 34.55400 21.77700
H  -3.99300 33.53200 21.88800
H  -3.98600 35.56900 21.14400
H  -2.38600 36.11500 20.53600
H  -3.04500 36.78500 22.03200
H  -1.53300 32.59800 20.76000
H  -3.11700 31.70000 21.13300
H  -2.26100 30.62300 22.87000
H  -0.96800 31.77400 23.22800
H  -0.90800 30.67700 21.78800
H  -5.67700 29.75100 24.45900
H  -6.96500 30.85700 24.86900
H  -6.63000 29.47700 25.93000
H  -4.30600 30.78700 30.61500
H  -6.44100 32.39300 33.79400
H  -7.37300 30.99700 33.50400
H  -7.84100 32.40100 32.58100
Mg -12.38200 17.46400 41.64100
C  -9.73400 15.16000 41.17500
C  -10.33600 19.88400 40.24700
C  -15.04300 19.39600 41.44100
C  -14.46600 14.63700 42.67900
N  -10.34400 17.39600 40.72400
C  -9.38800 16.46800 40.79500
C  -7.97800 17.02300 40.35800
C  -8.17600 18.54900 40.26700
C  -9.77900 18.63300 40.45800
C  -7.46800 19.44100 41.36100
C  -7.78800 16.41500 38.94900
C  -6.31600 16.02700 38.67600
H  -5.62800 16.77800 37.50000
N  -12.65300 19.44800 41.00100
C  -11.69500 20.22000 40.34700
C  -12.28600 21.41200 39.93400
C  -13.71300 21.38400 40.31200
C  -13.88100 20.00800 40.95800
C  -11.39500 22.53200 39.34400
C  -14.67900 22.45500 40.03400
O  -14.27400 23.42400 39.40200
C  -16.15600 22.38100 40.41200
N  -14.47100 17.01800 42.00800
C  -15.36600 18.08600 41.97300
C  -16.81600 17.57400 42.18400
C  -16.64000 16.10600 42.66400
C  -15.08100 15.91600 42.54900
C  -17.63500 18.45200 43.17500
C  -17.42300 15.02400 41.86100
C  -18.97300 15.11700 41.84700
N  -12.16600 15.31500 41.94600
C  -13.03800 14.34700 42.43200
C  -12.35400 13.05500 42.42400
C  -11.05900 13.28000 41.95700
C  -11.01000 14.69600 41.67500
C  -13.03500 11.78300 42.82600
C  -9.75300 12.67100 41.74000
O  -9.30200 11.55300 41.84100
C  -8.85600 13.87600 41.27700
C  -7.61200 14.14400 42.15800
O  -7.62500 14.24800 43.37400
O  -6.48800 14.20200 41.33600
C  -5.22500 14.49200 42.11400
H  -9.60600 20.60600 39.87600
H  -15.90600 20.06400 41.40200
H  -15.10000 13.85500 43.10300
H  -7.29200 16.68000 41.13300
H  -7.81600 18.97900 39.33200
H  -6.73800 18.86800 41.93100
H  -8.17900 20.01200 41.95900
H  -7.00600 20.19600 40.72600
H  -8.15400 17.11700 38.19900
H  -8.43800 15.59200 38.65000
H  -6.45300 14.96400 38.47400
H  -5.69500 16.13600 39.56600
H  -11.30100 22.33100 38.27700
H  -10.49100 22.46500 39.94800
H  -11.84200 23.49800 39.58000
H  -16.38700 22.26100 41.47100
H  -16.67700 21.62400 39.82600
H  -16.60100 23.28900 40.00400
H  -17.33700 17.58500 41.22700
H  -16.94800 16.02500 43.70600
H  -18.58000 18.64200 42.66700
H  -17.04000 19.33700 43.39900
H  -17.87700 17.98500 44.12900
H  -17.10900 14.08100 42.30800
H  -17.09300 15.02500 40.82300
H  -19.46400 15.28800 42.80500
H  -19.37700 14.23900 41.34400
H  -19.44000 15.86400 41.20500
H  -13.42800 11.87500 43.83800
H  -12.27800 11.01600 42.66600
H  -13.87300 11.43000 42.22600
H  -8.47700 13.61000 40.29000
H  -5.11100 15.57500 42.13800
H  -4.32000 14.24000 41.56200
H  -5.21800 13.99200 43.08300

