158

Mg 27.88900 51.40900 26.26800
C  25.79400 52.49700 28.98200
C  30.31300 50.72200 28.60500
C  29.92600 50.74400 23.72000
C  25.58100 52.83500 24.08500
N  27.94100 51.43400 28.42000
C  26.98900 51.89800 29.32600
C  27.54600 51.80600 30.83600
C  28.98300 51.30000 30.70200
C  29.10600 51.12700 29.13600
C  30.01100 52.34100 31.34800
C  26.49800 50.91900 31.67600
C  27.07300 50.27200 32.90200
H  26.69200 50.72800 34.33900
N  29.74200 50.61400 26.18900
C  30.58100 50.44400 27.25300
C  31.79200 49.87100 26.80200
C  31.65500 49.66200 25.38100
C  30.46100 50.42200 25.00500
C  32.91900 49.51000 27.79600
C  32.60600 49.00700 24.43400
O  32.52900 48.97900 23.19500
C  33.86200 48.37400 24.94200
N  27.78900 51.82900 24.19500
C  28.78400 51.44800 23.31600
C  28.51200 51.87800 21.90100
C  27.11100 52.53300 22.08300
C  26.77200 52.41000 23.53700
C  29.66300 52.82600 21.32300
C  25.99000 52.02400 21.13000
C  25.79600 52.84400 19.84100
N  26.01900 52.35100 26.43800
C  25.20900 52.83700 25.49300
C  23.90900 53.33200 26.05800
C  24.12800 53.18000 27.44600
C  25.41300 52.63900 27.62300
C  22.76300 53.96700 25.28100
C  23.52500 53.39200 28.77400
O  22.45200 53.90500 29.12600
C  24.57300 52.90300 29.76600
C  24.86800 53.95100 30.63900
O  25.86900 54.67500 30.52600
O  24.06700 53.87200 31.76500
C  24.53600 54.49300 32.98900
H  31.02900 50.56700 29.41400
H  30.67500 50.48700 22.96800
H  24.80400 53.25200 23.44000
H  27.39700 52.76300 31.33600
H  29.26200 50.33300 31.12200
H  30.54800 51.81900 32.14000
H  29.47900 53.14700 31.85400
H  30.77000 52.68200 30.64500
H  26.01600 50.29800 30.92000
H  25.75300 51.61800 32.05500
H  28.10200 50.63200 32.92100
H  27.01400 49.18400 32.92500
H  32.85000 48.45800 28.07300
H  33.03600 50.12500 28.68800
H  33.80400 49.75100 27.20800
H  33.57600 47.65900 25.71400
H  34.47600 49.18900 25.32500
H  34.47400 47.92500 24.16000
H  28.37000 50.99300 21.28100
H  27.20800 53.60500 21.91300
H  29.45500 53.85200 21.01900
H  30.01700 52.30300 20.43500
H  30.44000 52.81500 22.08700
H  24.98100 52.02900 21.54300
H  26.27800 51.05500 20.72400
H  24.74400 52.79900 19.55800
H  26.23800 52.33700 18.98400
H  26.19100 53.86000 19.84900
H  21.79300 53.83000 25.75700
H  22.85700 53.67600 24.23500
H  22.92300 55.04500 25.30400
H  24.17200 52.07200 30.34700
H  25.19300 55.32400 32.73300
H  24.94300 53.78600 33.71200
H  23.68000 54.92700 33.50500
Mg -4.03500 25.21900 25.52100
C  -2.98500 26.69100 28.63400
C  -6.06700 23.12200 27.41900
C  -4.88400 23.71600 22.78000
C  -1.55300 27.13600 23.88000
N  -4.44600 24.89100 27.89000
C  -3.95900 25.64800 28.92100
C  -4.37400 25.14300 30.26400
C  -5.40400 24.04300 29.88300
C  -5.25400 23.96000 28.33000
C  -5.18800 22.56900 30.43200
C  -5.11800 26.26400 31.07300
C  -5.38600 26.10100 32.58100
H  -4.90300 24.82300 33.33000
N  -5.39400 23.77600 25.11600
C  -6.15700 23.04400 26.01800
C  -7.15900 22.32500 25.24300
C  -6.71900 22.37800 23.86200
C  -5.65500 23.35000 23.88100
C  -8.38600 21.65100 25.82200
C  -7.33400 21.73400 22.62900
O  -7.10000 22.11000 21.50300
C  -8.26000 20.58500 22.82400
N  -3.26700 25.37300 23.67700
C  -3.78800 24.59700 22.67900
C  -3.00100 24.62000 21.40300
C  -2.00600 25.81600 21.68400
C  -2.24500 26.14900 23.16000
C  -2.26900 23.26800 21.15100
C  -2.27500 27.07100 20.86000
C  -1.17500 27.47700 19.83800
N  -2.57600 26.59600 26.05700
C  -1.67500 27.33100 25.29600
C  -0.93000 28.26100 26.13800
C  -1.33900 28.05200 27.41900
C  -2.34000 26.99300 27.39800
C  0.05500 29.29500 25.62300
C  -1.23200 28.56300 28.81000
O  -0.53100 29.43300 29.29800
C  -2.28500 27.67800 29.57000
C  -1.45100 27.10700 30.66500
O  -0.52100 26.29400 30.61100
O  -1.87400 27.60900 31.86300
C  -1.24500 27.04100 33.09100
H  -6.69100 22.34100 27.85900
H  -5.19400 23.33100 21.80700
H  -0.82700 27.74400 23.33600
H  -3.55900 24.80000 30.90000
H  -6.45100 24.33900 29.82000
H  -4.88900 21.80100 29.71900
H  -6.09500 22.23300 30.93500
H  -4.46000 22.67500 31.23600
H  -6.03100 26.57800 30.56500
H  -4.47600 27.14400 31.02500
H  -6.45600 26.13100 32.78500
H  -4.87800 26.98100 32.97800
H  -9.23200 21.82900 25.15700
H  -8.80000 22.19700 26.66900
H  -8.26500 20.59800 26.07700
H  -9.23400 21.04300 22.99400
H  -8.10200 19.90700 23.66300
H  -8.16600 19.98700 21.91700
H  -3.73900 24.90000 20.65200
H  -0.98500 25.47200 21.52000
H  -2.78800 22.46400 21.67300
H  -1.19100 23.28700 21.30700
H  -2.34000 22.89500 20.12900
H  -2.38600 27.93800 21.51100
H  -3.26400 27.05000 20.40200
H  -0.63800 28.32300 20.26800
H  -1.46700 27.74900 18.82400
H  -0.46900 26.65400 19.72000
H  0.51800 28.90000 24.71900
H  0.87900 29.43200 26.32400
H  -0.55300 30.09200 25.19400
H  -3.10000 28.24000 30.02700
H  -1.75700 27.45800 33.95800
H  -0.19500 27.32400 33.16500
H  -1.34100 25.95700 33.02000

