158

Mg 54.59200 25.01200 44.84600
C  51.93900 27.18900 43.83500
C  52.60400 22.43700 43.67300
C  57.27300 23.10400 44.71200
C  56.32000 27.72400 45.92000
N  52.56800 24.86800 43.61500
C  51.67500 25.87400 43.49700
C  50.27700 25.29500 42.95000
C  50.42600 23.88600 43.45900
C  51.93100 23.71400 43.51300
C  49.77200 23.52900 44.80500
C  50.12400 25.44200 41.46200
C  48.69500 25.27900 40.85100
H  48.56800 24.30300 39.64400
N  54.92800 23.00100 44.28700
C  53.98100 22.12500 43.85400
C  54.54600 20.85300 43.66900
C  55.98500 21.05900 43.73200
C  56.14600 22.45600 44.21100
C  53.71700 19.63500 43.28200
C  57.06400 20.03200 43.40300
O  56.78800 18.84800 43.31400
C  58.52800 20.45700 43.16000
N  56.48600 25.30900 45.38700
C  57.44800 24.35400 45.26800
C  58.81100 24.94700 45.67900
C  58.50700 26.37800 46.17000
C  57.03700 26.51400 45.83400
C  59.59500 24.03800 46.71000
C  59.25400 27.55900 45.37100
C  59.91700 28.61700 46.29900
N  54.22100 27.03900 44.99600
C  55.02600 27.97600 45.58900
C  54.30300 29.26500 45.53500
C  53.03500 28.96100 44.91400
C  53.08300 27.62100 44.57500
C  54.72200 30.71400 46.04200
C  51.87800 29.52800 44.44700
O  51.53300 30.70000 44.45800
C  51.05200 28.34100 43.76100
C  50.53100 28.65100 42.39600
O  51.19600 29.07900 41.49200
O  49.19000 28.41900 42.26800
C  48.62000 28.96100 40.99400
H  51.97700 21.54300 43.64600
H  58.19700 22.53200 44.60300
H  56.89800 28.62500 46.13600
H  49.42300 25.74700 43.45500
H  49.86400 23.28700 42.74300
H  50.48100 23.56600 45.63200
H  49.18400 22.61100 44.83300
H  49.14800 24.34500 45.16800
H  50.75100 24.61100 41.14000
H  50.70200 26.30100 41.11900
H  48.33200 26.27300 40.58800
H  48.04700 24.80000 41.58500
H  53.91100 19.59900 42.21000
H  52.66500 19.61900 43.56800
H  54.23800 18.75300 43.65400
H  58.78100 21.36900 42.61900
H  58.96000 19.55200 42.73100
H  58.94500 20.68400 44.14100
H  59.39600 24.96800 44.76000
H  58.67400 26.57700 47.22800
H  58.96400 23.19900 47.00300
H  59.68400 24.61800 47.62800
H  60.58500 23.74200 46.36100
H  58.56400 28.08500 44.71200
H  60.01000 27.01300 44.80600
H  60.99700 28.47100 46.26500
H  59.55000 28.44700 47.31100
H  59.71000 29.66700 46.09100
H  53.92000 31.40700 45.78700
H  55.58700 31.08300 45.49000
H  54.71700 30.79500 47.12900
H  50.11100 28.20900 44.29700
H  48.78800 30.02900 41.13000
H  47.54500 28.80700 41.08600
H  49.06500 28.45900 40.13500
Mg 47.90600 16.31800 28.54700
C  45.79200 16.85100 31.49900
C  50.23600 18.26300 30.14200
C  49.30500 16.71100 25.65200
C  44.97700 15.07200 27.01500
N  48.03700 17.41600 30.64800
C  47.06600 17.37800 31.69100
C  47.63800 18.04000 32.94100
C  48.98800 18.66900 32.41600
C  49.13600 18.08300 30.98500
C  49.06800 20.20600 32.53900
C  47.89900 16.96900 34.05700
C  47.64800 17.27200 35.57800
H  47.50200 18.77800 36.02200
N  49.68600 17.20300 28.01300
C  50.55300 17.93600 28.81000
C  51.72100 18.35000 28.03300
C  51.49700 17.85600 26.74700
C  50.16200 17.16400 26.76500
C  52.90900 19.18100 28.71300
C  52.39300 17.95500 25.50200
O  51.99400 17.53400 24.40800
C  53.75400 18.66300 25.60600
N  47.11700 16.10000 26.57600
C  47.97200 16.25200 25.53200
C  47.36900 15.82500 24.18800
C  46.14700 15.00400 24.66000
C  46.06900 15.35500 26.18100
C  47.11700 16.98800 23.13600
C  46.25500 13.48300 24.44800
C  45.50200 12.90500 23.21900
N  45.83500 15.87900 29.14500
C  44.80900 15.42000 28.38500
C  43.56600 15.27400 29.15600
C  43.87900 15.88300 30.34200
C  45.27500 16.27100 30.35600
C  42.25300 14.68400 28.68500
C  43.36500 16.30200 31.63700
O  42.18800 16.17000 32.04700
C  44.60700 16.78200 32.49800
C  44.22800 18.06600 33.19500
O  44.04900 19.20600 32.70500
O  43.92500 17.69500 34.47200
C  43.24400 18.63700 35.35500
H  51.09000 18.70900 30.65500
H  49.73400 16.75900 24.64900
H  44.10000 14.56700 26.60400
H  46.87100 18.74800 33.25500
H  49.74800 18.21700 33.05300
H  48.11500 20.71000 32.70100
H  49.53400 20.77100 31.73200
H  49.65500 20.39200 33.43700
H  48.93100 16.62000 34.04200
H  47.27400 16.17100 33.65700
H  48.48100 16.83600 36.13000
H  46.76200 16.75500 35.94700
H  52.89000 20.19600 28.31600
H  53.88500 18.74400 28.49800
H  52.75200 19.26000 29.78900
H  54.24000 18.73700 24.63300
H  54.27900 18.02200 26.31500
H  53.68800 19.67800 25.99800
H  48.06400 15.07600 23.80700
H  45.23800 15.45600 24.26100
H  47.31300 17.93900 23.63000
H  46.05800 16.96900 22.88100
H  47.72700 16.87100 22.23900
H  45.92700 13.06000 25.39700
H  47.31500 13.26300 24.31900
H  45.00800 13.76400 22.76200
H  44.75200 12.24300 23.65200
H  46.09400 12.23200 22.59900
H  41.60000 14.46600 29.53000
H  42.30300 13.77800 28.08100
H  41.90900 15.54200 28.10700
H  44.84000 15.95900 33.17300
H  42.26100 18.83900 34.92900
H  43.76300 19.58300 35.20600
H  43.18400 18.38200 36.41400

