158

Mg 25.68100 -0.75900 29.16400
C  27.61900 -1.12900 32.05100
C  23.02400 -0.02900 31.21000
C  23.74100 -0.83500 26.40800
C  28.44500 -1.60400 27.29300
N  25.44100 -0.45700 31.33300
C  26.37600 -0.61600 32.33100
C  25.80300 -0.27400 33.73900
C  24.32100 0.06400 33.43900
C  24.18600 -0.21200 31.90100
C  23.42800 -0.79200 34.40900
C  26.58400 0.88300 34.48100
C  27.08800 0.53500 35.91000
H  26.45200 1.29400 37.06100
N  23.73800 -0.39800 28.86900
C  22.78100 -0.04100 29.80300
C  21.52500 0.21900 29.13400
C  21.67900 0.05500 27.70900
C  23.10600 -0.47600 27.60800
C  20.26100 0.50100 29.88600
C  20.65500 0.19300 26.55900
O  20.96400 -0.01500 25.42300
C  19.29100 0.80900 26.76900
N  26.00900 -1.30300 27.16200
C  25.09500 -1.08600 26.22900
C  25.62200 -1.68300 24.93500
C  27.13700 -1.63300 25.10000
C  27.20600 -1.48000 26.62000
C  25.08900 -3.13100 24.51500
C  27.90700 -0.59000 24.32000
C  29.03800 -1.03900 23.43200
N  27.65000 -1.31700 29.53200
C  28.65900 -1.62700 28.68400
C  29.85300 -1.96700 29.45000
C  29.46300 -1.74200 30.77800
C  28.13200 -1.33100 30.77700
C  31.16600 -2.34800 29.00100
C  29.94900 -1.70900 32.16600
O  31.06000 -1.82000 32.70600
C  28.78300 -1.29300 33.03800
C  28.51800 -2.35100 34.03900
O  27.93300 -3.37100 33.76700
O  29.00400 -2.02000 35.30400
C  28.69700 -2.98200 36.39800
H  22.27400 0.31800 31.92500
H  23.12400 -1.07300 25.53900
H  29.29500 -1.79100 26.63300
H  25.94800 -1.23400 34.23600
H  24.10700 1.12200 33.59300
H  23.95900 -0.88500 35.35600
H  23.16900 -1.71800 33.89600
H  22.53500 -0.20700 34.62400
H  25.90600 1.73600 34.51300
H  27.37800 1.31900 33.87300
H  28.09400 0.94000 35.80200
H  26.96500 -0.54000 36.03900
H  20.34500 0.61300 30.96700
H  19.52700 -0.27300 29.66400
H  19.78700 1.38700 29.46300
H  19.40400 1.86100 27.03100
H  18.69000 0.26000 27.49400
H  18.76100 0.62000 25.83600
H  25.33500 -1.01700 24.12200
H  27.53000 -2.61100 24.82000
H  25.79700 -3.78900 25.02000
H  25.04900 -3.32100 23.44200
H  24.12800 -3.32200 24.99100
H  28.28000 0.08600 25.09000
H  27.20200 -0.00900 23.72600
H  29.17200 -0.49500 22.49600
H  28.81000 -2.07600 23.18500
H  29.99500 -1.14000 23.94300
H  31.62900 -3.04300 29.70200
H  31.69000 -1.39300 29.03400
H  31.21500 -2.76400 27.99500
H  29.07200 -0.38100 33.56000
H  27.88100 -2.69900 37.06400
H  29.54400 -2.93700 37.08200
H  28.60700 -4.02900 36.10600
Mg 26.09900 49.37800 25.93400
C  24.13400 51.01200 28.36200
C  28.57900 48.95000 28.20500
C  28.12700 48.48100 23.43300
C  23.69800 50.51700 23.45600
N  26.27700 49.79000 28.05700
C  25.28100 50.36800 28.80300
C  25.61400 50.16800 30.25800
C  27.19200 49.79200 30.15500
C  27.44400 49.56100 28.72100
C  28.22000 50.77500 30.78100
C  24.67200 49.19000 31.10100
C  24.11000 49.76800 32.40100
H  25.13800 50.11800 33.46800
N  28.02800 48.62000 25.84200
C  28.92900 48.56500 26.85000
C  30.14200 47.99400 26.41800
C  30.05400 47.95500 24.99100
C  28.68700 48.38300 24.65800
C  31.31100 47.74100 27.38000
C  31.22400 47.69000 23.95300
O  30.98200 47.78900 22.75400
C  32.57900 47.45300 24.38500
N  25.89900 49.54100 23.78700
C  26.84900 48.90900 22.98800
C  26.40000 48.92700 21.46800
C  24.90500 49.42900 21.58700
C  24.78000 49.82000 23.02200
C  27.33800 49.81600 20.58400
C  23.87500 48.23100 21.33300
C  23.93200 46.95100 22.24600
N  24.31100 50.55700 25.89100
C  23.41800 50.85100 24.85400
C  22.33600 51.61900 25.44400
C  22.52600 51.66400 26.79500
C  23.76800 51.10400 27.03200
C  21.19300 52.12800 24.68600
C  21.96900 52.08800 28.03800
O  20.93500 52.68500 28.19600
C  22.90400 51.51800 29.12700
C  23.28300 52.61700 30.07900
O  24.35000 53.19100 30.13800
O  22.42500 52.60800 31.13600
C  22.80500 53.52900 32.22300
H  29.37200 48.74800 28.92800
H  28.74900 48.11900 22.61100
H  23.08900 50.92400 22.64600
H  25.57800 51.14000 30.75000
H  27.27300 48.85600 30.70800
H  27.68200 51.36700 31.52100
H  28.85400 51.28800 30.05700
H  28.88300 50.14900 31.37800
H  25.34000 48.36500 31.34700
H  23.75800 48.85300 30.61100
H  23.40500 49.06300 32.84000
H  23.62200 50.71200 32.15800
H  31.90800 46.94700 26.93200
H  31.07200 47.36800 28.37600
H  31.89100 48.65000 27.54000
H  33.13800 47.70200 23.48300
H  32.62100 46.38400 24.59300
H  32.85400 48.09800 25.22000
H  26.48100 47.92100 21.05600
H  24.74100 50.30800 20.96400
H  28.34200 49.73800 20.99900
H  26.91400 50.81700 20.50500
H  27.26600 49.30400 19.62400
H  24.04900 47.84000 20.33000
H  22.86000 48.63000 21.33000
H  23.96900 46.12600 21.53500
H  23.01500 46.82700 22.82100
H  24.78600 46.93300 22.92400
H  21.57500 52.99600 24.14700
H  20.35800 52.38900 25.33600
H  20.96500 51.37000 23.93700
H  22.44900 50.85100 29.86000
H  23.40000 52.95500 32.93300
H  21.88600 53.77500 32.75400
H  23.36000 54.44600 32.02600

