158

Mg -0.33800 43.86800 26.35200
C  1.82400 43.51700 29.03500
C  -2.80400 42.26100 28.22200
C  -2.09300 43.71600 23.55100
C  2.41100 45.00300 24.44700
N  -0.42100 43.00100 28.38500
C  0.49600 43.12300 29.38100
C  -0.00000 42.72800 30.74700
C  -1.38800 42.04000 30.35800
C  -1.58800 42.42800 28.86500
C  -1.51500 40.53600 30.81700
C  -0.21100 43.94300 31.73500
C  0.73900 43.94500 32.94200
H  0.62300 42.92100 34.04400
N  -2.28700 43.18600 26.01300
C  -3.12300 42.56400 26.85500
C  -4.34800 42.24500 26.17200
C  -4.09600 42.59400 24.75100
C  -2.77300 43.17900 24.67700
C  -5.41000 41.40500 26.69200
C  -5.02000 42.35100 23.57400
O  -4.55000 42.35900 22.46700
C  -6.41800 41.97800 23.60500
N  0.06500 44.44400 24.29900
C  -0.89400 44.32800 23.37500
C  -0.42900 45.06500 22.14500
C  1.00300 45.59700 22.53000
C  1.15800 44.99400 23.83200
C  -0.53700 44.27100 20.79600
C  0.95700 47.20800 22.50400
C  1.11900 47.85600 21.08500
N  1.74300 44.19700 26.61500
C  2.70200 44.57400 25.74300
C  3.88300 44.55100 26.40200
C  3.69100 44.25900 27.72800
C  2.30000 43.91900 27.79300
C  5.31800 44.78200 25.86300
C  4.33600 44.01300 28.96100
O  5.46600 44.15500 29.39700
C  3.06400 43.68200 29.97100
C  3.41600 42.41300 30.57500
O  3.26800 41.27300 30.18800
O  4.18000 42.68400 31.72500
C  4.65900 41.54800 32.55800
H  -3.56500 41.87200 28.90200
H  -2.75700 43.83900 22.69300
H  3.29600 45.37900 23.92800
H  0.69800 42.01200 31.17900
H  -2.24100 42.59800 30.74300
H  -0.65700 40.12300 31.34700
H  -1.52100 39.90600 29.92700
H  -2.44400 40.33600 31.35100
H  -1.25400 43.97100 32.04900
H  -0.01500 44.82200 31.12000
H  0.87600 44.89500 33.45800
H  1.72200 43.96500 32.47200
H  -6.39100 41.87900 26.72800
H  -5.23300 41.08300 27.71800
H  -5.37100 40.53700 26.03300
H  -7.03700 42.43800 24.37600
H  -6.41100 40.89700 23.74900
H  -6.85100 42.14400 22.61900
H  -1.14300 45.88900 22.14100
H  1.79900 45.18500 21.91000
H  -1.15800 44.87500 20.13500
H  -0.97900 43.31100 21.06500
H  0.39600 44.09500 20.26100
H  1.82800 47.46300 23.10600
H  0.06800 47.57500 23.01700
H  1.18400 47.11000 20.29400
H  2.07100 48.38700 21.06100
H  0.37900 48.63200 20.88700
H  5.45800 45.86200 25.80700
H  5.43900 44.43400 24.83700
H  6.07300 44.25500 26.44700
H  2.99200 44.52500 30.65800
H  4.97900 41.83300 33.56000
H  5.42600 41.06300 31.95400
H  3.86500 40.81700 32.71000
Mg -4.33300 25.05500 25.64200
C  -2.78100 26.53300 28.41900
C  -5.62300 22.69900 27.93400
C  -5.44100 23.25900 22.99200
C  -2.67200 27.26900 23.62600
N  -4.28000 24.70400 27.94900
C  -3.57300 25.48200 28.79700
C  -4.13000 25.13700 30.22500
C  -4.73500 23.73200 30.08700
C  -4.98600 23.74500 28.58000
C  -3.89600 22.53200 30.56800
C  -5.15900 26.20500 30.72200
C  -5.11400 26.25000 32.25500
H  -5.03600 24.87100 32.93000
N  -5.34200 23.29100 25.47400
C  -5.76800 22.53900 26.53200
C  -6.47800 21.42200 26.04900
C  -6.40400 21.43200 24.60000
C  -5.69400 22.69300 24.27300
C  -7.12400 20.47600 27.02100
C  -6.89100 20.48000 23.53800
O  -6.59600 20.56700 22.35100
C  -7.72700 19.24500 23.89500
N  -3.84500 25.07900 23.53900
C  -4.68600 24.38300 22.65700
C  -4.63500 25.01200 21.25500
C  -3.70800 26.24300 21.45000
C  -3.38900 26.22300 22.98300
C  -4.12800 24.08300 20.09900
C  -4.33700 27.59200 21.13300
C  -4.38900 27.98100 19.62000
N  -3.01300 26.65200 25.93700
C  -2.37000 27.45300 24.95800
C  -1.55100 28.43200 25.60500
C  -1.63600 28.10400 26.99300
C  -2.50800 26.98400 27.14200
C  -0.86900 29.51500 24.96300
C  -1.14600 28.39800 28.35600
O  -0.30800 29.18800 28.70600
C  -1.90100 27.43800 29.34500
C  -0.98200 26.71400 30.20300
O  -0.46000 25.69000 29.90500
O  -0.94400 27.32600 31.43100
C  -0.20300 26.51700 32.46000
H  -6.10400 22.04100 28.66000
H  -5.89600 22.79300 22.11600
H  -2.25200 27.97100 22.90300
H  -3.31400 25.12000 30.94800
H  -5.73200 23.72000 30.52800
H  -3.95900 21.67100 29.90200
H  -4.13500 22.14300 31.55800
H  -2.84300 22.77500 30.43000
H  -6.17300 25.92000 30.44100
H  -4.96700 27.14600 30.20700
H  -5.91700 26.90700 32.59100
H  -4.13600 26.68600 32.45900
H  -7.70400 20.96100 27.80700
H  -6.31000 19.86600 27.41200
H  -7.65500 19.69600 26.47700
H  -8.60400 19.47600 24.50000
H  -7.10200 18.54900 24.45400
H  -8.08200 18.68300 23.03100
H  -5.61100 25.26200 20.84000
H  -2.76000 26.05200 20.94800
H  -3.32200 23.42600 20.42600
H  -3.65500 24.70400 19.33900
H  -4.90900 23.52800 19.57900
H  -3.73200 28.40100 21.54100
H  -5.30900 27.76500 21.59600
H  -5.45100 28.12800 19.42400
H  -4.01800 27.19200 18.96500
H  -3.79700 28.88700 19.48700
H  0.03800 29.71100 25.53600
H  -1.41800 30.45000 24.84600
H  -0.61200 29.28500 23.92900
H  -2.60200 28.00200 29.96100
H  0.71800 27.08000 32.61600
H  0.09900 25.51200 32.16500
H  -0.77200 26.45600 33.38700

