158

Mg 46.79300 15.81700 27.85900
C  44.48400 15.72800 30.70700
C  48.92700 17.60100 29.81800
C  48.62400 16.51100 25.13100
C  44.13800 14.72500 25.84600
N  46.57400 16.70300 29.97100
C  45.67800 16.46400 30.97400
C  46.11600 17.02700 32.32900
C  47.42000 17.83500 31.98900
C  47.70600 17.29900 30.50600
C  47.27800 19.35500 31.92500
C  46.28700 15.85400 33.35400
C  45.62200 15.97600 34.75900
H  45.63100 17.31400 35.34300
N  48.48900 16.90800 27.56700
C  49.31300 17.47300 28.53300
C  50.55400 18.05000 27.86600
C  50.40800 17.83100 26.47900
C  49.11300 16.98900 26.35400
C  51.66600 18.75900 28.59000
C  51.24200 18.36500 25.35500
O  50.88300 18.26000 24.21000
C  52.54700 19.16900 25.65900
N  46.39200 15.82600 25.74200
C  47.39100 15.96200 24.87500
C  46.94900 15.49200 23.46300
C  45.58800 14.78900 23.71600
C  45.30200 15.14100 25.16900
C  46.77700 16.75900 22.47300
C  45.45800 13.29600 23.49100
C  46.11800 12.36800 24.51900
N  44.76900 15.19100 28.17900
C  43.84300 14.84600 27.24900
C  42.60200 14.44700 27.90100
C  42.81000 14.66900 29.31600
C  44.09300 15.22100 29.37300
C  41.35800 13.84500 27.22200
C  42.27200 14.59200 30.65400
O  41.20900 14.13300 31.05600
C  43.31700 15.28800 31.61500
C  42.60600 16.43200 32.17300
O  42.70200 17.60100 31.84600
O  41.98100 15.99100 33.29800
C  41.55700 17.01400 34.18900
H  49.51900 18.27400 30.44200
H  49.25200 16.53800 24.23900
H  43.39600 14.26300 25.19200
H  45.27900 17.55500 32.78500
H  48.25000 17.61000 32.65900
H  46.47900 19.62500 32.61500
H  47.07500 19.62800 30.88900
H  48.22400 19.79000 32.24500
H  47.34300 15.75100 33.60500
H  45.87300 14.94700 32.91300
H  46.28700 15.35000 35.35400
H  44.59800 15.60900 34.81700
H  52.47500 18.02900 28.59600
H  51.40500 19.14600 29.57500
H  51.94300 19.63000 27.99600
H  53.19800 18.63900 26.35400
H  52.16700 20.11300 26.04900
H  53.05000 19.44200 24.73100
H  47.62700 14.75800 23.02600
H  44.81200 15.28000 23.12900
H  45.79700 16.85000 22.00400
H  47.46600 16.63000 21.63900
H  47.03900 17.69800 22.96000
H  46.11100 13.12900 22.63400
H  44.43300 13.00300 23.26500
H  46.56600 12.93600 25.33400
H  46.90700 11.75200 24.08900
H  45.40700 11.66100 24.94800
H  41.40200 14.19500 26.19100
H  40.43300 14.29900 27.57900
H  41.33400 12.75500 27.20900
H  43.58500 14.69600 32.49100
H  41.44400 16.68500 35.22200
H  40.61700 17.31900 33.73000
H  42.16700 17.89400 34.39800
Mg 26.94000 49.89000 26.69300
C  24.63900 51.26400 29.03100
C  29.01500 48.96800 29.31500
C  29.23400 48.91400 24.48600
C  25.10300 51.56700 24.14100
N  26.78900 50.08400 28.83700
C  25.73900 50.60700 29.59600
C  25.97800 50.32000 31.12500
C  27.51600 49.88100 31.12900
C  27.78700 49.63200 29.65500
C  28.47600 50.96100 31.80300
C  24.93100 49.26500 31.60600
C  24.52300 49.22300 33.08300
H  25.28700 49.97000 34.23500
N  28.88000 49.07500 26.86800
C  29.55600 48.76900 28.03600
C  30.81500 48.11800 27.60400
C  30.96500 48.27800 26.19100
C  29.65000 48.78900 25.76500
C  31.79300 47.41400 28.58800
C  32.13800 48.01000 25.17600
O  32.14400 48.29100 24.01200
C  33.37100 47.27800 25.82500
N  27.13800 50.20800 24.69200
C  28.02400 49.43000 23.96500
C  27.61100 49.32200 22.43800
C  26.48700 50.47500 22.40200
C  26.19500 50.73300 23.84000
C  28.63200 49.55200 21.36100
C  25.24200 50.02300 21.53900
C  24.60900 51.10900 20.68700
N  25.21100 51.20000 26.53700
C  24.61500 51.70000 25.48000
C  23.51000 52.54600 25.91500
C  23.46400 52.39000 27.32500
C  24.50100 51.53500 27.64700
C  22.67500 53.46700 25.08700
C  22.80900 52.74100 28.59500
O  21.80700 53.38400 28.73200
C  23.45300 51.87900 29.69800
C  23.86400 52.85100 30.77800
O  24.71000 53.73600 30.71900
O  23.14700 52.52000 31.95400
C  23.53500 53.41900 33.14100
H  29.57100 48.52500 30.14400
H  29.89900 48.42100 23.77300
H  24.73200 52.22500 23.35300
H  25.82900 51.26500 31.64700
H  27.76000 48.91100 31.56300
H  27.93800 51.87100 32.06700
H  29.24500 51.15200 31.05400
H  28.87700 50.50300 32.70700
H  25.24600 48.24600 31.38200
H  24.01000 49.35600 31.03000
H  24.65000 48.17000 33.33400
H  23.46500 49.48300 33.10600
H  31.61500 46.34600 28.46400
H  31.51000 47.47600 29.63900
H  32.81400 47.78200 28.48400
H  33.72900 47.97000 26.58700
H  34.17100 47.23000 25.08600
H  33.10300 46.33800 26.30600
H  27.12100 48.38800 22.16700
H  26.87000 51.41400 22.00300
H  29.54200 49.81200 21.90200
H  28.43000 50.31200 20.60700
H  28.78000 48.57700 20.89600
H  24.52900 49.50800 22.18400
H  25.54800 49.24700 20.83800
H  23.57200 51.20600 21.00800
H  24.64000 50.89400 19.61900
H  25.12300 52.05000 20.88400
H  22.04300 52.89300 24.40900
H  23.32400 54.16900 24.56300
H  22.05800 54.08400 25.74000
H  22.80400 51.15100 30.18500
H  23.28500 54.42200 32.79700
H  24.50100 53.16400 33.57800
H  22.77000 53.45100 33.91700

