158

Mg 25.47400 -0.20400 28.59500
C  27.53100 -0.22200 31.47900
C  22.79100 0.18600 30.74400
C  23.54000 -0.09700 25.92100
C  28.30500 -0.54900 26.60700
N  25.18400 -0.15000 30.85700
C  26.21400 -0.06800 31.82000
C  25.68200 0.08700 33.26000
C  24.14100 0.15600 33.00300
C  24.00100 0.07800 31.44200
C  23.34200 -0.93900 33.66900
C  26.20900 1.35600 34.06200
C  25.55500 1.60000 35.44400
H  26.45200 1.96500 36.61400
N  23.36900 -0.13800 28.42200
C  22.43400 -0.00300 29.42700
C  21.11900 0.08200 28.75900
C  21.32800 0.01800 27.37000
C  22.76900 -0.09800 27.19200
C  19.82100 0.33600 29.53400
C  20.35800 0.02600 26.19300
O  20.75600 -0.07800 25.05100
C  18.86700 0.24300 26.37400
N  25.83500 -0.46700 26.52400
C  24.86500 -0.26300 25.62500
C  25.53400 -0.06800 24.21100
C  27.05300 -0.11100 24.47700
C  27.07400 -0.50800 25.91900
C  24.98500 -1.09200 23.20300
C  27.76900 1.20400 24.28200
C  29.12200 1.33000 23.56700
N  27.50600 -0.45200 28.94900
C  28.57100 -0.58100 28.05400
C  29.78700 -0.75000 28.84300
C  29.42200 -0.60600 30.15100
C  27.98800 -0.42400 30.19000
C  31.18600 -0.90700 28.34200
C  29.95300 -0.54700 31.46100
O  31.09200 -0.61700 31.85700
C  28.73500 -0.27500 32.43900
C  28.61800 -1.14300 33.63300
O  28.46700 -2.35300 33.59600
O  28.97100 -0.51800 34.80900
C  28.81200 -1.28600 36.04400
H  21.91800 0.38800 31.36900
H  23.08900 0.02300 24.93400
H  29.29300 -0.45000 26.15500
H  25.93400 -0.86900 33.71800
H  23.78000 1.16400 33.20600
H  23.84500 -1.30200 34.56500
H  23.10800 -1.75100 32.98100
H  22.37900 -0.48300 33.90200
H  25.94600 2.21400 33.44400
H  27.29800 1.36400 34.10000
H  24.98400 0.72400 35.75300
H  24.78200 2.35700 35.31400
H  19.53100 1.38300 29.45300
H  19.72600 -0.02500 30.55800
H  19.03700 -0.22300 29.02200
H  18.42100 -0.42900 27.10700
H  18.42200 0.02700 25.40200
H  18.72200 1.24800 26.76900
H  25.25400 0.90700 23.81300
H  27.49600 -0.80400 23.76200
H  24.49800 -1.84600 23.82200
H  25.72900 -1.55300 22.55300
H  24.26900 -0.63100 22.52300
H  27.83600 1.74700 25.22500
H  27.11900 1.89100 23.74100
H  28.92100 1.66300 22.54900
H  29.57600 0.34500 23.46600
H  29.80700 2.00400 24.08200
H  31.21000 -0.57100 27.30500
H  31.59700 -1.91400 28.40100
H  31.75000 -0.27300 29.02700
H  28.91500 0.71400 32.86000
H  28.13000 -2.12900 35.93900
H  28.30500 -0.61100 36.73300
H  29.72800 -1.58000 36.55600
Mg 46.81200 34.86700 27.84200
C  45.09800 33.09000 30.21900
C  46.77500 37.59700 29.89100
C  47.61400 36.80100 25.25800
C  46.13900 32.17900 25.61200
N  46.28500 35.13400 29.88600
C  45.53700 34.30300 30.69200
C  45.56900 34.86300 32.12300
C  45.71900 36.36800 31.88700
C  46.41400 36.38600 30.52000
C  44.41200 37.14400 31.82200
C  46.83500 34.24600 32.84800
C  46.86000 34.21200 34.47400
H  45.88200 35.08600 35.23200
N  47.27300 36.81200 27.61500
C  47.28600 37.81700 28.59800
C  47.88400 39.03000 28.08200
C  48.15100 38.83400 26.75300
C  47.65700 37.46800 26.50600
C  48.24500 40.24800 28.92300
C  48.78600 39.75100 25.72600
O  48.97900 39.39800 24.52900
C  49.30500 41.09700 26.14000
N  46.95300 34.39500 25.83800
C  47.25500 35.45400 25.00200
C  47.34600 35.00500 23.51700
C  47.09000 33.44900 23.60800
C  46.66900 33.35700 25.07200
C  46.32100 35.63400 22.62300
C  48.32000 32.56100 23.18300
C  49.55500 32.58000 24.05300
N  45.91600 32.93800 27.93200
C  45.78500 31.93700 26.98200
C  45.10800 30.78700 27.59100
C  44.81300 31.18300 28.88900
C  45.32000 32.49400 29.04100
C  44.71600 29.51100 27.02400
C  44.22200 30.70500 30.08400
O  43.62000 29.64000 30.22500
C  44.13600 32.08700 30.93900
C  44.39000 31.65800 32.38300
O  45.35700 31.09300 32.82900
O  43.33700 32.06400 33.15300
C  43.46200 31.64700 34.58600
H  46.88300 38.44600 30.56900
H  47.89300 37.44000 24.41800
H  45.96700 31.34400 24.92900
H  44.65600 34.72000 32.70000
H  46.18200 36.88800 32.72600
H  43.61600 36.47000 32.13800
H  44.26700 37.53700 30.81500
H  44.42800 37.95200 32.55400
H  47.69300 34.91000 32.74700
H  47.03000 33.23300 32.49800
H  47.85000 34.54600 34.78500
H  46.87700 33.16800 34.78900
H  47.53400 41.05700 28.75500
H  49.22100 40.70300 28.76100
H  48.21300 39.94700 29.97000
H  49.78700 41.63000 25.32000
H  50.11400 40.98800 26.86200
H  48.46600 41.71400 26.46300
H  48.34500 35.20300 23.12600
H  46.24000 33.09300 23.02600
H  45.61500 36.29400 23.12800
H  45.71700 34.87500 22.12600
H  46.83700 36.21000 21.85500
H  48.66000 32.58000 22.14700
H  48.07200 31.53400 23.45100
H  49.71600 33.58900 24.43200
H  50.49700 32.38600 23.54000
H  49.45400 31.90500 24.90300
H  43.99500 29.66600 26.22200
H  44.34100 28.81400 27.77400
H  45.54700 29.02200 26.51500
H  43.16400 32.58100 30.92300
H  42.56400 32.08500 35.02100
H  44.34500 32.14200 34.98800
H  43.53400 30.59600 34.86600

