158

Mg 24.31700 -5.50500 45.94000
C  26.60700 -3.24700 44.48700
C  21.99100 -4.15200 43.85500
C  22.69000 -8.28800 46.21900
C  27.17300 -7.09500 47.43100
N  24.34400 -4.01200 44.32900
C  25.30600 -3.10700 44.00600
C  24.79500 -2.04100 43.03100
C  23.32600 -2.08600 43.30100
C  23.19400 -3.52600 43.81500
C  22.79800 -1.07800 44.22900
C  25.17000 -2.34900 41.59300
C  25.05000 -1.23400 40.58000
H  25.10300 -1.45900 39.08800
N  22.56300 -6.14600 45.19300
C  21.70300 -5.41300 44.44200
C  20.38300 -6.04600 44.44600
C  20.55500 -7.30700 45.06600
C  21.98600 -7.35400 45.57700
C  19.15100 -5.35700 44.10000
C  19.53200 -8.31200 45.30500
O  18.39800 -8.17200 44.78300
C  19.69400 -9.57200 46.23300
N  24.72400 -7.30900 46.96500
C  23.90800 -8.35900 46.83400
C  24.45100 -9.65500 47.34300
C  25.83100 -9.24500 47.88600
C  25.95400 -7.77700 47.53400
C  23.44800 -10.32700 48.33100
C  27.04000 -10.12100 47.35300
C  28.24300 -10.27700 48.30200
N  26.42700 -5.12100 46.14800
C  27.38300 -5.81600 46.77500
C  28.66800 -5.13000 46.70600
C  28.44100 -4.06100 45.81100
C  27.05900 -4.16400 45.51400
C  29.97900 -5.61900 47.29900
C  29.04400 -3.01100 44.96700
O  30.17300 -2.58600 44.78300
C  27.86000 -2.45500 44.12500
C  27.81000 -0.96800 44.31400
O  27.38700 -0.48700 45.35400
O  27.95400 -0.29300 43.14800
C  27.47100 1.10400 43.14800
H  21.05200 -3.77900 43.44100
H  22.17500 -9.25200 46.21800
H  28.00200 -7.66700 47.85200
H  25.09100 -0.99600 43.12400
H  22.75400 -1.93100 42.38600
H  23.56500 -0.50100 44.74600
H  22.14700 -1.45200 45.01900
H  22.11200 -0.45400 43.65700
H  24.43400 -3.06300 41.22500
H  26.19500 -2.70900 41.50200
H  25.83600 -0.50600 40.77900
H  24.09300 -0.74700 40.76700
H  18.25700 -5.67500 44.63600
H  19.09800 -5.44500 43.01500
H  19.17600 -4.30000 44.36300
H  18.66900 -9.92600 46.34800
H  20.13400 -9.18400 47.15200
H  20.40400 -10.33100 45.90700
H  24.50600 -10.40600 46.55600
H  25.77300 -9.31100 48.97200
H  22.91100 -11.15400 47.86700
H  22.68400 -9.62300 48.66000
H  24.06800 -10.83600 49.06900
H  27.39800 -9.65000 46.43700
H  26.51300 -11.05400 47.15200
H  28.41700 -11.33000 48.52200
H  28.12900 -9.69500 49.21700
H  29.07100 -9.85200 47.73600
H  30.68600 -4.79600 47.40700
H  30.47600 -6.33500 46.64500
H  29.70000 -6.00100 48.28100
H  28.14800 -2.65300 43.09300
H  28.11000 1.44200 42.33200
H  27.66900 1.70700 44.03400
H  26.43300 1.19300 42.82600
Mg 16.83700 53.02800 26.71600
C  18.85000 51.22600 28.89500
C  14.49700 53.52200 29.08400
C  14.66700 54.26000 24.28000
C  18.82500 51.83900 24.11000
N  16.76800 52.54400 28.77300
C  17.70400 51.79800 29.43500
C  17.34400 51.94400 30.93400
C  15.81600 52.46300 30.96500
C  15.69400 52.86000 29.51900
C  14.82500 51.28600 31.27300
C  18.29100 52.97600 31.61600
C  18.68300 52.59700 33.07600
H  17.57000 52.14400 34.01700
N  15.05800 54.00200 26.72700
C  14.23600 54.18500 27.84700
C  13.01500 54.93100 27.52900
C  13.08900 55.17300 26.15200
C  14.33600 54.47800 25.62600
C  11.99400 55.34500 28.55700
C  12.04500 55.89300 25.23300
O  12.10000 55.81900 24.04600
C  10.81600 56.65100 25.75300
N  16.75800 53.01100 24.53800
C  15.77600 53.58600 23.78900
C  16.13800 53.63300 22.30000
C  17.62700 53.15300 22.28500
C  17.73700 52.57400 23.68500
C  15.22200 52.67100 21.37600
C  18.71700 54.26700 21.90900
C  19.17500 54.20600 20.44300
N  18.57500 51.89600 26.51000
C  19.26400 51.45700 25.38000
C  20.51700 50.90400 25.86000
C  20.42600 50.73200 27.19200
C  19.15700 51.28300 27.54100
C  21.70000 50.55400 24.91600
C  21.06500 50.18400 28.40900
O  22.13400 49.62700 28.49900
C  20.08900 50.63200 29.57600
C  19.64000 49.32800 30.23900
O  19.11200 48.36600 29.72900
O  19.84500 49.50700 31.60600
C  19.42500 48.30900 32.35500
H  13.72500 53.54100 29.85700
H  14.01300 54.60400 23.47600
H  19.59400 51.58400 23.37800
H  17.49300 50.95300 31.36200
H  15.74500 53.32200 31.63300
H  13.98600 51.73700 31.80300
H  15.28900 50.68500 32.05500
H  14.51600 50.73800 30.38300
H  17.87400 53.98100 31.56500
H  19.24200 52.92300 31.08600
H  19.07200 53.52900 33.48400
H  19.51400 51.89100 33.08100
H  12.23800 54.79100 29.46400
H  10.98600 55.14700 28.19300
H  12.12000 56.40600 28.77000
H  11.18300 57.44900 26.39900
H  10.10600 55.95900 26.20800
H  10.29700 57.07700 24.89400
H  16.12500 54.65800 21.92800
H  17.83100 52.32100 21.61200
H  14.20400 52.70000 21.76500
H  15.54300 51.62900 21.37600
H  15.11300 52.89900 20.31600
H  19.54100 54.22800 22.62200
H  18.23100 55.23900 21.99300
H  18.52700 53.67500 19.74600
H  20.06200 53.57200 20.44900
H  19.27800 55.23100 20.08700
H  21.70500 51.28900 24.11100
H  21.63500 49.59500 24.40300
H  22.60500 50.58200 25.52300
H  20.52700 51.26100 30.35100
H  19.70300 48.40200 33.40500
H  19.84000 47.39200 31.93600
H  18.33600 48.35400 32.36100

