158

Mg 35.88500 1.10700 29.78400
C  33.61100 2.00500 32.37000
C  38.39300 0.90500 32.07600
C  37.99500 0.45300 27.20200
C  33.21700 1.57300 27.53000
N  35.99300 1.48000 31.92600
C  34.91400 1.75600 32.87700
C  35.36000 1.72100 34.31600
C  36.90400 1.66300 34.09800
C  37.09400 1.39200 32.60200
C  37.60400 2.96400 34.47900
C  34.84100 0.46900 35.03300
C  34.04400 0.74200 36.28200
H  34.47900 1.84400 37.18900
N  37.83300 0.58700 29.66400
C  38.72600 0.52500 30.73800
C  40.00300 0.09100 30.27500
C  39.94400 0.01400 28.87400
C  38.57500 0.35200 28.46600
C  41.14700 -0.17200 31.23900
C  41.03700 -0.24100 27.86500
O  40.87200 -0.12000 26.65600
C  42.39000 -0.74700 28.36900
N  35.69600 1.21100 27.73600
C  36.72800 0.85300 26.85800
C  36.29700 0.75900 25.38700
C  34.74700 0.92000 25.49000
C  34.53200 1.29800 26.95900
C  36.96000 1.78600 24.40200
C  33.91100 -0.28900 24.93800
C  33.67400 -1.43600 25.97400
N  33.82100 1.74600 29.83300
C  32.87600 1.84300 28.87300
C  31.62400 2.27700 29.46000
C  31.86900 2.38100 30.80200
C  33.20200 2.03500 31.02800
C  30.32900 2.49300 28.82500
C  31.23600 2.66500 32.10100
O  30.05900 2.94400 32.33200
C  32.37800 2.39400 33.12900
C  32.51300 3.68000 33.79200
O  32.89300 4.67900 33.23200
O  31.90200 3.64400 35.02400
C  31.79600 4.94400 35.70600
H  39.19500 0.75000 32.80100
H  38.64600 0.12100 26.39000
H  32.38600 1.55300 26.82200
H  35.01100 2.64900 34.76900
H  37.44900 0.93400 34.69800
H  38.67900 2.90300 34.30700
H  37.29200 3.32700 35.45800
H  37.29300 3.58400 33.63800
H  35.64500 -0.14200 35.44300
H  34.35200 -0.23100 34.35500
H  33.94800 -0.14000 36.91500
H  33.02100 0.90900 35.94500
H  40.81100 -0.62800 32.17000
H  41.54100 0.79700 31.54600
H  41.93200 -0.78200 30.79200
H  42.25600 -1.64800 28.96800
H  42.89100 0.00500 28.97800
H  43.05000 -0.82900 27.50600
H  36.55800 -0.27900 25.18100
H  34.31700 1.80100 25.01300
H  36.22300 2.44700 23.94400
H  37.47300 1.15700 23.67600
H  37.69300 2.38800 24.93900
H  34.58500 -0.54400 24.12100
H  33.00300 0.11700 24.49100
H  34.06500 -1.27100 26.97700
H  34.19600 -2.30700 25.57800
H  32.62200 -1.71500 26.03800
H  30.09700 3.55600 28.76300
H  29.59200 1.99600 29.45500
H  30.43800 2.06400 27.82900
H  32.13300 1.58800 33.82100
H  32.83200 5.25100 35.84900
H  31.28400 4.85100 36.66400
H  31.25200 5.71800 35.16400
Mg 9.15300 47.57700 25.32500
C  7.06100 47.40500 28.17700
C  11.63500 48.96500 27.09100
C  10.99200 47.43100 22.64000
C  6.22700 46.93100 23.42200
N  9.28300 48.08000 27.38400
C  8.34600 47.96100 28.41600
C  8.90500 48.58300 29.73200
C  10.26100 49.23200 29.26300
C  10.40000 48.76100 27.76800
C  10.21700 50.81400 29.19700
C  9.03800 47.58500 30.96700
C  8.43600 48.14400 32.27800
H  7.97500 47.35200 33.54500
N  11.08700 47.97100 24.96000
C  12.00000 48.57200 25.82500
C  13.32200 48.60200 25.20400
C  13.15200 48.04500 23.91300
C  11.67600 47.77600 23.79400
C  14.63600 48.92800 26.03100
C  14.19200 47.73400 22.86200
O  13.92500 47.25600 21.74500
C  15.60200 47.95600 23.15300
N  8.67000 47.40500 23.27900
C  9.64600 47.28000 22.42900
C  9.12500 46.73000 21.09100
C  7.63400 46.29700 21.38300
C  7.44400 46.92900 22.79400
C  9.35500 47.77800 19.91800
C  7.38900 44.72300 21.34000
C  8.47400 43.75700 21.94100
N  7.03000 47.29500 25.68200
C  6.05400 47.03500 24.76200
C  4.80100 46.81500 25.46400
C  5.09200 46.99700 26.82100
C  6.49400 47.26200 26.87600
C  3.44700 46.67200 24.96100
C  4.60700 47.02200 28.22900
O  3.51100 46.79700 28.69900
C  5.89400 47.18600 29.12500
C  5.97300 45.90900 29.87600
O  6.63600 44.94800 29.58500
O  5.16200 45.97500 30.94800
C  4.88500 44.83500 31.91200
H  12.28400 49.63400 27.66000
H  11.62100 47.18700 21.78200
H  5.42500 46.55300 22.78400
H  8.27700 49.43400 29.99500
H  11.17200 48.89800 29.76000
H  11.14100 51.17100 28.74100
H  10.25700 51.21600 30.20900
H  9.31200 51.20900 28.73700
H  10.12000 47.48100 31.05300
H  8.71000 46.56500 30.76600
H  7.43300 48.45900 31.99000
H  8.90800 49.11500 32.42800
H  14.31500 49.28000 27.01200
H  15.11800 49.79200 25.57300
H  15.24200 48.02700 26.11500
H  15.91500 47.39400 24.03200
H  15.66600 48.98300 23.51400
H  16.17800 47.84100 22.23500
H  9.67200 45.87200 20.69900
H  6.99100 46.71000 20.60600
H  8.44500 47.92300 19.33600
H  10.09900 47.43000 19.20100
H  9.73200 48.72800 20.29400
H  7.14800 44.35500 20.34200
H  6.53300 44.53800 21.99000
H  8.03500 43.09500 22.68700
H  9.35900 44.18000 22.41600
H  8.99100 43.22600 21.14200
H  3.43900 46.27200 23.94700
H  3.10900 47.70800 24.97700
H  2.80900 46.11400 25.64600
H  5.79000 47.97700 29.86700
H  3.79900 44.75300 31.91400
H  5.35500 45.02200 32.87800
H  5.27800 43.88200 31.55900

