158

Mg 30.12800 58.02600 40.53600
C  27.11400 56.28500 39.87300
C  31.89300 55.33000 39.43500
C  32.86800 59.99900 40.09100
C  28.17300 60.87600 41.20900
N  29.47600 56.06500 39.65400
C  28.19500 55.49500 39.56700
C  28.32500 54.02800 39.22400
C  29.87400 53.82100 39.07000
C  30.47100 55.15400 39.48900
C  30.41100 52.56300 39.83400
C  27.40400 53.51600 38.06400
C  27.19500 54.33100 36.81500
H  27.97400 54.07500 35.50900
N  32.13700 57.67700 40.15000
C  32.61300 56.48000 39.68500
C  34.06000 56.53000 39.65900
C  34.36800 57.90500 39.80600
C  33.09800 58.61700 39.97200
C  34.95300 55.43800 39.28100
C  35.73700 58.51300 39.56700
O  36.72000 57.83300 39.35000
C  35.92500 60.03100 39.70200
N  30.47500 60.16200 40.59800
C  31.70800 60.72700 40.45800
C  31.66800 62.26900 40.63100
C  30.16500 62.49700 41.04700
C  29.54100 61.11500 40.92200
C  32.73000 62.79100 41.70600
C  29.36400 63.51700 40.15700
C  28.44700 64.50300 40.99900
N  28.04900 58.54700 40.70800
C  27.45000 59.72400 40.99000
C  26.00300 59.53200 40.97000
C  25.81700 58.24800 40.53300
C  27.09300 57.64900 40.33200
C  25.01600 60.62300 41.33800
C  24.81300 57.24400 40.12100
O  23.61300 57.29500 40.20900
C  25.60700 55.93500 39.79100
C  25.30500 54.81500 40.73600
O  25.95100 54.48200 41.66000
O  24.12300 54.22600 40.23300
C  23.70500 52.98800 40.96200
H  32.53800 54.46900 39.24700
H  33.63200 60.77100 40.20000
H  27.47900 61.65400 41.53500
H  28.01200 53.46800 40.10500
H  30.12000 53.63000 38.02500
H  31.39700 52.21900 39.52300
H  29.70900 51.77800 39.55200
H  30.49300 52.72800 40.90800
H  26.39000 53.44600 38.45800
H  27.68200 52.50500 37.76500
H  27.26700 55.38400 37.08900
H  26.19300 54.17200 36.41600
H  35.64600 55.81500 38.52900
H  34.55400 54.58600 38.73100
H  35.55000 55.21100 40.16400
H  35.57600 60.35800 40.68100
H  35.32300 60.34200 38.84900
H  36.97200 60.33200 39.65100
H  31.79400 62.79300 39.68400
H  30.20700 62.79600 42.09400
H  33.18500 61.94800 42.22700
H  32.29300 63.41000 42.49000
H  33.53200 63.31100 41.18300
H  28.80100 63.00400 39.37700
H  30.08800 64.19900 39.71200
H  28.68400 65.56300 41.09800
H  28.46100 64.30700 42.07100
H  27.39800 64.45000 40.71000
H  25.44800 61.51200 41.79600
H  24.43700 60.11400 42.10900
H  24.43500 60.95700 40.47800
H  25.44200 55.69300 38.74100
H  22.70800 52.66600 40.66400
H  23.79200 53.06100 42.04700
H  24.52600 52.28400 40.82800
Mg 6.49000 53.12200 41.01400
C  6.15000 49.71000 41.20000
C  9.76500 52.91600 40.39400
C  6.52600 56.60200 40.89800
C  3.01800 53.46400 41.27200
N  7.74800 51.45400 40.53800
C  7.45100 50.16000 40.81400
C  8.68900 49.37200 40.55000
C  9.81700 50.42900 40.80100
C  9.12700 51.70900 40.59500
C  10.64000 50.25800 42.06200
C  8.94100 48.52100 39.22900
C  8.89900 49.28600 37.89200
H  7.88800 48.83200 36.77200
N  7.88500 54.50900 40.53700
C  9.23400 54.23800 40.26900
C  9.90500 55.46300 39.97800
C  8.93500 56.48900 40.09700
C  7.71000 55.88900 40.58400
C  11.30200 55.41300 39.46900
C  9.23200 57.93400 39.79200
O  10.34800 58.27900 39.56900
C  8.12300 58.91400 39.62400
N  4.90600 54.85200 40.99800
C  5.22600 56.14400 41.08300
C  3.97600 57.01700 41.26800
C  2.84400 55.97500 41.08100
C  3.66300 54.69600 41.08800
C  4.04600 57.77400 42.65200
C  1.98600 56.07200 39.83300
C  0.41300 55.89800 39.98200
N  4.86800 51.94100 41.34200
C  3.47700 52.21900 41.45000
C  2.80200 50.86700 41.63500
C  3.83700 49.91000 41.64400
C  5.03300 50.59600 41.42600
C  1.29200 50.58100 41.83200
C  4.10400 48.54100 41.87700
O  3.34600 47.64200 42.26800
C  5.56800 48.28300 41.49900
C  5.58500 47.43000 40.37500
O  5.03400 47.68800 39.28400
O  6.20800 46.20200 40.69600
C  5.74300 45.08700 39.81300
H  10.82800 52.76400 40.19700
H  6.59300 57.69000 40.96100
H  1.94300 53.58200 41.42600
H  8.72200 48.62400 41.34300
H  10.66600 50.33400 40.12300
H  11.68000 50.54100 41.89700
H  10.53500 49.22000 42.37800
H  10.29200 50.95400 42.82500
H  8.11300 47.81200 39.22300
H  9.77700 47.82500 39.30600
H  9.87500 49.31700 37.40800
H  8.64700 50.33100 38.06900
H  12.12200 55.51800 40.17900
H  11.46400 56.18900 38.72100
H  11.48800 54.46600 38.96300
H  7.27700 58.56300 39.03400
H  8.47600 59.62700 38.87900
H  7.78600 59.46500 40.50200
H  3.99800 57.72900 40.44200
H  2.14800 56.02200 41.91900
H  3.44000 58.67400 42.54700
H  5.08200 57.99000 42.91500
H  3.57800 57.09700 43.36700
H  2.35600 55.49200 38.98700
H  2.13000 57.10900 39.52900
H  0.01800 56.70600 39.36600
H  -0.05000 56.01200 40.96200
H  0.00800 55.02100 39.47600
H  0.92800 50.53200 40.80500
H  0.77000 51.42000 42.29200
H  1.05800 49.66800 42.37900
H  5.88200 47.74000 42.39100
H  6.23800 45.10800 38.84200
H  4.65700 45.13600 39.73100
H  5.99900 44.06800 40.10400

