158

Mg -2.19100 17.42800 26.10100
C  -2.54500 15.48900 28.92900
C  -3.26100 20.13100 27.94000
C  -2.36900 19.24400 23.24400
C  -1.90500 14.49600 24.19800
N  -2.72800 17.77100 28.24300
C  -2.83200 16.79700 29.20700
C  -3.22100 17.34400 30.59000
C  -3.72600 18.80200 30.13000
C  -3.27800 18.94500 28.67000
C  -5.29100 18.99100 30.28800
C  -2.02300 17.53600 31.59200
C  -2.47000 18.22600 32.88100
H  -2.40200 17.30300 34.20700
N  -2.42500 19.49800 25.68500
C  -2.76900 20.44700 26.58700
C  -2.53700 21.69800 25.89400
C  -2.39200 21.45600 24.52400
C  -2.48500 19.99600 24.45600
C  -2.77700 23.05400 26.54700
C  -2.09500 22.39700 23.32300
O  -2.09000 22.09300 22.13900
C  -1.70100 23.82100 23.62200
N  -2.10200 16.92100 23.98000
C  -2.21200 17.86800 22.98800
C  -2.23100 17.25700 21.58800
C  -2.06600 15.68400 21.97200
C  -1.97000 15.69000 23.45400
C  -3.42200 17.59100 20.63500
C  -0.90100 15.02400 21.27900
C  0.40600 14.96700 21.91800
N  -2.31800 15.47600 26.47000
C  -2.02700 14.40600 25.56800
C  -2.10800 13.19300 26.31900
C  -2.27100 13.51700 27.68200
C  -2.37600 14.93200 27.68200
C  -1.92400 11.74900 25.81900
C  -2.38900 12.99500 29.01300
O  -2.37500 11.87700 29.46500
C  -2.49300 14.25600 29.91600
C  -1.24100 14.21400 30.70000
O  -0.19900 14.62800 30.19000
O  -1.45000 13.86800 32.02000
C  -0.29400 13.98100 32.92100
H  -3.35900 21.01700 28.57100
H  -2.19500 19.82000 22.33300
H  -1.83500 13.56000 23.64000
H  -3.97800 16.66900 30.99000
H  -3.41100 19.70400 30.65600
H  -5.73600 19.36700 29.36700
H  -5.49200 19.60000 31.17000
H  -5.93600 18.12300 30.43100
H  -1.34800 18.18100 31.03000
H  -1.38200 16.67900 31.80100
H  -3.51500 18.53300 32.84100
H  -2.00700 19.21100 32.92600
H  -3.16700 23.05000 27.56500
H  -3.53500 23.60200 25.98800
H  -1.82900 23.59300 26.53300
H  -1.02500 23.83800 24.47700
H  -2.67900 24.25800 23.82200
H  -1.17600 24.26300 22.77500
H  -1.27700 17.58500 21.17500
H  -2.98700 15.16100 21.71400
H  -3.92100 18.44600 21.09200
H  -4.13700 16.77100 20.70300
H  -3.13000 17.73700 19.59500
H  -0.64000 15.49200 20.32900
H  -1.11900 13.96900 21.11100
H  0.57000 13.96500 22.31500
H  0.44000 15.71900 22.70600
H  1.24000 15.20500 21.25800
H  -2.88300 11.23600 25.89800
H  -1.20500 11.27200 26.48500
H  -1.58900 11.60300 24.79200
H  -3.32100 14.31600 30.62200
H  0.24200 14.89900 32.67600
H  0.31500 13.07900 32.86600
H  -0.63300 14.01100 33.95600
Mg 47.20100 24.37900 27.59900
C  47.49600 26.56400 30.20100
C  46.59300 21.89000 29.95600
C  46.86200 22.22600 25.11800
C  48.13900 26.79900 25.40200
N  46.94400 24.26400 29.84100
C  47.11000 25.28600 30.66400
C  46.76500 24.84300 32.07100
C  46.51900 23.30000 32.01100
C  46.79300 23.14200 30.52800
C  47.30100 22.24200 32.89900
C  45.66900 25.67300 32.70100
C  45.20000 25.23600 34.05100
H  45.16800 26.30900 35.17200
N  46.65400 22.27800 27.54400
C  46.48100 21.46500 28.61300
C  46.04800 20.15400 28.15700
C  46.18000 20.19300 26.69800
C  46.60900 21.58900 26.37000
C  45.51900 19.11500 29.03100
C  45.89500 19.10100 25.70600
O  46.09100 19.24500 24.49200
C  45.21500 17.74000 26.20300
N  47.37700 24.49900 25.54900
C  47.14800 23.49200 24.71900
C  47.37200 23.92700 23.21200
C  47.51300 25.48600 23.30400
C  47.65800 25.64200 24.84500
C  48.54900 23.31100 22.43000
C  46.21300 26.12700 22.82700
C  44.92300 26.03800 23.63300
N  47.79000 26.28200 27.71300
C  48.20200 27.14700 26.74700
C  48.68400 28.39600 27.38800
C  48.30000 28.23300 28.73700
C  47.83200 26.93500 28.86400
C  49.27700 29.57300 26.76400
C  48.33400 28.85400 29.95200
O  48.70400 29.96900 30.27200
C  47.69800 27.86200 30.93400
C  48.51900 27.64500 32.23400
O  49.61400 27.08400 32.40100
O  47.82400 28.26000 33.18600
C  48.37300 28.31400 34.53200
H  46.21900 21.09800 30.60800
H  46.71600 21.56500 24.26100
H  48.28800 27.58600 24.65900
H  47.60600 24.95300 32.75600
H  45.46300 23.16300 32.24100
H  46.65600 21.45200 33.28200
H  47.69300 22.71800 33.79800
H  48.09100 21.74200 32.33900
H  44.77100 25.45400 32.12400
H  45.79200 26.75600 32.73000
H  45.73500 24.32100 34.30500
H  44.16900 24.92000 33.88600
H  46.38800 18.53300 29.33700
H  44.69200 18.52200 28.64100
H  45.11300 19.44400 29.98700
H  45.82900 17.24900 26.95800
H  45.24800 17.14100 25.29300
H  44.18000 17.83000 26.53100
H  46.39600 23.64300 22.81800
H  48.42900 25.91200 22.89500
H  49.24600 24.11200 22.18400
H  48.33900 22.86500 21.45800
H  49.01500 22.53500 23.03800
H  46.11000 25.79000 21.79600
H  46.38200 27.17300 22.56800
H  44.17200 25.88300 22.85800
H  44.78100 26.96500 24.18900
H  45.02900 25.18500 24.30300
H  48.88300 29.64200 25.75100
H  50.33600 29.32100 26.80700
H  48.94400 30.46700 27.29100
H  46.73800 28.34000 31.12900
H  47.46500 28.31100 35.13500
H  48.86000 29.27100 34.71900
H  48.99000 27.42900 34.68900

