158

Mg 0.24700 8.38600 27.71900
C  0.88400 10.45800 30.52800
C  -0.15700 5.75300 29.73000
C  -0.08000 6.58000 24.88600
C  1.04100 11.23000 25.64200
N  0.57200 8.11300 29.88600
C  0.67800 9.05200 30.82900
C  0.28500 8.53700 32.23900
C  0.32500 6.96100 31.96000
C  0.26500 6.90700 30.48300
C  1.49100 6.16500 32.56400
C  -0.99300 9.04400 32.80500
C  -1.00300 9.32200 34.29600
H  -0.02000 8.49800 35.17300
N  -0.12900 6.46700 27.38500
C  -0.34400 5.54200 28.31700
C  -0.87800 4.34000 27.78300
C  -0.83600 4.54900 26.37400
C  -0.29200 5.91700 26.11200
C  -1.29200 3.12400 28.62000
C  -1.34900 3.60500 25.23500
O  -1.20900 3.82900 23.99200
C  -2.08600 2.41600 25.68000
N  0.38400 8.76800 25.66200
C  0.29900 7.86300 24.68100
C  0.75700 8.38500 23.34700
C  0.76300 9.94100 23.55800
C  0.74700 9.99100 25.06000
C  2.06300 7.75700 22.71300
C  -0.42200 10.66200 22.98700
C  -1.84100 10.27000 23.50800
N  0.90700 10.46300 27.97900
C  1.10300 11.43800 27.06000
C  1.31800 12.72900 27.77000
C  1.14900 12.39500 29.13400
C  1.00400 11.01900 29.16300
C  1.58500 14.10000 27.21700
C  1.14100 12.89100 30.43800
O  1.23300 14.00000 30.90500
C  0.85000 11.66900 31.33700
C  1.82000 11.64800 32.46700
O  3.04500 11.41500 32.29900
O  1.25400 12.14800 33.68400
C  2.07100 12.06000 34.88800
H  -0.47600 4.96900 30.42100
H  -0.05300 6.01700 23.95100
H  1.23100 12.12200 25.04100
H  1.12100 8.61800 32.93300
H  -0.59200 6.56000 32.39200
H  2.10400 5.74900 31.76500
H  1.08200 5.28000 33.05200
H  2.14800 6.76600 33.19400
H  -1.81500 8.33900 32.67700
H  -1.16300 9.97600 32.26600
H  -2.02700 9.20000 34.64900
H  -0.67500 10.31100 34.61500
H  -0.71200 2.32500 28.15900
H  -2.36900 2.98500 28.52400
H  -1.00300 3.14900 29.67100
H  -1.54000 1.60400 26.16000
H  -2.67300 2.06400 24.83200
H  -2.85800 2.67100 26.40600
H  -0.09300 8.28800 22.67200
H  1.68100 10.40600 23.19800
H  3.01400 8.28700 22.76300
H  1.74300 7.41300 21.72900
H  2.28600 6.88500 23.32800
H  -0.38400 10.64000 21.89800
H  -0.24900 11.71100 23.23000
H  -2.36300 11.15300 23.87600
H  -1.93400 9.59200 24.35600
H  -2.45800 9.86700 22.70500
H  2.51000 14.15800 26.64300
H  1.57500 14.78000 28.06900
H  0.81700 14.38700 26.49900
H  -0.09700 11.65000 31.87800
H  2.33400 12.98200 35.40700
H  3.06800 11.65300 34.71800
H  1.48400 11.56400 35.66100
Mg 54.06200 24.59400 44.20300
C  51.64900 26.95500 43.41000
C  51.86000 22.17300 43.16200
C  56.66500 22.28700 44.10400
C  56.32400 27.16600 44.67000
N  52.08100 24.57700 43.28900
C  51.24400 25.61400 43.11400
C  49.91900 25.21900 42.48000
C  49.88600 23.75000 42.96200
C  51.40600 23.45800 43.16400
C  49.13600 23.48400 44.32400
C  49.90600 25.38700 40.93600
C  48.56100 25.64600 40.28300
H  48.36500 25.39900 38.83600
N  54.22900 22.47500 43.74500
C  53.18500 21.68000 43.29100
C  53.66500 20.35900 42.97200
C  55.08700 20.35300 43.12800
C  55.42600 21.70200 43.72900
C  52.77200 19.22000 42.41200
C  56.06100 19.23600 42.80800
O  55.67100 18.21800 42.23700
C  57.52400 19.34500 43.04500
N  56.19500 24.70100 44.49100
C  57.02700 23.61800 44.43800
C  58.47400 24.13700 44.75400
C  58.34600 25.68800 44.73400
C  56.85700 25.86800 44.67500
C  59.01000 23.46100 46.02700
C  59.17500 26.50600 43.71700
C  58.83500 26.49100 42.26400
N  54.07100 26.65400 44.15300
C  54.98300 27.56800 44.35300
C  54.41200 28.94100 44.34100
C  53.07100 28.70200 44.02800
C  52.91800 27.32700 43.82700
C  55.06100 30.24200 44.59600
C  51.80000 29.34900 43.76100
O  51.52700 30.52400 43.94600
C  50.83300 28.24100 43.22300
C  50.69300 28.64900 41.85000
O  51.54000 28.52900 40.99500
O  49.51100 29.23700 41.71100
C  49.10800 29.60700 40.31900
H  51.07300 21.46300 42.89900
H  57.48100 21.56800 44.20400
H  57.00200 27.98200 44.93000
H  49.03500 25.75800 42.82000
H  49.54600 23.05700 42.19200
H  48.23100 22.90400 44.14000
H  48.91100 24.44000 44.79600
H  49.77600 22.86500 44.95200
H  50.19100 24.43500 40.48900
H  50.58700 26.06900 40.42600
H  48.36300 26.70300 40.46000
H  47.79600 25.10200 40.83700
H  52.92500 19.01700 41.35200
H  51.73400 19.54900 42.45500
H  53.01600 18.25400 42.85400
H  57.99800 20.20600 42.57400
H  57.95400 18.43800 42.62200
H  57.71500 19.28700 44.11700
H  59.18900 23.87600 43.97400
H  58.78300 26.07300 45.65500
H  58.37400 22.59500 46.20900
H  58.94100 24.23300 46.79400
H  60.02200 23.06000 45.97100
H  60.13500 25.99600 43.79100
H  59.22200 27.50300 44.15400
H  58.53000 25.48900 41.96200
H  59.74200 26.88100 41.80100
H  58.01100 27.18800 42.11200
H  55.95500 30.29500 43.97600
H  55.39300 30.39600 45.62300
H  54.46600 31.10500 44.29600
H  49.86800 28.17200 43.72400
H  48.74500 30.63400 40.36700
H  48.31300 28.95100 39.96600
H  49.90000 29.47300 39.58200

