158

Mg 39.76200 8.76300 29.20900
C  41.66100 10.01200 31.89900
C  37.76200 7.17100 31.36400
C  38.03800 7.48600 26.53800
C  42.23100 9.87900 27.05100
N  39.65300 8.58600 31.40500
C  40.53500 9.28900 32.28100
C  39.97700 9.09700 33.73800
C  38.67500 8.19800 33.52900
C  38.72000 7.89300 32.07000
C  38.53500 6.94800 34.42300
C  39.75400 10.43400 34.44500
C  38.82700 10.59300 35.62600
H  39.27100 11.37300 36.91800
N  38.06000 7.57000 28.98200
C  37.40100 6.96200 30.02300
C  36.23600 6.24600 29.48400
C  36.23500 6.42100 28.10500
C  37.48000 7.22100 27.83000
C  35.26300 5.53700 30.50700
C  35.19900 5.77400 27.18900
O  35.40900 5.76900 26.01600
C  34.05100 5.01000 27.58900
N  40.18600 8.55100 27.14600
C  39.25700 8.13500 26.23700
C  39.78000 8.37800 24.77000
C  40.81400 9.40300 24.97400
C  41.10900 9.33000 26.47400
C  40.40300 7.13700 24.09200
C  40.38800 10.87000 24.59000
C  38.91500 11.26100 24.66600
N  41.67800 9.63400 29.35100
C  42.54700 9.96300 28.43300
C  43.74500 10.47800 29.06600
C  43.49400 10.58200 30.42200
C  42.15300 10.03500 30.56400
C  44.87800 11.05600 28.22000
C  43.88100 11.07100 31.66800
O  44.84000 11.71800 31.97300
C  42.75300 10.70700 32.72900
C  43.40100 9.95500 33.80800
O  43.72700 8.77900 33.65700
O  43.62100 10.83500 34.81700
C  44.38200 10.29300 35.93700
H  37.03100 6.64100 31.97900
H  37.53500 7.16300 25.62400
H  42.94100 10.46100 26.46000
H  40.61900 8.50500 34.39000
H  37.83000 8.86400 33.70400
H  37.52200 6.85400 34.81200
H  39.25100 7.05600 35.23900
H  38.83600 6.12400 33.77600
H  39.20200 10.96000 33.66600
H  40.76300 10.84200 34.50800
H  38.64300 9.63200 36.10500
H  37.89100 11.03200 35.28100
H  34.64600 4.77600 30.03000
H  34.65000 6.32900 30.93700
H  35.91800 5.12800 31.27700
H  33.54200 5.65400 28.30600
H  34.48900 4.07000 27.92500
H  33.37100 4.92400 26.74200
H  38.88900 8.69600 24.22900
H  41.67400 9.24400 24.32300
H  39.89900 7.02900 23.13100
H  40.15500 6.28600 24.72600
H  41.49200 7.19200 24.10800
H  40.58700 10.91100 23.51900
H  40.90700 11.72500 25.02400
H  38.50600 11.36000 23.66000
H  38.91400 12.23500 25.15500
H  38.26800 10.57300 25.21000
H  45.82600 10.98100 28.75300
H  44.72000 12.10200 27.95600
H  45.03500 10.45700 27.32300
H  42.46800 11.69300 33.09700
H  43.71700 9.73100 36.59300
H  44.85900 11.14500 36.42200
H  45.14000 9.55000 35.68900
Mg 30.04400 59.85200 40.05800
C  27.14000 58.25800 39.17300
C  31.84400 56.93500 39.79500
C  32.81600 61.73200 40.32500
C  28.17800 62.79600 40.61900
N  29.53500 57.80700 39.50900
C  28.28600 57.39200 39.07800
C  28.42600 55.95500 38.52400
C  29.76900 55.48200 39.13200
C  30.45800 56.81700 39.58700
C  29.74300 54.52100 40.44700
C  28.35900 56.06100 36.87900
C  27.25300 55.29900 36.19600
H  26.58300 55.99400 35.03800
N  32.08600 59.37800 39.98600
C  32.60700 58.09200 39.98400
C  34.03400 58.19600 40.02600
C  34.39200 59.56600 40.29200
C  33.08000 60.30300 40.22300
C  34.93000 57.04700 39.71200
C  35.79000 60.09500 40.47700
O  36.75400 59.32400 40.60800
C  36.09500 61.51200 40.57500
N  30.46300 62.04600 40.16300
C  31.71200 62.53700 40.31600
C  31.69600 64.05400 40.66900
C  30.21000 64.37000 40.95400
C  29.53700 62.98200 40.53100
C  32.68700 64.60400 41.68500
C  29.72700 65.64300 40.17000
C  28.84300 66.58200 40.97600
N  28.09700 60.44300 39.98700
C  27.47600 61.63100 40.28200
C  26.06000 61.41200 40.22400
C  25.88100 60.08300 39.75600
C  27.15500 59.57500 39.65800
C  24.97400 62.40600 40.50600
C  24.89700 59.10300 39.21600
O  23.69200 59.03800 39.11500
C  25.73100 57.77300 38.82600
C  25.10700 56.62200 39.59700
O  25.34300 56.28500 40.74800
O  24.29000 55.99600 38.71600
C  23.37900 54.99400 39.30600
H  32.26700 55.93400 39.69000
H  33.75100 62.26500 40.51000
H  27.69400 63.72700 40.92200
H  27.53700 55.37200 38.76600
H  30.42700 55.06400 38.37100
H  30.57800 53.98200 40.89400
H  28.97300 53.75500 40.36100
H  29.37300 55.08400 41.30400
H  29.29600 55.66100 36.49300
H  28.25600 57.10700 36.59000
H  26.43200 55.18600 36.90400
H  27.51300 54.28700 35.88400
H  34.41500 56.12600 39.43900
H  35.56100 56.75500 40.55100
H  35.63500 57.31100 38.92300
H  37.14200 61.63300 40.85500
H  35.56900 62.03500 41.37300
H  35.93900 61.99300 39.60900
H  32.02700 64.59100 39.78100
H  29.97100 64.48800 42.01000
H  32.14000 65.12800 42.46900
H  33.38100 65.29700 41.20900
H  33.14800 63.74400 42.17100
H  29.26300 65.28300 39.25200
H  30.59700 66.14200 39.74300
H  28.58800 66.27600 41.99100
H  27.86100 66.66600 40.51100
H  29.26700 67.57900 40.85200
H  25.21500 62.82700 41.48200
H  23.99400 61.92900 40.51500
H  24.94600 63.12500 39.68800
H  25.62400 57.51200 37.77300
H  22.71000 55.36800 40.08100
H  23.95000 54.22200 39.82100
H  22.87700 54.64800 38.40200

