158

Mg 8.29500 2.52000 27.81300
C  9.68100 1.00300 30.49700
C  6.52700 4.50900 29.93100
C  6.64400 3.78500 25.10800
C  9.64900 0.11000 25.66400
N  8.27800 2.85200 29.94000
C  9.00500 2.14400 30.88900
C  8.79300 2.75300 32.29700
C  7.56700 3.72600 32.06000
C  7.51200 3.73000 30.53400
C  6.24200 3.15900 32.67000
C  10.07900 3.39500 32.95400
C  10.39700 2.95200 34.37900
H  10.32000 4.03800 35.42600
N  6.70300 3.97500 27.55200
C  6.14300 4.71200 28.53400
C  5.17400 5.65000 27.93300
C  5.19700 5.42800 26.54600
C  6.30400 4.39400 26.33000
C  4.30300 6.61900 28.76000
C  4.36800 6.08200 25.45800
O  4.38500 5.84400 24.23000
C  3.37800 7.04600 25.85700
N  8.11500 2.01900 25.66400
C  7.49000 2.76800 24.77300
C  7.74200 2.32700 23.32000
C  8.79400 1.15800 23.44700
C  8.85900 1.07400 24.99700
C  6.42300 2.02200 22.50800
C  10.13700 1.38000 22.80400
C  10.75000 0.09400 22.21500
N  9.28800 0.77900 27.93400
C  9.80900 -0.10600 27.00200
C  10.63100 -1.10800 27.60900
C  10.52600 -0.74400 28.99500
C  9.70600 0.43300 29.15300
C  11.39500 -2.29000 27.01600
C  10.92800 -1.15900 30.31700
O  11.55800 -2.11000 30.67500
C  10.48800 -0.05100 31.34300
C  9.76100 -0.65300 32.44400
O  8.86500 -1.44700 32.29700
O  10.27000 -0.25800 33.64400
C  9.73100 -0.89600 34.86300
H  5.93200 5.20300 30.52800
H  6.18200 4.32900 24.28200
H  10.17500 -0.56700 24.98800
H  8.48200 1.95700 32.97300
H  7.68400 4.72800 32.47200
H  5.71700 2.49600 31.98100
H  5.48100 3.90600 32.89800
H  6.41800 2.56800 33.56800
H  10.04400 4.46300 32.74000
H  10.91900 3.02100 32.36800
H  11.45000 2.68000 34.31200
H  9.75200 2.10200 34.60100
H  4.72300 6.62600 29.76600
H  3.26000 6.30500 28.75200
H  4.44400 7.63000 28.37800
H  3.77100 8.03600 26.09000
H  2.72700 6.69000 26.65600
H  2.71500 7.21400 25.00800
H  8.24000 3.12300 22.76500
H  8.43500 0.15600 23.21100
H  5.61600 2.12000 23.23300
H  6.55200 1.03400 22.06700
H  6.20000 2.82200 21.80200
H  10.81600 1.67900 23.60200
H  10.11600 2.17400 22.05600
H  10.87000 0.36200 21.16500
H  10.05300 -0.74400 22.20400
H  11.64600 -0.25300 22.73000
H  12.26700 -2.36000 27.66700
H  11.60800 -1.90800 26.01800
H  10.85200 -3.23000 26.91500
H  11.33500 0.32900 31.91300
H  9.16200 -0.10600 35.35300
H  10.56700 -1.17000 35.50600
H  9.05600 -1.73800 34.70800
Mg 42.58200 42.42000 26.53100
C  41.31900 44.77500 28.92400
C  44.09600 40.69700 29.06200
C  43.98400 40.45800 24.21600
C  41.54800 44.67200 23.95100
N  42.88000 42.86700 28.79200
C  42.06100 43.75200 29.57500
C  42.07900 43.26600 31.07900
C  43.20000 42.18900 31.09400
C  43.36300 41.82700 29.53700
C  44.51400 42.79000 31.57300
C  40.72300 42.73000 31.71100
C  40.16200 43.28800 33.01100
H  40.24600 42.44200 34.22500
N  43.64300 40.57000 26.67000
C  44.20900 40.08500 27.76700
C  44.89800 38.88800 27.37500
C  44.80500 38.78300 25.99400
C  44.04100 39.95100 25.55300
C  45.69500 38.09600 28.44800
C  45.39600 37.73300 25.04100
O  45.08700 37.71300 23.85400
C  46.39900 36.74600 25.48700
N  42.79700 42.65200 24.43500
C  43.40700 41.71500 23.70300
C  43.48400 42.18900 22.19500
C  42.33600 43.12800 22.09200
C  42.15500 43.47200 23.56800
C  44.91500 42.59300 21.66600
C  41.02800 42.53000 21.41300
C  40.19600 41.54800 22.21700
N  41.59300 44.36200 26.44300
C  41.28800 45.12300 25.28100
C  40.63900 46.31200 25.71800
C  40.42800 46.11100 27.16400
C  41.20200 44.94600 27.52400
C  40.19300 47.51200 24.97500
C  39.92000 46.79800 28.34000
O  39.42000 47.89500 28.46400
C  40.38800 45.88300 29.53200
C  41.01500 46.62900 30.64200
O  42.22400 46.82000 30.84700
O  39.99700 46.86000 31.57500
C  40.57000 47.21200 32.85000
H  44.51000 40.04500 29.83400
H  44.45900 39.87900 23.42100
H  41.30300 45.26400 23.06700
H  42.41700 44.11400 31.67500
H  43.06000 41.27800 31.67600
H  45.16600 41.92600 31.70400
H  44.39900 43.23300 32.56200
H  44.90600 43.43100 30.78400
H  40.81600 41.64400 31.73300
H  40.03300 43.02700 30.92100
H  39.09800 43.48900 32.88400
H  40.68200 44.22400 33.21700
H  45.11900 37.87500 29.34700
H  46.43400 38.82800 28.77300
H  46.32100 37.24100 28.19100
H  46.04300 36.13100 26.31400
H  47.28500 37.34700 25.69400
H  46.49100 36.14300 24.58400
H  43.23500 41.28300 21.64300
H  42.50900 44.07500 21.58000
H  45.79600 42.16500 22.14400
H  45.06600 43.66200 21.51400
H  44.96000 42.08400 20.70300
H  41.47800 42.02700 20.55700
H  40.43300 43.36500 21.04500
H  40.67700 41.41300 23.18600
H  40.10700 40.57900 21.72700
H  39.20200 41.95600 22.40300
H  40.40500 48.38500 25.59300
H  39.10600 47.54400 24.89600
H  40.61200 47.60900 23.97400
H  39.44900 45.43400 29.85600
H  41.12400 46.30700 33.09600
H  39.84700 47.47700 33.62100
H  41.29200 48.02200 32.74700

