158

Mg 8.76100 47.91800 25.17900
C  6.82500 48.08800 28.12300
C  11.38300 49.37900 26.99100
C  10.53100 48.08300 22.35400
C  5.95600 47.18600 23.34600
N  9.10600 48.47500 27.35600
C  8.17400 48.40000 28.38900
C  8.73600 48.92000 29.68500
C  9.85700 49.78100 29.18500
C  10.16400 49.16400 27.77200
C  9.41200 51.29600 29.05300
C  9.07100 47.79500 30.68400
C  8.61400 48.04200 32.14200
H  8.44900 46.86400 33.22600
N  10.68500 48.50100 24.79600
C  11.66400 48.96200 25.66800
C  12.98600 49.06000 24.98200
C  12.80400 48.65500 23.61700
C  11.29900 48.37100 23.57500
C  14.27500 49.53000 25.62800
C  13.64100 48.42200 22.45800
O  13.27400 47.88800 21.43400
C  15.10000 48.74900 22.64800
N  8.38500 47.53800 23.16400
C  9.22700 47.78100 22.14700
C  8.67100 47.42600 20.74900
C  7.23600 46.92500 21.17800
C  7.19300 47.26500 22.65200
C  8.86800 48.48900 19.66200
C  7.10100 45.40200 20.93500
C  5.75100 45.01500 20.16600
N  6.78200 47.59900 25.58600
C  5.75600 47.43200 24.74700
C  4.54100 47.39300 25.50800
C  4.89500 47.54400 26.85500
C  6.30300 47.70800 26.84000
C  3.14100 47.16100 24.99400
C  4.42700 47.61500 28.18200
O  3.27700 47.47900 28.66400
C  5.68000 47.90300 29.09000
C  5.78200 46.63900 29.92800
O  6.26000 45.58200 29.45400
O  5.57700 46.86400 31.25500
C  5.50200 45.62400 32.03000
H  12.12900 49.96400 27.53200
H  11.03900 47.97500 21.39400
H  5.02300 46.98400 22.81600
H  7.91300 49.50300 30.09700
H  10.82400 49.63400 29.66600
H  10.04300 51.89300 29.71000
H  8.35500 51.54500 29.15400
H  9.58100 51.57300 28.01200
H  10.15700 47.71000 30.70200
H  8.67800 46.83100 30.36100
H  7.66100 48.57000 32.15000
H  9.36900 48.72000 32.54000
H  14.09900 49.80300 26.66900
H  14.69900 50.43300 25.18900
H  14.92400 48.65500 25.60700
H  15.46400 48.12400 23.46300
H  15.24200 49.81500 22.82800
H  15.61200 48.55800 21.70500
H  9.26300 46.54000 20.52100
H  6.52800 47.56900 20.65600
H  8.02500 48.78300 19.03600
H  9.78900 48.28600 19.11600
H  9.10000 49.48400 20.03900
H  7.06500 44.82800 21.86100
H  7.88600 45.06000 20.26000
H  5.17500 45.85500 19.77800
H  5.11600 44.46800 20.86200
H  5.93200 44.33800 19.33100
H  3.26100 47.52100 23.97200
H  2.51500 47.96300 25.38800
H  2.72000 46.15600 25.02600
H  5.54600 48.69400 29.82800
H  6.50000 45.33500 32.36000
H  5.07400 44.78300 31.48400
H  4.86700 45.99400 32.83500
Mg -5.59600 25.29900 26.92800
C  -3.85200 27.10000 29.29600
C  -6.74500 23.21400 29.29800
C  -6.46700 23.06500 24.42700
C  -3.88200 27.03100 24.48300
N  -5.21900 25.06000 29.07400
C  -4.56000 25.98100 29.85600
C  -4.84100 25.73800 31.34600
C  -5.46400 24.29400 31.33000
C  -5.86200 24.18200 29.79500
C  -4.53500 23.19100 31.94400
C  -5.64600 26.83300 31.99400
C  -5.15700 27.24700 33.42800
H  -6.01100 26.84800 34.67900
N  -6.66000 23.45600 26.84000
C  -7.12800 22.78700 27.96600
C  -7.78000 21.61500 27.58200
C  -7.63400 21.52100 26.15300
C  -6.88700 22.72800 25.74700
C  -8.50500 20.69000 28.47800
C  -8.17800 20.40400 25.28500
O  -8.04900 20.38100 24.06800
C  -8.98900 19.22500 25.80900
N  -5.22000 25.04900 24.83900
C  -5.72500 24.08900 24.04000
C  -5.24900 24.25400 22.51800
C  -4.62100 25.60900 22.59100
C  -4.59000 25.95300 24.08200
C  -4.32800 23.12500 22.03900
C  -5.38200 26.78700 21.72500
C  -4.98400 26.94200 20.25000
N  -4.37100 26.96400 26.80600
C  -3.76100 27.58100 25.79000
C  -3.02300 28.77000 26.20500
C  -3.00400 28.61900 27.61800
C  -3.80500 27.45300 27.94800
C  -2.32800 29.75600 25.28500
C  -2.52000 29.19000 28.84100
O  -1.87500 30.20300 29.10100
C  -3.05500 28.21500 29.96500
C  -1.93100 27.82300 30.83000
O  -1.29600 26.77200 30.67500
O  -1.91200 28.61300 31.97300
C  -0.90300 28.12500 32.97000
H  -7.09300 22.52400 30.07000
H  -6.82600 22.35500 23.67800
H  -3.41500 27.62400 23.69400
H  -3.91900 25.62000 31.91400
H  -6.32000 24.33800 32.00400
H  -3.46800 23.40000 31.87500
H  -4.76200 22.31600 31.33400
H  -4.82200 22.95300 32.96800
H  -6.67500 26.53300 32.19000
H  -5.70500 27.66400 31.29200
H  -4.94500 28.31200 33.32800
H  -4.12400 26.93400 33.58700
H  -8.69200 21.25800 29.38900
H  -7.92900 19.80000 28.73200
H  -9.47500 20.53700 28.00500
H  -9.95600 19.58500 26.16100
H  -8.43700 18.55700 26.47000
H  -9.37200 18.61700 24.99000
H  -6.13600 24.40200 21.90300
H  -3.62600 25.58300 22.14700
H  -4.21700 22.39300 22.83900
H  -3.29900 23.40600 21.81300
H  -4.78900 22.70300 21.14600
H  -5.43800 27.80400 22.11300
H  -6.42900 26.49300 21.78800
H  -4.24800 27.73900 20.14000
H  -5.88800 27.07600 19.65500
H  -4.51700 26.04300 19.84800
H  -2.61000 29.67300 24.23500
H  -1.26200 29.90500 25.45700
H  -2.76200 30.71000 25.58400
H  -3.71200 28.65400 30.71600
H  -1.28000 27.21200 33.43100
H  -0.77800 28.90200 33.72300
H  0.06100 27.93300 32.49800

