158

Mg 9.35500 48.13200 25.88000
C  7.26000 48.73300 28.60100
C  12.02200 49.11200 27.85600
C  11.31800 47.58700 23.30300
C  6.53400 47.82900 23.90000
N  9.58900 48.98700 27.98500
C  8.61000 48.95600 28.91700
C  9.16700 49.29100 30.34600
C  10.63700 49.66900 29.95100
C  10.76400 49.16800 28.50800
C  11.16400 51.10000 30.14300
C  9.15900 48.17000 31.53600
C  9.78900 48.53800 32.89400
H  9.14800 48.00700 34.22300
N  11.45100 48.35200 25.58900
C  12.37000 48.74700 26.54400
C  13.72000 48.59100 25.97700
C  13.46800 48.06600 24.60800
C  12.05000 48.07300 24.43300
C  15.00400 48.77200 26.77000
C  14.45700 47.58500 23.58600
O  14.16800 47.19600 22.44000
C  15.92200 47.46300 24.01000
N  8.96400 47.75100 23.80600
C  10.00300 47.52500 22.95600
C  9.41500 46.96900 21.60500
C  7.86300 47.05100 21.81700
C  7.73900 47.47800 23.24200
C  9.98200 47.75200 20.40300
C  7.02300 45.74400 21.52200
C  5.80700 45.97500 20.55500
N  7.35100 48.19400 26.15900
C  6.31800 48.04000 25.25900
C  5.01700 48.12300 25.89700
C  5.38700 48.42100 27.26000
C  6.77500 48.42900 27.33900
C  3.57800 47.98900 25.31700
C  4.82100 48.72700 28.55700
O  3.64800 48.82200 28.82700
C  6.04000 48.90100 29.49000
C  5.81400 47.79700 30.47200
O  5.62400 46.63000 30.23100
O  5.68000 48.30700 31.74500
C  5.19300 47.43200 32.76500
H  12.78900 49.27400 28.61600
H  12.01000 47.46400 22.46700
H  5.67600 47.69800 23.23700
H  8.70600 50.21300 30.70200
H  11.31900 49.06200 30.54600
H  10.42300 51.58900 30.77500
H  11.32500 51.67200 29.22900
H  12.09000 51.13700 30.71700
H  9.68600 47.32100 31.10100
H  8.12000 47.91600 31.74800
H  9.81100 49.62300 32.99500
H  10.82800 48.21800 32.97200
H  15.61900 49.53300 26.29000
H  15.52900 47.81900 26.70900
H  14.95200 49.14800 27.79200
H  16.55600 47.19100 23.16500
H  15.93300 46.75300 24.83600
H  16.14100 48.51200 24.21200
H  9.63400 45.90200 21.55600
H  7.53300 47.85400 21.15700
H  10.55500 48.64900 20.63600
H  9.16500 47.98500 19.72000
H  10.77700 47.12100 20.00600
H  6.79600 45.14600 22.40500
H  7.71700 45.17000 20.90800
H  5.59000 46.96100 20.14400
H  4.93900 45.54900 21.05800
H  6.05100 45.40800 19.65700
H  3.52300 47.50500 24.34200
H  3.04800 48.93600 25.21600
H  3.09600 47.30800 26.01800
H  5.98200 49.89900 29.92400
H  4.12500 47.30600 32.58900
H  5.39600 47.94300 33.70700
H  5.71500 46.47800 32.69800
Mg -10.05900 39.81200 40.29800
C  -9.27800 36.55400 39.40500
C  -7.02100 40.95800 39.24600
C  -11.27600 43.03600 40.36900
C  -13.48100 38.75200 40.62000
N  -8.36500 38.88200 39.24100
C  -8.24800 37.50300 39.13000
C  -6.74000 37.12800 38.97200
C  -6.02300 38.49200 39.11200
C  -7.13300 39.53500 39.23100
C  -4.90500 38.58800 40.26700
C  -6.50500 36.33500 37.65400
C  -6.98200 37.05200 36.39900
H  -7.69900 36.25500 35.32400
N  -9.26900 41.81700 39.83300
C  -7.98600 41.98300 39.34500
C  -7.76200 43.43600 39.11000
C  -9.06200 44.07700 39.39900
C  -9.97600 42.97100 39.89700
C  -6.41800 44.04300 38.59400
C  -9.44700 45.50000 39.30300
O  -8.56600 46.34700 39.06400
C  -10.87600 46.05300 39.57900
N  -12.10400 40.72500 40.58500
C  -12.24300 42.04600 40.58500
C  -13.75600 42.41900 40.85100
C  -14.51900 41.05500 41.00000
C  -13.27500 40.13800 40.77800
C  -13.93100 43.46100 42.00100
C  -15.61700 40.78600 39.99400
C  -16.99400 40.68100 40.48700
N  -11.17200 38.00800 40.22800
C  -12.51000 37.77200 40.31400
C  -12.71600 36.41700 40.09100
C  -11.46300 35.87200 39.84600
C  -10.54400 36.91700 39.87100
C  -14.01700 35.72000 40.11500
C  -10.78400 34.65600 39.53100
O  -11.23300 33.47700 39.36400
C  -9.24600 35.00200 39.43700
C  -8.60000 34.38900 40.59700
O  -9.06800 34.23800 41.72600
O  -7.29700 34.07700 40.34800
C  -6.53200 33.56000 41.50000
H  -6.09700 41.49900 39.46200
H  -11.55600 44.07900 40.52800
H  -14.47100 38.30400 40.51000
H  -6.31600 36.56600 39.80400
H  -5.41800 38.75000 38.24300
H  -5.22600 39.32300 41.00600
H  -3.99900 38.92400 39.76400
H  -4.68100 37.61200 40.69700
H  -6.87800 35.31800 37.77400
H  -5.41500 36.29700 37.64000
H  -6.07900 37.45500 35.94000
H  -7.59600 37.91100 36.67000
H  -6.53200 44.99400 38.07300
H  -5.89000 43.39400 37.89500
H  -5.70800 44.17500 39.41000
H  -11.06600 46.15300 40.64800
H  -11.68300 45.53600 39.06000
H  -10.90400 47.04800 39.13600
H  -14.18900 42.88700 39.96700
H  -14.91500 41.00200 42.01500
H  -14.53700 43.12400 42.84300
H  -14.37700 44.32700 41.51300
H  -12.96400 43.76900 42.39700
H  -15.36900 39.90700 39.39900
H  -15.48700 41.57100 39.25000
H  -16.93800 40.90300 41.55200
H  -17.50800 39.75000 40.24600
H  -17.59500 41.50100 40.09300
H  -14.33300 35.81500 41.15400
H  -13.99800 34.70300 39.72300
H  -14.64600 36.38900 39.52700
H  -9.02700 34.59900 38.44800
H  -5.58500 33.12000 41.18800
H  -7.15400 32.75200 41.88500
H  -6.30200 34.32000 42.24800

