158

Mg 47.37000 16.43600 27.63100
C  45.60700 16.46300 30.70900
C  50.01300 18.17400 29.27500
C  49.20800 16.34600 24.85600
C  44.84700 14.71300 26.18500
N  47.68000 17.31700 29.71600
C  46.85600 17.06600 30.75900
C  47.50100 17.62400 31.97400
C  48.85500 18.44500 31.54100
C  48.85800 17.99500 30.05200
C  48.80700 19.99400 31.61600
C  47.76500 16.51000 33.01400
C  47.34300 16.68000 34.52500
H  46.87200 18.12500 35.02000
N  49.26700 17.14500 27.19800
C  50.23600 17.72900 27.96500
C  51.47400 18.04300 27.25400
C  51.27100 17.49800 25.93700
C  49.88500 16.97500 25.94600
C  52.55900 18.94500 27.80500
C  52.18600 17.56300 24.70900
O  51.77900 17.17800 23.64600
C  53.53800 18.13200 24.85500
N  47.10800 15.70000 25.82700
C  47.98900 15.77000 24.77300
C  47.37900 15.33600 23.46400
C  46.02400 14.73600 23.88000
C  45.94700 15.11300 25.41300
C  47.40300 16.58500 22.44400
C  46.00600 13.19400 23.56000
C  45.16700 12.75000 22.30800
N  45.64700 15.65600 28.27300
C  44.62200 14.98900 27.58700
C  43.54900 14.66900 28.44900
C  43.91400 15.20800 29.65600
C  45.21000 15.82100 29.54700
C  42.35200 13.87300 28.14900
C  43.40400 15.36100 31.06500
O  42.34400 14.99700 31.54400
C  44.62200 16.12000 31.79900
C  44.15200 17.23800 32.53500
O  43.73700 18.26600 32.07200
O  43.85800 16.80900 33.75700
C  42.73700 17.52500 34.41100
H  50.74500 18.77400 29.81900
H  49.75000 16.20000 23.91900
H  43.95300 14.32900 25.68900
H  46.83100 18.39800 32.34700
H  49.64800 18.08300 32.19600
H  48.05000 20.23100 32.36400
H  48.64900 20.39000 30.61300
H  49.72700 20.40500 32.03100
H  48.83100 16.30000 33.10200
H  47.28600 15.59000 32.67800
H  48.20800 16.36200 35.10700
H  46.56900 15.94800 34.75500
H  53.28100 19.37400 27.11100
H  53.14400 18.36700 28.52100
H  52.08500 19.76400 28.34600
H  53.44700 19.20800 25.00400
H  54.25700 17.97100 24.05200
H  54.03900 17.67900 25.71000
H  48.08600 14.60300 23.07600
H  45.20400 15.09000 23.25600
H  46.56800 16.74900 21.76300
H  48.32200 16.45600 21.87100
H  47.40400 17.51800 23.00700
H  45.47400 12.76900 24.41100
H  47.05600 12.90200 23.57000
H  45.87900 12.86500 21.49100
H  44.27400 13.29200 21.99600
H  44.82000 11.74000 22.53100
H  42.67000 13.02800 27.53800
H  41.79700 14.55200 27.50100
H  41.88900 13.67000 29.11400
H  45.05600 15.41800 32.51100
H  41.83800 17.54000 33.79600
H  42.86400 18.52100 34.83600
H  42.32000 16.86900 35.17500
Mg 51.01100 46.02300 42.12000
C  47.82600 46.88500 40.65800
C  50.39900 42.76400 41.06300
C  54.17500 45.36800 42.63100
C  51.63600 49.40100 42.36200
N  49.23900 45.01600 40.90100
C  48.03700 45.47300 40.62900
C  47.08400 44.43400 40.13200
C  47.94100 43.05400 40.29200
C  49.23200 43.61000 40.94900
C  47.27900 41.87600 41.04300
C  46.55800 44.61400 38.63600
C  45.05300 44.80400 38.44700
H  44.52000 43.73800 37.44200
N  52.06100 44.28800 42.04100
C  51.65700 43.07800 41.59800
C  52.73800 42.09100 41.79200
C  53.85700 42.83600 42.25300
C  53.43200 44.24500 42.33000
C  52.62500 40.58300 41.66300
C  55.18400 42.28100 42.57900
O  55.30300 41.09000 42.33000
C  56.25900 43.03300 43.19700
N  52.66300 47.21200 42.53300
C  53.85600 46.74100 42.76700
C  54.86600 47.81900 42.88900
C  54.07300 49.15400 42.81200
C  52.68300 48.56000 42.56600
C  55.76000 47.59000 44.12400
C  54.47800 50.21600 41.78800
C  54.98900 51.53000 42.30900
N  49.92300 47.81500 41.77400
C  50.34200 49.12700 41.90800
C  49.33300 50.03500 41.51400
C  48.34900 49.16000 40.98700
C  48.76700 47.81200 41.18900
C  49.24400 51.48700 41.67900
C  47.04100 49.18800 40.32200
O  46.28200 50.07100 39.91800
C  46.58800 47.70300 40.19000
C  45.44500 47.36300 41.07600
O  45.44600 46.94800 42.18600
O  44.30200 47.69400 40.41900
C  42.98900 47.62300 41.10600
H  50.32500 41.71000 40.78500
H  55.26000 45.24800 42.60300
H  51.93700 50.43900 42.51900
H  46.28500 44.33300 40.86700
H  48.28900 42.62500 39.35200
H  47.30700 41.08400 40.29400
H  46.23200 42.11700 41.22700
H  47.82600 41.67200 41.96300
H  46.86500 43.85400 37.91800
H  47.02100 45.48500 38.17200
H  44.81100 45.84500 38.23100
H  44.51800 44.58600 39.37100
H  51.55700 40.39000 41.57000
H  53.12200 40.12400 42.51800
H  53.14800 40.18800 40.79200
H  56.10600 43.57100 44.13200
H  56.69200 43.78800 42.54100
H  57.12200 42.40200 43.40600
H  55.46600 47.60300 42.00600
H  54.11000 49.61800 43.79700
H  55.39600 46.66300 44.56800
H  55.70000 48.35300 44.90000
H  56.77000 47.53500 43.71800
H  53.63200 50.49900 41.16200
H  55.26500 49.79500 41.16400
H  54.91700 51.75100 43.37400
H  54.50600 52.33000 41.74700
H  56.05200 51.67300 42.11800
H  50.20800 51.98100 41.79400
H  48.69100 51.68200 42.59800
H  48.75800 51.89800 40.79300
H  46.30000 47.49900 39.15800
H  42.73000 48.68100 41.13400
H  42.92500 47.19600 42.10600
H  42.46400 46.94000 40.43800

