158

Mg -1.63400 17.64100 25.79900
C  -2.29100 15.51700 28.62000
C  -1.91100 20.32600 27.99600
C  -1.25300 19.65900 23.13900
C  -1.44100 14.78400 23.80200
N  -2.23900 17.88200 28.05300
C  -2.24500 16.87900 29.04100
C  -2.05800 17.43800 30.49800
C  -2.18500 18.97000 30.19500
C  -2.01700 19.09100 28.66500
C  -3.53500 19.63600 30.59100
C  -0.83600 16.94000 31.34800
C  -0.44600 17.80500 32.60100
H  -0.35900 17.05700 33.90800
N  -1.52300 19.73800 25.56400
C  -1.69200 20.66800 26.61100
C  -1.67200 21.99600 26.03000
C  -1.59000 21.76200 24.65100
C  -1.46200 20.33100 24.39800
C  -1.81100 23.29500 26.86800
C  -1.75000 22.73400 23.51800
O  -1.88600 22.48200 22.30200
C  -1.82100 24.23400 23.89500
N  -1.30900 17.28500 23.78600
C  -1.19400 18.27600 22.84800
C  -0.97100 17.72400 21.45500
C  -0.83300 16.16000 21.68700
C  -1.18300 16.03700 23.18000
C  -2.10400 18.17500 20.54800
C  0.61500 15.68600 21.33400
C  1.66400 16.04900 22.38900
N  -1.91700 15.56800 26.03800
C  -1.84700 14.53100 25.11000
C  -2.10200 13.25000 25.74800
C  -2.30500 13.57200 27.17400
C  -2.17900 15.03400 27.26500
C  -1.94700 11.97300 25.06300
C  -2.49100 13.06600 28.54200
O  -2.50300 11.88900 28.93000
C  -2.55200 14.30400 29.52700
C  -1.44900 14.06400 30.45300
O  -0.28100 14.04900 30.14600
O  -1.94400 13.70000 31.65300
C  -1.17200 12.96800 32.66300
H  -2.09100 21.20800 28.61500
H  -1.18900 20.26700 22.23400
H  -1.38000 13.89700 23.16700
H  -2.96100 17.12900 31.02500
H  -1.37500 19.52200 30.67200
H  -4.07700 18.88000 31.15900
H  -4.08800 20.09600 29.77100
H  -3.38900 20.49000 31.25200
H  0.01200 16.87300 30.66700
H  -1.20700 16.04500 31.84800
H  -1.14500 18.61400 32.81600
H  0.51600 18.25300 32.35100
H  -2.62800 23.94400 26.55200
H  -0.90500 23.88000 26.71000
H  -2.11300 23.16700 27.90700
H  -2.83500 24.43000 24.24400
H  -1.66100 24.78100 22.96600
H  -1.03000 24.50200 24.59600
H  -0.00900 18.13600 21.14800
H  -1.56500 15.51300 21.20400
H  -2.86200 18.63200 21.18400
H  -2.57300 17.33600 20.03300
H  -1.67400 18.96600 19.93300
H  0.94600 16.28600 20.48600
H  0.64100 14.60500 21.19500
H  1.33900 16.86100 23.04000
H  2.52400 16.40200 21.82100
H  1.95400 15.20800 23.01900
H  -1.14800 11.90900 24.32300
H  -2.77700 11.79700 24.37900
H  -2.00800 11.09600 25.70800
H  -3.51600 14.26300 30.03400
H  -0.38600 12.30600 32.29900
H  -1.86700 12.47700 33.34400
H  -0.58800 13.78600 33.08600
Mg 0.42600 7.59000 25.81300
C  1.42400 9.63700 28.57700
C  0.31300 4.93900 28.04500
C  0.05700 5.60500 23.16800
C  0.93500 10.33600 23.77400
N  0.90700 7.32100 28.03400
C  1.19000 8.29800 28.94600
C  1.21400 7.83700 30.35200
C  1.14300 6.22400 30.08800
C  0.62800 6.12600 28.65300
C  2.46900 5.42600 30.39200
C  -0.01200 8.45200 31.15300
C  0.29000 9.02200 32.55700
H  1.30200 8.25900 33.40400
N  0.08700 5.51500 25.62900
C  0.04600 4.59200 26.66400
C  -0.29600 3.27900 26.09800
C  -0.33800 3.43800 24.67100
C  -0.01500 4.86500 24.40100
C  -0.36600 2.07900 26.99400
C  -0.49700 2.39100 23.49000
O  -0.46500 2.70200 22.32800
C  -0.76400 0.91800 23.88200
N  0.48500 7.89700 23.79600
C  0.13700 6.97600 22.88200
C  0.05100 7.55900 21.46200
C  0.32600 9.04700 21.69100
C  0.62700 9.14300 23.19000
C  0.94800 6.91700 20.47600
C  -0.73600 10.18000 21.20200
C  -0.22800 11.23900 20.18800
N  1.09800 9.56200 26.01300
C  1.16900 10.60100 25.12200
C  1.51400 11.92200 25.78300
C  1.57900 11.48400 27.12300
C  1.33800 10.13300 27.25800
C  1.67000 13.33800 25.18400
C  1.90400 11.98300 28.42400
O  2.26000 13.14400 28.71200
C  1.76400 10.83000 29.43400
C  2.93800 10.71800 30.34800
O  3.97500 10.13000 30.18300
O  2.63900 11.55000 31.37800
C  3.79100 11.74200 32.33800
H  0.19300 4.13400 28.77400
H  -0.06500 5.06800 22.22500
H  0.94600 11.17300 23.07300
H  2.16000 8.07200 30.84000
H  0.42600 5.91100 30.84800
H  2.72600 4.76900 29.56200
H  2.23900 4.69200 31.16500
H  3.27400 6.06900 30.75000
H  -0.78200 7.68800 31.25400
H  -0.56900 9.11700 30.49300
H  -0.68100 8.91700 33.04200
H  0.62900 10.05700 32.51400
H  -1.37000 1.85400 27.35500
H  0.26900 2.37100 27.83000
H  0.07300 1.26400 26.41800
H  -0.86700 0.37600 22.94200
H  -1.72000 0.90100 24.40500
H  0.12900 0.57200 24.40400
H  -0.93800 7.32800 21.06500
H  1.27800 9.28200 21.21500
H  1.89900 6.56200 20.87400
H  1.32000 7.56900 19.68500
H  0.36500 6.21300 19.88200
H  -1.01800 10.89100 21.97800
H  -1.55400 9.58300 20.79800
H  -0.49000 10.82200 19.21600
H  0.85800 11.17200 20.25500
H  -0.44700 12.26300 20.49200
H  1.54200 13.41500 24.10400
H  2.64600 13.74600 25.44800
H  0.89900 13.98100 25.60800
H  0.89400 11.12700 30.02100
H  4.69400 11.39700 31.83400
H  3.68500 11.12600 33.23100
H  3.91900 12.79400 32.59200

