158

Mg 1.04100 8.52200 27.44000
C  1.47500 11.09600 29.83400
C  1.43500 6.23300 29.80000
C  0.45800 6.16900 25.09500
C  0.86700 11.11700 25.03800
N  1.43000 8.68100 29.47900
C  1.34900 9.76100 30.27000
C  1.03600 9.40800 31.76700
C  1.46400 7.92000 31.76800
C  1.38600 7.57000 30.22300
C  2.79800 7.59400 32.42100
C  -0.47200 9.54200 32.13200
C  -0.72300 9.43200 33.74700
H  0.34400 8.85600 34.70600
N  0.89100 6.49400 27.45500
C  1.14100 5.66600 28.51500
C  0.90600 4.32800 28.25400
C  0.67100 4.25100 26.87400
C  0.61800 5.67700 26.40000
C  1.04900 3.21100 29.30000
C  0.49700 2.99500 25.94100
O  0.43900 3.09400 24.75100
C  0.78700 1.65500 26.50200
N  0.57100 8.64200 25.31200
C  0.52100 7.45800 24.57000
C  0.37800 7.86400 23.10600
C  0.05300 9.42100 23.14700
C  0.49600 9.81600 24.58000
C  1.75900 7.58200 22.42000
C  -1.54300 9.67900 22.92800
C  -2.01900 10.19400 21.57500
N  1.23500 10.61100 27.35100
C  1.22800 11.52300 26.36200
C  1.53900 12.85000 26.79100
C  1.67100 12.74600 28.15600
C  1.43500 11.36200 28.47500
C  1.51600 14.14800 26.00100
C  1.87800 13.46400 29.46000
O  2.15400 14.63100 29.74400
C  1.73400 12.36200 30.54800
C  2.77600 12.53900 31.59600
O  3.98200 12.29800 31.51100
O  2.19800 12.74700 32.80300
C  2.93100 12.64600 34.05000
H  1.47700 5.45300 30.56300
H  0.37300 5.42100 24.30400
H  0.72100 11.76800 24.17300
H  1.78800 9.93900 32.35000
H  0.76700 7.27100 32.30000
H  3.26100 6.98500 31.64500
H  2.69300 6.90900 33.26300
H  3.33500 8.53400 32.54800
H  -1.01000 8.75400 31.60500
H  -0.75700 10.53400 31.78200
H  -1.56500 8.74200 33.79900
H  -1.08400 10.41700 34.04100
H  2.03500 2.74700 29.29300
H  0.30300 2.44400 29.09300
H  0.74000 3.54500 30.29000
H  -0.14200 1.10300 26.64500
H  1.46000 1.61600 27.35800
H  1.36800 1.25100 25.67300
H  -0.26100 7.19800 22.52600
H  0.73100 9.87100 22.42200
H  1.62800 7.18800 21.41200
H  2.18400 6.74200 22.97000
H  2.44500 8.42100 22.30800
H  -1.72300 10.46000 23.66700
H  -2.04100 8.76700 23.25800
H  -1.28000 9.81000 20.87100
H  -2.22100 11.26000 21.47200
H  -2.87900 9.63400 21.20800
H  0.61400 14.22300 25.39400
H  2.30100 14.33800 25.26900
H  1.50100 15.03400 26.63600
H  0.85000 12.54100 31.16000
H  3.97600 12.90900 33.89000
H  2.99000 11.60500 34.36700
H  2.51200 13.23800 34.86300
Mg 23.82200 -5.61900 44.96100
C  26.11900 -3.26200 43.28400
C  21.44700 -4.78400 42.55400
C  21.96600 -8.15200 45.96600
C  26.60700 -6.81200 46.67200
N  23.79700 -4.13900 43.13600
C  24.82700 -3.18800 42.76100
C  24.29400 -2.26800 41.66300
C  22.73500 -2.64400 41.67900
C  22.64400 -4.01800 42.36700
C  21.88900 -1.52300 42.27400
C  25.05200 -2.42200 40.34400
C  25.72500 -1.15600 39.76400
H  25.33000 -0.77400 38.35700
N  21.96800 -6.28400 44.47600
C  21.13800 -5.73500 43.51900
C  19.83500 -6.33300 43.64400
C  19.90400 -7.29900 44.68600
C  21.30800 -7.29200 45.07800
C  18.67100 -5.79600 42.83200
C  18.72600 -8.06100 45.24100
O  17.70700 -7.90100 44.60300
C  18.73900 -9.00300 46.36300
N  24.24300 -7.14700 46.27600
C  23.21700 -8.09700 46.49400
C  23.87100 -9.27200 47.25800
C  25.19200 -8.64100 47.82700
C  25.39900 -7.51700 46.84000
C  22.94900 -9.88000 48.34300
C  26.33100 -9.69000 47.82500
C  26.89900 -9.86100 49.26800
N  25.86200 -5.08900 45.10600
C  26.90100 -5.67700 45.85000
C  28.11800 -5.01000 45.62800
C  27.83100 -4.00100 44.65200
C  26.49400 -4.18700 44.24500
C  29.38300 -5.30700 46.38900
C  28.46200 -2.92500 43.98200
O  29.56600 -2.37300 44.06000
C  27.33600 -2.35600 43.08100
C  27.07800 -0.97000 43.50400
O  26.65700 -0.65500 44.57700
O  27.22900 -0.07500 42.42100
C  26.84200 1.27800 42.78100
H  20.62100 -4.47500 41.91000
H  21.35100 -9.03500 46.15300
H  27.51900 -7.11600 47.18900
H  24.50700 -1.26800 42.04000
H  22.27700 -2.92200 40.73000
H  22.32200 -0.52900 42.16600
H  21.62300 -1.69000 43.31800
H  20.99000 -1.61100 41.66500
H  24.35300 -2.71200 39.56000
H  25.71900 -3.28400 40.33300
H  26.80800 -1.15500 39.88500
H  25.38600 -0.24700 40.26100
H  18.99800 -5.85100 41.79400
H  18.39600 -4.75400 42.99400
H  17.75500 -6.38600 42.84400
H  19.28600 -8.53300 47.18000
H  19.22700 -9.93700 46.08300
H  17.71700 -9.18300 46.69600
H  24.09300 -10.10800 46.59500
H  24.94700 -8.10000 48.74200
H  22.88100 -10.84900 47.84800
H  21.93500 -9.49000 48.43800
H  23.47800 -9.94100 49.29400
H  27.26500 -9.56300 47.27800
H  25.89500 -10.64900 47.54400
H  27.98700 -9.83500 49.32000
H  26.56900 -10.83900 49.61900
H  26.41300 -9.08000 49.85300
H  29.98600 -5.98900 45.79000
H  29.07300 -5.76800 47.32700
H  29.96100 -4.39500 46.53600
H  27.77100 -2.29200 42.08400
H  25.80800 1.24500 43.12500
H  26.92300 1.90500 41.89300
H  27.40400 1.75400 43.58400

