158

Mg 48.18600 35.53500 27.80900
C  46.46800 33.66600 30.26500
C  48.39100 38.04900 30.17400
C  49.42200 37.44200 25.48800
C  47.52000 32.92400 25.56000
N  47.49400 35.79400 30.00500
C  47.04900 34.84400 30.80000
C  47.08100 35.24400 32.27800
C  47.31900 36.78200 32.15800
C  47.79100 36.94800 30.66000
C  46.04100 37.68700 32.47800
C  48.23400 34.50200 33.02200
C  48.14200 34.17900 34.44000
H  47.18500 35.05900 35.25200
N  48.75500 37.51100 27.78800
C  48.90200 38.32000 28.86000
C  49.54800 39.48200 28.47200
C  49.86600 39.35000 27.13500
C  49.36900 38.09100 26.73700
C  49.71200 40.68900 29.41300
C  50.58200 40.38300 26.29600
O  50.79300 40.15700 25.08000
C  51.16500 41.65100 26.79000
N  48.20900 35.30000 25.81600
C  48.83000 36.20100 25.06500
C  49.13600 35.77200 23.67000
C  48.80900 34.26500 23.73300
C  48.14800 34.12200 25.09600
C  48.27100 36.50100 22.57000
C  50.04100 33.37900 23.51200
C  50.02100 32.27600 22.49400
N  47.21100 33.68000 27.89900
C  47.03300 32.72000 26.86800
C  46.35800 31.59000 27.47700
C  46.12600 31.92900 28.79600
C  46.63000 33.16800 29.00500
C  46.05500 30.25100 26.78200
C  45.46500 31.44800 29.97200
O  44.89000 30.40500 30.18200
C  45.58900 32.68400 31.03000
C  45.99900 32.20000 32.35900
O  46.97300 31.45500 32.47000
O  44.99900 32.19700 33.31500
C  45.27100 31.43000 34.54800
H  48.56600 38.73100 31.00900
H  49.96100 37.87300 24.64100
H  47.66200 32.16800 24.78500
H  46.09400 34.99900 32.67000
H  48.13200 37.11500 32.80300
H  46.47500 38.59500 32.89700
H  45.40200 37.08500 33.12500
H  45.49300 37.83900 31.54900
H  49.19300 34.98900 32.84200
H  48.38400 33.56400 32.48600
H  49.09200 34.25600 34.96900
H  47.77200 33.15400 34.44200
H  49.31300 41.53200 28.84800
H  50.77100 40.88900 29.57600
H  49.16600 40.60200 30.35200
H  50.37400 42.39700 26.86700
H  51.93300 41.94900 26.07600
H  51.58200 41.44700 27.77700
H  50.20400 35.93600 23.52500
H  48.06300 34.02900 22.97400
H  48.11600 37.50600 22.96200
H  47.39900 35.92400 22.26200
H  48.93700 36.57500 21.71000
H  50.30000 32.90300 24.45800
H  50.87900 33.96000 23.12600
H  49.19600 32.37500 21.78800
H  49.90100 31.36100 23.07300
H  50.95900 32.25100 21.94000
H  44.99800 30.10900 26.55500
H  46.51300 29.46200 27.37800
H  46.53800 30.11400 25.81400
H  44.62300 33.15700 31.20500
H  46.13400 30.76400 34.57500
H  44.43700 30.77300 34.79400
H  45.34400 32.08500 35.41600
Mg -11.63600 39.22900 42.16500
C  -10.10300 36.09200 41.44200
C  -9.07200 40.73900 40.37100
C  -13.53000 41.94600 41.98800
C  -14.40400 37.26200 43.27000
N  -9.86900 38.45300 40.98900
C  -9.39000 37.16400 40.85300
C  -8.16400 37.15200 39.92700
C  -7.76800 38.63800 39.89000
C  -9.00000 39.36500 40.49900
C  -6.42800 38.87600 40.62600
C  -8.44000 36.41500 38.61300
C  -7.37700 35.29600 38.19700
H  -6.47200 35.47400 37.00200
N  -11.22300 41.13200 41.49000
C  -10.13000 41.58000 40.78400
C  -10.29500 43.02600 40.55000
C  -11.57900 43.38100 41.15500
C  -12.20300 42.10900 41.53600
C  -9.35500 43.81900 39.75700
C  -12.11300 44.85700 41.07800
O  -11.32800 45.73900 40.68900
C  -13.43900 45.28300 41.49700
N  -13.75200 39.58900 42.59200
C  -14.24300 40.81700 42.59100
C  -15.69500 40.80200 43.10300
C  -16.01800 39.23200 43.35500
C  -14.70900 38.63400 43.06100
C  -15.98700 41.80800 44.24100
C  -17.17300 38.59300 42.65600
C  -18.25600 38.00000 43.57500
N  -12.15500 37.12400 42.38400
C  -13.24200 36.54300 42.96000
C  -13.07000 35.06100 43.10200
C  -11.85300 34.87200 42.56300
C  -11.33800 36.13000 42.13400
C  -13.99000 34.03900 43.73300
C  -10.87400 33.90500 42.23100
O  -10.78300 32.68500 42.36000
C  -9.73300 34.62600 41.44100
C  -8.43700 34.31100 42.04800
O  -7.72300 33.44600 41.72800
O  -8.02000 35.36700 42.80800
C  -6.63500 35.47700 43.20400
H  -8.14800 41.12800 39.94000
H  -14.15200 42.84400 42.01100
H  -15.22000 36.68800 43.71300
H  -7.29800 36.65200 40.35900
H  -7.62900 39.00400 38.87300
H  -6.63700 38.88400 41.69600
H  -6.12600 39.85500 40.25300
H  -5.73700 38.04300 40.50100
H  -8.25700 37.11500 37.79700
H  -9.47200 36.10500 38.45000
H  -7.92400 34.39300 37.92700
H  -6.71900 35.06800 39.03600
H  -8.64400 43.29400 39.12000
H  -8.88200 44.39400 40.55400
H  -9.91800 44.45000 39.06900
H  -14.10300 44.57400 41.00300
H  -13.50500 46.26900 41.03500
H  -13.54300 45.39500 42.57600
H  -16.22500 41.18100 42.23000
H  -16.14500 39.12800 44.43300
H  -15.14000 42.49000 44.32400
H  -16.10600 41.28100 45.18700
H  -16.90900 42.36400 44.07100
H  -16.70800 37.91500 41.94100
H  -17.66700 39.31200 42.00300
H  -19.26900 38.39400 43.48800
H  -18.00100 38.09600 44.63000
H  -18.15100 36.95900 43.27000
H  -13.47000 33.08300 43.79500
H  -14.92000 33.97600 43.16800
H  -14.16500 34.37300 44.75500
H  -9.72000 34.34900 40.38700
H  -5.83600 35.18200 42.52400
H  -6.44400 34.94700 44.13700
H  -6.32300 36.47700 43.50400

