158

Mg 17.70600 -1.51300 26.84900
C  16.48100 0.50500 29.31300
C  19.61500 -3.31900 29.17900
C  18.99100 -3.21800 24.31700
C  16.21200 0.73600 24.30100
N  18.16400 -1.28700 28.90300
C  17.35700 -0.53800 29.76700
C  17.72000 -0.75300 31.20900
C  18.75700 -1.82200 31.12700
C  18.90300 -2.20400 29.68400
C  20.16500 -1.52000 31.73300
C  16.55000 -1.07500 32.06500
C  16.50900 -0.39100 33.52800
H  17.88700 0.12500 34.17200
N  18.98200 -3.18400 26.73500
C  19.70300 -3.79400 27.79600
C  20.42500 -4.91500 27.21500
C  20.15300 -4.93300 25.80200
C  19.24900 -3.80900 25.59600
C  21.27100 -5.80400 28.14000
C  20.67100 -5.88400 24.70700
O  20.44500 -5.75600 23.49200
C  21.61500 -6.98500 25.06700
N  17.39500 -1.40500 24.52800
C  18.20400 -2.17900 23.77600
C  18.21300 -1.77200 22.23200
C  17.31500 -0.55100 22.30800
C  16.88200 -0.36700 23.79200
C  19.66700 -1.49900 21.69900
C  16.14000 -0.57100 21.27700
C  14.70800 -0.94300 21.69400
N  16.51400 0.23600 26.74900
C  15.99400 1.00100 25.71700
C  15.22800 2.10300 26.30500
C  15.46400 1.99700 27.71700
C  16.16800 0.81100 27.96800
C  14.41300 3.13100 25.58600
C  15.28700 2.60800 28.95600
O  14.80300 3.64000 29.35300
C  15.82100 1.64300 30.08000
C  16.80600 2.52200 30.73900
O  17.90700 2.80300 30.31700
O  16.28600 2.95800 31.99000
C  17.14900 3.70700 32.86500
H  20.21300 -3.83200 29.93500
H  19.58800 -3.70600 23.54400
H  15.87900 1.43600 23.53200
H  18.12600 0.18400 31.59000
H  18.39200 -2.72300 31.61900
H  20.27100 -0.48300 32.05000
H  21.00200 -1.78900 31.08900
H  20.34500 -2.22700 32.54400
H  16.34300 -2.13400 32.21800
H  15.72400 -0.64600 31.49800
H  16.23700 -1.16800 34.24200
H  15.69300 0.33100 33.54600
H  21.55600 -5.22800 29.02000
H  22.14500 -6.20700 27.62800
H  20.64600 -6.64200 28.44800
H  21.21200 -7.80800 25.65700
H  22.41500 -6.58400 25.69000
H  21.90200 -7.41800 24.10900
H  17.55600 -2.48300 21.73200
H  17.88500 0.32200 21.98900
H  20.42300 -1.61900 22.47400
H  19.74800 -0.44900 21.41700
H  19.83500 -2.22000 20.89900
H  16.50800 -1.09300 20.39400
H  15.94500 0.43700 20.91100
H  14.36300 -0.15900 22.37000
H  14.66500 -1.88300 22.24400
H  14.19500 -1.02800 20.73600
H  14.00300 2.71700 24.66500
H  15.06200 3.93400 25.23500
H  13.64300 3.52200 26.25000
H  15.11700 1.26300 30.82000
H  18.19400 3.64800 32.56200
H  16.98000 3.36500 33.88500
H  16.94800 4.77400 32.76400
Mg 35.60500 47.75800 25.98400
C  35.63200 45.71000 28.78900
C  34.41000 50.37300 27.88500
C  35.21600 49.57600 23.10800
C  36.22000 44.96800 23.90200
N  35.12300 47.97700 28.11500
C  35.23900 47.00600 29.07700
C  35.16400 47.72500 30.44700
C  34.53300 49.12300 30.10300
C  34.66900 49.13200 28.57900
C  33.02600 49.44000 30.54500
C  36.61300 47.75200 31.03900
C  36.70600 47.75600 32.57000
H  35.49200 47.82900 33.40900
N  35.02900 49.70800 25.54900
C  34.63400 50.61400 26.48500
C  34.43000 51.90500 25.84700
C  34.63800 51.73300 24.43100
C  34.95400 50.25100 24.27400
C  34.05700 53.15400 26.51800
C  34.73100 52.76300 23.31900
O  35.20700 52.53900 22.19200
C  34.19700 54.13500 23.54400
N  35.40600 47.29300 23.76100
C  35.39400 48.23600 22.84400
C  35.77500 47.83400 21.42100
C  36.08500 46.31100 21.67500
C  35.93200 46.17900 23.19900
C  34.75300 48.13700 20.30900
C  37.54900 45.93300 21.12700
C  38.69700 46.34800 22.03000
N  35.97200 45.81900 26.24900
C  36.17000 44.76000 25.32600
C  36.55600 43.57700 26.08000
C  36.40400 43.87800 27.44200
C  35.99100 45.30500 27.48200
C  36.90700 42.26500 25.40500
C  36.41500 43.36300 28.78300
O  36.73300 42.22000 29.22100
C  35.90600 44.54700 29.70400
C  34.69600 44.13700 30.38300
O  33.56900 44.00600 29.93600
O  34.89200 44.11000 31.74000
C  33.68600 43.75000 32.63000
H  34.07500 51.19500 28.52100
H  35.16100 50.09600 22.15000
H  36.46100 44.20900 23.15400
H  34.44900 47.23100 31.10500
H  35.09600 49.96800 30.49900
H  33.09000 50.40700 31.04300
H  32.53300 48.59900 31.03400
H  32.34800 49.61000 29.71000
H  37.23700 48.56100 30.66100
H  37.14500 46.85000 30.73700
H  37.34900 48.59800 32.82600
H  37.21200 46.85100 32.90600
H  33.07900 53.43200 26.12600
H  34.70800 54.01000 26.33900
H  34.08100 53.00300 27.59700
H  33.23700 53.88500 23.99500
H  33.97100 54.65200 22.61200
H  34.89200 54.66900 24.19300
H  36.71200 48.29900 21.11500
H  35.35700 45.66100 21.18900
H  34.25700 47.29000 19.83400
H  35.33100 48.52100 19.46800
H  33.96600 48.78800 20.68900
H  37.64600 46.42900 20.16100
H  37.73100 44.88200 20.90300
H  38.90300 45.50500 22.68900
H  38.48500 47.25600 22.59600
H  39.56300 46.72500 21.48600
H  37.98400 42.26200 25.23800
H  36.52300 42.22400 24.38600
H  36.63300 41.46400 26.09300
H  36.63500 44.72300 30.49400
H  34.04200 43.03100 33.36700
H  32.80200 43.35500 32.12900
H  33.50200 44.66100 33.20000

