158

Mg 48.65300 44.86400 43.14400
C  45.47400 44.89700 41.63000
C  48.61100 41.37800 42.47200
C  52.03300 44.86100 43.11200
C  48.64400 48.28600 43.46400
N  47.19600 43.36500 42.08700
C  45.92400 43.57900 41.72300
C  45.27600 42.29800 41.14100
C  46.11900 41.22100 41.85800
C  47.37700 41.99900 42.13200
C  45.44700 40.64200 43.12300
C  45.35800 42.30400 39.53300
C  44.37600 41.32500 38.85200
H  44.07100 41.37400 37.28800
N  50.07900 43.24500 42.97900
C  49.90400 41.94100 42.68700
C  51.10700 41.21100 42.81000
C  52.09000 42.21700 43.09300
C  51.43800 43.52200 43.05700
C  51.26700 39.76000 42.52500
C  53.49700 41.82100 43.39400
O  53.88000 40.60200 43.53000
C  54.55600 42.83400 43.78200
N  50.11900 46.34400 43.26400
C  51.47400 46.10600 43.28900
C  52.27100 47.38300 43.47400
C  51.17800 48.30100 44.06000
C  49.88100 47.64000 43.57700
C  53.58800 47.31400 44.23000
C  51.41100 49.84900 43.92900
C  51.44200 50.56100 45.32700
N  47.26200 46.34500 42.89500
C  47.36400 47.69000 43.08800
C  46.13400 48.32800 42.67800
C  45.36500 47.26500 42.05700
C  46.12000 46.05900 42.19000
C  45.89900 49.84100 42.78500
C  44.06000 46.97800 41.37300
O  43.16800 47.73800 40.97700
C  44.17500 45.41700 41.00700
C  43.04300 44.69500 41.51900
O  42.23200 44.18100 40.78500
O  42.89400 44.85800 42.86400
C  41.79600 44.14400 43.45200
H  48.34900 40.31900 42.45300
H  53.10100 44.84400 42.88300
H  48.51600 49.28900 43.87700
H  44.24400 42.16200 41.46300
H  46.31300 40.40400 41.16200
H  46.20700 40.52100 43.89500
H  45.15600 39.67400 42.71500
H  44.46400 41.00100 43.42800
H  46.38100 42.11300 39.20900
H  45.08400 43.30500 39.20100
H  43.38500 41.46100 39.28400
H  44.56700 40.29200 39.14300
H  51.15200 39.31100 43.51200
H  52.19500 39.52700 42.00300
H  50.44700 39.48900 41.86000
H  55.40800 42.33700 44.24600
H  54.23300 43.49600 44.58600
H  54.76600 43.40100 42.87500
H  52.58100 47.78500 42.51000
H  51.25700 47.94400 45.08700
H  53.62400 46.39200 44.81100
H  53.71600 48.16000 44.90500
H  54.45600 47.21800 43.57700
H  50.60400 50.20200 43.28700
H  52.32600 50.08500 43.38400
H  50.78000 51.42500 45.27200
H  52.42900 51.02200 45.36700
H  51.25600 49.87100 46.15000
H  46.45200 50.19900 43.65300
H  44.83500 50.00500 42.95500
H  46.30800 50.32700 41.89900
H  44.17800 45.40800 39.91700
H  40.81900 44.48500 43.11000
H  41.78000 44.34900 44.52200
H  41.83600 43.09200 43.16600
Mg 30.30800 58.25200 39.53900
C  27.24200 56.39200 38.55000
C  32.02600 55.51700 38.37600
C  32.94900 60.20800 39.86300
C  28.10200 61.04500 40.08800
N  29.54000 56.19200 38.66100
C  28.37100 55.66500 38.29800
C  28.56500 54.24300 37.68000
C  30.10300 54.06300 37.61000
C  30.63600 55.36200 38.26100
C  30.64200 52.74800 38.24700
C  27.67800 53.88500 36.47100
C  27.42300 55.01300 35.47100
H  28.05000 54.90300 34.08000
N  32.26000 57.94300 39.18300
C  32.77600 56.71500 38.77500
C  34.18000 56.87600 38.74300
C  34.57800 58.19500 39.16800
C  33.24400 58.84900 39.47400
C  35.08900 55.87200 38.32000
C  36.00800 58.69800 39.25700
O  37.02900 58.12500 38.96500
C  36.15700 60.04100 39.72900
N  30.47000 60.28300 40.09700
C  31.75900 60.86100 40.18800
C  31.60200 62.37600 40.30600
C  30.08500 62.59300 40.63400
C  29.47100 61.27200 40.19700
C  32.57000 62.97900 41.34400
C  29.54200 63.91500 40.00900
C  28.24800 64.57900 40.46300
N  28.15600 58.64500 39.58700
C  27.40700 59.82500 39.78300
C  26.01700 59.60500 39.58300
C  25.90800 58.30600 39.14300
C  27.21700 57.74800 39.15400
C  24.97700 60.64400 39.81200
C  24.93800 57.29800 38.71300
O  23.73500 57.31000 38.72600
C  25.76500 56.00800 38.47500
C  25.28500 54.83700 39.37700
O  25.55000 54.68400 40.57300
O  24.59800 53.89900 38.62500
C  23.98500 52.75800 39.27000
H  32.59500 54.64000 38.06000
H  33.75300 60.94400 39.93300
H  27.44400 61.91500 40.13800
H  28.23300 53.51300 38.41700
H  30.43200 53.97900 36.57400
H  31.36100 52.42600 37.49300
H  29.79300 52.09300 38.44300
H  31.14800 53.03600 39.16800
H  26.75600 53.46900 36.87700
H  28.06300 52.98500 35.99000
H  27.89000 55.95800 35.74700
H  26.34700 55.08200 35.30900
H  34.61500 54.96300 37.95200
H  35.65200 55.52400 39.18700
H  35.84300 56.10900 37.56900
H  35.54900 60.15200 40.62600
H  35.71100 60.58100 38.89400
H  37.19800 60.25300 39.97400
H  31.89000 62.81500 39.35000
H  30.00200 62.58100 41.72000
H  33.44500 63.45000 40.89700
H  32.81100 62.31200 42.17200
H  32.02900 63.74400 41.90000
H  29.49600 63.77200 38.92900
H  30.30500 64.64200 40.28500
H  27.45300 64.51200 39.72000
H  28.35200 65.66000 40.55100
H  27.89100 64.08000 41.36500
H  24.06000 60.29800 39.33400
H  25.33800 61.58100 39.38700
H  24.88700 60.73800 40.89400
H  25.57300 55.58000 37.49200
H  24.61000 51.86500 39.25300
H  23.06900 52.48500 38.74600
H  23.70100 53.02700 40.28700

