158

Mg 9.98100 46.58300 25.64700
C  7.84300 46.92600 28.32900
C  12.47800 48.02900 27.35800
C  11.92800 46.48300 22.81600
C  7.10000 46.00700 23.64500
N  10.16100 47.17500 27.63600
C  9.21200 47.13700 28.60200
C  9.82200 47.68500 29.94600
C  11.05000 48.45100 29.45300
C  11.26700 47.90900 28.03300
C  11.21800 50.02000 29.62800
C  10.09600 46.55000 30.89300
C  10.04000 46.88600 32.34700
H  9.94900 45.68500 33.28000
N  11.96400 47.11400 25.16300
C  12.92800 47.61700 26.08900
C  14.28500 47.72800 25.45600
C  14.07500 47.24800 24.12000
C  12.58100 46.95000 23.93800
C  15.54600 48.11900 26.28400
C  15.02400 47.07600 23.08000
O  14.74700 46.68100 21.92000
C  16.40600 47.44400 23.31300
N  9.56400 46.47900 23.55400
C  10.57200 46.32000 22.62000
C  10.06000 45.96200 21.24400
C  8.58300 45.49400 21.65000
C  8.38600 46.05800 23.05700
C  10.14300 47.12800 20.22200
C  8.35000 43.96700 21.37700
C  7.91200 43.60000 19.95000
N  7.84300 46.50400 25.88400
C  6.82000 46.30700 24.98500
C  5.50700 46.23300 25.73700
C  5.92900 46.44100 27.05300
C  7.29900 46.68500 27.03300
C  4.12600 45.94300 25.22600
C  5.43900 46.62100 28.42600
O  4.30000 46.62200 28.87500
C  6.66100 46.92900 29.31100
C  6.84500 45.86400 30.35900
O  7.13600 44.71100 30.12300
O  6.58700 46.20900 31.61400
C  6.51700 45.13000 32.59700
H  13.21500 48.44400 28.04900
H  12.51300 46.40500 21.89700
H  6.21800 45.63800 23.11600
H  9.14200 48.45100 30.31700
H  11.89800 48.14700 30.06600
H  12.12500 50.22400 30.19700
H  10.44300 50.43700 30.27100
H  11.22200 50.52500 28.66300
H  11.09200 46.13000 30.74800
H  9.44700 45.68400 30.76800
H  9.28300 47.64900 32.52700
H  11.04400 47.25500 32.55700
H  15.18300 48.27800 27.29900
H  15.93800 49.06400 25.90700
H  16.35600 47.39600 26.37000
H  16.88400 46.81500 24.06400
H  16.37200 48.50400 23.56300
H  17.00200 47.28600 22.41500
H  10.63600 45.11800 20.86500
H  7.84100 46.08700 21.11400
H  10.40100 48.12700 20.57200
H  9.16500 47.31600 19.77900
H  10.83400 46.82900 19.43400
H  7.64200 43.58300 22.11100
H  9.24400 43.37300 21.56800
H  8.72500 43.10800 19.41600
H  7.69700 44.47200 19.33200
H  7.12100 42.85000 19.92000
H  4.12600 45.26100 24.37600
H  3.69000 46.86200 24.83500
H  3.47300 45.54100 26.00100
H  6.62000 47.90600 29.79300
H  6.94300 45.48700 33.53500
H  7.13100 44.26400 32.35000
H  5.52000 44.73200 32.78800
Mg -12.32800 15.53300 41.53600
C  -9.33200 13.71900 41.10200
C  -11.03400 18.00300 39.55000
C  -15.31900 17.08900 41.52300
C  -13.76900 12.72000 43.04200
N  -10.39900 15.72600 40.27900
C  -9.29000 14.98000 40.46700
C  -8.04500 15.62700 39.83100
C  -8.64900 17.02700 39.38800
C  -10.11100 16.90300 39.75400
C  -7.92100 18.25300 40.01000
C  -7.43100 14.93000 38.59200
C  -6.12400 15.48100 38.17000
H  -6.20200 16.50000 37.02500
N  -13.02100 17.39600 40.76900
C  -12.31300 18.29500 39.98400
C  -13.15300 19.42000 39.62400
C  -14.42200 19.22200 40.22600
C  -14.34000 17.79700 40.84000
C  -12.69200 20.55500 38.81400
C  -15.62300 20.20600 40.12300
O  -15.53400 21.31600 39.57700
C  -17.01500 19.95400 40.66600
N  -14.27600 14.85100 42.12000
C  -15.32100 15.82600 42.13200
C  -16.58600 15.19000 42.76100
C  -16.10300 13.78200 43.28800
C  -14.67500 13.73800 42.73800
C  -17.25000 16.09200 43.89100
C  -16.89300 12.51200 42.75200
C  -17.28300 11.46500 43.82500
N  -11.66800 13.62700 42.08000
C  -12.38400 12.56700 42.68000
C  -11.45300 11.57900 42.98000
C  -10.21800 11.93200 42.36600
C  -10.42700 13.21000 41.82900
C  -11.72000 10.35600 43.84400
C  -8.84000 11.49400 42.12500
O  -8.23500 10.41600 42.39400
C  -8.21900 12.68100 41.24800
C  -6.84700 13.11700 41.80200
O  -6.69800 13.55500 42.91000
O  -5.86900 13.07700 40.83600
C  -4.73400 13.99100 41.13700
H  -10.55000 18.77600 38.95000
H  -16.34500 17.45800 41.57400
H  -14.20100 12.00900 43.74900
H  -7.37300 15.88400 40.64900
H  -8.65100 17.11300 38.30100
H  -8.62400 18.77200 40.66200
H  -7.64200 18.89500 39.17500
H  -6.97200 18.12400 40.53200
H  -8.16800 15.05500 37.79900
H  -7.32200 13.84700 38.65100
H  -5.48300 14.63200 37.93100
H  -5.73200 16.05100 39.01300
H  -13.26400 20.54300 37.88600
H  -11.60600 20.55700 38.71500
H  -12.95700 21.43600 39.39800
H  -17.76800 20.59700 40.20900
H  -17.07400 20.05100 41.75000
H  -17.23400 18.95700 40.28700
H  -17.30200 15.07400 41.94800
H  -16.02500 13.71600 44.37300
H  -18.20200 16.59500 43.72600
H  -16.47400 16.82000 44.13100
H  -17.33500 15.37800 44.71000
H  -16.38700 12.05400 41.90100
H  -17.83600 12.84500 42.31800
H  -17.10700 10.47100 43.41500
H  -18.36400 11.59100 43.89000
H  -16.73100 11.66600 44.74400
H  -12.47400 10.58900 44.59500
H  -10.75500 10.20300 44.32600
H  -11.97200 9.47600 43.25100
H  -7.85800 12.17500 40.35200
H  -3.95600 13.73200 40.41800
H  -4.27900 13.79100 42.10800
H  -5.08600 15.00100 40.92800

