158

Mg 27.21900 51.02700 26.26000
C  25.23500 52.00600 29.12400
C  29.60800 50.04800 28.50300
C  29.16500 50.17200 23.50100
C  24.96700 52.56600 24.29000
N  27.36600 51.00800 28.49000
C  26.44800 51.33700 29.45600
C  26.88900 51.09700 30.89400
C  28.40700 50.72300 30.65800
C  28.50600 50.67800 29.09500
C  29.43400 51.65000 31.38100
C  26.00900 50.00900 31.60400
C  25.46700 50.36700 32.99600
H  26.45500 50.71600 34.15300
N  29.14800 50.22900 26.04800
C  29.93100 49.82100 27.18900
C  31.09100 49.10300 26.66900
C  31.04600 49.34500 25.23400
C  29.75400 49.99300 24.83300
C  32.04400 48.29200 27.51800
C  32.06900 48.96400 24.12200
O  31.97900 49.32700 22.94400
C  33.22000 48.19900 24.46600
N  27.16300 51.40200 24.11400
C  27.91900 50.84100 23.19500
C  27.34200 50.95000 21.83600
C  25.95500 51.65900 22.09700
C  26.02600 51.96700 23.59600
C  28.24900 51.61900 20.80400
C  24.77600 50.70800 21.72100
C  23.45700 51.39900 21.30800
N  25.48500 52.03100 26.61200
C  24.70000 52.59500 25.64700
C  23.50600 53.18700 26.24000
C  23.73800 52.96600 27.60000
C  24.93900 52.28900 27.77400
C  22.26600 53.86200 25.63200
C  23.14200 53.20800 28.95600
O  22.18100 53.85300 29.27600
C  24.16400 52.61500 29.96600
C  24.70900 53.67000 30.82300
O  25.73500 54.28600 30.66000
O  23.85400 53.81100 31.88800
C  24.23000 54.89700 32.78500
H  30.31300 49.64000 29.23000
H  29.74900 49.66000 22.73300
H  24.13200 52.83100 23.63800
H  26.84800 52.01600 31.47800
H  28.62100 49.73700 31.06900
H  29.05100 52.59600 31.76400
H  29.96100 52.01200 30.49700
H  30.09300 51.11100 32.06100
H  26.63900 49.12600 31.71500
H  25.23200 49.58500 30.96800
H  24.77700 49.55700 33.23700
H  24.76600 51.18600 32.83400
H  31.96800 47.24800 27.21600
H  31.70100 48.30400 28.55200
H  33.09800 48.55600 27.42700
H  32.88500 47.35900 25.07500
H  33.79900 48.88000 25.08900
H  33.69000 47.82800 23.55500
H  27.27800 49.95100 21.40500
H  25.84700 52.63500 21.62400
H  28.59500 50.88200 20.07900
H  28.99400 52.22200 21.32400
H  27.71200 52.27600 20.12000
H  24.56400 49.92000 22.44400
H  25.17000 50.26100 20.80800
H  23.11700 51.13700 20.30600
H  23.55800 52.48400 21.35700
H  22.78300 51.11400 22.11600
H  22.34400 54.94800 25.59400
H  21.48900 53.68000 26.37500
H  22.06200 53.41500 24.65900
H  23.75900 51.83500 30.61000
H  24.98900 54.48700 33.45100
H  23.39800 55.13900 33.44700
H  24.46500 55.81200 32.24200
Mg -5.13400 25.68700 25.96300
C  -3.69900 26.90700 28.80600
C  -7.01900 23.47300 27.86600
C  -6.51200 24.30300 23.08700
C  -2.68100 27.27600 24.04700
N  -5.34800 25.24300 28.06900
C  -4.70800 26.00000 29.09300
C  -5.23900 25.58800 30.39800
C  -5.95700 24.21300 30.13200
C  -6.11000 24.31800 28.57200
C  -5.26700 22.97500 30.68500
C  -6.19600 26.72100 31.06500
C  -6.13200 26.92100 32.60400
H  -5.55300 25.78800 33.41200
N  -6.71500 24.22600 25.50000
C  -7.31300 23.42500 26.44900
C  -8.28100 22.66800 25.76200
C  -8.19500 22.89400 24.36300
C  -7.14700 23.87900 24.25700
C  -9.28000 21.82800 26.44100
C  -9.02200 22.18500 23.23900
O  -8.80400 22.30700 22.05900
C  -10.15500 21.13600 23.54200
N  -4.81200 26.03200 23.84900
C  -5.38100 25.16700 22.93100
C  -4.80000 25.36300 21.50000
C  -3.67900 26.37800 21.79300
C  -3.65500 26.56600 23.34800
C  -4.24200 24.07600 20.79900
C  -3.84100 27.75900 21.07200
C  -2.54000 28.32400 20.42500
N  -3.51400 26.85900 26.22600
C  -2.58700 27.53400 25.43200
C  -1.70700 28.28000 26.28200
C  -2.10700 28.03200 27.57400
C  -3.18400 27.22500 27.52600
C  -0.52500 29.07400 25.76800
C  -1.77900 28.32900 28.96600
O  -0.79200 28.96300 29.40300
C  -2.85500 27.66700 29.80000
C  -2.14800 26.77800 30.78700
O  -1.91300 25.56800 30.61100
O  -1.83700 27.47200 31.96000
C  -1.18100 26.82200 33.12400
H  -7.58900 22.77400 28.48200
H  -6.85000 23.94300 22.11300
H  -1.80300 27.67100 23.53300
H  -4.38900 25.39500 31.05200
H  -6.91600 24.16600 30.64900
H  -4.70300 22.53400 29.86400
H  -6.03800 22.33300 31.11100
H  -4.57400 23.23600 31.48400
H  -7.22400 26.51200 30.76900
H  -6.02800 27.70500 30.62800
H  -7.12200 27.11600 33.01500
H  -5.60100 27.86300 32.74500
H  -10.27600 22.10400 26.09400
H  -9.23200 21.93800 27.52500
H  -9.16500 20.76000 26.25500
H  -11.00800 21.56300 24.07000
H  -9.62200 20.36900 24.10400
H  -10.54300 20.77400 22.59000
H  -5.59500 25.86800 20.95200
H  -2.77900 25.87000 21.44600
H  -4.71000 23.87900 19.83400
H  -4.37600 23.22400 21.46500
H  -3.17800 24.10700 20.56300
H  -4.20600 28.45900 21.82300
H  -4.66900 27.68400 20.36700
H  -2.69800 28.13700 19.36300
H  -1.53900 27.94700 20.63500
H  -2.65000 29.38400 20.65300
H  -0.78800 30.13100 25.81000
H  -0.32200 28.66400 24.77800
H  0.32400 28.99700 26.44700
H  -3.48400 28.29700 30.42900
H  -1.16700 27.67000 33.80900
H  -0.14500 26.63700 32.83800
H  -1.72900 25.96900 33.52300

