158

Mg 54.97100 24.13300 45.35300
C  52.20800 26.45000 44.87400
C  52.92900 21.77900 44.08400
C  57.61600 22.43900 45.05000
C  56.76700 26.99500 46.52500
N  52.87900 24.14800 44.64600
C  51.99600 25.18600 44.40400
C  50.66000 24.63500 43.77700
C  50.76700 23.10100 43.99200
C  52.31300 22.97400 44.27400
C  49.97600 22.55800 45.14000
C  50.46300 25.09600 42.27200
C  49.01200 25.34500 41.87400
H  48.49900 24.84100 40.52600
N  55.26000 22.33800 44.58000
C  54.33300 21.48300 44.13700
C  54.98100 20.32500 43.66000
C  56.39300 20.57800 43.70400
C  56.48300 21.81700 44.49100
C  54.32200 19.03300 43.13700
C  57.53600 19.63500 43.17400
O  57.12700 18.62100 42.60500
C  58.97200 19.90900 43.35400
N  56.97000 24.71700 45.77000
C  57.86300 23.68300 45.60200
C  59.29700 24.18200 46.14300
C  58.93700 25.64800 46.63900
C  57.46900 25.80500 46.27300
C  60.14300 23.29200 47.15700
C  59.71200 26.78700 45.87400
C  60.55400 27.70100 46.74400
N  54.51700 26.21400 45.90100
C  55.40700 27.22100 46.33000
C  54.69300 28.47500 46.46400
C  53.44300 28.16600 45.92700
C  53.40100 26.83900 45.55400
C  55.22500 29.80200 46.86300
C  52.20600 28.79900 45.51000
O  51.80400 29.97800 45.60400
C  51.40900 27.68900 44.74500
C  51.39900 28.12400 43.34600
O  52.44600 28.34300 42.66800
O  50.12100 28.41400 42.93500
C  50.04800 28.92300 41.53800
H  52.32500 20.98500 43.63900
H  58.45500 21.75800 44.89700
H  57.31300 27.81700 46.99200
H  49.88300 25.10500 44.37900
H  50.56700 22.60000 43.04500
H  50.60900 22.15400 45.93100
H  49.40100 21.75200 44.68400
H  49.33200 23.29800 45.61400
H  50.92900 24.39300 41.58100
H  50.99400 26.04400 42.18000
H  48.92900 26.42800 41.78800
H  48.36700 24.83100 42.58800
H  54.79600 18.11600 43.48600
H  54.49900 18.92000 42.06800
H  53.24000 19.03700 43.26300
H  59.30500 20.92800 43.15500
H  59.57600 19.28500 42.69600
H  59.28800 19.69700 44.37600
H  59.91500 24.40100 45.27300
H  59.18000 25.68800 47.70000
H  59.96200 22.21700 47.13100
H  60.09400 23.80200 48.11900
H  61.16300 23.54000 46.86500
H  59.09200 27.47300 45.29600
H  60.41200 26.35900 45.15700
H  60.49900 28.73500 46.40400
H  61.62000 27.47600 46.77700
H  60.19000 27.76500 47.76900
H  54.76200 30.21200 47.76000
H  54.87600 30.57400 46.17700
H  56.30900 29.73000 46.76800
H  50.39000 27.57400 45.11600
H  48.99400 29.02200 41.27600
H  50.59200 28.29100 40.83500
H  50.37800 29.96100 41.56500
Mg 9.42500 48.45300 24.64000
C  7.33800 48.70100 27.46500
C  11.94600 49.75800 26.66500
C  11.48500 48.30100 22.01500
C  6.69800 47.57400 22.71900
N  9.54500 49.24600 26.74500
C  8.58000 49.26600 27.69900
C  9.06900 49.79300 29.04200
C  10.37900 50.60000 28.57500
C  10.69200 49.86900 27.21400
C  10.29700 52.09000 28.44000
C  9.34600 48.63900 30.00300
C  8.83700 48.77900 31.48100
H  8.93300 47.53600 32.33200
N  11.46400 48.95000 24.36100
C  12.35400 49.37400 25.33200
C  13.70000 49.38800 24.72700
C  13.53800 48.89300 23.41300
C  12.08300 48.74400 23.18400
C  15.02600 49.79200 25.41400
C  14.63100 48.36900 22.46600
O  14.36300 47.66400 21.44900
C  16.07200 48.53500 22.70200
N  9.08200 48.15100 22.58000
C  10.12800 48.04600 21.71900
C  9.72800 47.39700 20.42400
C  8.21400 47.26600 20.57600
C  7.91300 47.73600 22.04800
C  10.02000 48.18600 19.17200
C  7.86500 45.75900 20.48400
C  8.32100 44.80400 21.57900
N  7.42200 48.14900 25.02100
C  6.42200 47.78300 24.11800
C  5.23800 47.62200 24.79000
C  5.59200 47.89900 26.13000
C  6.89200 48.24400 26.24500
C  3.82000 47.35000 24.22000
C  5.00800 47.98900 27.47900
O  3.86000 47.75200 27.80100
C  6.17600 48.37300 28.44400
C  6.40400 47.16900 29.30000
O  7.04800 46.20400 28.97000
O  5.73400 47.27400 30.47100
C  5.50600 46.03200 31.31100
H  12.69300 50.22400 27.31100
H  12.12400 48.05700 21.16300
H  5.86400 47.27200 22.08200
H  8.36200 50.49300 29.48800
H  11.16500 50.40900 29.30600
H  10.54500 52.52400 27.47100
H  11.07500 52.43500 29.12000
H  9.37900 52.61700 28.70300
H  10.42100 48.48200 30.09700
H  8.95700 47.67000 29.68800
H  7.80400 49.12700 31.48900
H  9.56200 49.48600 31.88400
H  14.78800 50.18400 26.40200
H  15.62600 50.54600 24.90400
H  15.53700 48.84200 25.57200
H  16.45400 49.46800 23.11600
H  16.58500 48.24000 21.78600
H  16.33900 47.82900 23.48800
H  10.27800 46.45800 20.49100
H  7.73400 47.85400 19.79400
H  10.34600 49.20600 19.37400
H  9.13100 48.21700 18.54300
H  10.91100 47.83200 18.65200
H  8.27300 45.39200 19.54300
H  6.79100 45.69800 20.30900
H  8.54800 45.32700 22.50800
H  9.18700 44.25700 21.20500
H  7.54900 44.05500 21.75500
H  4.04600 46.68200 23.38800
H  3.35200 48.27600 23.88700
H  3.16900 46.85100 24.93700
H  5.87300 49.25600 29.00500
H  5.95700 46.20200 32.28800
H  5.97800 45.16700 30.84600
H  4.45200 45.75400 31.32800

