158

Mg -2.18500 17.38000 26.84700
C  -2.93400 15.22700 29.46000
C  -2.80300 19.99900 29.03300
C  -1.99300 19.47000 24.16000
C  -1.87500 14.64800 24.75400
N  -2.73400 17.54500 29.04100
C  -2.97500 16.57900 29.96700
C  -3.07900 17.13000 31.45000
C  -2.97200 18.66400 31.15500
C  -2.86600 18.72800 29.64300
C  -3.99800 19.60300 31.81900
C  -2.10800 16.46500 32.39200
C  -1.33500 17.25700 33.40400
H  -1.01700 16.57900 34.82500
N  -2.25100 19.43700 26.61900
C  -2.50800 20.35500 27.66000
C  -2.39200 21.63600 27.16800
C  -2.09400 21.52400 25.76300
C  -2.13800 20.07000 25.40000
C  -2.71800 22.83500 28.05600
C  -1.79200 22.59100 24.66000
O  -1.40600 22.38100 23.51800
C  -1.65500 23.97400 25.09500
N  -2.20600 17.10600 24.76200
C  -2.11400 18.10700 23.82600
C  -1.89200 17.53600 22.39300
C  -1.53600 16.07900 22.70800
C  -1.94200 15.87700 24.20400
C  -3.17600 17.76500 21.55900
C  -0.03300 15.72300 22.57600
C  0.87500 16.48100 23.59600
N  -2.33200 15.34100 26.98200
C  -2.15000 14.31900 26.06600
C  -2.37900 13.04200 26.64000
C  -2.65700 13.30700 27.95600
C  -2.58600 14.75400 28.11400
C  -2.49100 11.67800 25.95100
C  -3.03400 12.73500 29.16700
O  -3.25800 11.52900 29.44600
C  -3.18500 13.91300 30.21800
C  -2.20700 13.56300 31.24700
O  -1.05500 13.74200 31.12300
O  -2.75700 12.90200 32.36300
C  -1.85800 12.55000 33.46900
H  -2.98400 20.81500 29.73500
H  -1.68100 20.01900 23.26900
H  -1.63500 13.85000 24.04800
H  -4.12800 16.89300 31.63300
H  -1.99200 19.07300 31.39800
H  -4.72700 19.99700 31.11100
H  -3.47500 20.36200 32.40000
H  -4.46700 18.94400 32.55000
H  -1.30500 16.05100 31.78300
H  -2.59300 15.66200 32.94800
H  -1.85700 18.14200 33.76700
H  -0.41600 17.68700 33.00600
H  -3.51700 23.42600 27.61000
H  -1.90800 23.56200 28.11800
H  -2.95500 22.67900 29.10900
H  -2.70000 24.23100 25.27400
H  -1.23400 24.55500 24.27400
H  -1.14300 23.98000 26.05700
H  -0.97700 18.05900 22.11400
H  -2.09000 15.34200 22.12600
H  -3.64600 18.71200 21.82500
H  -3.96200 17.02700 21.72000
H  -2.96200 17.81600 20.49200
H  0.34000 15.91200 21.56900
H  0.10200 14.66700 22.81300
H  0.39000 17.20000 24.25600
H  1.72800 16.92300 23.08200
H  1.27600 15.76200 24.31100
H  -3.57200 11.62300 26.07700
H  -1.88300 10.89900 26.41300
H  -2.33600 11.80100 24.87900
H  -4.16800 13.77200 30.66900
H  -1.96200 13.37300 34.17600
H  -0.82600 12.44900 33.13100
H  -2.14000 11.58700 33.89700
Mg 26.46500 49.36800 26.21300
C  24.44700 50.44100 28.99100
C  28.83500 48.52400 28.47600
C  28.29500 48.65700 23.54700
C  24.07000 50.85200 24.10500
N  26.58500 49.51900 28.52500
C  25.67200 49.94000 29.43400
C  26.16900 49.64800 30.89200
C  27.64600 49.09400 30.71700
C  27.72900 49.14600 29.13000
C  28.75600 49.93200 31.36400
C  25.27600 48.57600 31.68900
C  24.76600 49.19500 32.97800
H  25.71900 49.86000 33.93700
N  28.31700 48.66600 25.97800
C  29.12300 48.32300 27.06300
C  30.28600 47.61900 26.48900
C  30.20500 47.70800 25.02700
C  28.88000 48.39900 24.79100
C  31.46600 47.13800 27.44800
C  31.04200 47.11800 23.95300
O  30.87400 47.40100 22.77700
C  32.24000 46.32100 24.24800
N  26.24200 49.75700 24.17400
C  27.17300 49.26900 23.27100
C  26.62500 49.34700 21.88500
C  25.24900 50.11200 22.00800
C  25.19100 50.21300 23.54300
C  27.52300 49.93700 20.78400
C  24.13900 49.24900 21.40700
C  23.58900 49.68700 20.06900
N  24.62600 50.32400 26.48000
C  23.78500 50.89100 25.52800
C  22.66500 51.43100 26.17100
C  22.82700 51.23400 27.56300
C  24.07400 50.60300 27.68900
C  21.54300 52.05600 25.49000
C  22.22900 51.53700 28.88200
O  21.15900 52.02200 29.24900
C  23.25800 50.98100 29.89500
C  23.60900 52.14000 30.78100
O  24.48300 52.94400 30.54800
O  22.86900 52.15100 31.92000
C  23.31700 53.10300 32.91700
H  29.49100 48.06700 29.22000
H  28.84400 48.37200 22.64700
H  23.35200 51.31500 23.42600
H  26.19000 50.58400 31.45100
H  27.70100 48.08500 31.12600
H  29.19900 50.50100 30.54700
H  29.44800 49.19400 31.77000
H  28.41500 50.63400 32.12500
H  25.73000 47.61300 31.92400
H  24.30800 48.50400 31.19300
H  24.36900 48.29800 33.45400
H  23.98500 49.91800 32.74600
H  31.48800 47.66400 28.40200
H  32.39600 47.42800 26.95900
H  31.44200 46.04900 27.49600
H  32.51300 45.56500 23.51200
H  31.92200 45.73300 25.10800
H  32.95200 47.06300 24.61100
H  26.44700 48.30100 21.63400
H  25.28900 51.09300 21.53500
H  28.39100 50.47200 21.16700
H  26.90500 50.66400 20.25800
H  27.84300 49.15200 20.09900
H  23.21100 49.19800 21.97700
H  24.42200 48.20800 21.24600
H  24.19000 50.57500 19.87400
H  22.53200 49.95600 20.07900
H  23.91400 48.96400 19.32100
H  21.38200 51.47100 24.58400
H  21.87400 53.08900 25.39200
H  20.67600 52.06700 26.15000
H  22.98400 50.18200 30.58400
H  23.43100 54.11200 32.52000
H  24.34400 52.83600 33.16600
H  22.64800 53.00300 33.77100

