158

Mg 25.19500 -7.38300 47.49800
C  27.08200 -4.74900 46.24500
C  22.76600 -6.73200 45.20500
C  23.44700 -10.08300 48.57300
C  27.85800 -8.30000 49.47800
N  25.10000 -5.98800 45.69200
C  25.91500 -4.95300 45.40800
C  25.47900 -4.18100 44.19600
C  23.94600 -4.65600 44.10100
C  23.90700 -5.87900 45.07200
C  22.93800 -3.56200 44.53500
C  26.31300 -4.34400 42.90100
C  26.81700 -3.16300 41.97900
H  26.07500 -3.06900 40.63000
N  23.34500 -8.38000 46.81500
C  22.48200 -7.86100 45.95100
C  21.29000 -8.64400 45.88500
C  21.49100 -9.73000 46.77700
C  22.81900 -9.36400 47.51200
C  20.14400 -8.28300 44.93900
C  20.59800 -10.91700 46.92500
O  19.68600 -11.01600 46.14100
C  20.84300 -12.00300 47.89300
N  25.65000 -9.11600 48.62200
C  24.74300 -9.96700 49.08200
C  25.30800 -10.96900 50.12500
C  26.73600 -10.48200 50.13800
C  26.78600 -9.21600 49.36600
C  24.62000 -10.90700 51.53700
C  27.87800 -11.59100 49.77900
C  29.11200 -11.65100 50.75400
N  27.12500 -6.76300 47.82400
C  28.11800 -7.17900 48.72600
C  29.30900 -6.31700 48.60100
C  28.89000 -5.38300 47.64900
C  27.58500 -5.63400 47.28200
C  30.65300 -6.58800 49.18300
C  29.35900 -4.13700 47.00900
O  30.49800 -3.61200 47.04600
C  28.23100 -3.71200 46.03800
C  27.92400 -2.29000 46.43400
O  28.08400 -1.35400 45.68900
O  27.52000 -2.09100 47.75200
C  26.95500 -0.74600 48.00700
H  21.94700 -6.41900 44.55500
H  22.81400 -10.79300 49.10900
H  28.70400 -8.52500 50.13000
H  25.54600 -3.13000 44.48000
H  23.69400 -5.00600 43.10000
H  22.10300 -4.05800 45.03000
H  22.41100 -3.20600 43.65000
H  23.32300 -2.72500 45.11700
H  25.77500 -5.10300 42.33300
H  27.17300 -4.97600 43.12500
H  27.89400 -3.21900 41.82200
H  26.68100 -2.21400 42.49800
H  20.15000 -9.08600 44.20200
H  20.22200 -7.27700 44.52600
H  19.22600 -8.39500 45.51500
H  21.88400 -12.31200 47.98000
H  20.26300 -12.89900 47.67400
H  20.52000 -11.66800 48.87900
H  25.20500 -11.99100 49.75900
H  27.02000 -10.23100 51.16000
H  23.96000 -10.04100 51.57000
H  25.36600 -10.76000 52.31900
H  24.02300 -11.78500 51.78500
H  28.19900 -11.44800 48.74700
H  27.38600 -12.55900 49.88600
H  30.03400 -11.55200 50.18100
H  29.03400 -12.63700 51.21100
H  29.00600 -10.89800 51.53600
H  30.61900 -7.04100 50.17300
H  31.16800 -5.63200 49.28200
H  31.16000 -7.25600 48.48600
H  28.59000 -3.67600 45.01000
H  27.79100 -0.09700 48.26800
H  26.28100 -0.82400 48.85900
H  26.50000 -0.32900 47.10800
Mg -11.91500 39.26300 42.07700
C  -10.20600 36.31100 41.33100
C  -9.52300 41.00500 40.47200
C  -13.88300 42.06200 42.42200
C  -14.56800 37.28600 43.15400
N  -10.13700 38.64300 41.01300
C  -9.58500 37.38200 40.80100
C  -8.39500 37.40200 39.81300
C  -8.08500 39.00600 39.78500
C  -9.38200 39.61500 40.39900
C  -6.75400 39.40700 40.41500
C  -8.58100 36.76000 38.42200
C  -7.41600 35.81200 38.03100
H  -6.24100 36.41400 37.27600
N  -11.60500 41.29800 41.60700
C  -10.53900 41.84400 40.97400
C  -10.72600 43.27600 40.87400
C  -11.92200 43.58500 41.64200
C  -12.52700 42.22400 41.92700
C  -9.69900 44.16500 40.15800
C  -12.39600 44.98600 41.86100
O  -11.77200 45.94200 41.35000
C  -13.69100 45.35400 42.64600
N  -13.93300 39.62800 42.67000
C  -14.52800 40.85500 42.72100
C  -15.96400 40.72200 43.16100
C  -16.21300 39.19600 43.41800
C  -14.82800 38.63700 42.98100
C  -16.45900 41.59200 44.33600
C  -17.38900 38.50100 42.71200
C  -18.63700 37.94400 43.51800
N  -12.30500 37.26800 42.43300
C  -13.40800 36.62300 42.86000
C  -13.17200 35.15900 42.83800
C  -11.90000 35.03700 42.27100
C  -11.45000 36.27300 42.03200
C  -14.15200 34.03400 43.27700
C  -10.87700 34.04900 41.80400
O  -10.95000 32.81800 41.80200
C  -9.70100 34.92600 41.17500
C  -8.55700 34.68400 42.04000
O  -8.30400 35.22800 43.12800
O  -7.60800 33.89900 41.40700
C  -6.23000 33.81800 41.83000
H  -8.89500 41.52900 39.74700
H  -14.62200 42.84700 42.59200
H  -15.36600 36.62200 43.49400
H  -7.44800 37.06200 40.23200
H  -8.09200 39.32400 38.74200
H  -6.58600 38.86300 41.34400
H  -6.90100 40.46600 40.62400
H  -5.96200 39.13700 39.71600
H  -8.59500 37.44200 37.57100
H  -9.51800 36.20800 38.49100
H  -7.80300 34.96600 37.46200
H  -7.07500 35.48900 39.01400
H  -9.53900 45.10800 40.68100
H  -10.14000 44.23700 39.16400
H  -8.78500 43.60400 39.96600
H  -14.47600 44.99500 41.98100
H  -13.80200 46.42300 42.82700
H  -13.64300 44.77400 43.56800
H  -16.56700 40.86600 42.26500
H  -16.34500 38.94000 44.46900
H  -17.04600 42.41400 43.92500
H  -15.61300 42.09800 44.80100
H  -17.05300 41.03100 45.05600
H  -16.98100 37.65900 42.15200
H  -17.86100 39.08600 41.92200
H  -18.66000 36.85400 43.52600
H  -19.52900 38.46100 43.16500
H  -18.54900 38.07800 44.59600
H  -15.10200 34.10500 42.74900
H  -14.40700 34.20500 44.32300
H  -13.67500 33.05500 43.23500
H  -9.51700 34.62900 40.14300
H  -5.55900 34.28800 41.11100
H  -5.92000 32.77400 41.88500
H  -6.00500 34.20000 42.82500

