158

Mg 6.32500 57.34100 41.54900
C  5.04700 54.02700 41.57100
C  9.45900 55.96400 40.91200
C  7.34800 60.47200 40.94500
C  3.01600 58.53200 41.85400
N  7.07400 55.30000 41.11900
C  6.43100 54.09400 41.29400
C  7.37600 52.88800 40.93800
C  8.80000 53.51400 41.29100
C  8.42000 55.03400 41.08100
C  9.32100 53.19200 42.70400
C  7.28700 52.50200 39.50500
C  7.90800 51.22700 38.97700
H  7.16200 50.32200 38.04500
N  8.14200 58.11900 41.02800
C  9.31800 57.41800 40.80600
C  10.36800 58.39200 40.62400
C  9.77700 59.70000 40.69000
C  8.36600 59.48200 40.88800
C  11.85700 58.06000 40.44500
C  10.50200 60.99700 40.43500
O  11.64700 60.87700 40.06500
C  9.90900 62.36200 40.66000
N  5.29700 59.17200 41.28500
C  5.94900 60.31500 41.19600
C  5.00400 61.57500 41.37400
C  3.62200 60.96900 41.77100
C  3.98000 59.49600 41.64000
C  5.63900 62.68900 42.28600
C  2.40300 61.56200 41.01800
C  2.51400 62.96300 40.39800
N  4.38300 56.51400 41.79100
C  3.16300 57.10400 41.87900
C  2.17200 56.09900 42.10500
C  2.88500 54.92100 42.06400
C  4.20100 55.13000 41.78500
C  0.69800 56.37000 42.39200
C  2.73700 53.50200 42.21600
O  1.69800 52.92500 42.48200
C  4.07200 52.85300 41.93200
C  3.84300 51.83700 40.81700
O  3.40200 52.09100 39.66200
O  4.15100 50.61800 41.16800
C  4.07200 49.58100 40.18800
H  10.42700 55.48400 40.75400
H  7.61300 61.53100 40.92000
H  2.02800 58.89800 42.14200
H  7.31600 52.02400 41.60100
H  9.57000 53.12000 40.62600
H  10.38200 52.94500 42.67300
H  8.87000 52.34300 43.21600
H  9.17800 54.01700 43.40200
H  7.73800 53.23400 38.83500
H  6.24300 52.35700 39.22700
H  8.14100 50.63100 39.85900
H  8.88300 51.33600 38.50100
H  12.56100 58.49000 41.15700
H  12.10400 58.49100 39.47400
H  11.96100 56.97600 40.41600
H  9.50700 62.52300 41.66000
H  9.16100 62.57600 39.89600
H  10.67900 63.08900 40.40200
H  4.88000 61.87900 40.33400
H  3.29500 61.22700 42.77800
H  4.85800 63.34400 42.67100
H  6.34100 63.27500 41.69300
H  6.08600 62.18000 43.14000
H  1.58200 61.65700 41.72900
H  2.07100 60.79300 40.32000
H  1.49200 63.25000 40.15200
H  3.11000 62.83300 39.49400
H  2.95700 63.70800 41.05900
H  0.33700 55.47800 42.90400
H  0.14200 56.45200 41.45800
H  0.56800 57.24400 43.02900
H  4.40700 52.24300 42.77100
H  3.03400 49.26900 40.30400
H  4.78800 48.80300 40.45300
H  4.35700 49.91000 39.18900
Mg -9.26600 18.43000 42.54400
C  -5.84600 18.10700 42.65200
C  -8.92800 21.79400 41.59100
C  -12.58700 18.52100 41.62100
C  -9.57700 14.95500 42.72400
N  -7.64900 19.78100 42.03700
C  -6.29500 19.38100 42.16000
C  -5.37900 20.62800 42.10700
C  -6.39200 21.81600 42.16000
C  -7.73700 21.08400 41.86900
C  -6.43200 22.60700 43.48900
C  -4.58100 20.75900 40.76600
C  -5.35800 20.83000 39.44900
H  -4.90700 19.99300 38.25300
N  -10.58500 20.02000 41.83300
C  -10.27100 21.29600 41.50600
C  -11.44800 21.99000 41.06600
C  -12.52600 21.05900 41.10800
C  -11.95400 19.78800 41.55900
C  -11.43600 23.51200 40.69200
C  -13.93900 21.35400 40.54000
O  -14.18700 22.46800 40.03900
C  -15.01600 20.33000 40.41600
N  -10.87600 16.90300 42.16100
C  -12.15300 17.23600 41.92100
C  -13.13300 15.97900 41.91600
C  -12.13600 14.81100 42.36900
C  -10.78600 15.56000 42.53100
C  -14.40700 16.20000 42.75400
C  -12.04600 13.50400 41.47300
C  -12.51600 12.17700 42.19700
N  -8.00400 16.80600 42.66800
C  -8.26800 15.46800 42.88600
C  -7.04300 14.73700 43.12000
C  -6.07300 15.73900 43.12200
C  -6.71900 16.98000 42.87100
C  -6.88900 13.23200 43.29000
C  -4.64900 16.01000 43.18000
O  -3.67200 15.24300 43.19400
C  -4.45600 17.60300 43.03300
C  -3.82900 18.11400 44.25300
O  -2.70400 18.46000 44.38300
O  -4.68600 17.98100 45.32700
C  -4.10600 18.53000 46.62000
H  -8.74400 22.84700 41.36400
H  -13.64000 18.55200 41.33400
H  -9.69500 13.93200 43.09000
H  -4.76000 20.56300 43.00200
H  -6.19400 22.54100 41.37100
H  -5.67900 22.15900 44.13800
H  -7.34700 22.42600 44.05200
H  -6.27600 23.66900 43.29900
H  -3.78600 20.01400 40.72600
H  -4.09000 21.72700 40.85600
H  -5.39800 21.87600 39.14500
H  -6.29700 20.35300 39.73200
H  -11.87100 23.70500 39.71100
H  -10.41500 23.87300 40.81600
H  -12.09100 24.04300 41.38200
H  -15.33600 20.02800 41.41300
H  -14.65200 19.49200 39.82100
H  -15.82300 20.74500 39.81300
H  -13.47000 15.79100 40.89600
H  -12.49400 14.46500 43.33800
H  -14.56700 17.19700 43.16400
H  -14.33900 15.43000 43.52300
H  -15.25200 16.07500 42.07700
H  -10.98500 13.48100 41.22400
H  -12.69700 13.70900 40.62300
H  -12.90100 11.46000 41.47100
H  -13.35100 12.40300 42.86000
H  -11.80600 11.64800 42.83300
H  -6.31500 12.81700 42.46200
H  -7.84700 12.71200 43.30900
H  -6.41900 12.93700 44.22800
H  -3.72400 17.86600 42.26900
H  -3.14100 18.09300 46.87800
H  -4.83100 18.44800 47.43000
H  -3.94600 19.60500 46.53800

