158

Mg 54.36600 24.14200 44.76300
C  52.12400 26.60200 43.97600
C  52.24800 21.77800 43.82400
C  56.96100 21.96800 44.98000
C  56.84600 26.77100 45.31000
N  52.46300 24.22300 43.83100
C  51.64200 25.33800 43.70300
C  50.22800 24.92700 43.35800
C  50.19000 23.37600 43.48400
C  51.73600 23.05200 43.74400
C  49.22200 22.73000 44.55800
C  49.74400 25.37700 41.89500
C  48.23900 24.96500 41.54200
H  47.98900 24.26700 40.21400
N  54.63200 22.06000 44.38700
C  53.56000 21.32400 43.99000
C  54.05000 19.96900 44.04600
C  55.40900 19.90500 44.39000
C  55.78000 21.33600 44.54200
C  53.09100 18.74800 43.81700
C  56.26600 18.65500 44.63200
O  55.63500 17.64600 44.64000
C  57.70500 18.71100 44.87700
N  56.65400 24.37100 44.80900
C  57.38800 23.27000 45.14400
C  58.78400 23.60400 45.73100
C  58.87200 25.14300 45.51600
C  57.40000 25.51600 45.11600
C  58.99600 23.30800 47.28100
C  59.86600 25.71700 44.46000
C  59.42200 25.56000 42.95000
N  54.47700 26.27700 44.84300
C  55.45600 27.20100 45.13700
C  54.85600 28.46700 45.25400
C  53.55600 28.28700 44.89000
C  53.38600 26.97400 44.54900
C  55.55500 29.76300 45.62800
C  52.21500 28.94000 44.70700
O  51.87400 30.09600 44.98800
C  51.33700 27.93100 43.91200
C  51.17400 28.45500 42.54500
O  52.08400 28.42100 41.70700
O  49.89500 28.89700 42.39400
C  49.56100 29.29300 41.02500
H  51.46400 21.05100 43.60000
H  57.80000 21.31400 45.22800
H  57.56900 27.58400 45.40600
H  49.55200 25.30500 44.12400
H  49.94900 22.95800 42.50700
H  48.92300 23.48100 45.28900
H  49.85100 22.03600 45.11500
H  48.30600 22.32200 44.13000
H  50.43300 25.04700 41.11800
H  49.72000 26.46600 41.86300
H  47.62800 25.86700 41.58800
H  47.94000 24.27300 42.32900
H  52.99400 18.59800 42.74200
H  52.15000 19.02600 44.29200
H  53.30000 17.77700 44.26700
H  58.11300 17.70500 44.97100
H  58.17100 19.26800 45.69000
H  58.10400 19.11200 43.94500
H  59.58400 23.10600 45.18300
H  59.12000 25.60100 46.47400
H  58.30100 22.54500 47.63100
H  58.75200 24.17100 47.90100
H  60.04000 23.17400 47.56600
H  60.85000 25.27800 44.62300
H  60.03900 26.76300 44.71400
H  58.86300 26.42800 42.59900
H  58.75600 24.71600 42.77300
H  60.25400 25.36300 42.27400
H  54.97500 30.60100 46.01500
H  56.15900 30.10500 44.78700
H  56.17700 29.48400 46.47800
H  50.39200 27.83100 44.44500
H  49.13900 30.28600 41.17400
H  48.76100 28.67700 40.61500
H  50.42600 29.30000 40.36200
Mg 6.64500 53.57700 40.76500
C  6.24900 50.03200 40.53600
C  9.95700 53.13300 39.98600
C  6.83800 56.79500 40.38800
C  3.06900 53.78000 40.85500
N  7.89900 51.86700 40.26800
C  7.56100 50.53500 40.21000
C  8.70000 49.64100 39.82200
C  9.90100 50.57100 40.19000
C  9.24800 52.00000 40.13200
C  10.59400 50.32100 41.57900
C  8.76500 49.00800 38.39800
C  8.41200 49.88600 37.12700
H  7.65000 51.20700 37.24900
N  8.26900 54.85300 40.33800
C  9.54500 54.44700 40.10600
C  10.26900 55.61500 40.13500
C  9.47300 56.72200 40.19700
C  8.11900 56.18900 40.23600
C  11.77900 55.62900 39.92600
C  9.80900 58.23400 40.06400
O  11.00000 58.50400 40.02400
C  8.82600 59.35600 40.03800
N  5.23700 54.95700 40.53500
C  5.61200 56.24300 40.58400
C  4.37500 57.17400 40.47400
C  3.21900 56.21200 40.23900
C  3.83900 54.91700 40.65400
C  4.16100 58.08600 41.69600
C  2.68000 56.14000 38.87100
C  1.13400 56.23400 38.65300
N  4.98300 52.19200 40.85000
C  3.60700 52.40300 40.97600
C  2.94800 51.07500 41.15000
C  4.00500 50.13700 41.01300
C  5.17500 50.86000 40.77000
C  1.49900 50.88700 41.32400
C  4.27400 48.71700 41.12000
O  3.55400 47.69300 41.21900
C  5.76300 48.64600 40.67800
C  5.73300 47.81800 39.54700
O  5.52200 48.14600 38.40600
O  6.22500 46.54800 39.92100
C  6.04100 45.45400 39.04800
H  11.04600 53.10400 39.91300
H  6.80700 57.88600 40.41400
H  1.98400 53.75900 40.97600
H  8.70800 48.75300 40.45500
H  10.67600 50.50000 39.42700
H  11.59900 49.94400 41.38700
H  10.03500 49.49400 42.01700
H  10.55500 51.18500 42.24200
H  8.05300 48.18800 38.49500
H  9.72900 48.50200 38.34500
H  7.73400 49.14600 36.70100
H  9.26000 50.06100 36.46600
H  12.02700 56.44100 39.24200
H  12.16500 54.71900 39.46700
H  12.21300 55.62200 40.92500
H  9.36100 60.30600 40.00500
H  8.29200 59.23600 40.98000
H  8.06900 59.24200 39.26200
H  4.44500 57.81200 39.59300
H  2.38700 56.40300 40.91700
H  4.59800 59.05400 41.45200
H  4.38300 57.64700 42.66800
H  3.13100 58.44200 41.73700
H  2.93000 55.16300 38.45800
H  3.08600 56.89900 38.20200
H  0.85900 56.62500 37.67300
H  0.86000 57.01100 39.36700
H  0.76200 55.23100 38.86100
H  1.37400 50.24300 42.19500
H  1.14100 50.22400 40.53700
H  0.91500 51.80600 41.37100
H  6.40800 48.10900 41.37300
H  6.88100 45.51800 38.35600
H  5.10700 45.68900 38.53700
H  5.88000 44.49000 39.53000

