158

Mg 30.00500 59.56100 39.29100
C  27.11200 57.99600 38.11400
C  31.81500 56.74500 38.35800
C  32.78200 61.46600 39.13500
C  27.99900 62.56900 39.87200
N  29.57900 57.75900 38.23200
C  28.33400 57.32400 37.84000
C  28.41700 55.95700 37.05500
C  29.79400 55.47300 37.54100
C  30.47200 56.74000 38.02200
C  29.73600 54.46200 38.72900
C  28.45000 56.09200 35.50800
C  27.17700 55.42600 34.83400
H  26.18100 56.23200 34.02800
N  32.04200 59.08700 39.18200
C  32.54500 57.89600 38.75700
C  33.95500 57.97200 38.76200
C  34.30900 59.35000 39.08200
C  33.01800 60.04400 39.16900
C  34.91900 56.87000 38.45400
C  35.69000 59.82800 39.31600
O  36.65800 59.06300 39.16900
C  35.98600 61.20300 39.77400
N  30.29100 61.71200 39.66200
C  31.55700 62.17700 39.40500
C  31.59900 63.70500 39.54500
C  30.12800 64.06500 40.00800
C  29.41000 62.68500 39.83200
C  32.64600 64.24600 40.47800
C  29.55600 65.28300 39.18300
C  28.41500 66.06100 39.71500
N  27.93500 60.18500 39.23200
C  27.25300 61.35900 39.51200
C  25.83400 61.22600 39.18000
C  25.75100 59.86500 38.72400
C  27.02000 59.28100 38.75800
C  24.81300 62.33100 39.31000
C  24.83700 58.89100 38.23300
O  23.64400 58.92400 38.24400
C  25.65300 57.60800 37.89400
C  25.21900 56.53100 38.81300
O  25.30500 56.48800 40.00600
O  24.57100 55.65600 38.03400
C  23.89400 54.52800 38.77600
H  32.40100 55.90200 37.98500
H  33.62000 62.10900 38.85700
H  27.35600 63.42300 40.09800
H  27.66100 55.24000 37.37400
H  30.40800 54.94700 36.81000
H  30.59300 54.65300 39.37500
H  29.72000 53.41000 38.44500
H  28.85400 54.63100 39.34800
H  29.29400 55.59800 35.02600
H  28.59400 57.15800 35.33500
H  26.61300 54.89100 35.59800
H  27.40100 54.65800 34.09400
H  35.57300 57.14700 37.62700
H  34.55000 55.87400 38.21200
H  35.52700 56.85200 39.35800
H  36.69700 61.20700 40.60100
H  35.13000 61.77700 40.12800
H  36.50900 61.68900 38.95000
H  31.70400 64.09800 38.53300
H  30.09800 64.22700 41.08600
H  33.55900 64.41800 39.90800
H  32.95600 63.60300 41.30200
H  32.28600 65.17700 40.91700
H  29.29800 64.95700 38.17500
H  30.36600 66.01300 39.18100
H  28.80300 67.06100 39.90800
H  27.94400 65.62600 40.59700
H  27.76700 66.15200 38.84400
H  24.00400 61.93300 39.92200
H  24.41100 62.42400 38.30100
H  25.17700 63.30200 39.64700
H  25.34700 57.34700 36.88100
H  23.48400 53.80500 38.07100
H  23.02000 54.87900 39.32400
H  24.61200 54.09400 39.47300
Mg 25.24100 52.47300 26.00300
C  23.35800 53.40800 28.84100
C  27.92000 52.08600 28.11300
C  26.99700 52.42600 23.23000
C  22.35700 53.39100 23.96100
N  25.55800 52.92400 28.29100
C  24.63700 53.07800 29.22100
C  25.23400 52.80800 30.65200
C  26.74300 52.56100 30.38400
C  26.75800 52.60300 28.79300
C  27.61700 53.61600 31.13400
C  24.51300 51.57000 31.36900
C  23.81500 51.82900 32.73200
H  24.71400 52.11600 33.83600
N  27.14800 52.11000 25.70200
C  28.11400 51.95000 26.67600
C  29.36500 51.58100 26.06400
C  29.18600 51.77200 24.64800
C  27.71700 52.10300 24.44200
C  30.67900 51.31900 26.81300
C  30.17900 51.70800 23.54500
O  29.91200 51.87400 22.38100
C  31.56600 51.15000 23.86900
N  24.75800 52.99700 23.91400
C  25.73900 52.74900 22.92700
C  25.20500 52.97100 21.51800
C  23.71000 53.21900 21.77400
C  23.59500 53.25700 23.28700
C  25.99900 54.06400 20.72000
C  22.74400 52.19800 21.11000
C  22.43100 52.65500 19.63300
N  23.28500 53.25900 26.31600
C  22.25000 53.48200 25.41700
C  21.11800 53.85500 26.08800
C  21.39400 53.73600 27.45400
C  22.80200 53.42200 27.51600
C  19.90000 54.35300 25.32000
C  20.84000 53.84400 28.75300
O  19.69400 54.03000 29.16400
C  22.13900 53.61200 29.77800
C  22.32600 54.82600 30.61700
O  22.82400 55.91200 30.28500
O  21.78000 54.64900 31.83800
C  21.97200 55.63800 32.90600
H  28.84600 52.04800 28.69000
H  27.67200 52.32300 22.37800
H  21.47300 53.64200 23.37100
H  25.06700 53.73700 31.19600
H  27.20600 51.60800 30.64100
H  28.33800 53.11300 31.77900
H  26.98600 54.11800 31.86800
H  28.09600 54.29900 30.43200
H  25.20600 50.74700 31.54400
H  23.77600 51.20700 30.65300
H  23.20700 50.94300 32.91700
H  23.19100 52.71500 32.62200
H  31.41600 52.02000 26.42100
H  31.07400 50.30300 26.80700
H  30.56900 51.73900 27.81300
H  32.16500 50.86400 23.00400
H  31.53100 50.24600 24.47700
H  32.08400 51.96600 24.37400
H  25.43200 52.07800 20.93500
H  23.54200 54.26500 21.52000
H  26.95800 54.35100 21.15100
H  25.38700 54.94900 20.54800
H  26.25300 53.64200 19.74800
H  21.77400 51.91200 21.51600
H  23.27300 51.25200 20.99300
H  22.35600 51.74800 19.03400
H  23.14800 53.41100 19.31300
H  21.50400 53.22700 19.60600
H  20.18200 55.23300 24.74300
H  19.10300 54.75400 25.94700
H  19.61900 53.65500 24.53200
H  21.88500 52.74800 30.39100
H  22.24300 56.62200 32.52200
H  22.77600 55.31700 33.56900
H  21.08400 55.85900 33.49800

