158

Mg 45.15600 4.82700 46.90400
C  42.57900 7.46300 46.55400
C  42.46900 2.57100 46.56600
C  47.37000 2.43300 46.34300
C  47.55900 7.31500 46.75400
N  42.78100 4.98700 46.41300
C  41.98100 6.16800 46.44300
C  40.52500 5.74100 46.15200
C  40.54200 4.31100 46.70300
C  42.04200 3.88900 46.51200
C  40.04800 4.05900 48.13900
C  40.03400 5.77700 44.67700
C  41.03800 5.87100 43.54600
H  40.65100 6.43400 42.12300
N  45.00100 2.76600 46.61500
C  43.79000 2.06400 46.56300
C  44.10100 0.63700 46.36900
C  45.51200 0.57900 46.14600
C  46.04100 1.92200 46.43600
C  43.19700 -0.50000 46.34400
C  46.35900 -0.63600 45.67800
O  45.81400 -1.69700 45.32900
C  47.85200 -0.60700 45.59100
N  47.10700 4.83900 46.70800
C  47.87600 3.72100 46.56400
C  49.36000 4.02400 46.72200
C  49.35100 5.60300 46.64700
C  47.93500 5.97500 46.63300
C  49.91800 3.44100 48.08500
C  50.20200 6.07600 45.40100
C  49.63500 5.83700 44.01800
N  45.12000 6.90500 46.72700
C  46.18000 7.79700 46.68800
C  45.65900 9.18100 46.73200
C  44.29200 9.03500 46.71200
C  43.98600 7.65400 46.69500
C  46.55800 10.39100 46.48000
C  43.08800 9.78300 46.78400
O  42.97100 11.02500 46.78500
C  41.80400 8.76200 46.72200
C  41.06300 8.72100 48.01900
O  41.06600 7.82400 48.83600
O  40.41800 9.93700 48.25800
C  39.47800 10.01800 49.35900
H  41.71800 1.77800 46.55900
H  48.16000 1.67900 46.33300
H  48.35900 8.02400 46.97300
H  39.89600 6.37700 46.77500
H  39.97900 3.69800 46.00000
H  40.82300 3.48700 48.65000
H  39.10400 3.53300 47.99600
H  39.84200 4.98600 48.67500
H  39.46500 6.70600 44.71300
H  39.29400 5.02900 44.39300
H  41.35800 4.86200 43.28500
H  41.86400 6.47700 43.92000
H  43.53800 -1.30100 46.99900
H  43.21400 -0.96700 45.35900
H  42.15200 -0.18900 46.32500
H  48.19900 -1.59500 45.28900
H  48.07000 -0.39900 46.63800
H  48.32200 0.15800 44.97300
H  49.86900 3.54700 45.88500
H  49.92600 5.94900 47.50600
H  49.22300 2.69800 48.47700
H  50.04000 4.23700 48.81900
H  50.90500 3.02900 47.87500
H  51.17100 5.58800 45.50400
H  50.32000 7.15200 45.52900
H  50.28300 5.12400 43.51000
H  49.71400 6.82500 43.56600
H  48.60200 5.51700 44.15900
H  46.27900 11.01900 47.32600
H  46.20900 10.87700 45.56900
H  47.59600 10.06100 46.44900
H  41.15300 8.96600 45.87100
H  39.96500 10.13300 50.32800
H  38.95500 9.09900 49.62900
H  38.85800 10.89300 49.16800
Mg -5.34800 25.75800 26.12600
C  -4.33100 27.05200 29.17300
C  -6.96500 23.26700 27.59400
C  -5.90900 24.49200 23.07400
C  -2.87600 27.90500 24.64200
N  -5.37800 25.15800 28.07200
C  -5.10800 25.91900 29.19500
C  -5.68200 25.29800 30.45100
C  -6.17500 23.88200 29.92500
C  -6.15200 24.08400 28.37700
C  -5.33600 22.60400 30.34500
C  -6.85900 26.24200 31.16100
C  -6.62000 26.68500 32.57500
H  -6.15700 25.60900 33.64300
N  -6.34500 24.13000 25.43700
C  -7.13200 23.30400 26.22300
C  -7.94900 22.53600 25.37500
C  -7.60200 22.78000 24.06400
C  -6.53000 23.83300 24.12700
C  -8.99100 21.65100 25.94000
C  -8.12300 22.20100 22.84200
O  -7.60900 22.54500 21.76600
C  -9.25900 21.23500 22.86600
N  -4.52400 26.20700 24.17100
C  -5.01000 25.54400 23.05300
C  -4.04200 25.88300 21.85600
C  -3.40600 27.19400 22.31000
C  -3.58300 27.07400 23.79600
C  -3.06900 24.74600 21.60600
C  -4.10500 28.47100 21.74200
C  -4.34800 28.63200 20.25800
N  -3.93900 27.23700 26.70000
C  -2.99100 28.00300 26.01200
C  -2.29200 28.87100 26.92200
C  -2.80700 28.53900 28.14800
C  -3.74400 27.52600 27.94600
C  -1.33600 29.99200 26.61200
C  -2.80300 28.98100 29.59000
O  -2.10800 29.86000 30.15500
C  -3.80600 27.96300 30.33600
C  -3.04700 27.28300 31.51400
O  -2.44400 26.22400 31.37600
O  -3.08700 28.09700 32.61500
C  -2.37200 27.60500 33.87100
H  -7.55100 22.56000 28.18500
H  -6.15800 24.02000 22.12100
H  -2.18500 28.53400 24.07700
H  -4.93600 25.24600 31.24500
H  -7.19700 23.67200 30.24200
H  -4.54900 23.02600 30.96900
H  -4.84900 22.00000 29.58000
H  -5.90500 21.93500 30.99000
H  -7.82800 25.74200 31.14500
H  -6.82300 27.08300 30.46800
H  -7.58800 27.01100 32.95600
H  -5.86800 27.47000 32.49900
H  -9.94300 22.00400 25.54200
H  -9.07100 21.77700 27.02000
H  -8.77500 20.61900 25.66300
H  -8.82500 20.28700 23.18400
H  -9.71600 20.97900 21.91000
H  -9.97300 21.68200 23.55800
H  -4.67300 25.99700 20.97500
H  -2.33000 27.11300 22.15700
H  -2.14900 25.06900 21.11900
H  -3.57700 24.12200 20.87100
H  -2.86900 24.03200 22.40500
H  -3.42100 29.29000 21.96000
H  -5.07300 28.67100 22.20000
H  -5.33700 29.02300 20.02000
H  -4.03900 27.73000 19.73000
H  -3.69600 29.46700 20.00000
H  -1.64200 30.85300 27.20700
H  -1.37200 30.35700 25.58500
H  -0.28200 29.74700 26.74500
H  -4.56300 28.60500 30.78700
H  -2.99000 27.27100 34.70500
H  -1.81200 28.48500 34.18700
H  -1.69400 26.79700 33.59800

