158

Mg 50.44100 45.87600 42.70900
C  47.58800 46.93900 41.02400
C  50.02300 42.72400 41.26100
C  53.66300 45.15100 43.35500
C  51.04500 49.24400 43.77600
N  48.94900 45.01000 41.21100
C  47.83100 45.60000 40.80200
C  46.95700 44.60000 40.00200
C  47.70100 43.16000 40.21700
C  48.95300 43.60800 40.94400
C  46.87100 42.09800 40.91700
C  46.75600 45.09800 38.50400
C  45.37400 44.88500 37.93600
H  45.13300 43.69800 36.98500
N  51.55700 44.07400 42.59300
C  51.24800 42.95900 41.95500
C  52.35200 41.93600 42.06200
C  53.42100 42.64100 42.65800
C  52.90900 44.03800 42.87900
C  52.11000 40.52300 41.59600
C  54.75000 42.07700 43.05900
O  54.88900 40.88400 43.07600
C  55.86600 42.95700 43.56700
N  52.03700 47.00400 43.55000
C  53.26400 46.44100 43.67400
C  54.24100 47.51000 44.15200
C  53.45400 48.75200 44.49800
C  52.08200 48.32800 44.02000
C  55.23400 47.11600 45.31800
C  53.98600 50.08200 43.96400
C  54.07400 51.25200 44.97100
N  49.55700 47.70800 42.63100
C  49.87200 48.95000 43.09900
C  48.81000 49.88300 42.69000
C  47.92600 49.12300 41.93900
C  48.41000 47.81900 41.82600
C  48.77200 51.32400 43.00500
C  46.65700 49.27400 41.16400
O  45.94000 50.23900 40.89200
C  46.46500 47.79800 40.55700
C  45.13800 47.33900 41.17300
O  44.86600 46.82600 42.29700
O  44.20500 47.49100 40.18800
C  42.85300 47.07200 40.46300
H  49.77000 41.73300 40.87700
H  54.75200 45.12900 43.27600
H  51.20900 50.30300 43.99200
H  45.95600 44.47600 40.41500
H  47.90100 42.54700 39.33800
H  45.81800 42.29600 40.71900
H  46.96300 42.02700 42.00100
H  47.17900 41.15800 40.45900
H  47.44600 44.55000 37.86300
H  46.93200 46.17000 38.41900
H  45.08000 45.72500 37.30700
H  44.63300 44.77700 38.72800
H  52.97900 39.88800 41.76900
H  51.87300 40.34100 40.54700
H  51.41100 39.99200 42.24200
H  55.53800 43.54600 44.42400
H  56.24300 43.59300 42.76700
H  56.74700 42.36100 43.80500
H  54.75500 47.62400 43.19800
H  53.21400 48.88000 45.55300
H  54.80600 46.24700 45.81800
H  55.26900 47.83200 46.13900
H  56.22100 47.01800 44.86500
H  53.47600 50.32100 43.03100
H  55.03500 49.93000 43.70900
H  54.50700 50.87300 45.89700
H  53.06400 51.56700 45.23400
H  54.57700 52.14800 44.60900
H  48.73000 51.96900 42.12700
H  49.63500 51.62900 43.59700
H  47.85100 51.44400 43.57600
H  46.31200 47.79900 39.47800
H  42.24800 47.55100 39.69300
H  42.60200 47.36500 41.48200
H  42.72600 46.01100 40.24900
Mg 26.89500 50.26800 26.02900
C  24.78100 51.51600 28.51500
C  28.90800 49.06800 28.49900
C  28.94200 49.22600 23.57100
C  24.73500 51.84700 23.63900
N  26.83400 50.32000 28.25400
C  25.85500 50.83800 29.03100
C  26.06900 50.57500 30.55700
C  27.51000 49.98600 30.52100
C  27.81100 49.86000 29.00500
C  28.68100 50.78100 31.22800
C  25.00400 49.53400 31.13100
C  24.46400 49.93800 32.55000
H  25.46500 50.57600 33.58200
N  28.63200 49.23200 25.99300
C  29.28700 48.79500 27.13300
C  30.57100 48.28000 26.76600
C  30.56900 48.28500 25.32900
C  29.29500 48.93200 24.90300
C  31.59500 47.79800 27.75300
C  31.56100 47.71400 24.39800
O  31.48200 47.76400 23.14900
C  32.85100 47.05600 24.89400
N  26.74100 50.39500 23.94600
C  27.73000 49.86300 23.17900
C  27.41100 50.01800 21.68200
C  26.06700 50.84500 21.71700
C  25.80400 51.06700 23.20600
C  28.59800 50.85100 20.97300
C  24.75300 50.30200 20.99100
C  24.03600 49.14900 21.65900
N  25.10800 51.47600 26.02400
C  24.38600 51.97900 25.01600
C  23.22700 52.73400 25.53300
C  23.33900 52.58400 26.91700
C  24.51700 51.83000 27.18100
C  22.25900 53.44000 24.72000
C  22.69000 52.97900 28.14700
O  21.69300 53.66200 28.28600
C  23.54700 52.21600 29.21800
C  23.95900 53.24600 30.22500
O  24.95800 53.93600 30.17100
O  23.10400 53.36500 31.29700
C  23.50200 54.30800 32.36200
H  29.59800 48.82400 29.30900
H  29.56300 48.83500 22.76200
H  24.16600 52.35900 22.86000
H  26.11600 51.55400 31.03400
H  27.63400 49.01100 30.99400
H  28.40500 51.78000 31.56800
H  29.53500 50.84800 30.55500
H  29.00800 50.28800 32.14300
H  25.40800 48.52200 31.16300
H  24.16000 49.38000 30.45900
H  23.92500 49.10400 33.00000
H  23.76100 50.75700 32.40100
H  32.61500 48.09600 27.51200
H  31.51600 46.71100 27.79600
H  31.40500 48.11100 28.77900
H  33.54700 46.70000 24.13400
H  32.56300 46.28300 25.60600
H  33.38500 47.84500 25.42200
H  27.15700 49.03300 21.29200
H  26.38500 51.82100 21.35000
H  29.36000 51.29500 21.61300
H  28.25400 51.68500 20.36200
H  29.04600 50.11900 20.30000
H  25.24600 50.00500 20.06500
H  24.04200 51.11800 20.86400
H  23.13800 49.61300 22.06800
H  24.65500 48.72600 22.45100
H  23.96900 48.34500 20.92600
H  21.78300 52.83900 23.94600
H  22.72000 54.27200 24.18700
H  21.53500 53.90400 25.39000
H  22.79600 51.63000 29.74800
H  24.11900 55.15800 32.07200
H  24.19400 53.81700 33.04600
H  22.55300 54.64500 32.77800

