158

Mg 17.56400 -2.00400 27.85200
C  16.22600 0.02800 30.50100
C  19.59700 -3.40500 30.11100
C  19.13600 -3.45300 25.37700
C  15.63200 0.01700 25.65100
N  17.86100 -1.65100 30.13100
C  17.21300 -0.88300 30.94300
C  17.60100 -1.18700 32.39600
C  18.96000 -1.94100 32.19300
C  18.78200 -2.39900 30.71100
C  20.19300 -0.98700 32.51500
C  16.51000 -1.71900 33.31600
C  16.23000 -0.83400 34.50700
H  17.31400 -0.34400 35.49500
N  18.96400 -3.47600 27.77800
C  19.65200 -3.97800 28.83000
C  20.59000 -5.01000 28.41600
C  20.35300 -5.09300 26.97100
C  19.47200 -3.97700 26.64300
C  21.55900 -5.71300 29.28400
C  20.94400 -6.09500 25.95000
O  20.63700 -6.00400 24.74300
C  21.92000 -7.22600 26.35600
N  17.46400 -1.67000 25.89500
C  18.25200 -2.38500 25.05900
C  18.04700 -1.92800 23.61700
C  16.89300 -0.98600 23.65700
C  16.56400 -0.86100 25.15500
C  19.23500 -1.31000 22.78500
C  15.61600 -1.28200 22.70700
C  15.21300 -0.09700 21.87800
N  16.11700 -0.37900 27.97500
C  15.38200 0.29700 27.03000
C  14.38400 1.14600 27.65900
C  14.69200 1.11100 29.03000
C  15.77400 0.19600 29.15800
C  13.26300 1.84400 26.97300
C  14.35100 1.62500 30.29100
O  13.59400 2.48300 30.67000
C  15.29900 0.88000 31.29300
C  15.89000 1.95700 32.09400
O  16.86100 2.61200 31.75900
O  15.17600 2.03600 33.23600
C  15.56700 3.13500 34.16400
H  20.40700 -3.63200 30.80700
H  19.50800 -3.82600 24.42000
H  14.99700 0.52900 24.92400
H  17.90900 -0.23900 32.83700
H  19.00800 -2.83200 32.81900
H  20.93100 -1.14700 31.72900
H  20.68000 -1.29800 33.43900
H  20.06500 0.09600 32.53200
H  16.83400 -2.72600 33.57800
H  15.52700 -1.83700 32.85900
H  15.49800 -1.32100 35.15100
H  15.63200 -0.00200 34.13400
H  21.30800 -6.77300 29.32400
H  21.66000 -5.36100 30.31100
H  22.51300 -5.40400 28.85800
H  22.87800 -6.80200 26.65700
H  22.15600 -7.88900 25.52300
H  21.43000 -7.78900 27.15100
H  17.81700 -2.79300 22.99500
H  17.22600 0.04800 23.56700
H  19.22900 -0.22100 22.76700
H  19.29200 -1.61900 21.74100
H  20.12500 -1.69000 23.28700
H  14.81800 -1.37900 23.44400
H  15.76400 -2.19500 22.12900
H  14.84800 -0.47000 20.92100
H  15.98500 0.64100 21.66200
H  14.34500 0.37900 22.33300
H  12.63100 2.23400 27.77100
H  12.60300 1.14100 26.46400
H  13.55600 2.66300 26.31600
H  14.58300 0.21600 31.77800
H  15.26000 4.09900 33.75900
H  16.64400 3.04200 34.30500
H  15.24000 2.98800 35.19300
Mg 30.46200 58.12900 39.26000
C  27.82200 56.09100 38.03600
C  32.70000 55.58000 38.42000
C  33.07300 60.35600 39.43800
C  28.14900 60.75900 39.54000
N  30.24500 56.07000 38.34800
C  29.08500 55.49400 37.94700
C  29.36000 54.03800 37.60700
C  30.85700 53.76800 37.92300
C  31.32100 55.19900 38.35100
C  31.17100 52.74200 39.06800
C  28.90100 53.69000 36.23300
C  29.53000 54.48400 35.05800
H  28.62600 55.46600 34.21500
N  32.61700 57.96200 38.95300
C  33.32600 56.76800 38.74700
C  34.77600 57.09400 38.72200
C  34.89100 58.48500 38.99800
C  33.48500 59.00900 39.14500
C  35.91400 56.08000 38.55000
C  36.16700 59.25500 38.94500
O  37.25400 58.64200 38.82700
C  36.21800 60.83100 38.88300
N  30.58300 60.28300 39.18600
C  31.77500 60.91500 39.52500
C  31.54300 62.48000 39.58600
C  30.01300 62.52600 39.63000
C  29.50400 61.06100 39.48400
C  32.26600 63.30300 40.68100
C  29.26300 63.42800 38.57000
C  28.60600 64.68400 39.18300
N  28.34900 58.37400 39.06600
C  27.58600 59.47400 39.23100
C  26.18400 59.08900 39.06000
C  26.18400 57.78600 38.58300
C  27.55500 57.40200 38.51100
C  24.98200 59.91800 39.31200
C  25.35100 56.66600 38.17000
O  24.14200 56.55700 38.03900
C  26.44200 55.54900 37.70100
C  26.10500 54.37900 38.51400
O  26.50700 54.06900 39.63400
O  25.25200 53.59200 37.73000
C  24.54600 52.50100 38.37000
H  33.42300 54.80600 38.15300
H  33.83300 61.09800 39.69000
H  27.39700 61.55100 39.57300
H  28.83500 53.37200 38.29200
H  31.43600 53.32500 37.11400
H  30.51600 52.71700 39.93900
H  32.17800 52.93400 39.43600
H  31.22700 51.76600 38.58700
H  27.82700 53.73400 36.05200
H  29.12100 52.62700 36.13400
H  29.91300 53.77600 34.32400
H  30.41700 55.03900 35.36400
H  36.85300 56.35400 39.03200
H  36.07800 56.03200 37.47300
H  35.65600 55.08700 38.92000
H  37.14000 61.15300 38.39700
H  36.01200 61.17800 39.89500
H  35.39300 61.07800 38.21500
H  31.91900 62.92800 38.66600
H  29.81800 62.82100 40.66100
H  33.01700 63.93800 40.21000
H  32.98700 62.69200 41.22500
H  31.61700 63.88000 41.33900
H  28.41900 62.87800 38.15500
H  30.00200 63.86700 37.89900
H  29.10500 65.52200 38.69800
H  28.73900 64.72800 40.26400
H  27.52500 64.63700 39.04300
H  24.49800 59.61600 40.24000
H  24.16200 59.78700 38.60600
H  25.25200 60.96500 39.45400
H  26.32600 55.27900 36.65100
H  23.59600 52.44000 37.83900
H  24.33700 52.48800 39.44000
H  25.10800 51.58000 38.21300

