158

Mg 47.78900 34.58700 27.00200
C  45.99900 32.98200 29.59500
C  47.95500 37.35400 29.06400
C  49.22100 35.97400 24.50600
C  46.99600 31.76600 24.99100
N  46.94700 35.08700 29.12200
C  46.48800 34.23400 30.01600
C  46.39600 34.88400 31.38600
C  46.68800 36.39300 31.09400
C  47.16600 36.35000 29.63400
C  45.49900 37.33500 31.27400
C  47.49400 34.25700 32.27500
C  47.04700 33.87100 33.71300
H  47.68700 34.76700 34.77000
N  48.40300 36.50700 26.70700
C  48.54500 37.45800 27.73300
C  49.28700 38.60100 27.15500
C  49.63600 38.23100 25.82200
C  49.07700 36.84000 25.61900
C  49.50600 39.84800 27.88700
C  50.45200 38.98700 24.80600
O  50.65900 38.57900 23.66800
C  51.00100 40.42600 25.10100
N  47.92900 33.91000 24.92500
C  48.69300 34.73000 24.09800
C  49.01300 33.96300 22.73000
C  48.32200 32.60300 22.99200
C  47.74800 32.73000 24.37500
C  48.47300 34.68300 21.45700
C  49.22400 31.29300 22.93100
C  48.61400 30.04900 22.21400
N  46.71700 32.78600 27.18700
C  46.44100 31.81800 26.26400
C  45.55800 30.81200 26.87800
C  45.47600 31.19800 28.20500
C  46.15100 32.41700 28.34200
C  45.04800 29.49500 26.23200
C  44.90200 30.80200 29.49000
O  44.19700 29.82200 29.79800
C  45.05700 32.08000 30.37000
C  45.58500 31.46900 31.59200
O  46.75300 31.12800 31.76300
O  44.54100 31.36000 32.52000
C  44.82400 30.97500 33.89000
H  48.02900 38.22100 29.72200
H  49.84800 36.30700 23.67600
H  46.87800 30.84400 24.41900
H  45.37800 34.78500 31.76300
H  47.39600 36.78700 31.82200
H  45.75300 38.31300 31.68200
H  44.69700 36.93000 31.89100
H  45.01900 37.50800 30.31100
H  48.36500 34.90900 32.34000
H  47.89700 33.31800 31.89500
H  47.54700 32.91700 33.88100
H  45.99000 33.67700 33.89200
H  49.26500 39.77100 28.94700
H  48.98600 40.69600 27.44100
H  50.55000 40.15000 27.80600
H  51.53500 40.77400 24.21700
H  51.73600 40.31500 25.89800
H  50.20100 41.07800 25.45300
H  50.07200 33.75400 22.57600
H  47.34600 32.56600 22.50800
H  48.11200 35.62700 21.86600
H  47.69500 34.10600 20.95600
H  49.32200 35.01400 20.85900
H  49.31700 30.85000 23.92300
H  50.17400 31.60100 22.49500
H  49.35500 29.48700 21.64400
H  47.76800 30.19500 21.54300
H  48.23900 29.33800 22.95000
H  44.05400 29.73400 25.85400
H  44.89300 28.75200 27.01400
H  45.84800 29.14000 25.58300
H  44.05800 32.48200 30.53700
H  45.91300 30.94500 33.94300
H  44.47100 30.04200 34.33000
H  44.43600 31.71900 34.58600
Mg -10.41300 15.96800 42.80400
C  -7.01200 16.91800 43.02900
C  -11.14800 19.30500 42.32500
C  -13.59900 15.06100 42.16100
C  -9.30900 12.60900 42.47300
N  -9.17700 17.86600 42.61100
C  -7.85900 18.01500 42.78900
C  -7.47100 19.53400 42.56400
C  -8.79100 20.27400 42.42900
C  -9.79800 19.10500 42.49600
C  -9.11800 21.45100 43.49300
C  -6.53200 19.55600 41.28600
C  -5.46100 20.62500 41.26400
H  -5.31200 21.34000 39.96200
N  -12.14100 17.03300 42.27600
C  -12.20600 18.40400 42.12400
C  -13.55500 18.72000 41.77000
C  -14.30200 17.48000 41.58800
C  -13.37300 16.44600 42.01400
C  -13.99500 20.14500 41.37200
C  -15.65800 17.35200 41.09000
O  -16.29900 18.36500 40.89000
C  -16.35000 16.01200 40.84000
N  -11.33400 14.09700 42.31100
C  -12.67000 14.02300 42.37000
C  -13.16900 12.55500 42.43800
C  -11.73800 11.79300 42.30400
C  -10.65600 12.86100 42.37300
C  -13.89300 12.20800 43.78600
C  -11.65500 10.69700 41.23300
C  -11.07800 11.16800 39.81900
N  -8.60200 14.90800 42.93300
C  -8.32900 13.57100 42.73900
C  -6.91200 13.36700 42.83000
C  -6.38900 14.64700 43.00700
C  -7.43300 15.58200 43.01900
C  -6.19300 12.06300 42.70200
C  -5.11600 15.32900 43.18800
O  -3.97300 14.85300 43.22100
C  -5.50000 16.89500 43.19200
C  -5.19100 17.39300 44.54700
O  -5.53800 16.86800 45.62800
O  -4.56300 18.61600 44.48300
C  -4.30600 19.47400 45.67200
H  -11.39900 20.36800 42.32500
H  -14.57700 14.59800 42.01300
H  -8.91500 11.59100 42.52000
H  -6.94800 19.99500 43.40200
H  -8.83100 20.72000 41.43500
H  -8.25400 22.07700 43.71700
H  -9.38200 20.95700 44.42800
H  -9.92200 22.03900 43.05300
H  -7.18000 19.65600 40.41500
H  -6.07500 18.58200 41.11200
H  -4.50900 20.12200 41.44000
H  -5.78200 21.42200 41.93500
H  -14.08800 20.14700 40.28600
H  -13.31600 20.89400 41.77900
H  -14.93600 20.20900 41.91900
H  -15.74700 15.30500 40.26900
H  -17.28000 16.11300 40.28000
H  -16.70100 15.61900 41.79400
H  -13.86400 12.41900 41.61000
H  -11.44500 11.17900 43.15600
H  -14.86500 11.89400 43.40500
H  -14.09500 13.06900 44.42300
H  -13.51900 11.31300 44.28500
H  -12.68700 10.39200 41.06200
H  -11.12300 9.80400 41.56000
H  -10.30600 11.93700 39.83600
H  -11.90600 11.43900 39.16400
H  -10.61800 10.27300 39.40100
H  -6.11700 11.56000 43.66600
H  -5.15300 12.21500 42.41400
H  -6.68700 11.25900 42.15700
H  -4.88800 17.51200 42.53400
H  -4.38600 20.54900 45.51300
H  -3.41000 19.12600 46.18600
H  -5.13500 19.29700 46.35700

