158

Mg 40.38600 9.54900 29.64100
C  42.61300 10.67300 32.10900
C  38.25700 8.36000 32.08600
C  38.63800 8.00800 27.19600
C  42.94800 9.98600 27.28300
N  40.51400 9.48200 31.87800
C  41.47700 10.06400 32.65300
C  41.01500 10.07800 34.13200
C  39.72900 9.13800 34.10500
C  39.46600 8.90800 32.57900
C  39.80700 7.81900 34.87100
C  40.80700 11.59300 34.62900
C  40.13200 11.80000 36.02800
H  41.06400 12.27000 37.09800
N  38.62400 8.52600 29.62000
C  37.88800 8.11200 30.73200
C  36.64600 7.48000 30.29100
C  36.67100 7.46800 28.84900
C  38.01900 8.04300 28.50100
C  35.61700 6.89800 31.30000
C  35.70300 6.90100 27.93800
O  35.88000 6.81900 26.70800
C  34.42300 6.21900 28.31000
N  40.71800 9.04100 27.53800
C  39.83300 8.36600 26.77200
C  40.32800 8.09000 25.28100
C  41.70500 8.90800 25.36100
C  41.80500 9.29300 26.82900
C  40.55500 6.61400 24.85600
C  41.75200 10.07500 24.36600
C  41.11000 11.46000 24.80800
N  42.29000 10.21600 29.60700
C  43.20500 10.33500 28.59500
C  44.42800 10.87500 29.10500
C  44.18500 11.18800 30.42400
C  42.94400 10.68400 30.73900
C  45.73100 11.29100 28.30300
C  44.73300 11.81700 31.59600
O  45.76700 12.49500 31.72700
C  43.75200 11.61200 32.69600
C  44.33700 10.98600 33.90800
O  44.48300 9.75900 33.97400
O  44.69100 11.84700 34.91800
C  45.23700 11.30300 36.15600
H  37.45000 8.07300 32.76300
H  38.08900 7.41400 26.46200
H  43.63300 10.25100 26.47500
H  41.72200 9.66800 34.85300
H  38.85000 9.65200 34.49500
H  40.38500 8.01600 35.77400
H  40.30300 7.10800 34.21000
H  38.78200 7.49900 35.06200
H  40.33700 12.16400 33.82800
H  41.80000 12.03500 34.71400
H  39.86400 10.76800 36.25400
H  39.25800 12.45000 35.98200
H  35.28100 5.91300 30.97800
H  34.73200 7.52500 31.18800
H  35.96000 6.77200 32.32700
H  33.58000 6.46900 27.66600
H  34.03100 6.61100 29.24900
H  34.58600 5.17000 28.55800
H  39.64000 8.58500 24.59600
H  42.57600 8.27700 25.18100
H  41.60300 6.33400 24.96500
H  40.23500 6.43100 23.83000
H  40.04200 5.93100 25.53300
H  41.21100 9.84100 23.44900
H  42.81400 10.18700 24.14700
H  41.84800 12.22900 25.03600
H  40.35300 11.30000 25.57600
H  40.54800 11.86000 23.96400
H  45.38000 11.65800 27.33800
H  46.30000 10.37700 28.12800
H  46.22300 12.11900 28.81300
H  43.32800 12.56500 33.01600
H  46.18800 10.77000 36.14500
H  44.50700 10.65200 36.63600
H  45.29500 12.05100 36.94700
Mg 5.70700 54.10800 39.54100
C  5.91200 50.49400 39.47800
C  9.07200 54.22000 39.28100
C  5.48300 57.31500 38.52700
C  2.26900 53.68800 39.46800
N  7.23500 52.51100 39.28800
C  7.10400 51.12600 39.24100
C  8.49200 50.49100 39.26400
C  9.32800 51.68900 39.78200
C  8.51400 52.88500 39.44800
C  9.75200 51.69400 41.25600
C  9.03600 49.92400 37.92300
C  8.72800 50.78600 36.61900
H  8.02800 50.10500 35.45700
N  7.13100 55.65100 38.98400
C  8.45600 55.47200 39.03200
C  9.07400 56.72400 38.66300
C  8.05700 57.59300 38.39800
C  6.80000 56.86600 38.67500
C  10.64700 56.98600 38.68400
C  8.21800 59.03700 38.12100
O  9.33400 59.51700 37.82600
C  7.11000 60.05500 38.20300
N  4.06100 55.28300 38.97900
C  4.24300 56.69700 38.81700
C  2.94300 57.35100 38.87500
C  1.90400 56.19400 38.92800
C  2.76500 54.97000 39.23600
C  2.83700 58.41200 40.05100
C  1.09400 55.99600 37.56000
C  -0.32600 55.36700 37.64100
N  4.36600 52.44000 39.70800
C  3.01300 52.44300 39.66200
C  2.48000 51.07900 39.92800
C  3.59400 50.29400 39.93400
C  4.68100 51.14500 39.71300
C  1.04800 50.74200 40.13700
C  4.08000 49.00400 39.86500
O  3.43700 47.96900 39.93200
C  5.59700 49.02300 39.66800
C  5.89000 48.14200 38.46300
O  5.23400 48.15900 37.44100
O  6.84800 47.19800 38.81500
C  6.97400 46.18500 37.75900
H  10.13400 54.41400 39.44400
H  5.28100 58.19600 37.91400
H  1.18800 53.61300 39.60800
H  8.40100 49.68600 39.99400
H  10.17100 51.86900 39.11500
H  9.37300 52.65500 41.60300
H  10.82000 51.50300 41.36500
H  9.13900 50.90100 41.68400
H  8.70400 48.90900 37.70600
H  10.11400 49.86000 38.07400
H  9.67700 51.14300 36.21900
H  8.08800 51.64900 36.80000
H  10.91500 57.53100 37.77900
H  11.27600 56.09600 38.67200
H  10.88800 57.49000 39.62000
H  7.48300 61.07300 38.31200
H  6.53300 59.85100 39.10500
H  6.52600 59.94100 37.29000
H  2.93800 57.81900 37.89100
H  1.25600 56.15600 39.80300
H  3.84200 58.59000 40.43300
H  2.17300 58.05200 40.83700
H  2.37900 59.31400 39.64600
H  1.72500 55.29800 37.01100
H  1.09400 56.94200 37.01900
H  -1.05100 55.84800 36.98500
H  -0.71400 55.66000 38.61700
H  -0.32800 54.28200 37.53700
H  0.80600 50.81700 41.19700
H  0.89900 49.69200 39.88200
H  0.38100 51.40300 39.58400
H  6.11300 48.55800 40.50800
H  7.14700 46.72600 36.82900
H  6.06100 45.60100 37.63900
H  7.87700 45.59000 37.89600

