158

Mg 9.61700 49.04200 24.11400
C  7.25100 49.70700 26.46900
C  12.13500 50.20500 26.39400
C  12.06500 48.48200 21.80900
C  7.20300 47.97400 21.89500
N  9.65600 50.05100 26.17700
C  8.51400 50.03400 26.97900
C  8.90600 50.46800 28.43800
C  10.38400 51.04900 28.21000
C  10.78000 50.35300 26.85800
C  10.51800 52.57400 28.24800
C  8.69500 49.31300 29.47500
C  9.38500 49.46200 30.88200
H  8.49000 49.55800 32.05200
N  11.76200 49.24500 24.16900
C  12.55300 49.63200 25.22000
C  13.92600 49.69400 24.81000
C  14.01000 49.27600 23.40500
C  12.55800 48.97300 23.07600
C  15.09900 50.04700 25.65700
C  15.20600 49.04300 22.53300
O  15.05500 48.91200 21.31600
C  16.57300 48.90100 23.05600
N  9.59600 48.37400 22.09900
C  10.73600 48.17100 21.40500
C  10.55000 47.56200 20.05000
C  8.94600 47.42100 20.00500
C  8.49600 47.97000 21.40800
C  11.15200 48.35200 18.94000
C  8.60000 45.90800 19.72300
C  8.44300 44.95100 20.92800
N  7.60300 48.87000 24.07900
C  6.72200 48.45100 23.14500
C  5.36900 48.55600 23.68800
C  5.54400 49.06800 24.98700
C  6.91100 49.21600 25.18600
C  4.11300 48.14800 22.96800
C  4.80000 49.47500 26.17300
O  3.60700 49.46100 26.43800
C  5.86100 49.75300 27.19200
C  5.72500 48.64600 28.20500
O  6.20100 47.50300 28.07500
O  5.12900 49.16700 29.34700
C  4.82600 48.15000 30.28200
H  12.80000 50.66200 27.12900
H  12.81400 48.23200 21.05500
H  6.55900 47.49600 21.15300
H  8.31000 51.29600 28.82200
H  11.02400 50.69500 29.01800
H  9.56200 53.09400 28.18700
H  11.25900 52.91100 27.52300
H  10.94800 52.90200 29.19400
H  9.11600 48.46000 28.94300
H  7.62000 49.26000 29.64200
H  10.02600 50.34400 30.86700
H  10.14100 48.67800 30.93000
H  14.82200 50.14400 26.70600
H  15.47200 51.02800 25.36000
H  15.90200 49.31900 25.53900
H  16.54800 48.01000 23.68300
H  16.84900 49.81900 23.57600
H  17.29100 48.74800 22.25000
H  11.11900 46.63900 20.15800
H  8.42400 47.96200 19.21600
H  11.29000 49.34500 19.36600
H  10.31300 48.34200 18.24400
H  12.09300 48.00900 18.51100
H  9.42500 45.50400 19.13500
H  7.67000 45.77900 19.16900
H  8.50200 45.42500 21.90700
H  9.13000 44.10500 20.92900
H  7.40500 44.62100 20.96900
H  3.47800 47.61200 23.67300
H  4.38300 47.38800 22.23500
H  3.54600 48.97200 22.53500
H  5.70900 50.76400 27.57000
H  4.17800 47.42100 29.79600
H  4.23100 48.56200 31.09700
H  5.74600 47.67800 30.62700
Mg -1.50900 35.25700 26.42200
C  -2.86300 33.32400 28.92300
C  -0.75400 37.70200 28.73700
C  -0.09200 36.97600 23.91500
C  -2.94500 33.05100 24.02000
N  -2.01200 35.53400 28.62200
C  -2.42300 34.53600 29.45900
C  -2.24500 34.99800 30.91100
C  -1.64800 36.52900 30.76100
C  -1.48500 36.63500 29.27000
C  -2.63500 37.58400 31.33500
C  -1.18200 34.10300 31.68700
C  -1.50300 33.26900 32.87500
H  -0.62400 33.36000 34.13000
N  -0.53800 37.02200 26.30800
C  -0.34900 37.88900 27.38000
C  0.51600 38.94200 26.92000
C  0.68400 38.79500 25.49500
C  0.03300 37.51400 25.19000
C  1.15600 39.95000 27.83300
C  1.38900 39.73300 24.56000
O  1.64100 39.45700 23.37400
C  1.88000 41.03600 25.05600
N  -1.49300 35.00800 24.29200
C  -0.71500 35.77000 23.47900
C  -0.67400 35.35100 21.95700
C  -1.48800 33.99200 22.12100
C  -2.08100 34.06600 23.57700
C  -1.28400 36.29400 20.93500
C  -0.67800 32.70200 21.76000
C  0.48200 32.39900 22.78200
N  -2.89500 33.68800 26.45000
C  -3.36300 32.94000 25.40100
C  -4.15400 31.94200 25.97300
C  -3.91000 31.95700 27.35600
C  -3.24800 33.16500 27.57900
C  -4.95000 30.91200 25.15700
C  -4.18900 31.22700 28.56100
O  -4.89900 30.23400 28.72100
C  -3.42500 32.11800 29.69200
C  -4.41000 32.35600 30.82800
O  -5.18900 33.24400 30.91400
O  -4.17300 31.39000 31.68600
C  -5.18700 31.34600 32.78300
H  -0.35400 38.37400 29.49900
H  0.22800 37.59500 23.07300
H  -3.36200 32.31100 23.33400
H  -3.16800 34.93200 31.48800
H  -0.66700 36.60900 31.22900
H  -3.37700 36.98400 31.86100
H  -3.03100 38.13400 30.48100
H  -2.19600 38.27400 32.05600
H  -0.27300 34.68500 31.83900
H  -0.99700 33.25900 31.02200
H  -1.47000 32.24600 32.50000
H  -2.50900 33.65900 33.02500
H  0.83500 39.89000 28.87300
H  1.04100 40.94300 27.39700
H  2.23000 39.76600 27.85400
H  2.61200 40.83700 25.83900
H  0.98400 41.53400 25.42700
H  2.23200 41.59600 24.18900
H  0.35100 35.08500 21.69600
H  -2.39700 33.99700 21.51900
H  -2.20900 35.87100 20.54300
H  -0.66900 36.36700 20.03800
H  -1.49500 37.27600 21.35900
H  -0.25700 32.91300 20.77700
H  -1.21700 31.75800 21.68200
H  0.20800 31.41700 23.16800
H  0.41600 33.08500 23.62700
H  1.44800 32.46800 22.28200
H  -5.96100 31.31400 25.08900
H  -5.05000 29.97000 25.69600
H  -4.45400 30.78700 24.19500
H  -2.60200 31.56400 30.14400
H  -5.19100 30.36200 33.25200
H  -6.20200 31.65800 32.53500
H  -4.73200 32.08300 33.44300

