158

Mg 24.21500 -4.90200 45.87500
C  26.45200 -2.86100 44.39900
C  21.65200 -3.48300 44.07200
C  22.23800 -7.48700 46.76900
C  26.93300 -6.48200 47.69700
N  24.08700 -3.42100 44.24800
C  25.17000 -2.58400 43.90100
C  24.66000 -1.50100 42.87500
C  23.07400 -1.52600 43.07500
C  22.87200 -2.83400 43.88300
C  22.51800 -0.31900 44.02600
C  25.13800 -1.95100 41.43000
C  25.66100 -0.90000 40.44500
H  25.12000 -0.85000 39.00500
N  22.19000 -5.26600 45.63100
C  21.32300 -4.62500 44.71900
C  20.00000 -5.30400 44.66900
C  20.15900 -6.49800 45.51200
C  21.57000 -6.47600 46.00900
C  18.81600 -4.79900 43.87100
C  18.96200 -7.55700 45.73100
O  17.85300 -7.30000 45.31600
C  19.11400 -8.70500 46.69100
N  24.69600 -6.94800 46.92700
C  23.56700 -7.58700 47.33000
C  24.14300 -8.87500 48.07600
C  25.45800 -8.41400 48.62800
C  25.74800 -7.22600 47.69000
C  23.19000 -9.43600 49.07700
C  26.59200 -9.52400 48.57700
C  27.11800 -9.95200 49.95300
N  26.28200 -4.85000 46.00400
C  27.30500 -5.38900 46.79700
C  28.56400 -4.70300 46.58300
C  28.20800 -3.70300 45.68700
C  26.87100 -3.87700 45.32400
C  29.86600 -5.01800 47.22000
C  28.76200 -2.56000 44.97700
O  29.90300 -2.10900 44.96700
C  27.68900 -2.04700 44.03800
C  27.58800 -0.60800 44.42800
O  27.01300 -0.15200 45.41700
O  28.37600 0.20200 43.58500
C  28.34300 1.64800 43.90800
H  20.89200 -3.10900 43.38300
H  21.56500 -8.31700 46.99400
H  27.73500 -6.83300 48.35000
H  25.02400 -0.51500 43.16400
H  22.57300 -1.57900 42.10900
H  23.19400 0.49000 44.30400
H  22.03800 -0.75900 44.90000
H  21.69500 0.20600 43.54100
H  24.36300 -2.54500 40.94600
H  25.99200 -2.61700 41.55700
H  26.74500 -1.02000 40.42900
H  25.42800 0.01100 40.99500
H  18.26500 -5.63300 43.43800
H  19.06000 -3.97800 43.19600
H  18.20800 -4.34900 44.65600
H  18.19500 -9.28700 46.76300
H  19.49900 -8.39500 47.66300
H  19.83500 -9.37400 46.22100
H  24.26800 -9.69600 47.37000
H  25.24200 -8.12700 49.65700
H  23.61200 -9.50600 50.08000
H  22.96700 -10.44200 48.72100
H  22.21500 -8.95400 49.01200
H  27.44900 -9.19600 47.98900
H  26.17200 -10.45700 48.20100
H  28.08100 -9.52300 50.22700
H  27.05700 -11.02800 50.11500
H  26.45400 -9.49200 50.68500
H  29.64500 -4.94600 48.28500
H  30.58200 -4.26800 46.88300
H  30.14500 -6.05100 47.01600
H  28.04700 -2.13000 43.01200
H  27.37000 2.10700 43.73500
H  29.21500 2.00700 43.36200
H  28.62700 1.67300 44.96000
Mg 24.82900 1.24100 29.39300
C  27.04900 1.01300 32.08600
C  22.20600 1.53300 31.70800
C  22.66300 1.25000 26.87000
C  27.52500 0.48700 27.18900
N  24.69500 1.33600 31.64700
C  25.71200 1.22500 32.53800
C  25.23400 1.57000 33.96300
C  23.65900 1.54500 33.88800
C  23.48900 1.54900 32.35900
C  23.02400 0.27500 34.48300
C  25.95200 2.79600 34.73700
C  26.45100 2.43700 36.17500
H  26.38200 3.35400 37.33900
N  22.78000 1.49600 29.36200
C  21.81100 1.56400 30.36500
C  20.51500 1.68000 29.78500
C  20.63900 1.55900 28.40000
C  22.07100 1.46800 28.16000
C  19.32700 1.71000 30.70300
C  19.57200 1.55600 27.29000
O  19.87100 1.65000 26.10000
C  18.11200 1.50100 27.78400
N  25.01000 0.71400 27.38300
C  23.98700 0.99100 26.52900
C  24.46400 1.07700 25.06000
C  25.98300 0.77000 25.17700
C  26.20500 0.67800 26.66100
C  23.78100 0.08700 24.14100
C  26.84400 1.86500 24.46700
C  26.84800 3.21800 25.11100
N  26.77600 0.82300 29.54500
C  27.76000 0.43300 28.59600
C  29.12800 0.27700 29.21100
C  28.82700 0.47600 30.61800
C  27.41000 0.77100 30.75400
C  30.42700 -0.11100 28.49700
C  29.44100 0.50200 32.01100
O  30.64700 0.33200 32.26700
C  28.23200 0.72900 33.00700
C  28.07300 -0.44500 33.79200
O  27.16600 -1.20000 33.74400
O  28.90300 -0.29900 34.89200
C  28.50400 -0.92900 36.12000
H  21.37000 1.61600 32.40600
H  22.09300 1.41200 25.95300
H  28.35800 0.50400 26.48300
H  25.41900 0.63100 34.48500
H  23.22800 2.42000 34.37500
H  23.49100 -0.65500 34.15700
H  21.95600 0.16400 34.29500
H  23.04800 0.33000 35.57100
H  25.26600 3.64100 34.79200
H  26.80200 3.20400 34.19200
H  27.51900 2.32900 35.98400
H  26.11600 1.48000 36.57400
H  18.89000 0.72200 30.84400
H  18.67200 2.40400 30.17600
H  19.45900 2.15000 31.69100
H  18.14800 0.83300 28.64500
H  17.38200 1.07600 27.09500
H  17.89600 2.54000 28.03400
H  24.35000 2.09000 24.67400
H  26.34300 -0.16600 24.74900
H  22.80000 -0.19700 24.52300
H  24.36200 -0.83300 24.07400
H  23.57900 0.51500 23.15900
H  26.48200 2.09600 23.46500
H  27.86500 1.48500 24.44400
H  26.41300 3.93800 24.41700
H  27.83900 3.52500 25.44400
H  26.20900 3.26300 25.99300
H  31.37800 0.33000 28.79700
H  30.28700 0.00200 27.42200
H  30.45100 -1.18300 28.69200
H  28.52800 1.58600 33.61200
H  28.41700 -1.98200 35.85300
H  27.55200 -0.53000 36.46900
H  29.31700 -0.70300 36.80900

