158

Mg 46.89400 35.15700 28.82500
C  45.67400 33.21400 31.34200
C  47.33300 37.76700 31.01800
C  47.40700 37.40500 26.24100
C  45.89600 32.78500 26.47200
N  46.38600 35.45900 30.84700
C  46.05800 34.49200 31.78400
C  46.24500 35.00300 33.21900
C  46.37100 36.52300 33.08300
C  46.63900 36.61500 31.52900
C  45.12000 37.33400 33.56000
C  47.50900 34.31900 33.84000
C  47.46300 34.08500 35.39100
H  46.98800 35.20900 36.29400
N  47.47300 37.25100 28.63800
C  47.72500 38.04300 29.69400
C  48.31200 39.30600 29.19600
C  48.31000 39.25200 27.77800
C  47.69900 37.93300 27.47200
C  48.91900 40.36400 30.10200
C  48.78400 40.29500 26.77100
O  48.79000 40.08600 25.59400
C  49.18700 41.70200 27.23400
N  46.57800 35.17900 26.68500
C  46.95400 36.13500 25.84500
C  47.01800 35.69700 24.39600
C  46.40900 34.19700 24.45200
C  46.34000 33.97700 25.92900
C  46.39400 36.62000 23.37000
C  47.19800 33.21100 23.53900
C  46.30800 32.17600 22.82800
N  46.03200 33.33400 28.88100
C  45.65400 32.49600 27.83900
C  45.23900 31.22500 28.41000
C  45.18600 31.50200 29.74800
C  45.62800 32.78900 29.99900
C  44.90500 30.03500 27.48500
C  44.89700 30.90000 31.03600
O  44.53400 29.81400 31.32100
C  45.01000 32.03400 32.07000
C  45.71700 31.34500 33.14700
O  46.93600 31.21100 33.27600
O  44.82800 30.94700 34.08000
C  45.29600 30.15400 35.19300
H  47.63000 38.51500 31.75600
H  47.72700 38.13300 25.49300
H  45.64600 31.99400 25.76200
H  45.35200 34.73000 33.78000
H  47.26100 36.87200 33.60700
H  44.83800 37.97800 32.72600
H  45.39000 38.02200 34.36100
H  44.25400 36.69500 33.73400
H  48.33800 35.02300 33.77600
H  47.67900 33.36400 33.34400
H  48.27500 33.49500 35.81700
H  46.60200 33.41700 35.39200
H  48.92200 40.09900 31.16000
H  48.51400 41.36900 29.98800
H  49.92800 40.61300 29.77300
H  50.12100 41.67000 27.79500
H  48.38500 41.97800 27.91700
H  49.25600 42.35400 26.36300
H  48.10200 35.67400 24.28700
H  45.39400 34.25500 24.05800
H  47.01700 37.45100 23.03900
H  45.50900 37.02100 23.86500
H  46.10800 36.02800 22.50100
H  47.90600 32.63100 24.13200
H  47.81900 33.76400 22.83400
H  45.68200 32.44300 21.97600
H  45.61100 31.99700 23.64700
H  46.70900 31.18900 22.59900
H  44.30600 30.34300 26.62800
H  44.52100 29.19200 28.05900
H  45.88800 29.98400 27.01600
H  43.99800 32.23300 32.42400
H  45.01800 30.60500 36.14600
H  46.36600 29.95200 35.23000
H  44.76800 29.20200 35.14900
Mg -8.91000 40.17100 43.60900
C  -7.88200 36.90100 42.44400
C  -6.34000 41.37700 41.67700
C  -10.07500 43.18800 44.28200
C  -11.89500 38.73600 44.81700
N  -7.33600 39.21600 42.23600
C  -7.10300 37.89100 41.94800
C  -5.76600 37.76000 41.18600
C  -5.36700 39.22100 40.93300
C  -6.41200 40.00700 41.66400
C  -3.87900 39.63200 41.24800
C  -5.87200 36.88100 39.87000
C  -4.96500 37.22500 38.63100
H  -4.52100 36.18300 37.65400
N  -8.21100 42.08900 43.16000
C  -7.19800 42.37800 42.33800
C  -7.07700 43.82900 42.13100
C  -7.95100 44.36100 43.10800
C  -8.75000 43.19900 43.71100
C  -6.02100 44.49100 41.19100
C  -8.13800 45.84600 43.32800
O  -7.62600 46.69900 42.60000
C  -8.82300 46.32300 44.58000
N  -10.81400 40.90400 44.33200
C  -10.99400 42.19600 44.66100
C  -12.28100 42.43900 45.23300
C  -12.89700 41.03400 45.29400
C  -11.79100 40.11300 44.83100
C  -12.28900 43.15300 46.65900
C  -14.38400 40.85100 44.76500
C  -14.48300 40.16600 43.42600
N  -9.83600 38.28600 43.63100
C  -11.00800 37.86100 44.14300
C  -11.04600 36.46300 44.04800
C  -9.84900 36.01000 43.36800
C  -9.14700 37.21700 43.11100
C  -12.21900 35.62600 44.54700
C  -9.10600 34.89400 42.91400
O  -9.38700 33.67900 42.88600
C  -7.77500 35.39300 42.27600
C  -6.56300 34.83400 42.98700
O  -6.31900 34.98900 44.18600
O  -5.71700 34.12400 42.10500
C  -4.50900 33.63300 42.68900
H  -5.56400 41.90300 41.11700
H  -10.39500 44.16800 44.64200
H  -12.84300 38.46900 45.28800
H  -5.09400 37.20700 41.84200
H  -5.46600 39.45200 39.87200
H  -3.44700 40.18700 40.41500
H  -3.25200 38.74900 41.36900
H  -3.80800 40.31200 42.09700
H  -6.84100 37.17300 39.46500
H  -6.02200 35.82700 40.10400
H  -4.03100 37.61900 39.03200
H  -5.51600 38.00200 38.10100
H  -6.36500 45.50100 40.97100
H  -5.88100 43.87500 40.30200
H  -5.12000 44.54000 41.80200
H  -8.39100 47.28700 44.84600
H  -8.79600 45.64000 45.42900
H  -9.88100 46.44200 44.34500
H  -12.83200 43.05600 44.52300
H  -12.82800 40.84000 46.36500
H  -11.38100 42.88100 47.19700
H  -13.10000 42.79600 47.29500
H  -12.37100 44.22900 46.50600
H  -14.93300 41.78400 44.88800
H  -14.89400 40.08100 45.34400
H  -13.56800 40.12600 42.83500
H  -15.20200 40.78900 42.89300
H  -14.87700 39.14900 43.41500
H  -12.26400 34.74000 43.91400
H  -13.14600 36.18800 44.65700
H  -11.92800 35.38200 45.56800
H  -7.70900 35.21300 41.20300
H  -4.47900 33.18000 43.68000
H  -3.71700 34.38200 42.68200
H  -4.19500 32.91000 41.93700

