158

Mg 8.80500 2.95900 27.70300
C  10.35900 1.91000 30.57100
C  6.91500 5.13000 29.70000
C  7.39300 4.23500 25.00400
C  10.60500 0.72500 25.85100
N  8.45200 3.21500 29.94000
C  9.39300 2.90700 30.87800
C  8.95900 3.45900 32.31000
C  7.65800 4.25900 31.88200
C  7.65000 4.19700 30.36900
C  6.37500 3.55500 32.52800
C  10.07000 4.33100 32.94700
C  9.66600 5.32600 33.98900
H  10.51600 5.20700 35.18600
N  7.27100 4.43500 27.35200
C  6.65700 5.26700 28.31700
C  5.69000 6.21500 27.70200
C  5.91300 6.07400 26.29800
C  6.88300 4.87400 26.16000
C  4.66600 7.06000 28.49900
C  5.31600 6.87500 25.22700
O  5.65800 6.71500 24.08600
C  4.33400 8.06100 25.46800
N  8.87200 2.44300 25.76900
C  8.14900 3.08300 24.88500
C  8.33800 2.62100 23.41500
C  9.53400 1.57600 23.62800
C  9.62600 1.53900 25.16200
C  7.10000 1.88700 22.74400
C  10.87900 1.80700 22.86300
C  11.31200 0.77200 21.79500
N  10.16700 1.40600 28.11300
C  10.88900 0.63900 27.24200
C  11.89400 -0.11600 27.99800
C  11.73700 0.31900 29.32900
C  10.65700 1.27400 29.29000
C  12.78700 -1.18000 27.50400
C  12.24400 0.28800 30.69000
O  13.19600 -0.31000 31.11500
C  11.30900 1.29600 31.58400
C  10.66600 0.59600 32.69600
O  9.63500 -0.08000 32.55500
O  11.28400 0.94400 33.87600
C  10.39200 0.88700 35.08400
H  6.35000 5.82900 30.32000
H  6.90700 4.57200 24.08600
H  11.29100 0.17700 25.20100
H  8.65300 2.64100 32.96200
H  7.69500 5.33100 32.07700
H  6.07500 2.78700 31.81500
H  5.57300 4.24200 32.79900
H  6.60800 3.00600 33.44000
H  10.75500 4.85700 32.28200
H  10.70900 3.62900 33.48300
H  8.65500 5.07700 34.31100
H  9.66600 6.33100 33.56700
H  4.96700 8.10200 28.39000
H  4.79700 6.73600 29.53100
H  3.62000 6.97000 28.20600
H  5.01300 8.89400 25.64800
H  3.55800 7.81000 26.19200
H  3.76400 8.22200 24.55300
H  8.62600 3.42400 22.73600
H  9.23800 0.55800 23.37500
H  7.17800 0.80900 22.60200
H  6.78100 2.45100 21.86700
H  6.27000 2.10100 23.41700
H  11.65300 1.92900 23.62100
H  10.80500 2.79100 22.39900
H  11.52300 1.23500 20.83100
H  10.50700 0.05400 21.64000
H  12.22800 0.23400 22.04100
H  12.34500 -1.70100 26.65500
H  12.80500 -1.96800 28.25800
H  13.75500 -0.92500 27.07100
H  11.90100 2.11100 32.00200
H  9.58600 1.61600 35.00700
H  11.06300 1.09400 35.91800
H  9.98900 -0.09100 35.34500
Mg 27.22500 49.81300 27.35900
C  25.09900 50.98900 29.97300
C  29.27600 48.73200 29.85700
C  29.27900 49.05400 24.89200
C  24.88100 51.04200 25.06600
N  27.09300 49.94700 29.58400
C  26.15900 50.36100 30.50100
C  26.41300 50.03400 31.99800
C  27.73400 49.21000 31.82600
C  28.09400 49.29100 30.32700
C  29.00700 49.55600 32.74800
C  25.27500 49.35500 32.75500
C  24.88300 50.11400 34.08900
H  24.59700 49.30500 35.30000
N  29.07300 49.06000 27.42500
C  29.77900 48.62900 28.49300
C  31.12600 48.26500 28.02100
C  31.17700 48.39800 26.61800
C  29.80000 48.80100 26.25600
C  32.23700 47.85200 29.03500
C  32.31200 48.12200 25.64100
O  32.22300 48.33100 24.41000
C  33.60400 47.64400 26.13300
N  27.12200 50.11700 25.32600
C  27.99700 49.51200 24.51900
C  27.69900 49.56900 23.01600
C  26.20700 50.07200 23.09000
C  26.05400 50.50300 24.53000
C  28.69300 50.38900 22.11800
C  25.06300 49.08200 22.60400
C  23.80600 49.85200 21.96600
N  25.35600 50.86100 27.42000
C  24.51700 51.28400 26.42600
C  23.31500 51.88000 26.99500
C  23.54900 51.85500 28.38000
C  24.80800 51.19400 28.57300
C  22.16700 52.38500 26.19100
C  22.87500 52.11600 29.61200
O  21.72700 52.45600 29.85600
C  23.92000 51.59600 30.66500
C  24.31400 52.72000 31.63000
O  25.26400 53.51300 31.45700
O  23.44200 52.87600 32.70100
C  23.83900 53.86400 33.68700
H  29.85600 48.33000 30.69000
H  29.86000 48.84300 23.99200
H  24.17800 51.33300 24.28300
H  26.65000 50.99200 32.46100
H  27.35800 48.20200 31.99900
H  28.62000 49.92100 33.69900
H  29.69700 50.30600 32.36000
H  29.59300 48.68300 33.03500
H  25.59600 48.35400 33.04300
H  24.42800 49.22600 32.08100
H  23.95500 50.66700 33.94500
H  25.61300 50.84200 34.44200
H  33.20000 48.36200 29.00700
H  32.46300 46.79400 28.90200
H  31.90700 47.98500 30.06600
H  33.20400 46.82300 26.72800
H  34.15800 48.36300 26.73600
H  34.22800 47.33900 25.29200
H  27.70000 48.54300 22.64700
H  26.19500 51.01900 22.55000
H  29.42200 50.84300 22.78900
H  28.19100 51.25000 21.67700
H  29.07000 49.87500 21.23400
H  24.69300 48.51700 23.45900
H  25.38400 48.43600 21.78700
H  23.85400 49.56000 20.91700
H  23.72600 50.93900 21.98100
H  22.82900 49.60300 22.38100
H  21.23900 51.87300 26.44400
H  22.35700 52.53800 25.12900
H  22.00900 53.39200 26.57800
H  23.29600 50.91500 31.24400
H  24.85700 53.59000 33.96300
H  23.09500 53.96000 34.47800
H  23.81800 54.80800 33.14200

