158

Mg 34.74000 49.17400 26.31100
C  35.36600 46.92800 28.96500
C  33.57000 51.50000 28.62100
C  33.88500 51.30900 23.75100
C  35.78500 46.77300 24.09200
N  34.49900 49.18300 28.49700
C  34.92500 48.20600 29.39800
C  34.89500 48.70700 30.82200
C  33.91500 49.89300 30.72500
C  34.04300 50.27000 29.16300
C  32.39900 49.52900 31.04800
C  36.35100 48.95600 31.38000
C  36.60800 48.47500 32.84100
H  36.50200 49.44300 33.97800
N  33.97000 51.19900 26.19700
C  33.59100 51.94300 27.29000
C  33.10200 53.26900 26.85900
C  33.31600 53.33900 25.44200
C  33.70000 51.94400 25.03600
C  32.60600 54.40600 27.84400
C  33.09800 54.47300 24.40700
O  33.24400 54.27600 23.19900
C  32.72000 55.85000 24.86000
N  34.81300 49.04100 24.36200
C  34.42400 50.05800 23.42800
C  34.63600 49.64300 21.94400
C  35.50200 48.32500 22.10800
C  35.32400 48.02300 23.63000
C  33.26100 49.36600 21.21800
C  36.99400 48.44500 21.74500
C  37.51100 47.43800 20.71800
N  35.20100 47.11800 26.42000
C  35.74500 46.30200 25.45400
C  36.24700 45.10300 26.03000
C  36.12900 45.35000 27.42800
C  35.40700 46.51600 27.59800
C  36.99500 44.04100 25.27400
C  36.53200 44.76000 28.72300
O  37.14100 43.73900 28.89300
C  35.99100 45.78200 29.81600
C  35.06300 45.08600 30.74700
O  34.05300 44.49600 30.47400
O  35.61200 45.29300 32.00400
C  34.83400 44.69400 33.12400
H  33.16500 52.16400 29.38600
H  33.52300 51.83300 22.86400
H  36.25800 46.11800 23.35800
H  34.42600 47.94600 31.44500
H  34.31000 50.75200 31.26800
H  32.23500 48.49000 31.33400
H  31.86400 49.72100 30.11700
H  31.90200 50.20500 31.74300
H  36.56600 50.02400 31.34100
H  37.07900 48.50000 30.70900
H  37.58300 47.98800 32.85800
H  35.90500 47.65900 33.00400
H  33.36700 55.16400 27.66300
H  32.62600 54.02700 28.86600
H  31.62200 54.78600 27.57000
H  32.39600 56.33800 23.94100
H  33.56500 56.35300 25.33000
H  31.86400 55.73700 25.52500
H  35.16100 50.50000 21.52200
H  34.91200 47.55700 21.60900
H  33.05600 49.93400 20.31100
H  32.51200 49.55800 21.98600
H  33.25800 48.32900 20.88200
H  37.61600 48.31700 22.63000
H  37.22400 49.44400 21.37600
H  37.06200 47.45800 19.72500
H  37.22700 46.49100 21.17600
H  38.59900 47.50800 20.71400
H  37.75300 44.43900 24.59900
H  36.28700 43.32900 24.85000
H  37.49700 43.45800 26.04600
H  36.89300 46.02800 30.37700
H  33.94200 44.21000 32.72600
H  34.60900 45.50700 33.81400
H  35.46100 43.97000 33.64500
Mg 6.57900 54.23400 41.41200
C  5.86500 50.73000 40.89400
C  9.70100 53.74100 40.23000
C  6.92700 57.62100 41.15700
C  3.07900 54.65200 41.97400
N  7.57200 52.46400 40.30000
C  7.14400 51.11300 40.40200
C  8.31100 50.23900 39.84500
C  9.57300 51.16200 39.88500
C  8.95300 52.53700 40.22100
C  10.73300 50.70400 40.75800
C  7.97200 49.51000 38.52500
C  6.96400 50.17300 37.51000
H  7.60200 50.64600 36.17600
N  8.11600 55.52200 40.84300
C  9.33300 55.06100 40.49200
C  10.27700 56.17200 40.32000
C  9.51600 57.31100 40.62200
C  8.11000 56.83500 40.87600
C  11.61500 56.01000 39.78400
C  9.97600 58.73400 40.49200
O  11.10000 58.99800 40.02700
C  9.16700 59.97500 40.88100
N  5.23300 55.91500 41.71900
C  5.58100 57.16100 41.41300
C  4.44300 58.22500 41.63700
C  3.25100 57.19200 41.72200
C  3.85700 55.82900 41.77100
C  4.56000 59.14300 43.05300
C  2.09600 57.38100 40.60400
C  2.23100 56.34200 39.47000
N  4.87100 53.03200 41.72300
C  3.56300 53.36900 42.00300
C  2.80400 52.16900 42.13500
C  3.65200 51.15600 41.77000
C  4.89500 51.69200 41.44400
C  1.41000 52.04000 42.66900
C  3.68600 49.71800 41.63600
O  2.80800 48.88300 41.86800
C  5.15100 49.37300 41.01800
C  4.94800 48.51400 39.81400
O  4.25400 48.76300 38.85100
O  5.69900 47.36000 39.99200
C  5.44700 46.33100 38.95700
H  10.77500 53.54500 40.20900
H  7.00000 58.70800 41.07800
H  1.99300 54.74100 42.04300
H  8.43500 49.47200 40.60900
H  9.82500 51.36000 38.84300
H  10.90100 51.55600 41.41600
H  11.56000 50.51500 40.07300
H  10.49200 49.82200 41.35200
H  7.87100 48.43900 38.70100
H  8.90800 49.58100 37.97100
H  6.43600 50.98300 38.01300
H  6.14800 49.49900 37.24900
H  12.18000 55.39500 40.48500
H  12.18500 56.92800 39.64000
H  11.48800 55.44400 38.86100
H  8.41300 60.16800 40.11800
H  9.85300 60.81200 41.00500
H  8.76200 59.75400 41.86800
H  4.46100 58.89600 40.77800
H  2.61900 57.22900 42.60900
H  4.41200 60.16000 42.69100
H  5.56400 58.99400 43.45100
H  3.90900 58.84000 43.87300
H  2.13900 58.39700 40.21000
H  1.17300 57.29800 41.17800
H  3.29000 56.13100 39.32500
H  2.11300 56.73500 38.46000
H  1.66600 55.43600 39.69000
H  1.05600 51.01700 42.79800
H  0.61600 52.55000 42.12300
H  1.39900 52.47700 43.66800
H  5.67200 48.72600 41.72300
H  5.47500 45.38800 39.50200
H  6.19200 46.42700 38.16700
H  4.48100 46.37500 38.45400

