158

Mg 45.61900 24.62700 29.54300
C  46.37600 27.13700 31.89000
C  44.98500 22.50000 31.91600
C  45.76200 22.20700 27.11700
C  46.88000 26.93700 26.99900
N  45.53300 24.82700 31.62900
C  45.85300 25.94200 32.43800
C  45.54000 25.64200 33.89400
C  45.30500 24.14800 33.91900
C  45.24800 23.79400 32.36800
C  46.38600 23.30800 34.60200
C  44.35900 26.51900 34.41500
C  44.68800 27.14600 35.79400
H  43.54000 27.09100 36.91100
N  45.20800 22.74200 29.48400
C  44.89700 22.01700 30.61200
C  44.44600 20.66400 30.20700
C  44.74700 20.59600 28.79000
C  45.27300 21.91200 28.40500
C  43.90100 19.53200 31.18300
C  44.64400 19.37600 27.88700
O  44.78200 19.49000 26.65400
C  44.35600 17.99200 28.45900
N  46.31400 24.56500 27.44100
C  46.23500 23.45100 26.67100
C  46.43800 23.68700 25.18000
C  46.70400 25.25400 25.12300
C  46.57900 25.57900 26.63400
C  47.74800 23.03600 24.64200
C  45.79500 26.12800 24.22500
C  44.24600 26.06400 24.45500
N  46.35600 26.67700 29.37400
C  46.83200 27.40100 28.28400
C  47.22800 28.74200 28.79100
C  47.05300 28.73300 30.19600
C  46.58500 27.43000 30.51900
C  47.90600 29.86900 28.02800
C  47.34900 29.43600 31.53300
O  47.80800 30.52900 31.78400
C  46.91800 28.35500 32.63700
C  48.08500 28.16800 33.56900
O  49.23900 27.87200 33.20800
O  47.64100 28.36900 34.85300
C  48.64900 27.96700 35.92500
H  44.51700 21.86700 32.67200
H  45.83300 21.43400 26.35000
H  47.25100 27.73500 26.35200
H  46.52200 25.84200 34.32300
H  44.30600 24.04100 34.34300
H  47.39600 23.66100 34.39500
H  46.30900 22.25600 34.33000
H  46.24500 23.47200 35.67100
H  43.44200 25.94000 34.51600
H  44.24800 27.31300 33.67600
H  45.09600 28.15500 35.73700
H  45.49200 26.53200 36.20100
H  43.01300 19.02000 30.81200
H  43.68400 19.96800 32.15700
H  44.64600 18.73800 31.24500
H  43.32100 18.05800 28.79500
H  45.07500 17.73900 29.23700
H  44.34100 17.32700 27.59500
H  45.48900 23.40500 24.72400
H  47.73900 25.54300 24.93900
H  47.41800 22.54200 23.72900
H  48.07800 22.27100 25.34500
H  48.52100 23.78100 24.45100
H  45.92200 26.00000 23.15000
H  45.96200 27.20300 24.29400
H  44.04800 26.89200 25.13600
H  44.09600 25.11800 24.97700
H  43.75900 26.15300 23.48400
H  48.60200 29.48300 27.28300
H  48.40000 30.58100 28.69000
H  47.26300 30.41800 27.34000
H  46.10600 28.83200 33.18600
H  49.34100 27.19400 35.59100
H  48.11000 27.77700 36.85300
H  49.18900 28.83700 36.29900
Mg 30.59000 59.67400 39.24500
C  27.76000 58.07000 38.20700
C  32.38500 56.91500 37.85000
C  33.35200 61.57800 39.15900
C  28.68800 62.44500 40.08400
N  30.14600 57.75300 37.93700
C  28.87000 57.31800 37.82900
C  28.85700 55.85100 37.19700
C  30.34300 55.38300 37.59600
C  30.99800 56.77800 37.81600
C  30.35200 54.52500 38.92700
C  28.50500 55.89100 35.62900
C  27.30200 55.08200 35.18000
H  26.37900 55.63800 34.03700
N  32.55800 59.29000 38.67100
C  33.10100 58.09000 38.17000
C  34.54700 58.27100 38.17700
C  34.91500 59.65700 38.39600
C  33.58400 60.22700 38.78000
C  35.46900 57.15000 37.89400
C  36.31700 60.33200 38.18300
O  37.32200 59.71200 37.82600
C  36.46300 61.83800 38.18100
N  30.97200 61.77100 39.42100
C  32.18700 62.31700 39.41700
C  32.18700 63.84100 39.83100
C  30.74700 64.05500 40.30400
C  30.11100 62.65000 39.98000
C  33.28400 64.15500 40.90700
C  30.14300 65.19800 39.50100
C  29.05300 65.92100 40.24200
N  28.60100 60.12700 39.30300
C  27.98500 61.27800 39.70500
C  26.52900 61.03000 39.58300
C  26.43300 59.77200 38.92800
C  27.69300 59.28900 38.82700
C  25.41600 61.89200 40.01500
C  25.46500 58.83100 38.48800
O  24.29700 58.92600 38.41600
C  26.29800 57.64300 37.98600
C  25.81400 56.47700 38.71300
O  26.13000 56.14800 39.85600
O  24.83600 55.86800 38.00300
C  24.00900 54.79300 38.71500
H  33.03000 56.08900 37.54500
H  34.24500 62.20500 39.21600
H  28.09200 63.30300 40.40100
H  28.10400 55.25100 37.70700
H  30.76000 54.89200 36.71700
H  31.22000 53.86800 38.98000
H  29.37400 54.04600 38.98300
H  30.36500 55.20500 39.77900
H  29.33700 55.46100 35.07200
H  28.30700 56.90100 35.26800
H  26.58000 55.01700 35.99400
H  27.71400 54.08600 35.02000
H  35.11700 56.15700 38.17600
H  36.44800 57.32500 38.34000
H  35.65400 57.20600 36.82200
H  37.45500 62.14400 37.84800
H  36.36900 62.36100 39.13300
H  35.81700 62.40900 37.51500
H  32.45100 64.52900 39.02900
H  30.74700 64.26600 41.37400
H  33.70400 63.23400 41.31200
H  32.83500 64.48200 41.84400
H  34.08600 64.81400 40.57200
H  29.73100 64.85400 38.55200
H  30.94000 65.90800 39.27900
H  28.16000 65.75200 39.64100
H  29.31300 66.98000 40.25700
H  28.82500 65.63900 41.27000
H  24.66100 61.38700 40.61700
H  24.82900 62.14000 39.13100
H  25.77300 62.75900 40.57100
H  26.04700 57.60800 36.92600
H  23.75800 55.23900 39.67800
H  24.47300 53.81500 38.84300
H  23.08400 54.66900 38.15100

