158

Mg 36.31400 49.49300 24.61900
C  36.26100 47.61200 27.65900
C  35.41200 52.28000 26.40300
C  36.20400 51.16500 21.65400
C  36.92000 46.53200 22.97000
N  35.78700 49.88200 26.82300
C  35.96800 48.99700 27.86900
C  35.67300 49.67900 29.21100
C  35.26900 51.12600 28.71800
C  35.47600 51.12000 27.17100
C  33.85500 51.68300 29.14300
C  36.96300 49.67300 30.10000
C  36.61500 49.38400 31.63600
H  35.19800 49.57100 32.22000
N  35.97000 51.45900 24.13300
C  35.68700 52.44600 25.01400
C  35.46400 53.64900 24.27800
C  35.76800 53.40300 22.89300
C  35.96300 51.91200 22.86600
C  35.08900 55.00700 24.86100
C  35.85300 54.39300 21.71000
O  36.13200 53.99900 20.58100
C  35.57500 55.88500 21.83800
N  36.44700 48.91200 22.67300
C  36.39800 49.79200 21.60700
C  36.64100 49.01900 20.20100
C  37.19100 47.69900 20.75000
C  36.79600 47.69300 22.20600
C  35.46800 48.99900 19.25800
C  38.73000 47.45200 20.46100
C  39.70600 48.34300 21.30400
N  36.49300 47.47200 25.18900
C  36.72500 46.35500 24.41100
C  36.75800 45.14400 25.21400
C  36.64700 45.62800 26.50900
C  36.45000 47.01300 26.48500
C  36.84600 43.69800 24.56700
C  36.51400 45.19300 27.91000
O  36.50900 44.07800 28.36500
C  36.36000 46.47900 28.73600
C  35.09800 46.36400 29.65900
O  33.92900 46.51400 29.40000
O  35.57800 45.78700 30.78100
C  34.45300 45.24800 31.64700
H  34.95100 53.18800 26.79800
H  36.13800 51.71800 20.71400
H  37.06200 45.66300 22.32500
H  34.83400 49.22800 29.74200
H  36.04900 51.84800 28.96300
H  33.38400 51.32200 30.05800
H  33.11300 51.73100 28.34600
H  33.99100 52.74000 29.37300
H  37.41600 50.65700 29.98400
H  37.68200 48.94700 29.71900
H  37.33300 50.05900 32.10300
H  36.89500 48.34200 31.78900
H  35.82300 55.70400 24.45700
H  35.28700 54.97900 25.93300
H  34.07600 55.32600 24.61400
H  36.12700 56.43400 22.60100
H  34.49400 56.01200 21.78500
H  36.01000 56.32900 20.94300
H  37.51600 49.47800 19.74100
H  36.61900 46.86300 20.34700
H  36.03400 48.93100 18.32900
H  34.91700 49.93400 19.36100
H  34.79600 48.16800 19.47300
H  38.88400 47.74700 19.42300
H  39.01100 46.40200 20.54100
H  40.45600 48.81300 20.66600
H  40.26000 47.93600 22.14900
H  39.17100 49.11700 21.85300
H  37.43100 43.64900 23.64800
H  35.83600 43.38700 24.30100
H  37.29400 43.03300 25.30600
H  37.21100 46.72400 29.37200
H  34.87500 44.56100 32.38000
H  33.74700 44.69200 31.03000
H  34.00200 46.14400 32.07500
Mg 0.11100 43.21500 27.01500
C  2.51400 42.86300 29.42600
C  -2.34200 42.20900 29.41800
C  -2.35000 43.45900 24.66700
C  2.50900 43.53500 24.52400
N  0.09200 42.61800 29.15000
C  1.18400 42.67000 29.96700
C  0.81900 42.56300 31.45100
C  -0.59100 41.89000 31.37000
C  -0.98900 42.30900 29.87100
C  -0.59100 40.39300 31.57100
C  0.92800 43.86200 32.14200
C  0.90100 43.80300 33.65900
H  0.26800 42.63300 34.41500
N  -2.03500 42.91300 27.04600
C  -2.77500 42.57900 28.13500
C  -4.19100 42.63600 27.80900
C  -4.24200 43.07000 26.43100
C  -2.88700 43.24600 25.97000
C  -5.30900 42.27000 28.78000
C  -5.49500 43.31000 25.40100
O  -5.40100 43.72800 24.25300
C  -6.84300 42.86200 25.89100
N  0.05700 43.25900 24.86700
C  -1.05700 43.47800 24.17600
C  -0.73000 43.72500 22.64500
C  0.77600 43.76800 22.56600
C  1.16200 43.58500 24.07600
C  -1.35500 42.67000 21.71500
C  1.41500 44.91800 21.82900
C  1.92600 46.09000 22.73900
N  2.09600 43.19700 26.92000
C  2.94900 43.32500 25.84200
C  4.35200 43.32200 26.32100
C  4.20000 43.05500 27.68300
C  2.77100 43.01300 28.04700
C  5.71900 43.43700 25.55500
C  5.00600 42.86200 28.89100
O  6.19000 42.57900 29.18600
C  3.95800 42.84400 30.09600
C  4.25200 41.71900 31.03300
O  4.33000 40.52300 30.75000
O  4.39200 42.19400 32.24800
C  4.47500 41.19100 33.30500
H  -3.07300 41.87600 30.15800
H  -3.07200 43.68000 23.87800
H  3.33500 43.66000 23.82100
H  1.47900 41.86200 31.96200
H  -1.27900 42.31400 32.10200
H  0.36500 39.93300 31.82100
H  -0.80600 39.97000 30.59000
H  -1.36400 40.20800 32.31700
H  0.21700 44.58300 31.73900
H  1.90100 44.29600 31.90900
H  0.50600 44.76800 33.97800
H  1.90500 43.88000 34.07700
H  -6.13900 42.91300 28.48800
H  -5.13600 42.60600 29.80300
H  -5.58200 41.21500 28.74600
H  -6.78900 41.83000 26.23800
H  -7.63100 43.08400 25.17200
H  -7.09800 43.47300 26.75700
H  -1.14700 44.70000 22.39400
H  1.16000 42.84100 22.13900
H  -0.56800 42.31500 21.05000
H  -2.25300 43.11800 21.29000
H  -1.59300 41.80000 22.32600
H  0.90000 45.26800 20.93500
H  2.36900 44.48400 21.53000
H  1.22600 46.25500 23.55900
H  2.04300 46.98600 22.12900
H  2.93800 46.00200 23.13300
H  6.51300 43.15100 26.24500
H  5.83900 44.43200 25.12600
H  5.79500 42.73200 24.72800
H  4.12500 43.82600 30.53800
H  5.49500 41.23900 33.68600
H  4.04400 40.19800 33.17800
H  3.85500 41.62400 34.09100

