158

Mg 35.41000 2.69200 30.29600
C  33.15700 3.57100 32.95200
C  37.84300 2.59900 32.65200
C  37.60100 2.31700 27.83300
C  32.75400 3.22500 27.98200
N  35.51000 3.13900 32.56900
C  34.48600 3.39700 33.42100
C  34.95600 3.46800 34.89800
C  36.47000 3.22100 34.71500
C  36.63300 2.97800 33.21000
C  37.36700 4.38300 35.27800
C  34.16200 2.53300 35.80300
C  34.80800 1.95800 37.04700
H  35.35700 2.90700 38.23400
N  37.43700 2.51100 30.25700
C  38.29800 2.44600 31.29600
C  39.60500 1.94500 30.89900
C  39.63100 1.94100 29.45200
C  38.16900 2.29600 29.09800
C  40.64900 1.75000 31.90600
C  40.70600 1.66600 28.45600
O  40.52100 1.76200 27.24300
C  42.06500 1.33100 28.88800
N  35.18100 2.89800 28.21500
C  36.27500 2.70100 27.44400
C  35.83900 2.75100 25.90400
C  34.26700 2.56000 26.02100
C  34.03500 2.92900 27.47800
C  36.30200 4.05400 25.13600
C  33.75900 1.14900 25.60600
C  32.46400 1.16000 24.82500
N  33.32500 3.28500 30.34800
C  32.40700 3.37600 29.40200
C  31.16100 3.86400 29.98200
C  31.41100 3.94600 31.35300
C  32.74300 3.56900 31.55100
C  29.81800 4.13400 29.27200
C  30.78600 4.24900 32.59900
O  29.67500 4.66600 32.82600
C  31.85400 3.94500 33.70500
C  32.08700 5.17300 34.56300
O  32.57200 6.24200 34.17400
O  31.68500 5.00000 35.85700
C  31.76500 6.11200 36.77500
H  38.58000 2.50400 33.45200
H  38.18400 2.20500 26.91800
H  31.90900 3.18600 27.29100
H  34.69400 4.47700 35.21700
H  36.74800 2.27100 35.17000
H  37.90800 4.84200 34.45000
H  38.04900 3.91400 35.98700
H  36.71700 5.07600 35.81200
H  33.73600 1.73700 35.19200
H  33.27900 2.97000 36.26900
H  35.62000 1.32000 36.69700
H  34.08400 1.31600 37.54700
H  41.38100 1.02200 31.55800
H  40.20900 1.30800 32.80000
H  40.94800 2.76600 32.16500
H  42.33800 0.27500 28.90900
H  42.36400 1.82000 29.81500
H  42.76900 1.79100 28.19500
H  36.30400 1.91000 25.38900
H  33.74100 3.35500 25.49200
H  36.96800 4.62500 25.78300
H  35.44200 4.62100 24.78300
H  36.86300 3.85600 24.22300
H  33.49100 0.49500 26.43600
H  34.54300 0.62600 25.05800
H  31.68300 0.67900 25.41300
H  32.42900 0.63300 23.87200
H  32.14600 2.14500 24.48300
H  29.06300 3.81900 29.99300
H  29.81900 3.58000 28.33300
H  29.73200 5.14900 28.88400
H  31.46400 3.09600 34.26600
H  30.73700 6.44300 36.92100
H  32.39900 6.95100 36.48800
H  32.07300 5.87900 37.79400
Mg -2.26600 34.11900 25.96700
C  -4.18100 32.91600 28.77100
C  -1.18000 36.62900 28.12500
C  -1.02300 35.55600 23.29600
C  -4.03700 31.79900 23.98100
N  -2.75600 34.70900 28.24900
C  -3.32000 33.92700 29.16400
C  -2.88500 34.35700 30.56900
C  -2.14400 35.72000 30.33700
C  -1.89100 35.63700 28.81900
C  -2.73900 37.02900 30.77500
C  -1.98000 33.27300 31.25300
C  -2.50700 32.75100 32.60800
H  -2.80200 33.77900 33.65200
N  -1.15400 35.87000 25.73000
C  -0.87400 36.75000 26.68800
C  -0.13600 37.83100 26.06200
C  -0.11600 37.55300 24.68000
C  -0.73200 36.28500 24.48100
C  0.45800 38.94300 26.90700
C  0.53300 38.30500 23.56500
O  0.69600 37.86900 22.44800
C  1.10900 39.67000 23.79400
N  -2.52100 33.73200 23.96800
C  -1.78600 34.42500 23.04400
C  -2.02900 33.87300 21.60500
C  -2.76000 32.52900 21.88100
C  -3.14100 32.68600 23.34700
C  -2.82700 34.80000 20.69500
C  -1.96200 31.22800 21.57500
C  -0.43400 31.05600 21.84900
N  -3.77300 32.66100 26.24900
C  -4.34600 31.79500 25.35500
C  -5.33900 31.01500 25.99900
C  -5.18100 31.35400 27.32700
C  -4.31700 32.41000 27.45600
C  -6.35700 30.11400 25.40400
C  -5.69900 31.04700 28.67600
O  -6.56000 30.18100 29.06200
C  -4.94900 31.95800 29.62900
C  -5.93000 32.63200 30.56000
O  -6.38100 33.72600 30.45400
O  -6.11800 31.87700 31.70800
C  -7.00300 32.47800 32.67100
H  -0.79700 37.27400 28.91900
H  -0.61700 36.03000 22.40000
H  -4.62000 31.08500 23.39500
H  -3.70400 34.62600 31.23600
H  -1.14800 35.70900 30.77800
H  -2.99200 37.84300 30.09500
H  -2.10700 37.22700 31.64100
H  -3.75600 36.86600 31.13200
H  -0.94500 33.61500 31.29200
H  -2.00900 32.34000 30.69000
H  -1.62900 32.22100 32.97700
H  -3.37000 32.09500 32.49300
H  0.09700 39.92000 26.58600
H  1.54300 38.99600 26.81700
H  0.24400 38.84200 27.97100
H  1.67300 39.51700 24.71300
H  0.25800 40.35100 23.78100
H  1.77400 39.85200 22.95000
H  -1.10100 33.54400 21.13700
H  -3.73900 32.44500 21.41000
H  -3.25100 35.66600 21.20400
H  -3.71700 34.41100 20.20000
H  -2.21100 35.28400 19.93700
H  -1.89200 31.18000 20.48800
H  -2.66000 30.45000 21.88300
H  -0.16900 30.20600 22.47700
H  -0.10500 31.94700 22.38300
H  0.14700 31.00600 20.92800
H  -7.04100 30.61200 24.71700
H  -6.97600 29.85000 26.26200
H  -5.94500 29.16900 25.04900
H  -4.30700 31.41700 30.32300
H  -8.00600 32.41200 32.24900
H  -6.70800 33.50800 32.87000
H  -6.94500 31.86100 33.56800

