158

Mg 17.54900 -2.10100 28.37000
C  16.67800 0.23400 31.02800
C  19.52400 -3.70700 30.66000
C  18.90200 -3.70800 25.82200
C  15.83500 0.05800 26.21400
N  18.15200 -1.60800 30.52400
C  17.57800 -0.78000 31.44400
C  18.01000 -1.08200 32.86300
C  19.07300 -2.20600 32.62200
C  18.96000 -2.53900 31.13500
C  20.50800 -1.79300 32.96200
C  16.77700 -1.43300 33.83700
C  16.84100 -0.75700 35.24600
H  18.21500 -1.07000 35.82200
N  18.82400 -3.64300 28.30500
C  19.59800 -4.17200 29.30900
C  20.33600 -5.35600 28.84600
C  20.17000 -5.34500 27.40100
C  19.27000 -4.19800 27.10700
C  21.16100 -6.24800 29.71600
C  20.80000 -6.24500 26.27400
O  20.65200 -6.04400 25.08900
C  21.78400 -7.44300 26.56400
N  17.37500 -1.86100 26.28500
C  18.08400 -2.61300 25.45500
C  17.72300 -2.29900 23.99900
C  16.59800 -1.18000 24.06400
C  16.50500 -1.04800 25.59900
C  19.03200 -1.97000 23.14500
C  15.32800 -1.34000 23.31400
C  13.95600 -1.64000 24.06700
N  16.46300 -0.22300 28.50400
C  15.81200 0.51700 27.55500
C  15.17900 1.69400 28.10600
C  15.44800 1.62600 29.47400
C  16.25800 0.44500 29.70700
C  14.37200 2.63300 27.30800
C  15.20700 2.32700 30.71200
O  14.55300 3.31700 31.07600
C  16.00700 1.40000 31.82100
C  16.89600 2.40000 32.53100
O  18.08200 2.41900 32.44300
O  16.17400 3.27300 33.31400
C  17.04700 4.11200 34.17900
H  20.03500 -4.30500 31.41700
H  19.16900 -4.21600 24.89300
H  15.34200 0.64200 25.43400
H  18.52800 -0.18200 33.19400
H  18.91700 -3.05700 33.28400
H  20.53100 -0.71800 33.14100
H  21.23200 -2.15400 32.23100
H  20.78100 -2.13000 33.96200
H  16.69200 -2.50700 34.00000
H  15.79800 -1.20600 33.41500
H  16.23300 -1.24200 36.01000
H  16.66500 0.31700 35.31600
H  21.37000 -7.18600 29.20100
H  20.55100 -6.47900 30.58900
H  22.12400 -5.78300 29.92600
H  22.62000 -6.99700 27.10200
H  21.97600 -8.04400 25.67500
H  21.23800 -8.13800 27.20100
H  17.36100 -3.19400 23.49300
H  17.10500 -0.27400 23.73100
H  18.95500 -0.99700 22.65900
H  19.03500 -2.68400 22.32100
H  19.93700 -2.04800 23.74700
H  15.61300 -2.10200 22.58800
H  15.25800 -0.41200 22.74700
H  13.26600 -1.98100 23.29400
H  13.58600 -0.75000 24.57700
H  14.10700 -2.49200 24.72900
H  14.23500 3.61000 27.77100
H  13.42700 2.22200 26.95000
H  14.94300 2.93300 26.43000
H  15.35600 0.81700 32.47300
H  17.45800 3.53000 35.00400
H  16.37000 4.89100 34.53100
H  17.80900 4.61300 33.58200
Mg 7.08200 53.72000 41.73600
C  6.20600 50.37400 41.31900
C  10.17100 53.00900 40.16600
C  7.83300 57.06300 41.36100
C  3.89900 54.45300 42.57500
N  7.95300 51.90200 40.72600
C  7.48900 50.61200 40.77500
C  8.52300 49.58000 40.31800
C  9.80800 50.48300 40.33800
C  9.30100 51.91800 40.35400
C  10.79200 50.15000 41.52000
C  8.13700 48.87300 38.92900
C  7.57000 49.76100 37.84500
H  7.10800 49.11800 36.55900
N  8.86300 54.91400 41.05100
C  9.92900 54.37600 40.37500
C  10.84800 55.45200 40.09200
C  10.25400 56.69300 40.42700
C  8.91600 56.23600 41.00900
C  12.17100 55.19800 39.36800
C  10.77400 58.09300 40.13100
O  11.81900 58.26400 39.53000
C  9.97700 59.34100 40.49900
N  6.11200 55.44800 41.94100
C  6.58200 56.67600 41.78000
C  5.47500 57.76500 42.21500
C  4.26100 56.91000 42.61900
C  4.75400 55.48400 42.35200
C  5.82900 58.92200 43.12300
C  2.95600 57.21500 41.96000
C  1.71500 57.50100 42.95600
N  5.39100 52.66900 41.94400
C  4.15700 53.03500 42.38000
C  3.28800 51.84600 42.51900
C  4.09800 50.79800 42.16700
C  5.37700 51.32100 41.78500
C  1.89200 51.87700 42.87300
C  4.18100 49.36700 41.95400
O  3.23300 48.59600 42.10400
C  5.61100 49.04900 41.54100
C  5.34000 48.37300 40.23100
O  4.86100 48.83400 39.25700
O  5.65700 47.00300 40.40200
C  5.19400 46.22800 39.21000
H  11.09300 52.68400 39.68000
H  7.99300 58.14200 41.42100
H  2.89800 54.62700 42.97400
H  8.49300 48.74700 41.02100
H  10.43400 50.44700 39.44600
H  10.40200 49.41100 42.21900
H  10.93200 51.02700 42.15300
H  11.70900 49.73300 41.10400
H  7.71100 47.89200 39.14200
H  9.08300 48.65100 38.43500
H  8.29700 50.49900 37.50400
H  6.75000 50.41000 38.15200
H  12.72800 56.10600 39.13900
H  12.08400 54.55000 38.49600
H  12.86300 54.70800 40.05300
H  8.94700 59.20900 40.16700
H  10.38700 60.26600 40.09500
H  10.15900 59.40900 41.57200
H  5.30800 58.28700 41.27200
H  4.03600 56.90700 43.68600
H  5.30500 58.97100 44.07700
H  5.55200 59.87100 42.66400
H  6.89000 58.89100 43.37000
H  2.73500 56.43000 41.23700
H  3.06700 58.12200 41.36400
H  2.11300 58.05800 43.80500
H  1.19400 56.57600 43.20200
H  1.11000 58.27300 42.48100
H  1.42800 52.85600 42.74900
H  1.82500 51.75000 43.95300
H  1.37700 51.13900 42.25800
H  6.06900 48.36900 42.26000
H  5.53200 45.19500 39.27900
H  5.54800 46.67700 38.28200
H  4.10800 46.25900 39.12100

