158

Mg 47.89000 15.57900 28.44300
C  45.77600 15.29700 31.28700
C  50.27600 17.14500 30.47100
C  49.86400 16.25100 25.65800
C  45.27700 14.40900 26.44300
N  47.97100 16.25100 30.57600
C  46.93400 15.98600 31.56200
C  47.47300 16.47700 32.88600
C  48.65300 17.43800 32.48400
C  49.04100 16.88400 31.09400
C  48.33400 18.97200 32.48900
C  47.90300 15.21100 33.73400
C  48.11400 15.44700 35.26000
H  48.02300 16.85700 35.89000
N  49.86300 16.34200 28.12700
C  50.63000 16.91800 29.11600
C  51.99400 17.25800 28.55900
C  51.86400 17.13800 27.12400
C  50.50600 16.50900 26.90700
C  53.17400 17.87600 29.30800
C  52.86600 17.39900 26.00100
O  52.63000 17.31300 24.77600
C  54.27500 17.85200 26.35700
N  47.58200 15.38700 26.40400
C  48.51200 15.82500 25.47000
C  47.90700 15.59500 24.06200
C  46.63300 14.82800 24.36800
C  46.44000 14.89100 25.85200
C  47.76800 16.82800 23.16300
C  46.57700 13.33600 23.87800
C  47.04100 12.19900 24.81700
N  46.02500 14.91800 28.78600
C  45.11700 14.42800 27.83800
C  44.00700 13.82700 28.61200
C  44.15400 14.22900 29.94800
C  45.44300 14.88600 30.02400
C  42.80300 13.19900 27.98000
C  43.51600 14.30300 31.31000
O  42.40000 14.01600 31.65600
C  44.63700 14.87300 32.27200
C  44.01500 15.89700 33.13500
O  43.79300 17.00900 32.76800
O  43.63100 15.38900 34.30800
C  42.72500 16.22800 35.04300
H  51.04900 17.54400 31.13200
H  50.43900 16.52900 24.77200
H  44.61500 13.85300 25.77600
H  46.70900 16.99600 33.46400
H  49.51400 17.36900 33.14800
H  48.79500 19.44300 33.35800
H  47.26700 19.18100 32.57500
H  48.77600 19.42100 31.60000
H  48.83100 14.83500 33.30500
H  47.14600 14.43200 33.63500
H  49.10700 15.05400 35.47700
H  47.36400 14.88100 35.81200
H  52.98400 17.85700 30.38100
H  53.33200 18.89700 28.96200
H  54.05500 17.25100 29.16200
H  54.14400 18.83400 26.81200
H  54.96800 17.95600 25.52200
H  54.68600 17.05000 26.97100
H  48.62800 15.00200 23.49900
H  45.75600 15.27800 23.90300
H  46.71800 17.09800 23.04700
H  48.17800 16.62500 22.17300
H  48.36000 17.63500 23.59400
H  47.16300 13.22900 22.96500
H  45.55100 13.06900 23.62500
H  46.18800 11.64900 25.21400
H  47.60400 12.62400 25.64800
H  47.58100 11.44200 24.24900
H  41.86500 13.43800 28.48100
H  42.93100 12.12300 27.85700
H  42.63200 13.54000 26.95900
H  45.09100 14.17000 32.97000
H  41.85500 16.30800 34.39100
H  43.04300 17.21300 35.38300
H  42.32800 15.68300 35.89900
Mg 30.11900 58.19200 40.33200
C  27.09600 56.44000 39.74200
C  31.81900 55.64500 38.71500
C  32.98600 60.13600 40.32600
C  28.15300 60.97500 41.43400
N  29.52700 56.27600 39.42300
C  28.21600 55.71300 39.33100
C  28.25400 54.43200 38.47500
C  29.77300 54.22200 38.15200
C  30.43800 55.42800 38.79800
C  30.41600 52.82000 38.59400
C  27.31500 54.42700 37.17400
C  27.65800 55.36900 36.02300
H  26.64800 56.29600 35.39900
N  32.11600 57.93300 39.66200
C  32.60300 56.85500 38.94600
C  34.04700 57.04000 38.74800
C  34.42900 58.31200 39.32600
C  33.13000 58.83900 39.81800
C  34.96900 55.95600 38.13700
C  35.86000 58.85600 39.48200
O  36.74900 58.30000 38.84600
C  36.26700 59.96100 40.34900
N  30.48300 60.23600 40.82500
C  31.74000 60.71500 40.81600
C  31.78800 62.16200 41.35700
C  30.33400 62.36300 41.71100
C  29.52000 61.17800 41.18200
C  32.73800 62.25900 42.59900
C  29.74200 63.74500 41.14000
C  29.56500 64.88300 42.10500
N  28.08600 58.60900 40.62700
C  27.44000 59.81100 41.09200
C  26.01300 59.47900 41.15400
C  25.92400 58.23400 40.60300
C  27.16500 57.70300 40.29600
C  24.94000 60.48500 41.61100
C  24.87500 57.28300 40.21300
O  23.67300 57.36200 40.28800
C  25.62100 56.06400 39.54600
C  25.18600 54.85200 40.27600
O  25.39900 54.65100 41.45300
O  24.45300 54.08400 39.44000
C  24.00900 52.77800 39.94100
H  32.23500 54.88800 38.04600
H  33.87200 60.76500 40.21800
H  27.46800 61.74500 41.79500
H  27.91800 53.66700 39.17500
H  29.89100 54.30500 37.07100
H  30.87200 52.23000 37.79800
H  29.61600 52.17700 38.95900
H  31.16200 52.94200 39.37900
H  26.24900 54.59600 37.32100
H  27.31700 53.37500 36.88900
H  27.87300 54.65900 35.22400
H  28.58300 55.91700 36.20200
H  35.67000 55.59400 38.88900
H  35.58300 56.36700 37.33500
H  34.46100 55.06900 37.76000
H  36.22700 60.97700 39.95800
H  37.29300 59.71400 40.62200
H  35.66900 59.81400 41.24900
H  32.18300 62.87200 40.63000
H  30.18600 62.29200 42.78800
H  32.19100 62.29600 43.54100
H  33.34100 63.15400 42.44400
H  33.58200 61.57200 42.66700
H  28.78700 63.53600 40.65800
H  30.38700 64.10800 40.34000
H  30.12300 65.79800 41.90700
H  29.84000 64.52000 43.09600
H  28.51700 65.14700 42.24400
H  25.26800 61.07700 42.46500
H  24.00700 59.93200 41.71700
H  24.77900 61.14500 40.75800
H  25.27900 56.16900 38.51700
H  23.46200 52.93200 40.87200
H  24.88000 52.15000 40.12800
H  23.46000 52.32800 39.11400

