158

Mg 41.61800 8.57900 29.78900
C  43.57000 9.81500 32.43000
C  39.36300 7.24900 31.96800
C  39.94000 7.38000 27.14100
C  44.19600 9.69600 27.53800
N  41.57500 8.37100 31.94100
C  42.45300 8.99800 32.84200
C  41.97500 8.62000 34.27700
C  40.81300 7.58800 34.03500
C  40.53600 7.72400 32.54900
C  41.21900 6.19200 34.50800
C  41.51700 9.74000 35.12100
C  41.22800 9.50200 36.63400
H  41.85300 10.52200 37.63100
N  39.86700 7.50600 29.55500
C  39.00100 7.20800 30.61200
C  37.81600 6.62100 30.05700
C  37.90900 6.76000 28.60500
C  39.25800 7.23100 28.39000
C  36.62600 5.96000 30.73100
C  36.92800 6.57300 27.50100
O  37.08100 6.62100 26.28700
C  35.51200 6.54000 27.94800
N  41.99600 8.58900 27.61700
C  41.20500 7.92900 26.77500
C  41.65600 8.13400 25.35000
C  43.02500 8.76000 25.54900
C  43.09900 9.00600 26.98900
C  41.55900 6.83200 24.54000
C  43.26800 10.00600 24.64900
C  42.65900 11.34300 25.21900
N  43.48700 9.59800 29.87900
C  44.36900 10.03700 28.89600
C  45.48600 10.74900 29.59800
C  45.16000 10.78400 30.93500
C  43.95300 10.02600 31.04900
C  46.65000 11.43100 29.02700
C  45.59100 11.18700 32.23800
O  46.57900 11.83500 32.52500
C  44.53900 10.57500 33.19700
C  45.32300 9.79500 34.23400
O  45.64800 8.62800 34.05600
O  45.60100 10.53000 35.35500
C  46.27700 9.82900 36.49800
H  38.58900 6.77000 32.57200
H  39.34400 7.19500 26.24500
H  45.05100 9.92200 26.89700
H  42.91300 8.26700 34.70600
H  39.90800 7.89000 34.56200
H  41.07600 5.44000 33.73200
H  40.59600 5.85200 35.33500
H  42.28200 6.13500 34.74500
H  40.52600 10.03600 34.77600
H  42.11900 10.64300 35.01700
H  41.43000 8.46900 36.91800
H  40.14800 9.60600 36.73000
H  36.96000 5.60700 31.70700
H  36.38300 5.00600 30.26300
H  35.75500 6.61100 30.81100
H  34.91600 6.51300 27.03600
H  35.29700 7.50300 28.41000
H  35.41500 5.64900 28.56900
H  40.81700 8.72700 24.98600
H  43.69500 7.94300 25.28100
H  40.86200 6.93500 23.70800
H  41.18600 6.09800 25.25400
H  42.57800 6.56700 24.26000
H  42.86900 9.74000 23.67100
H  44.33600 10.11800 24.46400
H  43.41800 12.11900 25.11800
H  42.21600 11.29000 26.21300
H  41.83000 11.59800 24.55900
H  47.13300 10.85900 28.23400
H  47.34300 11.70200 29.82400
H  46.31600 12.33900 28.52500
H  43.95800 11.38200 33.64400
H  47.24500 10.27100 36.73400
H  46.52800 8.78600 36.31000
H  45.65300 9.85000 37.39200
Mg -6.19500 25.68500 26.23400
C  -4.77700 27.26300 29.11400
C  -8.02900 23.74400 28.47200
C  -7.20600 23.95100 23.62300
C  -4.20000 27.75900 24.24200
N  -6.40600 25.58400 28.51000
C  -5.73600 26.28700 29.45600
C  -6.29100 25.98700 30.86600
C  -7.07000 24.68100 30.64900
C  -7.15300 24.64600 29.11400
C  -6.56900 23.46200 31.43900
C  -7.10600 27.13900 31.44800
C  -6.98000 27.34200 32.95000
H  -6.37300 26.24600 33.88500
N  -7.49500 24.07000 26.11000
C  -8.15000 23.38700 27.08900
C  -8.95200 22.39500 26.50200
C  -8.64900 22.35800 25.12200
C  -7.66800 23.46500 24.86700
C  -9.90500 21.49200 27.32100
C  -9.15400 21.40200 24.10300
O  -8.80600 21.32300 22.93900
C  -10.14400 20.26000 24.47300
N  -5.58000 25.71100 24.22800
C  -6.26400 24.96400 23.31800
C  -5.67100 25.25200 21.96000
C  -4.99300 26.69300 22.12900
C  -4.97100 26.78300 23.64100
C  -4.69900 24.11600 21.52300
C  -5.77700 27.78400 21.51600
C  -5.62600 27.98500 19.98100
N  -4.87600 27.26400 26.49000
C  -4.10100 27.98600 25.66500
C  -3.43500 29.04900 26.37900
C  -3.67300 28.82900 27.73200
C  -4.44500 27.67200 27.77700
C  -2.53300 30.10600 25.73500
C  -3.33700 29.16000 29.12000
O  -2.52200 30.05900 29.39500
C  -4.08700 28.15800 30.10400
C  -2.89000 27.45700 30.76000
O  -2.03800 26.82200 30.17600
O  -3.02100 27.78600 32.11900
C  -2.12500 27.07200 33.00700
H  -8.51600 23.02100 29.12900
H  -7.55600 23.38500 22.75700
H  -3.61400 28.39600 23.57600
H  -5.41700 25.88500 31.51000
H  -8.11500 24.77800 30.94300
H  -6.08600 22.70800 30.81800
H  -7.42400 22.92700 31.85100
H  -5.94500 23.75600 32.28300
H  -8.17400 26.97500 31.31000
H  -6.87300 28.04700 30.89100
H  -7.99200 27.47600 33.33200
H  -6.51700 28.28900 33.22700
H  -10.85400 21.39000 26.79500
H  -10.05700 21.85900 28.33600
H  -9.40900 20.52200 27.35900
H  -9.88500 19.58800 25.29000
H  -10.60200 19.82000 23.58800
H  -10.85000 20.97900 24.89000
H  -6.45400 25.36800 21.21000
H  -3.95400 26.64800 21.80200
H  -4.97600 23.90200 20.49000
H  -4.78800 23.30200 22.24300
H  -3.65600 24.43100 21.50900
H  -5.35200 28.70800 21.90800
H  -6.83600 27.68900 21.75300
H  -6.54800 28.50000 19.71200
H  -5.62100 27.11800 19.32100
H  -4.85500 28.68800 19.66500
H  -2.39800 29.88900 24.67600
H  -1.61900 30.04800 26.32600
H  -3.04900 31.04900 25.91600
H  -4.75400 28.61900 30.83200
H  -1.09500 27.08300 32.64800
H  -2.40300 26.04500 33.24600
H  -2.13800 27.62200 33.94700

