158

Mg 35.46500 48.83100 25.13000
C  36.06700 46.94800 28.12300
C  34.46000 51.40200 27.26900
C  34.66000 50.67900 22.30400
C  36.34500 46.13600 23.23900
N  35.41900 49.13400 27.46900
C  35.67500 48.23200 28.48000
C  35.52000 48.89100 29.82100
C  34.66500 50.19200 29.44800
C  34.86800 50.30000 27.96100
C  33.18100 50.03200 29.80500
C  36.85500 49.09300 30.47600
C  36.87000 49.00900 32.06600
H  35.49100 48.83100 32.78500
N  34.71000 50.72500 24.78400
C  34.42600 51.60600 25.79200
C  34.04900 52.82100 25.17500
C  33.93900 52.63800 23.77000
C  34.51900 51.31300 23.57600
C  33.82700 54.10300 25.90200
C  33.30100 53.61500 22.76300
O  33.29000 53.40000 21.58500
C  32.76900 54.91000 23.15800
N  35.25700 48.44300 23.17200
C  35.03600 49.33000 22.16000
C  35.08200 48.72700 20.75900
C  35.75000 47.33000 21.01900
C  35.75600 47.26100 22.60000
C  33.69600 48.65300 20.08300
C  37.26800 47.19200 20.37100
C  38.44900 47.88800 21.15300
N  35.98700 46.91000 25.47300
C  36.40400 45.91900 24.62900
C  36.90300 44.79700 25.34700
C  36.71300 45.10700 26.72600
C  36.20200 46.42000 26.79200
C  37.31000 43.49400 24.80900
C  37.03600 44.70300 28.09500
O  37.70500 43.74600 28.55300
C  36.46200 45.83100 29.01400
C  35.25900 45.34300 29.72500
O  34.17300 45.05200 29.22700
O  35.60600 45.33400 31.09100
C  34.54900 44.93600 32.00300
H  34.09600 52.25400 27.84700
H  34.46200 51.32200 21.44400
H  36.74500 45.31400 22.64100
H  34.91600 48.15100 30.34600
H  35.03800 51.11900 29.88300
H  32.52000 50.09200 28.94100
H  32.87500 50.91100 30.37200
H  33.05500 49.09700 30.35100
H  37.12800 50.11300 30.20800
H  37.61200 48.41700 30.08000
H  37.33800 49.89400 32.49800
H  37.50900 48.18700 32.38900
H  34.27000 54.95500 25.38500
H  34.22500 54.11700 26.91600
H  32.75700 54.24200 26.05700
H  32.11900 54.91000 24.03300
H  32.14300 55.24300 22.33000
H  33.58600 55.60900 23.34100
H  35.67800 49.43100 20.17900
H  35.10300 46.58400 20.55700
H  33.47600 49.47700 19.40400
H  32.91600 48.45400 20.81700
H  33.63000 47.76700 19.45100
H  37.27500 47.53500 19.33600
H  37.46000 46.12400 20.47600
H  38.88900 48.53800 20.39600
H  39.20200 47.10600 21.24500
H  38.23600 48.30700 22.13700
H  36.74000 42.80500 25.43200
H  38.39900 43.47500 24.84600
H  36.89300 43.43900 23.80300
H  37.18300 46.14300 29.77000
H  34.99800 44.92900 32.99600
H  34.15000 43.95600 31.74300
H  33.85700 45.77400 31.91100
Mg 26.43700 49.62200 25.89800
C  24.71000 51.24700 28.47100
C  28.68300 48.58400 28.29500
C  28.51100 48.71800 23.45300
C  24.24500 51.05800 23.60300
N  26.79200 50.11200 28.20000
C  25.86800 50.65800 29.01500
C  26.14400 50.28300 30.45400
C  27.61800 49.68100 30.38800
C  27.73700 49.45000 28.87500
C  28.80200 50.29400 31.10300
C  25.01900 49.37900 31.11500
C  24.50200 49.87900 32.48100
H  24.38100 48.86300 33.63400
N  28.28400 48.62400 25.85700
C  29.03500 48.23200 27.03300
C  30.27000 47.61400 26.64200
C  30.22100 47.68300 25.21600
C  28.99000 48.37100 24.75400
C  31.30700 47.08400 27.60700
C  31.31200 47.14900 24.24200
O  31.16200 47.42400 23.04300
C  32.41600 46.29100 24.70000
N  26.38000 49.84200 23.78800
C  27.35300 49.32500 23.02000
C  26.85200 49.37900 21.53100
C  25.47000 50.02200 21.58700
C  25.36600 50.34600 23.08200
C  27.82900 50.10300 20.52400
C  24.34200 49.17600 20.97900
C  24.02600 47.89300 21.80000
N  24.83100 50.94000 25.90400
C  23.96500 51.31500 24.93800
C  22.86500 52.14400 25.41900
C  23.07000 52.06400 26.83300
C  24.34400 51.42600 27.07600
C  21.85100 52.77900 24.62700
C  22.53300 52.40000 28.12000
O  21.49500 53.11000 28.39800
C  23.51100 51.85900 29.26300
C  23.96400 53.09400 30.03100
O  24.89900 53.80300 29.75800
O  23.21100 53.12700 31.18800
C  23.63800 53.96300 32.35300
H  29.28500 48.04000 29.02500
H  29.02500 48.37400 22.55300
H  23.50900 51.41200 22.87800
H  26.28000 51.15500 31.09500
H  27.56000 48.70600 30.87200
H  28.54000 51.23400 31.58900
H  29.56600 50.54400 30.36700
H  29.23800 49.58500 31.80500
H  25.29500 48.32900 31.21700
H  24.19100 49.26300 30.41600
H  23.51200 50.29700 32.30100
H  25.07600 50.74100 32.82000
H  31.48600 47.42400 28.62700
H  32.26600 47.49400 27.28900
H  31.40300 45.99900 27.57000
H  32.95600 46.03000 23.79000
H  31.95400 45.38200 25.08700
H  33.05300 46.91900 25.32300
H  26.68500 48.34200 21.24100
H  25.45600 50.96100 21.03300
H  28.72200 50.41700 21.06500
H  27.42400 50.98200 20.02400
H  28.04900 49.35300 19.76400
H  24.57100 48.87200 19.95800
H  23.44900 49.78500 21.11700
H  22.99300 47.94700 22.14400
H  24.60400 47.73400 22.71000
H  24.15000 47.06600 21.10100
H  20.86800 52.74800 25.09800
H  21.74900 52.38800 23.61500
H  22.23700 53.79600 24.56700
H  22.97400 51.19200 29.93800
H  24.08400 53.15900 32.93900
H  22.66500 54.29400 32.71300
H  24.39300 54.69900 32.07600

