158

Mg 30.03900 58.26600 40.15600
C  27.35800 56.08500 39.07000
C  32.21900 56.09900 38.69600
C  32.23900 60.60200 40.36100
C  27.35800 60.63000 40.78600
N  29.79900 56.39600 38.87400
C  28.68600 55.64700 38.71900
C  29.04100 54.20100 38.14200
C  30.57300 54.20700 38.10500
C  30.91500 55.65200 38.70200
C  31.37500 52.98400 38.71500
C  28.32800 53.80600 36.80500
C  27.96300 55.03800 35.90900
H  28.21600 54.76400 34.44400
N  32.07100 58.27200 39.74600
C  32.77100 57.27400 39.22000
C  34.15000 57.63300 39.19500
C  34.23200 59.03100 39.52500
C  32.82900 59.38100 39.90600
C  35.15600 56.67500 38.73800
C  35.47600 59.96700 39.51800
O  36.50300 59.51000 39.10000
C  35.45300 61.33000 40.09600
N  29.75300 60.38500 40.33500
C  30.91700 61.03900 40.55200
C  30.60900 62.45600 41.26000
C  29.10400 62.41400 41.38400
C  28.66300 61.09000 40.77900
C  31.28100 62.68900 42.60400
C  28.42000 63.59500 40.65700
C  27.68400 64.64000 41.48500
N  27.82100 58.35800 40.15800
C  27.00900 59.34100 40.45300
C  25.58300 58.87100 40.28300
C  25.70800 57.54900 39.80300
C  27.08500 57.36500 39.64900
C  24.31300 59.71600 40.50600
C  24.89100 56.39600 39.33000
O  23.64700 56.30500 39.26100
C  26.03500 55.40200 38.89800
C  25.80100 54.17000 39.72000
O  25.41600 54.16200 40.88000
O  25.72200 53.08400 38.86900
C  24.96100 51.92100 39.43100
H  32.88200 55.31200 38.33000
H  32.87900 61.40100 40.74200
H  26.68100 61.43300 41.08300
H  28.74600 53.48200 38.90500
H  30.92100 54.25400 37.07400
H  31.80800 53.37200 39.63600
H  32.15200 52.60400 38.05100
H  30.86500 52.07900 39.04400
H  27.60300 52.99500 36.87800
H  29.17000 53.32300 36.30900
H  28.54400 55.91800 36.18800
H  26.89900 55.25100 36.00900
H  35.09200 56.83000 37.66100
H  34.89500 55.68200 39.10300
H  36.11000 56.93000 39.19900
H  36.42000 61.78100 39.87300
H  35.38800 61.13200 41.16600
H  34.66900 61.91400 39.61400
H  30.88100 63.27600 40.59500
H  28.69800 62.48000 42.39300
H  32.00400 61.89300 42.77900
H  30.61600 62.55500 43.45700
H  31.94300 63.55000 42.70000
H  27.75200 63.20900 39.88700
H  29.12700 64.19500 40.08400
H  27.92400 65.59800 41.02200
H  27.64900 64.54800 42.57000
H  26.63900 64.48600 41.21500
H  24.52800 60.26200 41.42500
H  23.36200 59.21400 40.68600
H  24.12000 60.43800 39.71300
H  26.00100 55.05000 37.86700
H  25.56500 51.39600 40.17100
H  24.80400 51.15900 38.66700
H  23.97400 52.08700 39.86300
Mg 36.09400 48.83700 24.57400
C  36.52000 47.23700 27.67400
C  34.21700 51.21500 25.99500
C  35.47600 49.85900 21.53000
C  37.86300 45.90800 23.04500
N  35.34200 49.09200 26.61700
C  35.73900 48.42500 27.69600
C  35.26700 49.18200 28.93600
C  34.32500 50.32400 28.42300
C  34.64600 50.22300 26.91600
C  32.82600 50.04700 28.74100
C  36.43200 49.68000 29.85700
C  36.42400 49.13900 31.29600
H  34.97900 49.00300 31.92000
N  35.06000 50.39000 23.88000
C  34.41300 51.33800 24.58800
C  33.93300 52.36300 23.73900
C  34.27500 52.02900 22.43900
C  35.03500 50.73400 22.56200
C  33.50700 53.68200 24.27500
C  34.07200 52.76800 21.12800
O  34.79800 52.46300 20.21400
C  33.14600 53.88300 21.04100
N  36.66500 48.02700 22.63700
C  36.23100 48.68100 21.49400
C  36.74000 48.06800 20.23900
C  37.68300 46.87200 20.68600
C  37.39900 46.95400 22.24800
C  35.58500 47.61300 19.32800
C  39.15600 46.93200 20.29500
C  39.97700 48.09600 20.74300
N  36.90700 46.88700 25.16600
C  37.59000 45.82600 24.42300
C  37.80300 44.74700 25.35000
C  37.50100 45.26100 26.61200
C  36.97600 46.58600 26.45100
C  38.55900 43.48800 25.09900
C  37.61500 45.06600 28.04800
O  38.06100 44.07100 28.65500
C  37.01700 46.27500 28.71900
C  35.83500 45.82300 29.67300
O  34.71500 45.65600 29.25900
O  36.25400 45.48300 30.91300
C  35.24800 44.76100 31.72400
H  33.75400 52.09200 26.45100
H  35.26100 50.09700 20.48600
H  38.46500 45.05200 22.73300
H  34.61700 48.44900 29.41300
H  34.62300 51.24000 28.93400
H  32.55000 49.08000 29.16200
H  32.36700 50.13900 27.75700
H  32.47100 50.83200 29.40800
H  36.57200 50.76100 29.85400
H  37.32500 49.21600 29.43800
H  36.99200 49.91300 31.81100
H  37.04300 48.24500 31.37600
H  33.94300 54.40400 23.58500
H  33.74500 53.92300 25.31200
H  32.42900 53.75800 24.13700
H  32.23400 53.78500 21.62900
H  32.80300 53.77000 20.01300
H  33.61800 54.85100 21.20600
H  37.32600 48.72900 19.60000
H  37.28500 45.90100 20.39200
H  34.64100 47.83800 19.82300
H  35.67500 46.53700 19.18200
H  35.52900 47.95800 18.29600
H  39.19400 46.93900 19.20500
H  39.69700 46.01300 20.51700
H  40.76600 47.73900 21.40500
H  39.36500 48.78400 21.32700
H  40.43800 48.66100 19.93300
H  39.62000 43.62600 24.89000
H  38.11300 42.93600 24.27200
H  38.43300 42.88000 25.99500
H  37.80300 46.73600 29.31600
H  35.34500 45.28800 32.67300
H  35.52100 43.70700 31.77800
H  34.18000 44.81900 31.51700

