158

Mg 35.91300 1.13400 29.50400
C  33.46400 1.97100 31.79200
C  38.28000 1.15300 31.69800
C  38.25400 0.92900 26.97300
C  33.38100 1.46600 26.91700
N  35.83500 1.66700 31.51500
C  34.73100 1.82700 32.32300
C  35.20300 1.97900 33.84900
C  36.77800 1.92500 33.69100
C  36.97400 1.48600 32.24400
C  37.54000 3.19100 34.07400
C  34.64900 0.79100 34.77200
C  34.18000 1.24200 36.12000
H  34.96000 2.33400 36.83200
N  37.99900 0.91500 29.38000
C  38.79100 0.85100 30.43700
C  40.07200 0.36900 30.07000
C  40.04500 0.34000 28.63000
C  38.75700 0.74500 28.25000
C  41.12100 -0.13300 31.07200
C  41.15900 -0.05700 27.70600
O  41.02100 -0.10700 26.50100
C  42.54100 -0.51000 28.25200
N  35.84500 1.44100 27.20700
C  36.97100 1.11800 26.47500
C  36.64400 1.28100 24.99500
C  35.08000 1.34000 24.96400
C  34.69300 1.47400 26.42600
C  37.31100 2.52200 24.21500
C  34.33800 0.25000 24.15600
C  34.24600 -1.12700 24.96300
N  33.86700 1.61600 29.37600
C  33.00200 1.64100 28.30700
C  31.66400 1.93700 28.73300
C  31.78600 2.12700 30.11600
C  33.16600 1.88100 30.42900
C  30.50300 2.04700 27.88200
C  31.08800 2.59300 31.29700
O  29.91100 2.96200 31.57900
C  32.20200 2.40700 32.41400
C  32.41500 3.70600 33.10400
O  32.97200 4.72200 32.65300
O  31.77100 3.71600 34.30700
C  31.90600 4.89000 35.19500
H  39.05800 1.10700 32.46400
H  39.04300 0.74600 26.24000
H  32.58400 1.58500 26.18000
H  34.81800 2.89400 34.30100
H  37.09200 1.09100 34.31900
H  38.21000 3.53300 33.28600
H  38.01300 3.17300 35.05600
H  36.84500 4.01900 34.21600
H  35.26400 -0.07600 35.01500
H  33.84000 0.40700 34.15000
H  34.14800 0.42600 36.84100
H  33.14500 1.58200 36.09500
H  41.94200 0.58200 31.13200
H  41.58800 -1.09600 30.86400
H  40.68100 -0.17800 32.06800
H  43.29800 -0.68200 27.48700
H  42.40300 -1.51200 28.65600
H  42.82300 0.18500 29.04300
H  37.08600 0.40600 24.51800
H  34.69700 2.30000 24.61900
H  37.66700 3.30800 24.88100
H  36.69800 3.05400 23.48800
H  38.11200 2.11500 23.59800
H  34.89900 0.14800 23.22700
H  33.32400 0.62000 24.00100
H  33.55500 -0.88600 25.77100
H  35.18500 -1.44700 25.41600
H  33.77600 -1.91600 24.37600
H  30.54700 2.80800 27.10300
H  29.64100 2.30500 28.49800
H  30.32000 1.06700 27.44100
H  31.80400 1.63400 33.07300
H  32.84600 5.44200 35.20600
H  31.92200 4.42200 36.17900
H  31.13100 5.65000 35.10500
Mg 30.93200 59.94700 40.57500
C  27.92700 58.46300 39.22200
C  32.65500 57.29700 39.06700
C  33.73500 61.51600 41.08800
C  29.01600 62.80200 41.37400
N  30.32500 58.12300 39.22900
C  29.08600 57.65300 38.91600
C  29.12200 56.38800 38.00800
C  30.64900 56.02100 38.15600
C  31.30600 57.21600 38.90700
C  31.06500 54.66000 38.79500
C  28.61200 56.70600 36.55200
C  27.62000 55.73800 35.91200
H  26.62200 56.28900 34.85000
N  32.87200 59.45800 40.31600
C  33.40100 58.32400 39.74100
C  34.83300 58.30100 39.82600
C  35.26000 59.49200 40.45800
C  33.91500 60.18100 40.65300
C  35.61800 57.25000 39.07500
C  36.76500 59.99900 40.81400
O  37.78100 59.37500 40.52800
C  36.98800 61.24300 41.64700
N  31.24500 61.86900 41.19400
C  32.59800 62.26800 41.29400
C  32.58500 63.80700 41.55600
C  31.10700 64.12500 41.90400
C  30.40100 62.87900 41.41800
C  33.71800 64.22000 42.60300
C  30.59200 65.49300 41.24200
C  29.73200 66.35900 42.16900
N  28.84900 60.57300 40.28600
C  28.23300 61.72600 40.77100
C  26.73500 61.60300 40.55800
C  26.65200 60.36200 39.88500
C  27.91200 59.74600 39.80300
C  25.71900 62.66400 40.74900
C  25.70400 59.46500 39.15700
O  24.55500 59.70000 38.77900
C  26.51500 58.18900 38.85400
C  25.92800 57.06500 39.57200
O  26.28900 56.64900 40.64200
O  24.92100 56.51400 38.82100
C  24.34500 55.23300 39.23200
H  33.27500 56.54800 38.56900
H  34.62600 62.14200 41.01100
H  28.52200 63.75500 41.57400
H  28.60200 55.58200 38.52500
H  31.05800 56.01600 37.14600
H  31.58700 54.08400 38.03100
H  30.26600 53.98800 39.11000
H  31.74800 54.70700 39.64400
H  29.45100 56.65700 35.85700
H  28.27100 57.73700 36.46200
H  27.06500 55.18700 36.67100
H  28.26100 54.97300 35.47300
H  35.53200 57.38500 37.99700
H  35.17500 56.28400 39.31700
H  36.66600 57.12700 39.35000
H  37.79900 61.18100 42.37200
H  36.10200 61.38700 42.26500
H  37.03900 62.11700 40.99800
H  32.89700 64.11900 40.55900
H  31.03100 64.23600 42.98500
H  34.12100 63.34400 43.11100
H  33.27400 64.84500 43.37900
H  34.54400 64.78900 42.17800
H  30.13900 65.25900 40.27800
H  31.44400 66.15400 41.08600
H  30.18700 67.32700 42.37600
H  29.44200 66.01600 43.16200
H  28.81600 66.62000 41.63800
H  25.94800 63.28700 41.61400
H  24.75500 62.19300 40.94400
H  25.79200 63.26400 39.84200
H  26.37100 58.01000 37.78900
H  23.32000 55.28400 39.60100
H  24.91100 54.67800 39.97900
H  24.36100 54.60300 38.34300

