158

Mg 49.46300 35.43000 26.77600
C  47.43900 33.98700 29.17200
C  49.22300 38.52500 28.53000
C  50.93900 37.05100 24.15300
C  49.06400 32.61900 24.91300
N  48.47000 36.18600 28.56800
C  47.84700 35.29900 29.49500
C  47.85300 35.99900 30.88600
C  48.12800 37.44000 30.60700
C  48.63600 37.37600 29.15200
C  46.93300 38.43500 30.82200
C  49.08600 35.43700 31.62500
C  49.09600 35.30900 33.18800
H  47.95300 36.14800 33.76200
N  50.10800 37.42800 26.52100
C  49.92500 38.48300 27.34600
C  50.72500 39.62900 26.79300
C  51.30300 39.17500 25.62200
C  50.77100 37.85600 25.41600
C  50.76800 40.91100 27.53500
C  52.26100 39.92800 24.67500
O  52.74400 39.39200 23.66300
C  52.82300 41.27800 25.07500
N  49.90800 34.91900 24.81700
C  50.65300 35.70400 23.92900
C  50.87600 35.03600 22.54700
C  50.58800 33.54000 22.97100
C  49.73600 33.64200 24.26300
C  50.12500 35.59400 21.43100
C  51.86900 32.56300 23.16500
C  51.76500 31.14700 22.62500
N  48.49400 33.61800 26.97500
C  48.48500 32.54400 26.14600
C  47.52400 31.60000 26.57600
C  47.12600 32.10600 27.85000
C  47.71700 33.34700 27.98800
C  47.12400 30.25600 26.00600
C  46.29800 31.82000 29.01700
O  45.64600 30.84200 29.36100
C  46.41000 33.09700 29.95100
C  46.81800 32.69700 31.28300
O  47.90900 32.39100 31.71800
O  45.67700 32.68600 32.00600
C  45.69400 32.32000 33.40500
H  49.29300 39.45300 29.10100
H  51.35200 37.42700 23.21500
H  48.92500 31.78300 24.22400
H  46.90900 35.85500 31.41000
H  48.92300 37.78800 31.26600
H  47.15000 38.91300 31.77700
H  45.97100 37.93500 30.70800
H  46.88300 39.21800 30.06500
H  49.96400 36.05800 31.44400
H  49.31000 34.46100 31.19300
H  50.05400 35.64100 33.58700
H  48.89300 34.29900 33.54400
H  50.68400 41.78800 26.89400
H  51.76900 40.84900 27.96300
H  50.01200 41.06100 28.30600
H  53.47200 41.64600 24.28000
H  53.35800 41.01000 25.98600
H  52.07100 42.06100 25.17600
H  51.94400 35.09400 22.33500
H  49.89800 33.14400 22.22600
H  49.62600 36.51700 21.72600
H  49.38200 34.89600 21.04500
H  50.81600 35.97400 20.67800
H  52.15200 32.41500 24.20700
H  52.57000 33.12700 22.55000
H  50.72800 30.92500 22.37400
H  52.17000 30.49400 23.39800
H  52.26400 31.07400 21.65800
H  47.96100 29.81400 25.46600
H  46.24900 30.51100 25.40900
H  46.83400 29.57600 26.80700
H  45.39900 33.49400 30.03700
H  45.64300 31.23300 33.34200
H  44.85800 32.73500 33.96700
H  46.65200 32.62200 33.82900
Mg -12.42600 16.48900 42.15000
C  -9.29800 14.99500 41.88000
C  -11.29700 19.36100 40.81600
C  -15.69600 17.55600 42.02800
C  -13.72400 13.22300 42.76100
N  -10.50100 17.02200 41.25900
C  -9.28800 16.30700 41.29100
C  -8.09200 17.14700 40.79000
C  -8.72500 18.54400 40.68900
C  -10.27100 18.32600 40.92500
C  -8.04500 19.60600 41.63800
C  -7.50800 16.64000 39.53000
C  -6.03200 16.17900 39.72300
H  -5.51700 15.04400 38.83000
N  -13.34000 18.22900 41.49800
C  -12.67700 19.26400 40.97900
C  -13.55700 20.40700 40.90200
C  -14.83900 19.98400 41.25400
C  -14.70000 18.52300 41.65500
C  -13.15800 21.76600 40.36100
C  -16.05800 20.81100 41.16100
O  -16.08100 21.98600 40.81700
C  -17.38000 20.19000 41.53400
N  -14.44700 15.51500 42.37400
C  -15.60100 16.19400 42.26100
C  -16.80400 15.36700 42.44400
C  -16.19100 13.92600 42.52100
C  -14.72100 14.17200 42.40900
C  -17.63100 15.66300 43.67000
C  -16.66900 12.79400 41.43000
C  -17.01500 11.45600 42.13200
N  -11.74100 14.54500 42.43300
C  -12.35700 13.33300 42.71200
C  -11.36300 12.26500 42.76100
C  -10.15800 12.89000 42.51500
C  -10.44900 14.31500 42.29900
C  -11.59300 10.84600 43.09300
C  -8.65500 12.69000 42.38400
O  -7.96400 11.68300 42.50500
C  -8.12700 14.01900 41.97400
C  -7.16100 14.44900 42.96400
O  -7.35800 15.26200 43.84500
O  -5.94100 13.90000 42.69900
C  -4.79800 14.37500 43.48100
H  -10.83800 20.26700 40.41500
H  -16.72900 17.87000 41.86300
H  -14.21100 12.25300 42.88500
H  -7.31200 17.03100 41.54200
H  -8.59900 19.06400 39.74000
H  -8.56900 20.56100 41.60400
H  -7.05200 19.80400 41.23400
H  -8.21800 19.29700 42.66900
H  -7.39700 17.43400 38.79200
H  -8.15300 15.91600 39.03300
H  -5.78800 15.87200 40.74000
H  -5.37300 17.03400 39.57300
H  -13.75100 21.99100 39.47600
H  -12.17400 21.67100 39.90200
H  -13.11300 22.62200 41.03400
H  -17.60300 19.36100 40.86300
H  -18.17900 20.92100 41.41400
H  -17.48100 19.93300 42.58900
H  -17.31100 15.38400 41.47900
H  -16.44000 13.55700 43.51600
H  -17.50300 16.67900 44.04400
H  -17.40100 15.05500 44.54400
H  -18.67600 15.70400 43.36200
H  -15.82500 12.55000 40.78400
H  -17.46400 13.22700 40.82300
H  -16.65000 11.49300 43.15900
H  -16.48400 10.61600 41.68500
H  -18.09800 11.34400 42.08700
H  -10.71600 10.20100 43.13600
H  -12.28500 10.35400 42.41000
H  -11.92300 10.83100 44.13100
H  -7.58400 13.88800 41.03700
H  -4.25900 15.20000 43.01700
H  -4.17400 13.48200 43.45100
H  -5.07400 14.66800 44.49400

