158

Mg 45.83600 3.94600 48.61400
C  43.99100 6.90000 47.86400
C  43.15600 2.13600 47.52700
C  47.78400 1.13700 48.71300
C  48.67500 5.88900 49.06600
N  43.73800 4.53500 47.81300
C  43.21800 5.74200 47.69900
C  41.74700 5.64800 47.29300
C  41.52400 4.11300 47.23800
C  42.84900 3.50400 47.68100
C  40.33200 3.52300 48.02400
C  41.33800 6.46100 46.00900
C  42.14600 6.49400 44.74600
H  41.29700 6.32400 43.46800
N  45.50600 1.92300 48.20500
C  44.39500 1.41300 47.66400
C  44.59200 -0.09300 47.40700
C  45.97100 -0.38400 47.67300
C  46.50600 0.91700 48.21000
C  43.52300 -0.93100 46.77300
C  46.64200 -1.72900 47.38300
O  46.05600 -2.71800 46.97700
C  48.09400 -1.96400 47.48100
N  47.99600 3.59700 48.73800
C  48.44600 2.37300 48.96100
C  49.96300 2.47600 49.26500
C  50.24100 4.02300 49.36500
C  48.88400 4.52900 48.98400
C  50.43500 1.69000 50.52500
C  51.34200 4.62800 48.47800
C  51.04500 4.85800 47.03200
N  46.31400 5.94600 48.57700
C  47.47600 6.58800 48.73500
C  47.25600 8.03100 48.57600
C  45.92000 8.15700 48.29800
C  45.37200 6.86400 48.26400
C  48.32600 9.10300 48.70600
C  44.84900 9.16700 48.00700
O  44.88100 10.38100 47.85600
C  43.56600 8.37100 47.60200
C  42.50200 8.87500 48.45100
O  42.10400 8.45900 49.49200
O  41.76200 9.84200 47.83600
C  40.35300 9.96000 48.37000
H  42.30900 1.56600 47.14000
H  48.33000 0.22500 48.96100
H  49.52200 6.53200 49.31600
H  41.21000 6.09800 48.12800
H  41.35000 3.87600 46.18800
H  39.54100 4.27300 48.03100
H  40.75400 3.33900 49.01200
H  39.91700 2.72200 47.41300
H  41.30000 7.46500 46.43200
H  40.31800 6.14700 45.79100
H  43.02400 5.84900 44.72600
H  42.67600 7.44100 44.84100
H  43.85900 -1.27000 45.79300
H  42.54500 -0.45000 46.80300
H  43.44200 -1.84100 47.36600
H  48.65600 -1.12000 47.08200
H  48.43000 -2.82700 46.90600
H  48.35300 -2.15400 48.52300
H  50.54200 1.96400 48.49600
H  50.34600 4.38000 50.38900
H  50.79000 0.68600 50.28900
H  49.61000 1.49900 51.21200
H  51.21600 2.25800 51.03100
H  52.19200 3.94700 48.43200
H  51.77100 5.53900 48.89500
H  50.72900 5.90000 46.98700
H  50.29700 4.15300 46.66900
H  51.93600 4.68100 46.42900
H  48.92200 9.17900 47.79600
H  48.86500 9.07100 49.65300
H  47.74800 10.02600 48.75700
H  43.35600 8.73000 46.59400
H  39.83300 10.23300 47.45200
H  40.23400 10.70900 49.15300
H  40.05800 8.98000 48.74500
Mg 6.31100 54.43200 39.58600
C  6.00000 50.91100 39.51500
C  9.66700 53.99800 38.55900
C  6.46800 57.77400 39.17700
C  2.99400 54.77700 40.49600
N  7.64700 52.68200 38.87400
C  7.28600 51.33300 38.98400
C  8.44700 50.39800 38.80400
C  9.68500 51.40600 38.77900
C  8.96600 52.85100 38.76900
C  10.64700 51.29200 39.94600
C  8.34700 49.58200 37.53700
C  7.75000 50.31700 36.28500
H  6.26100 50.02000 35.85400
N  7.83600 55.69500 38.86200
C  9.18600 55.34100 38.48700
C  9.93400 56.55100 38.25100
C  9.02100 57.62900 38.43200
C  7.68800 57.08400 38.82700
C  11.47500 56.55900 37.90300
C  9.41600 59.15300 38.24700
O  10.56800 59.45400 38.02000
C  8.38700 60.23500 38.26500
N  4.76300 55.98100 39.43700
C  5.21200 57.31100 39.45400
C  4.07600 58.31700 39.79800
C  2.89900 57.32800 40.06100
C  3.57900 55.98300 40.01400
C  4.35800 59.34600 40.89100
C  1.64800 57.38000 39.03800
C  0.30000 57.83600 39.66600
N  4.78100 53.18800 39.86200
C  3.54000 53.45100 40.44600
C  2.87600 52.19800 40.80000
C  3.86800 51.22000 40.50600
C  4.91500 51.87600 39.88200
C  1.55400 51.85700 41.48800
C  4.11400 49.74400 40.62500
O  3.41200 48.76700 40.91400
C  5.50700 49.54500 40.05400
C  5.30400 48.44800 39.07400
O  4.70600 48.60600 38.02900
O  5.66100 47.25600 39.65600
C  5.05200 46.11200 38.92800
H  10.75600 54.03600 38.62400
H  6.62500 58.84200 39.33800
H  1.97300 54.92600 40.85500
H  8.35000 49.81400 39.71800
H  10.34200 51.23100 37.92700
H  10.73800 50.24500 40.23500
H  10.40000 51.94900 40.78000
H  11.61600 51.67400 39.62600
H  7.65100 48.80500 37.85500
H  9.31800 49.11600 37.36800
H  8.45900 49.98900 35.52500
H  7.92200 51.39000 36.36900
H  11.87500 55.54800 37.97900
H  12.02700 57.09600 38.67500
H  11.57000 56.87300 36.86400
H  7.59500 59.83100 37.63500
H  8.78700 61.16600 37.86300
H  8.08100 60.52200 39.27100
H  3.81600 58.90500 38.91800
H  2.52000 57.50400 41.06800
H  5.40300 59.19400 41.16100
H  3.60300 59.29500 41.67600
H  4.40500 60.34700 40.46300
H  1.45900 56.49300 38.43400
H  1.83900 58.20800 38.35500
H  -0.42700 57.02800 39.58400
H  -0.07800 58.76600 39.24200
H  0.39000 58.10400 40.71800
H  1.64500 51.62700 42.55000
H  1.02200 51.04600 40.99000
H  0.88400 52.71000 41.38500
H  6.16500 49.07200 40.78400
H  5.28900 46.31800 37.88400
H  3.97000 46.05100 39.04500
H  5.48300 45.16800 39.25900

