158

Mg 26.83000 0.81400 29.90600
C  28.58800 0.40700 32.87700
C  23.99300 1.13600 32.02700
C  24.82700 0.47700 27.21700
C  29.64900 -0.11300 28.10200
N  26.35500 0.75600 32.24600
C  27.24200 0.65600 33.22800
C  26.64300 0.70900 34.61100
C  25.13500 1.12000 34.24100
C  25.14500 0.94100 32.72100
C  24.06500 0.24600 34.93800
C  27.45200 1.71700 35.54200
C  26.68800 2.33700 36.72200
H  27.47200 2.78000 37.96600
N  24.72800 0.84100 29.64100
C  23.73700 1.02900 30.62400
C  22.46200 1.18600 29.96900
C  22.66500 0.81200 28.61400
C  24.14500 0.67900 28.42600
C  21.19600 1.59100 30.58600
C  21.63700 0.65100 27.48200
O  21.93000 0.28100 26.32200
C  20.14200 0.74000 27.75300
N  27.21000 0.23400 27.89100
C  26.23400 0.26700 26.96600
C  26.83600 -0.12400 25.55900
C  28.40800 -0.17200 25.84400
C  28.46500 0.06200 27.38600
C  26.20400 -1.48900 25.12400
C  29.39900 0.74200 25.07700
C  29.84100 2.06000 25.61600
N  28.75000 0.32000 30.33600
C  29.75700 -0.05600 29.47300
C  30.99900 -0.21900 30.25600
C  30.57600 -0.05500 31.56800
C  29.18100 0.25000 31.59300
C  32.34000 -0.64200 29.75800
C  30.98100 -0.09900 32.97900
O  32.08500 -0.36400 33.49000
C  29.78200 0.24700 33.88100
C  29.62800 -0.97000 34.69700
O  29.21200 -2.01200 34.29400
O  30.00400 -0.76900 35.99400
C  29.83600 -1.89900 36.93200
H  23.19400 1.45300 32.70100
H  24.14300 0.28000 26.38900
H  30.54000 -0.33800 27.51200
H  26.76900 -0.29500 35.01600
H  24.98800 2.19900 34.28500
H  23.38200 0.81700 35.56600
H  24.62300 -0.28800 35.70600
H  23.58200 -0.45900 34.26000
H  27.87100 2.52200 34.93800
H  28.28700 1.11800 35.90500
H  25.99800 1.52500 36.95300
H  26.14500 3.17300 36.28200
H  21.41200 2.12300 31.51200
H  20.60900 0.69700 30.79800
H  20.62400 2.27100 29.95500
H  19.89700 0.23200 28.68600
H  19.66800 0.27000 26.89100
H  19.74700 1.74500 27.90300
H  26.48900 0.63200 24.85500
H  28.79700 -1.19000 25.81200
H  25.52200 -2.08500 25.73000
H  27.06900 -2.04200 24.75700
H  25.56000 -1.29000 24.26800
H  29.02400 0.82100 24.05600
H  30.21400 0.06200 24.82900
H  29.45500 2.25800 26.61700
H  29.40200 2.81400 24.96300
H  30.92200 2.18400 25.56600
H  32.63800 0.04700 28.96800
H  32.30700 -1.68700 29.44900
H  33.14500 -0.53700 30.48500
H  29.98200 1.10500 34.52300
H  29.99500 -2.89700 36.52500
H  28.86900 -1.87200 37.43300
H  30.59600 -1.71900 37.69400
Mg -4.19300 25.91900 25.86500
C  -3.13200 27.25400 28.92900
C  -6.03800 23.61800 27.54700
C  -4.97400 24.32700 22.95800
C  -1.96700 28.06900 24.26900
N  -4.49800 25.44700 27.94300
C  -4.09500 26.21800 29.01900
C  -4.73900 25.71400 30.30400
C  -5.54800 24.44400 29.79200
C  -5.31400 24.47800 28.31000
C  -5.14300 23.13800 30.42400
C  -5.67500 26.74000 31.00100
C  -5.44600 26.71700 32.51100
H  -5.08300 25.47400 33.26200
N  -5.34100 24.32800 25.31400
C  -6.14300 23.58700 26.17200
C  -7.02100 22.64500 25.50400
C  -6.68400 22.73500 24.13000
C  -5.60100 23.80400 24.06100
C  -7.98700 21.81800 26.20500
C  -7.03900 21.89800 22.94800
O  -6.32600 21.91600 21.95100
C  -8.35000 21.11100 23.03000
N  -3.63700 26.21100 23.90400
C  -3.98500 25.40800 22.87200
C  -3.20500 25.84400 21.54800
C  -2.61300 27.18800 21.93000
C  -2.75200 27.16600 23.50800
C  -2.11600 24.76700 21.13400
C  -3.21200 28.36200 21.17000
C  -3.45400 29.70900 21.85000
N  -2.81800 27.44800 26.47700
C  -1.97500 28.17900 25.68200
C  -1.19200 29.06000 26.56100
C  -1.64000 28.74800 27.88200
C  -2.61900 27.73700 27.71300
C  -0.24500 30.19300 26.13900
C  -1.49700 29.05200 29.29500
O  -0.89000 29.90000 29.87100
C  -2.47600 28.06300 30.04500
C  -1.73300 27.21700 30.99600
O  -1.11500 26.19500 30.64500
O  -1.76400 27.71400 32.32100
C  -0.67700 27.19100 33.16200
H  -6.61800 22.86400 28.08400
H  -5.05300 23.82800 21.99000
H  -1.26200 28.73100 23.76200
H  -3.93200 25.48400 30.99900
H  -6.62500 24.49900 29.94900
H  -6.09400 22.60800 30.48500
H  -4.72600 23.31300 31.41600
H  -4.32200 22.72900 29.83500
H  -6.76300 26.68000 30.99500
H  -5.37500 27.75400 30.73600
H  -6.27700 27.25600 32.96600
H  -4.53900 27.27800 32.73500
H  -8.46900 22.29400 27.05900
H  -7.52200 20.86300 26.45000
H  -8.77800 21.78600 25.45500
H  -9.18000 21.78500 23.24300
H  -8.20100 20.29300 23.73500
H  -8.60900 20.72200 22.04500
H  -3.88000 25.99300 20.70500
H  -1.53800 27.13800 21.75400
H  -2.16600 23.92900 21.82800
H  -1.09000 25.13600 21.15600
H  -2.36500 24.40600 20.13600
H  -4.19900 28.07200 20.80900
H  -2.52400 28.57400 20.35200
H  -2.85600 30.46200 21.33700
H  -3.21200 29.78100 22.91100
H  -4.49900 30.00200 21.75200
H  -0.70800 31.10300 25.75700
H  0.34300 29.67600 25.38100
H  0.48000 30.44900 26.91200
H  -3.15900 28.72800 30.57400
H  -0.93400 26.24500 33.63900
H  -0.39800 27.95300 33.88900
H  0.25500 27.10200 32.60400

