158

Mg 40.54800 8.16800 29.49900
C  42.82400 9.63100 31.99000
C  38.67600 7.00600 32.03700
C  38.92400 6.33600 27.22900
C  43.13500 8.89200 27.11700
N  40.84900 8.24200 31.70300
C  41.65600 8.98900 32.50200
C  41.12900 9.08000 33.91300
C  39.89800 8.11100 33.89300
C  39.79800 7.69800 32.44000
C  39.80000 6.99300 34.88400
C  40.81800 10.55000 34.31400
C  39.79700 10.65800 35.49800
H  40.09000 11.82900 36.41300
N  38.85400 7.06100 29.60300
C  38.23600 6.64400 30.75800
C  37.08500 5.90300 30.41400
C  37.06200 5.75100 28.98800
C  38.29000 6.37900 28.53700
C  36.08400 5.49600 31.46200
C  36.17100 5.07400 28.08800
O  36.38200 4.96100 26.89200
C  34.92200 4.55500 28.58800
N  41.05300 7.60200 27.48800
C  40.18700 6.87600 26.70300
C  40.57600 6.87400 25.20800
C  41.65900 8.03100 25.20900
C  41.99300 8.24200 26.67000
C  41.07500 5.45300 24.70800
C  41.26600 9.40700 24.58800
C  40.09500 10.12700 25.15900
N  42.57600 8.99100 29.54900
C  43.39800 9.19900 28.41500
C  44.58200 9.90700 28.94900
C  44.41000 10.05000 30.35500
C  43.14600 9.57200 30.61600
C  45.81500 10.25100 28.15000
C  44.95200 10.66000 31.62900
O  45.91800 11.38200 31.80300
C  43.91600 10.40200 32.69500
C  44.41400 9.67300 33.83200
O  44.90800 8.58500 33.76600
O  44.08400 10.39600 34.92900
C  44.08200 9.66800 36.19400
H  38.09800 6.56600 32.85300
H  38.30700 5.78800 26.51400
H  43.89000 9.23300 26.40600
H  41.87200 8.80600 34.66200
H  38.97000 8.64100 34.11000
H  40.73500 6.97200 35.44400
H  39.66100 6.09300 34.28600
H  38.93900 6.99800 35.55200
H  40.29100 10.88100 33.42000
H  41.75400 11.09200 34.44600
H  39.58300 9.75900 36.07600
H  38.89000 10.89700 34.94200
H  35.03800 5.63300 31.19000
H  36.22500 5.85900 32.48000
H  36.29700 4.44000 31.62900
H  35.14100 3.79300 29.33600
H  34.35000 3.92400 27.90800
H  34.39500 5.38800 29.05100
H  39.75700 7.16100 24.54800
H  42.59600 7.73100 24.73900
H  42.16200 5.48700 24.62500
H  40.66800 4.99400 23.80700
H  40.90600 4.75700 25.53000
H  41.08600 9.26300 23.52300
H  42.11300 10.09000 24.52100
H  40.43700 11.14100 25.36600
H  39.84300 9.66100 26.11200
H  39.21200 10.10700 24.52100
H  46.68300 9.59700 28.22900
H  46.15800 11.04600 28.81300
H  45.74700 10.53600 27.10000
H  43.67100 11.41900 33.00100
H  44.91100 9.98600 36.82600
H  44.03400 8.58500 36.08200
H  43.09200 9.75200 36.64100
Mg 6.11700 57.17200 42.00500
C  5.11900 53.62900 41.63800
C  9.03600 56.22500 40.51100
C  6.66000 60.43800 41.37000
C  2.71300 57.79200 42.89400
N  6.78600 55.24900 41.13000
C  6.38900 53.95400 41.19000
C  7.33600 52.95200 40.55200
C  8.64100 53.72600 40.61300
C  8.10900 55.19300 40.74600
C  9.70500 53.30200 41.67000
C  6.83000 52.58700 39.05300
C  6.92100 51.14600 38.62100
H  6.31800 50.71200 37.30500
N  7.71700 58.21700 41.10000
C  8.80900 57.64000 40.58100
C  9.67500 58.78500 40.16500
C  9.05000 59.97600 40.49700
C  7.78200 59.58100 41.04000
C  11.04300 58.60600 39.50300
C  9.53800 61.36600 40.11600
O  10.66900 61.39500 39.65900
C  8.78700 62.70500 40.35900
N  4.79600 58.84900 42.09000
C  5.35400 60.09400 41.95900
C  4.23900 61.16000 42.18800
C  3.00700 60.31800 42.72000
C  3.49600 58.87900 42.68700
C  4.64000 62.28000 43.12900
C  1.57500 60.54500 42.03100
C  0.40400 60.90500 42.98200
N  4.26500 55.94100 42.24100
C  3.02300 56.40600 42.60300
C  2.14200 55.28700 42.75600
C  2.95400 54.16900 42.49400
C  4.18600 54.66200 42.03500
C  0.67800 55.28000 43.06100
C  2.98700 52.70400 42.38700
O  2.12400 51.88800 42.66300
C  4.39900 52.35800 41.90600
C  4.32900 51.31000 40.90100
O  3.85500 51.47200 39.77700
O  4.74100 50.08900 41.41500
C  4.30200 48.94000 40.65100
H  9.96000 55.88700 40.03900
H  6.88000 61.50700 41.34800
H  1.70600 58.05100 43.22800
H  7.46800 52.00600 41.07600
H  9.22900 53.73400 39.69600
H  10.53100 52.82100 41.14800
H  9.25900 52.57800 42.35200
H  10.03500 54.10400 42.33000
H  7.54400 53.14000 38.44300
H  5.86200 53.06200 38.89000
H  6.52000 50.44900 39.35600
H  7.99400 50.96300 38.67200
H  11.74900 59.31700 39.93200
H  10.94700 58.82700 38.44000
H  11.43000 57.58700 39.52800
H  7.86700 62.88900 39.80300
H  9.47600 63.53300 40.19300
H  8.55600 62.87500 41.41100
H  3.99300 61.63200 41.23700
H  2.92300 60.50100 43.79100
H  5.09000 63.10500 42.57700
H  5.47300 61.90300 43.72300
H  3.91300 62.52600 43.90300
H  1.18600 59.73800 41.41000
H  1.77900 61.40200 41.38900
H  -0.09100 59.94100 42.86700
H  -0.26100 61.70500 42.65700
H  0.82400 60.94700 43.98700
H  0.34900 54.35600 43.53600
H  0.29800 55.40000 42.04600
H  0.48700 56.15300 43.68500
H  4.84900 51.96400 42.81800
H  5.02400 48.82800 39.84200
H  3.31900 49.01100 40.18600
H  4.35100 48.09700 41.34000

