158

Mg -1.70800 16.96500 26.28600
C  -2.23200 15.01800 29.08000
C  -1.95700 19.76100 28.16200
C  -1.87400 18.78500 23.31200
C  -1.89700 14.07300 24.23500
N  -2.21000 17.26700 28.35200
C  -2.34900 16.36100 29.33300
C  -2.70800 17.05200 30.74200
C  -2.50400 18.61600 30.36500
C  -2.16000 18.53100 28.85700
C  -3.71600 19.54400 30.69300
C  -1.75300 16.50700 31.87200
C  -1.49400 17.39100 33.11600
H  -1.25500 16.58100 34.42500
N  -1.73500 18.97600 25.80300
C  -1.97800 19.98500 26.70000
C  -2.18600 21.24600 25.99600
C  -2.19000 20.95300 24.60100
C  -1.86300 19.54500 24.51700
C  -2.41900 22.55800 26.66400
C  -2.54600 21.87600 23.47900
O  -2.52800 21.53200 22.30500
C  -3.17900 23.18300 23.75700
N  -1.75000 16.43600 24.02700
C  -1.85100 17.42500 23.05200
C  -1.84300 16.75700 21.64900
C  -1.69900 15.21600 21.90100
C  -1.81600 15.17800 23.44800
C  -3.02300 17.21600 20.74000
C  -0.53500 14.36700 21.28800
C  0.89800 14.74000 21.79700
N  -1.99300 15.00200 26.53600
C  -2.03200 14.00400 25.63600
C  -2.07100 12.74800 26.36600
C  -2.15000 13.06900 27.68600
C  -2.10700 14.49700 27.77100
C  -2.06700 11.34300 25.80000
C  -2.19600 12.52900 28.99900
O  -2.20800 11.36200 29.37600
C  -2.32000 13.76600 30.02900
C  -1.25100 13.56800 31.01300
O  -0.05000 13.70300 30.81100
O  -1.77000 13.02300 32.15600
C  -0.79600 12.73100 33.13300
H  -1.96800 20.62700 28.82700
H  -1.94300 19.34200 22.37600
H  -1.86800 13.17300 23.61800
H  -3.75500 16.86500 30.97900
H  -1.58600 19.02800 30.78500
H  -3.26600 20.38600 31.21900
H  -4.37500 19.08500 31.43100
H  -4.30800 19.88000 29.84200
H  -0.83600 16.23700 31.34700
H  -2.18900 15.61200 32.31600
H  -2.31500 18.08100 33.30900
H  -0.61100 18.00200 32.92300
H  -1.53300 23.17300 26.50600
H  -2.60000 22.37700 27.72400
H  -3.32100 23.06700 26.32400
H  -4.11500 22.99900 24.28500
H  -3.30300 23.65900 22.78500
H  -2.58900 23.86900 24.36500
H  -0.85300 16.92300 21.22500
H  -2.55400 14.69800 21.46800
H  -3.52100 17.84000 21.48200
H  -3.73000 16.45700 20.40400
H  -2.76400 17.89100 19.92500
H  -0.54100 14.81600 20.29400
H  -0.72300 13.29300 21.28500
H  1.52200 15.22600 21.04700
H  1.39000 13.93000 22.33500
H  0.95000 15.51600 22.56100
H  -1.61900 10.74700 26.59500
H  -1.56500 11.31100 24.83300
H  -3.09600 11.03600 25.61600
H  -3.21000 13.82600 30.65500
H  -0.33000 13.68700 33.37400
H  -0.00700 12.06400 32.78400
H  -1.19300 12.28300 34.04400
Mg 9.59800 47.09300 26.82200
C  7.52800 47.05400 29.76500
C  12.20600 47.76400 28.96800
C  11.35000 47.76600 24.13000
C  6.58100 47.07100 24.87600
N  9.77900 47.43600 29.10300
C  8.86800 47.22800 30.11200
C  9.49800 47.54400 31.53600
C  10.98400 48.05000 31.25300
C  10.97800 47.76600 29.67400
C  11.25400 49.56200 31.63900
C  9.21200 46.34400 32.57900
C  10.16600 46.23500 33.76100
H  9.61900 45.77900 35.11100
N  11.51900 47.37800 26.61200
C  12.44000 47.69900 27.58000
C  13.72900 48.01500 26.94500
C  13.43300 48.15100 25.55500
C  12.05400 47.68800 25.38500
C  14.96800 48.33000 27.73900
C  14.34900 48.63600 24.37600
O  13.98500 48.74100 23.18400
C  15.80800 48.82900 24.68200
N  9.02100 47.50400 24.75300
C  9.99800 47.63900 23.81500
C  9.27100 47.81700 22.40900
C  7.76300 47.46800 22.64700
C  7.79400 47.28100 24.16100
C  9.63700 49.22800 21.82800
C  7.28100 46.23700 21.78400
C  8.01900 44.91000 22.12900
N  7.48800 47.08000 27.13300
C  6.42900 47.00900 26.27400
C  5.19500 47.09300 27.02500
C  5.63400 46.97700 28.34400
C  6.98000 47.01800 28.40500
C  3.84300 47.05000 26.49800
C  5.08600 46.76600 29.70100
O  3.93800 46.69400 30.15600
C  6.38400 46.85000 30.66700
C  6.38800 45.52000 31.36600
O  6.95500 44.46300 31.02600
O  5.66100 45.61800 32.46400
C  5.54700 44.39700 33.31400
H  13.02600 47.94100 29.66600
H  11.82400 48.08900 23.20100
H  5.65700 46.93300 24.31000
H  8.91200 48.41400 31.83200
H  11.70100 47.39300 31.74500
H  11.98500 49.69500 32.43700
H  10.39400 50.03500 32.11300
H  11.53300 50.06900 30.71600
H  9.30100 45.45400 31.95600
H  8.19900 46.42100 32.97400
H  10.72300 47.15600 33.93100
H  10.79400 45.41200 33.41900
H  15.38300 49.24000 27.30400
H  15.70500 47.53400 27.63200
H  14.82300 48.57300 28.79100
H  15.93000 49.82400 25.11100
H  16.40400 48.67100 23.78300
H  16.12000 48.05100 25.38000
H  9.77800 47.18100 21.68400
H  7.19300 48.37900 22.46100
H  10.12300 49.78000 22.63300
H  8.82700 49.76300 21.33200
H  10.39000 49.14800 21.04300
H  7.32300 46.52600 20.73400
H  6.24900 46.06800 22.09200
H  8.63000 44.46000 21.34700
H  7.34400 44.13000 22.48300
H  8.74800 45.03100 22.93000
H  3.71100 48.01100 26.00200
H  3.19100 46.93900 27.36500
H  3.77100 46.31300 25.69700
H  6.30300 47.59100 31.46200
H  5.50500 43.42200 32.82700
H  4.59700 44.39900 33.84800
H  6.42400 44.38300 33.96100

