158

Mg 45.51400 5.04000 47.01000
C  43.71200 7.89600 46.65400
C  42.75400 3.13000 46.48100
C  47.62400 2.35000 46.88200
C  48.47900 7.08800 46.97400
N  43.50400 5.45500 46.56800
C  42.96700 6.66000 46.44400
C  41.52100 6.58700 45.88100
C  41.09400 5.09300 46.14100
C  42.50700 4.50600 46.56600
C  40.09400 5.01700 47.33700
C  41.30700 7.05200 44.41300
C  39.93100 7.83300 44.17600
H  39.26200 7.43200 42.83600
N  45.18800 2.95900 46.77400
C  43.94900 2.35000 46.60100
C  44.17600 0.96000 46.39500
C  45.59800 0.68800 46.56900
C  46.24800 2.03000 46.77700
C  43.02000 0.03200 46.14500
C  46.22000 -0.70800 46.53300
O  45.68000 -1.70700 46.10400
C  47.67700 -0.93000 46.88000
N  47.79100 4.75000 46.98000
C  48.38600 3.48400 46.89000
C  49.92000 3.66200 47.02600
C  50.18600 5.17200 46.94700
C  48.74800 5.71700 46.95400
C  50.57500 2.96300 48.28800
C  50.77400 5.72100 45.66300
C  52.31800 5.95200 45.57100
N  46.03500 7.12000 46.87100
C  47.26500 7.77300 46.91800
C  46.95600 9.20900 46.89400
C  45.54100 9.29400 46.80900
C  45.05800 8.01800 46.87100
C  47.95500 10.30100 47.02200
C  44.44500 10.20300 46.68800
O  44.45100 11.40800 46.59200
C  43.15700 9.32000 46.57100
C  42.21100 9.66100 47.66000
O  42.16500 9.17300 48.72200
O  41.28500 10.48100 47.13400
C  40.21900 10.90600 48.06400
H  41.79900 2.60500 46.41000
H  48.33100 1.51900 46.92100
H  49.35900 7.73100 47.03600
H  40.86500 7.20100 46.49900
H  40.68500 4.61500 45.25100
H  39.77700 6.01500 47.64200
H  40.55100 4.44400 48.14500
H  39.22000 4.38800 47.17300
H  41.36500 6.21000 43.72400
H  42.19700 7.62800 44.15600
H  40.16800 8.88300 44.35100
H  39.28500 7.66000 45.03600
H  42.69300 -0.21700 47.15400
H  43.42700 -0.79100 45.55800
H  42.14600 0.45400 45.64800
H  47.94500 -0.28000 47.71300
H  48.35300 -0.72000 46.05100
H  47.83900 -1.90400 47.34000
H  50.50900 3.25500 46.20300
H  50.73100 5.53100 47.82000
H  51.48700 3.50400 48.54000
H  50.96000 1.97100 48.05200
H  49.91700 2.95100 49.15800
H  50.36200 6.70500 45.43700
H  50.40800 5.08900 44.85400
H  52.74600 5.89500 46.57200
H  52.59900 6.91700 45.14700
H  52.76800 5.10100 45.05900
H  48.80500 9.74100 47.41000
H  47.48600 10.89700 47.80500
H  48.04100 10.93400 46.14000
H  42.78700 9.55000 45.57200
H  39.30400 11.02200 47.48200
H  40.54700 11.76100 48.65500
H  39.97200 10.03500 48.67100
Mg -12.13700 16.29500 41.51200
C  -9.07600 14.54700 41.20500
C  -10.69300 18.92100 39.78400
C  -15.07800 17.73400 41.42600
C  -13.62300 13.30800 42.85000
N  -10.06500 16.69200 40.71600
C  -8.98800 15.82100 40.72200
C  -7.83000 16.34400 39.95600
C  -8.33100 17.81900 39.70700
C  -9.77000 17.82600 40.01300
C  -7.60600 18.92100 40.58400
C  -7.62600 15.49000 38.73500
C  -6.19600 15.20400 38.37400
H  -5.49700 15.99300 37.37500
N  -12.75400 18.11900 40.86600
C  -12.05900 19.08700 40.12800
C  -12.84300 20.22100 39.78300
C  -14.05300 19.92500 40.29900
C  -14.00600 18.57900 40.98400
C  -12.32800 21.42800 39.02100
C  -15.27200 20.81100 40.18800
O  -15.28600 21.88800 39.63400
C  -16.57100 20.61600 40.95900
N  -14.12200 15.60200 41.93500
C  -15.17300 16.41100 41.85900
C  -16.45100 15.63300 42.20300
C  -15.99100 14.35400 42.85400
C  -14.45700 14.42100 42.57100
C  -17.48200 16.34800 43.06900
C  -16.55900 12.99700 42.28900
C  -16.79900 12.04000 43.38500
N  -11.64200 14.31900 41.89200
C  -12.27000 13.24800 42.48900
C  -11.33000 12.18600 42.58500
C  -10.12800 12.65400 42.14600
C  -10.28500 13.96800 41.80300
C  -11.67500 10.79400 43.00000
C  -8.72200 12.21600 42.01900
O  -8.07300 11.24200 42.33600
C  -8.07900 13.45300 41.39400
C  -6.97000 13.81500 42.22800
O  -7.09500 14.00400 43.45700
O  -5.75400 13.75300 41.58800
C  -4.45300 14.09500 42.20300
H  -10.28000 19.75200 39.20800
H  -16.05400 18.17800 41.22000
H  -14.00000 12.36800 43.25900
H  -6.91200 16.34000 40.54300
H  -8.26700 18.17000 38.67700
H  -8.28600 19.22500 41.38000
H  -7.34500 19.75400 39.93100
H  -6.62100 18.65400 40.96600
H  -7.96600 16.02200 37.84600
H  -8.15500 14.53900 38.67700
H  -6.23100 14.20200 37.94700
H  -5.55700 15.16600 39.25600
H  -12.79000 22.36300 39.33800
H  -12.54800 21.33400 37.95700
H  -11.26700 21.48500 39.26200
H  -17.04000 19.78900 40.42500
H  -17.29500 21.43000 40.93400
H  -16.27400 20.47600 41.99900
H  -16.88700 15.52400 41.21000
H  -16.19400 14.36800 43.92500
H  -17.77900 15.97700 44.05000
H  -18.38600 16.46400 42.47200
H  -17.18300 17.38300 43.23500
H  -15.73400 12.59700 41.69900
H  -17.39600 13.13900 41.60500
H  -16.46200 12.38800 44.36100
H  -16.29700 11.09600 43.17600
H  -17.83700 11.71500 43.45600
H  -11.83200 10.20500 42.09700
H  -12.61600 10.74800 43.54800
H  -10.97600 10.28100 43.66100
H  -7.68800 13.09500 40.44200
H  -4.33200 15.16700 42.36100
H  -3.65000 13.93700 41.48300
H  -4.32600 13.50600 43.11100

