158

Mg 34.75000 2.79300 29.02700
C  32.75500 3.31400 31.85700
C  37.43400 2.21300 31.15700
C  36.61400 2.44400 26.34000
C  31.88600 3.64500 27.01300
N  35.04600 2.87100 31.22900
C  34.08000 2.90200 32.19400
C  34.60000 2.74000 33.64200
C  36.18800 2.60700 33.34200
C  36.31200 2.63400 31.82400
C  37.04900 3.78400 33.98500
C  33.93300 1.59200 34.39800
C  33.58600 1.78000 35.90400
H  34.43400 2.65600 36.81900
N  36.73700 2.44900 28.72800
C  37.65900 2.19400 29.72000
C  39.00100 2.02700 29.05300
C  38.83100 2.14100 27.66700
C  37.32700 2.27100 27.48300
C  40.30000 2.01700 29.81800
C  39.88900 2.08200 26.64300
O  39.52100 2.17300 25.44300
C  41.32100 1.68800 26.89700
N  34.30900 3.25300 26.93000
C  35.26100 2.85500 26.03100
C  34.76900 3.15100 24.59500
C  33.22900 3.37100 24.83600
C  33.12300 3.46600 26.39700
C  35.55700 4.21400 23.92100
C  32.24500 2.33000 24.20800
C  32.28700 0.92200 24.74600
N  32.76100 3.23700 29.32300
C  31.69700 3.56400 28.45600
C  30.48100 3.72300 29.16600
C  30.83500 3.66800 30.49400
C  32.16300 3.35900 30.59700
C  29.11000 4.04700 28.70300
C  30.34400 3.80200 31.88000
O  29.20600 3.96000 32.32200
C  31.59100 3.55800 32.77500
C  31.74100 4.78500 33.67400
O  32.04700 5.90600 33.29400
O  31.48100 4.56200 34.97800
C  31.62000 5.74200 35.83500
H  38.24500 1.97500 31.84800
H  37.15800 2.38100 25.39500
H  31.11600 3.76300 26.24700
H  34.46100 3.72600 34.08600
H  36.53200 1.70000 33.83900
H  36.39400 4.49400 34.49000
H  37.69000 4.30500 33.27400
H  37.65500 3.23700 34.70600
H  34.71600 0.83700 34.32600
H  33.07200 1.27600 33.81000
H  33.41000 0.79400 36.33200
H  32.61700 2.27800 35.88000
H  40.88900 1.14200 29.54500
H  40.13500 1.94900 30.89300
H  40.81400 2.97600 29.74400
H  41.29400 0.72300 27.40300
H  41.74400 2.26700 27.71800
H  41.78800 1.69600 25.91200
H  34.84600 2.24900 23.98800
H  33.02900 4.37200 24.45500
H  36.00500 4.75400 24.75500
H  34.92000 4.91700 23.38400
H  36.30100 3.84300 23.21700
H  32.44000 2.22800 23.14000
H  31.26400 2.80500 24.20900
H  32.38500 0.25100 23.89300
H  31.37300 0.80900 25.33000
H  33.11600 0.73900 25.42900
H  29.07300 5.02100 28.21300
H  28.45900 4.16000 29.57000
H  28.90200 3.27600 27.96100
H  31.39800 2.67000 33.37800
H  31.07500 5.52800 36.75500
H  31.25500 6.69000 35.43900
H  32.69400 5.83900 35.99300
Mg -11.80700 16.27500 42.33500
C  -8.97700 14.32600 42.19900
C  -9.92800 18.93100 40.89700
C  -14.65100 17.71500 41.51300
C  -13.57700 13.46500 43.70400
N  -9.75700 16.46600 41.46300
C  -8.80800 15.54300 41.57400
C  -7.54100 16.06700 41.05000
C  -7.68800 17.63900 40.87700
C  -9.21300 17.75000 41.11400
C  -6.92600 18.43800 41.88500
C  -7.17000 15.42600 39.72200
C  -5.71600 15.73800 39.21800
H  -5.49800 16.54900 37.93600
N  -12.26600 18.12800 41.43500
C  -11.36200 19.12200 40.99500
C  -12.06300 20.29700 40.50500
C  -13.41100 19.99500 40.79100
C  -13.53800 18.58500 41.25200
C  -11.42300 21.55500 39.92800
C  -14.60700 20.92800 40.66200
O  -14.41700 22.03100 40.33600
C  -16.09100 20.65100 40.98100
N  -13.81800 15.61100 42.43500
C  -14.78700 16.47300 42.17400
C  -16.12600 15.83100 42.25400
C  -15.79300 14.48700 42.98100
C  -14.27900 14.49800 43.11000
C  -17.29400 16.57400 43.01500
C  -16.27200 13.12300 42.39300
C  -16.69600 12.04200 43.42000
N  -11.36400 14.34600 42.97200
C  -12.19300 13.32100 43.54100
C  -11.28500 12.17600 43.85900
C  -9.95600 12.61500 43.42700
C  -10.11600 13.87100 42.78000
C  -11.64200 10.78600 44.33100
C  -8.63300 12.13300 43.28600
O  -8.21000 11.08100 43.67000
C  -7.90800 13.23100 42.47500
C  -6.66800 13.75700 43.15600
O  -6.66200 14.22000 44.26200
O  -5.60900 13.76200 42.30700
C  -4.22700 14.02200 42.88600
H  -9.41700 19.82900 40.54100
H  -15.62800 18.08300 41.19400
H  -14.12200 12.62900 44.14800
H  -6.65800 15.97000 41.68100
H  -7.47200 17.88800 39.83800
H  -6.54600 19.26300 41.28400
H  -6.09100 17.90800 42.34400
H  -7.49600 18.77100 42.75200
H  -7.90100 15.72100 38.97000
H  -7.32200 14.35400 39.84300
H  -5.08900 14.84700 39.17500
H  -5.19800 16.33100 39.97100
H  -11.20200 22.21800 40.76400
H  -12.03300 21.93900 39.11000
H  -10.52600 21.23200 39.40000
H  -16.12600 20.12700 41.93600
H  -16.41300 20.03100 40.14400
H  -16.61600 21.60600 41.00100
H  -16.38900 15.66600 41.21000
H  -16.21400 14.53800 43.98500
H  -16.90800 17.29000 43.74000
H  -17.95800 15.80200 43.40400
H  -17.85900 17.09400 42.24100
H  -15.49600 12.69000 41.76200
H  -17.07000 13.40700 41.70800
H  -16.05600 11.16500 43.32800
H  -17.68100 11.60100 43.26900
H  -16.63000 12.46900 44.42100
H  -10.72600 10.48600 44.83900
H  -11.86000 10.19700 43.44000
H  -12.48400 10.69300 45.01800
H  -7.66600 12.62200 41.60400
H  -3.43400 13.99500 42.13900
H  -4.04800 13.26100 43.64600
H  -4.18600 14.98700 43.39000

