158

Mg 34.87200 3.01000 29.09500
C  32.55100 3.82000 31.57100
C  37.44200 3.48300 31.28600
C  37.12900 2.61100 26.49200
C  32.32300 3.20900 26.69500
N  34.95400 3.56300 31.15300
C  33.90900 3.70300 32.01100
C  34.42900 3.91400 33.45100
C  35.97500 4.10600 33.24800
C  36.12400 3.65400 31.82200
C  36.57800 5.49600 33.61500
C  33.92100 2.74600 34.38400
C  33.67300 3.11700 35.76300
H  34.50800 4.23700 36.38300
N  36.95800 3.02500 28.96900
C  37.79300 3.07100 29.99600
C  39.16900 2.66200 29.65300
C  39.11100 2.49000 28.25100
C  37.68000 2.77900 27.81700
C  40.19500 2.58100 30.73800
C  40.23800 1.97500 27.30400
O  40.04900 1.71700 26.12500
C  41.57800 1.67400 27.92600
N  34.71100 3.02200 26.91400
C  35.78900 2.70200 26.10300
C  35.30300 2.43300 24.58100
C  33.78600 2.49900 24.79400
C  33.62100 3.06600 26.18600
C  35.87000 3.42600 23.51300
C  33.07400 1.13700 24.52200
C  31.78100 1.18900 23.87000
N  32.89500 3.42700 29.05300
C  31.93600 3.44400 28.01400
C  30.59300 3.73500 28.53700
C  30.81800 3.82300 29.95200
C  32.20900 3.68500 30.19600
C  29.39600 3.88300 27.75100
C  30.12300 4.08300 31.15200
O  28.97400 4.42600 31.39900
C  31.24200 4.11000 32.33000
C  31.17400 5.36400 33.04900
O  31.58000 6.44300 32.56600
O  30.58500 5.33800 34.31100
C  30.64200 6.60700 35.05700
H  38.17600 3.57400 32.08900
H  37.83800 2.35400 25.70200
H  31.52300 3.26300 25.95400
H  34.04400 4.82300 33.91500
H  36.47700 3.41400 33.92400
H  37.37300 5.34700 34.34500
H  35.84800 6.22200 33.97500
H  36.91200 5.91600 32.66600
H  34.74700 2.03600 34.40800
H  33.06200 2.28500 33.89600
H  33.64600 2.21900 36.38000
H  32.70400 3.61500 35.72600
H  39.85200 1.79200 31.40700
H  40.08800 3.51300 31.29300
H  41.22600 2.47300 30.40200
H  41.80700 2.64600 28.36400
H  42.26900 1.36400 27.14300
H  41.44500 0.87700 28.65800
H  35.53000 1.37600 24.44200
H  33.38700 3.20700 24.06700
H  36.41400 2.83700 22.77400
H  36.54900 4.13900 23.97900
H  34.97600 3.90400 23.11200
H  33.01200 0.57100 25.45200
H  33.69800 0.41900 23.99000
H  31.91400 0.73300 22.88900
H  31.47900 2.23600 23.84400
H  30.98000 0.62800 24.35400
H  29.22400 2.93200 27.24700
H  29.37900 4.76200 27.10700
H  28.65400 4.01200 28.53900
H  30.94500 3.37000 33.07200
H  30.31100 7.49000 34.50900
H  31.66700 6.80000 35.37500
H  30.01100 6.53300 35.94300
Mg 47.23000 16.20800 28.67000
C  45.25000 16.30200 31.50700
C  49.59200 18.01700 30.40300
C  48.81900 16.71000 25.77600
C  44.55700 14.78300 26.91300
N  47.31900 17.16400 30.59800
C  46.51600 16.86200 31.65500
C  47.06300 17.28700 33.00400
C  48.32500 18.11700 32.49900
C  48.39900 17.83800 31.04500
C  48.21500 19.64200 32.94700
C  47.50500 16.07000 33.91200
C  47.29400 16.16800 35.42900
H  46.83300 17.56200 36.09000
N  49.02000 17.04700 28.16600
C  49.90000 17.71500 29.04400
C  51.15900 17.97500 28.39300
C  50.86000 17.83000 27.02300
C  49.52800 17.22400 26.92200
C  52.36600 18.44200 29.04300
C  51.73000 18.34500 25.81800
O  51.43900 18.10000 24.66100
C  53.02100 19.16000 26.00500
N  46.66800 15.91100 26.53100
C  47.58100 16.10500 25.53400
C  47.14400 15.49000 24.26100
C  45.74300 14.81400 24.64600
C  45.65800 15.14000 26.13200
C  47.03800 16.51400 23.03000
C  45.70200 13.22700 24.53800
C  45.00500 12.69000 23.28200
N  45.35200 15.58000 29.09200
C  44.36200 14.97200 28.30100
C  43.26200 14.63500 29.10000
C  43.52100 15.16800 30.36500
C  44.78500 15.77500 30.30400
C  42.00400 13.91700 28.68200
C  42.94700 15.26400 31.70600
O  41.96700 14.88200 32.23600
C  44.13400 16.03400 32.51900
C  43.45700 17.11200 33.33500
O  43.39300 18.29400 33.06100
O  42.88100 16.60500 34.44300
C  42.30700 17.53000 35.39000
H  50.31600 18.57000 31.00600
H  49.35100 16.80600 24.82700
H  43.72400 14.29400 26.40300
H  46.22600 17.72500 33.54800
H  49.25900 17.73500 32.91200
H  47.30200 19.86000 33.50200
H  48.50600 20.28600 32.11700
H  48.95600 19.66500 33.74600
H  48.56500 15.87700 33.74800
H  46.96300 15.20000 33.54000
H  48.16200 15.92100 36.04000
H  46.59900 15.38100 35.72200
H  53.16100 17.84100 28.60000
H  52.28500 18.13800 30.08600
H  52.60500 19.50300 28.96800
H  52.93200 20.15200 26.44800
H  53.46600 19.23200 25.01300
H  53.68600 18.47400 26.52900
H  47.90500 14.75300 24.00400
H  44.81000 15.18400 24.22300
H  46.03900 16.91800 22.86000
H  47.36400 16.09800 22.07700
H  47.52500 17.44200 23.32900
H  45.19200 12.78200 25.39100
H  46.69400 12.77700 24.55900
H  44.00600 12.37400 23.58300
H  45.55400 11.81300 22.93900
H  44.93000 13.41700 22.47400
H  41.24700 14.51200 29.19200
H  42.03900 12.86000 28.94700
H  41.83600 13.96900 27.60700
H  44.50100 15.32600 33.26300
H  41.56400 18.10800 34.84100
H  43.10500 18.18900 35.73100
H  41.83000 16.97300 36.19700

