158

Mg 16.83500 -1.06200 27.68500
C  15.88700 1.09700 30.19300
C  18.59000 -2.85800 30.08900
C  18.39300 -2.78800 25.23500
C  15.46900 1.09800 25.30100
N  17.20600 -0.85600 29.89000
C  16.71500 0.11600 30.70900
C  17.08100 -0.13600 32.21100
C  18.17000 -1.25600 32.00000
C  18.00600 -1.67500 30.52500
C  19.63700 -0.84600 32.17800
C  15.80800 -0.53500 33.09100
C  16.38200 -0.83500 34.50600
H  17.58200 -0.13300 35.10200
N  18.19100 -2.71100 27.64300
C  18.68500 -3.36800 28.76700
C  19.34800 -4.55800 28.29200
C  19.24800 -4.57700 26.87700
C  18.59800 -3.36000 26.53100
C  20.02700 -5.57300 29.20800
C  19.87700 -5.56800 25.91700
O  19.83400 -5.50800 24.68600
C  20.55600 -6.79000 26.37200
N  17.03000 -0.78000 25.59800
C  17.72600 -1.66700 24.78800
C  17.63800 -1.30800 23.30300
C  16.61000 -0.12200 23.32000
C  16.37100 0.10200 24.84300
C  19.00200 -0.92300 22.70000
C  15.32300 -0.40100 22.48000
C  14.07400 -0.79400 23.30200
N  15.83000 0.73600 27.73400
C  15.29400 1.46900 26.66600
C  14.53500 2.54300 27.12100
C  14.74100 2.46200 28.54500
C  15.61300 1.40700 28.85400
C  13.84700 3.60100 26.35900
C  14.39700 3.12100 29.80700
O  13.75000 4.11500 30.06000
C  15.09900 2.20700 30.99100
C  16.00100 3.06900 31.75400
O  17.23100 3.22500 31.55800
O  15.26500 3.62300 32.82000
C  16.10000 4.44100 33.70300
H  19.22500 -3.47900 30.72500
H  18.80800 -3.36500 24.40500
H  14.98500 1.67300 24.50900
H  17.48500 0.75900 32.68400
H  18.01300 -2.11900 32.64800
H  20.07600 -1.58900 32.84400
H  19.77800 0.11000 32.68100
H  20.25700 -0.87600 31.28200
H  15.54700 -1.53200 32.73500
H  14.95300 0.13400 33.18400
H  16.40900 -1.92100 34.58700
H  15.55100 -0.49100 35.12200
H  21.09200 -5.34100 29.19400
H  19.77000 -6.59200 28.91800
H  19.63200 -5.53100 30.22300
H  20.90500 -7.37600 25.52200
H  19.79600 -7.35900 26.90900
H  21.48900 -6.61400 26.90800
H  17.39100 -2.16100 22.67000
H  17.11500 0.73900 22.88200
H  19.21500 0.14600 22.70700
H  19.17000 -1.29100 21.68800
H  19.80900 -1.29500 23.33100
H  15.30300 -1.13500 21.67400
H  15.09900 0.56000 22.01700
H  14.30500 -1.49800 24.10100
H  13.31400 -1.25000 22.66700
H  13.62300 0.10100 23.73000
H  14.46300 3.56200 25.46000
H  13.82900 4.60100 26.79200
H  12.84100 3.20900 26.21300
H  14.31100 1.80900 31.63000
H  16.56200 5.23300 33.11300
H  16.80000 3.73600 34.15100
H  15.59800 4.97800 34.50800
Mg 44.85800 3.97400 48.58300
C  42.92600 6.87900 47.71200
C  42.22200 2.03700 47.90300
C  46.97200 1.53200 48.37600
C  47.71300 6.25500 48.52000
N  42.86900 4.39800 47.69800
C  42.27800 5.65700 47.62800
C  40.80600 5.50700 47.15600
C  40.50000 3.97700 47.39200
C  41.93300 3.42700 47.71600
C  39.47100 3.72100 48.57100
C  40.65700 6.03100 45.72900
C  39.68000 7.18400 45.58200
H  38.62900 6.72500 44.45000
N  44.59100 2.02000 48.27700
C  43.46600 1.34900 48.04900
C  43.71000 -0.05800 47.96100
C  45.11800 -0.21800 48.14800
C  45.65400 1.13400 48.24600
C  42.70500 -1.01000 47.66600
C  45.82700 -1.52700 48.22400
O  45.30400 -2.61100 47.93900
C  47.40700 -1.65200 48.60900
N  47.03600 3.95500 48.76400
C  47.59600 2.70600 48.61500
C  49.10700 2.79000 48.53500
C  49.36500 4.33000 48.63200
C  47.96600 4.88400 48.66500
C  49.78500 1.89200 49.55000
C  50.30400 4.97600 47.58100
C  51.70400 5.39600 48.02900
N  45.28500 6.12300 48.26600
C  46.44400 6.90100 48.28400
C  46.11900 8.31700 48.12800
C  44.71400 8.33400 47.88500
C  44.28500 7.02500 48.03100
C  47.14100 9.53200 47.99100
C  43.63800 9.22400 47.68300
O  43.59500 10.43300 47.49700
C  42.38900 8.30600 47.56900
C  41.36700 8.67500 48.68300
O  41.53000 8.28500 49.83200
O  40.25800 9.32400 48.23900
C  39.20900 9.75500 49.17100
H  41.34300 1.38900 47.88700
H  47.74200 0.76600 48.26000
H  48.50600 7.00400 48.47200
H  40.14100 6.05600 47.82200
H  40.15500 3.43800 46.50900
H  39.09500 4.60400 49.08700
H  39.97900 3.09600 49.30600
H  38.57500 3.14600 48.33900
H  40.29800 5.18900 45.13700
H  41.59500 6.39000 45.30400
H  40.04900 8.10400 45.13000
H  39.20100 7.45100 46.52400
H  43.06900 -1.81800 47.03100
H  41.77200 -0.65100 47.23000
H  42.47400 -1.53700 48.59100
H  47.60400 -0.96600 49.43300
H  47.97500 -1.42600 47.70600
H  47.80700 -2.62100 48.90800
H  49.41100 2.45300 47.54400
H  49.79400 4.40800 49.63100
H  50.42000 2.39000 50.28300
H  50.47900 1.17400 49.11200
H  49.10600 1.41400 50.25600
H  49.89100 5.77900 46.96900
H  50.54800 4.13000 46.93900
H  51.71800 6.46100 47.79700
H  52.37200 4.83700 47.37300
H  51.90300 5.24700 49.09000
H  48.09700 9.22800 48.41700
H  46.74100 10.42300 48.47500
H  47.22700 9.69400 46.91700
H  41.95400 8.62500 46.62200
H  38.34000 9.10500 49.06600
H  38.92000 10.78700 48.97100
H  39.52500 9.69000 50.21200

