158

Mg 25.14800 1.44600 30.40800
C  27.27900 1.57500 33.42400
C  22.46800 1.55900 32.50600
C  23.27500 1.53500 27.70400
C  28.07000 1.18300 28.57700
N  24.97900 1.68800 32.73000
C  25.93500 1.75400 33.70100
C  25.27100 1.99900 35.03600
C  23.69100 1.92400 34.75100
C  23.69500 1.73100 33.24600
C  22.81900 1.00500 35.52900
C  25.82500 3.35300 35.72900
C  26.37100 3.12800 37.20000
H  25.90500 4.05900 38.30100
N  23.08900 1.57000 30.07100
C  22.12500 1.55900 31.09600
C  20.86900 1.72100 30.47900
C  21.05200 1.74700 29.06400
C  22.52800 1.65200 28.88100
C  19.54200 1.89500 31.16100
C  20.09000 1.81200 27.87800
O  20.48000 1.83300 26.70000
C  18.61100 1.72700 28.22200
N  25.63200 1.25100 28.48900
C  24.63600 1.49700 27.51700
C  25.25200 1.72100 26.10900
C  26.79400 1.43800 26.34700
C  26.88400 1.28400 27.87600
C  24.51600 0.84200 24.94100
C  27.73500 2.53400 25.71500
C  28.90200 1.95900 24.88700
N  27.29200 1.26900 30.84600
C  28.36700 1.15200 29.97300
C  29.53400 1.13000 30.73200
C  29.14900 1.28600 32.09300
C  27.77600 1.36200 32.09600
C  30.91600 1.08700 30.20200
C  29.72600 1.47800 33.46400
O  30.85700 1.61400 33.84700
C  28.47700 1.65300 34.40400
C  28.43000 0.53200 35.37000
O  27.98400 -0.56600 35.12200
O  28.93900 0.93100 36.54800
C  28.90700 0.17100 37.78700
H  21.66900 1.77500 33.21800
H  22.79400 1.47800 26.72500
H  28.93200 1.15000 27.90700
H  25.50700 1.10400 35.61200
H  23.26900 2.86300 35.10900
H  22.19300 0.35700 34.91600
H  22.14100 1.61400 36.12700
H  23.43700 0.38600 36.18100
H  25.04900 4.11800 35.69700
H  26.70500 3.82900 35.29800
H  27.39600 3.48100 37.08700
H  26.27900 2.05500 37.36800
H  19.04000 2.82900 30.90500
H  19.67100 2.08600 32.22600
H  18.83100 1.07200 31.08200
H  18.45700 0.81700 28.80200
H  17.96000 1.79200 27.35000
H  18.35200 2.58600 28.84000
H  25.09200 2.76300 25.83400
H  27.01500 0.46900 25.89900
H  23.88900 0.06300 25.37600
H  25.28600 0.32200 24.37100
H  23.94400 1.44600 24.23700
H  28.21400 3.15500 26.47200
H  27.11200 3.21500 25.13500
H  28.98500 0.87300 24.90200
H  29.85800 2.38200 25.19600
H  28.79800 2.20100 23.83000
H  31.48800 1.55700 31.00200
H  31.09500 1.59000 29.25100
H  31.13200 0.02200 30.12000
H  28.53800 2.62700 34.88900
H  28.05200 0.47300 38.39100
H  29.78500 0.21400 38.43100
H  28.90000 -0.88200 37.50500
Mg 46.52600 16.83500 28.32900
C  44.51000 16.87600 31.11600
C  49.03700 18.33000 30.25000
C  48.42600 17.45500 25.44000
C  43.89700 15.74500 26.41200
N  46.69300 17.62100 30.33800
C  45.82400 17.38700 31.38100
C  46.29200 17.63700 32.76300
C  47.65200 18.35300 32.42600
C  47.82700 18.10700 30.87000
C  47.73800 19.91200 32.76400
C  46.26500 16.31100 33.64600
C  45.39700 16.30700 34.88800
H  45.12800 17.67300 35.50500
N  48.50400 17.65000 27.84900
C  49.32800 18.18300 28.81600
C  50.62500 18.55000 28.13500
C  50.50100 18.30700 26.78100
C  49.09600 17.78300 26.59400
C  51.76800 19.34200 28.87600
C  51.48300 18.55200 25.59200
O  51.19100 18.29800 24.43800
C  52.84500 19.11100 25.88800
N  46.20200 16.63400 26.22900
C  47.09300 16.94700 25.22700
C  46.52400 16.73100 23.84300
C  45.16700 16.13200 24.18400
C  45.12300 16.03000 25.72300
C  46.41600 18.02200 22.97800
C  44.96200 14.80600 23.40500
C  45.52300 13.52100 23.88900
N  44.68800 16.30100 28.66000
C  43.81000 15.79200 27.82900
C  42.62900 15.33600 28.56100
C  42.79600 15.86200 29.86800
C  44.07300 16.38700 29.86500
C  41.49100 14.59300 28.06500
C  42.14600 16.02400 31.10600
O  40.99900 15.63200 31.44000
C  43.22800 16.69200 31.99400
C  42.60100 17.90400 32.65000
O  42.52400 19.07400 32.23600
O  41.98200 17.48300 33.84900
C  41.06900 18.44400 34.50000
H  49.84000 18.79800 30.82400
H  48.79300 17.79800 24.47000
H  43.08800 15.31300 25.81900
H  45.54000 18.26500 33.24100
H  48.55300 17.93600 32.87600
H  46.82300 20.19600 33.28400
H  47.63400 20.50600 31.85600
H  48.63700 20.16200 33.32800
H  47.25600 16.21700 34.09000
H  45.94900 15.43700 33.07800
H  45.90400 15.74300 35.67100
H  44.46600 15.75000 34.77700
H  52.75600 18.91800 28.69800
H  51.54000 19.26900 29.93900
H  51.67100 20.40200 28.64100
H  53.28400 18.51000 26.68500
H  52.71000 20.15300 26.17700
H  53.43300 19.17900 24.97300
H  47.16300 15.99300 23.35800
H  44.35600 16.78200 23.85700
H  45.45100 18.52600 23.03600
H  46.53000 17.74400 21.93100
H  47.18200 18.77200 23.17800
H  45.44100 14.97800 22.44200
H  43.89800 14.71300 23.18900
H  46.25400 13.08700 23.20700
H  44.67000 12.84900 23.98100
H  46.08600 13.56700 24.82200
H  41.29300 13.82700 28.81500
H  41.60900 14.15900 27.07200
H  40.65300 15.28600 27.99000
H  43.50700 15.95900 32.75100
H  40.14300 18.54400 33.93500
H  41.54700 19.42400 34.48900
H  40.87000 18.14500 35.52900

