158

Mg 2.45800 -1.39000 45.13200
C  6.01200 -0.85800 44.79100
C  2.02900 1.63400 43.54200
C  -0.80000 -2.23100 44.60000
C  3.25000 -4.54000 46.16400
N  3.83000 0.08400 44.25300
C  5.19100 0.11500 44.21300
C  5.73500 1.23100 43.41400
C  4.50200 2.24600 43.22700
C  3.36400 1.28500 43.72800
C  4.45100 3.52200 44.07900
C  6.46400 0.74400 42.15000
C  7.88300 1.26500 41.86300
H  8.08500 1.56700 40.40000
N  0.79300 -0.43700 44.26800
C  0.86700 0.81200 43.73400
C  -0.49100 1.25000 43.30400
C  -1.33400 0.15500 43.68500
C  -0.50400 -0.90000 44.23000
C  -0.77600 2.62900 42.54700
C  -2.85800 0.10100 43.53400
O  -3.44000 1.01800 42.92100
C  -3.63300 -0.93000 44.27400
N  1.36700 -3.21300 45.25600
C  0.00900 -3.26200 45.13200
C  -0.51100 -4.66200 45.72600
C  0.78000 -5.51900 46.14300
C  1.89900 -4.40700 45.75700
C  -1.54100 -4.59500 46.83700
C  0.89900 -6.85700 45.28400
C  1.60400 -8.03000 45.99200
N  4.23000 -2.51200 45.57000
C  4.38000 -3.71900 46.09300
C  5.76700 -4.01900 46.44300
C  6.45300 -2.92300 46.01800
C  5.50200 -2.02000 45.45400
C  6.30100 -5.25700 47.04900
C  7.69500 -2.25000 45.88700
O  8.80000 -2.61400 46.32600
C  7.52800 -0.93700 45.01200
C  8.12900 0.28900 45.57100
O  7.96800 0.61900 46.77200
O  8.95800 0.97300 44.71200
C  9.36000 2.31300 45.22400
H  1.99900 2.58900 43.01300
H  -1.80600 -2.63800 44.47600
H  3.45400 -5.46600 46.70500
H  6.53000 1.66700 44.01800
H  4.23000 2.45700 42.19300
H  5.50200 3.72500 44.28500
H  3.84100 3.44400 44.97900
H  4.00500 4.32600 43.49300
H  5.79800 0.81400 41.29000
H  6.64600 -0.33000 42.18700
H  8.57000 0.62500 42.41700
H  8.10600 2.20900 42.36000
H  -1.84300 2.82200 42.65400
H  -0.53200 2.43200 41.50300
H  -0.21300 3.46600 42.96000
H  -4.64800 -0.62100 44.52400
H  -3.01700 -1.02200 45.16900
H  -3.61700 -1.86800 43.72000
H  -1.03300 -5.17600 44.91900
H  0.77600 -5.80300 47.19600
H  -1.76800 -3.56600 47.11500
H  -1.16200 -5.05800 47.74800
H  -2.45600 -5.15000 46.63100
H  1.51000 -6.71600 44.39200
H  -0.05900 -7.25300 44.94800
H  1.44100 -8.03300 47.07000
H  2.67800 -7.96500 45.81800
H  1.14900 -8.96700 45.67000
H  5.97300 -6.18300 46.57700
H  5.96200 -5.35700 48.08000
H  7.38700 -5.16700 47.08800
H  8.03900 -1.15700 44.07500
H  8.57400 2.91100 45.68500
H  9.66400 2.84900 44.32500
H  10.16600 2.22900 45.95400
Mg 47.84400 45.23600 42.73400
C  44.40300 45.90000 41.74300
C  47.69200 42.57500 40.77500
C  51.19000 45.26200 42.70300
C  47.82500 48.58300 43.97200
N  46.17200 44.30200 41.55600
C  44.91800 44.76400 41.25200
C  44.26100 43.85500 40.25700
C  45.27000 42.66700 40.17400
C  46.43800 43.17000 40.95600
C  44.77500 41.31400 40.80000
C  44.02700 44.55400 38.86900
C  42.68100 44.20700 38.21600
H  42.62100 43.09300 37.17200
N  49.26300 43.94000 42.01200
C  48.95900 42.87700 41.26200
C  50.12800 42.16600 40.98700
C  51.20000 42.99100 41.46800
C  50.58500 44.13500 42.09800
C  50.23900 40.83500 40.26700
C  52.72800 42.66500 41.23600
O  53.04200 41.56100 40.78700
C  53.87100 43.60100 41.52100
N  49.29100 46.65000 43.33700
C  50.58800 46.38100 43.37300
C  51.35800 47.56100 43.98100
C  50.26900 48.63400 44.12900
C  49.00500 47.87300 43.93300
C  52.16100 47.34600 45.27800
C  50.42400 49.87300 43.11100
C  51.57000 50.79100 43.36500
N  46.38500 46.77900 43.15600
C  46.55800 48.07900 43.58500
C  45.28300 48.69400 43.81800
C  44.40000 47.87000 43.07400
C  45.17500 46.79200 42.57000
C  45.01800 49.95500 44.45600
C  43.06400 47.85600 42.48100
O  42.15700 48.67000 42.52800
C  43.00400 46.51900 41.57800
C  41.91600 45.69100 42.08900
O  41.25100 45.00800 41.32900
O  41.89900 45.54100 43.44800
C  40.83900 44.65400 44.03000
H  47.53500 41.72600 40.10600
H  52.24900 45.12600 42.93400
H  47.88900 49.62900 44.27900
H  43.33700 43.44400 40.66400
H  45.55200 42.43800 39.14600
H  45.06700 40.50000 40.13700
H  43.68900 41.22300 40.75900
H  45.14300 41.17400 41.81700
H  44.82500 44.30400 38.17000
H  44.17300 45.62600 39.00600
H  42.29600 45.12300 37.76800
H  42.07900 43.82100 39.03900
H  49.28400 40.32200 40.38200
H  50.92800 40.12800 40.72800
H  50.53400 40.92400 39.22200
H  54.10600 43.49600 42.58000
H  53.63600 44.63800 41.28000
H  54.71800 43.36000 40.87900
H  52.06900 47.83200 43.20100
H  50.29200 49.13000 45.09900
H  51.82400 48.08000 46.01000
H  53.20200 47.51800 45.00600
H  52.01200 46.34200 45.67500
H  49.46100 50.38000 43.18400
H  50.43300 49.39100 42.13400
H  51.16900 51.79600 43.49700
H  52.20600 50.86900 42.48400
H  52.34600 50.60500 44.10800
H  45.88300 50.40000 44.94900
H  44.13700 49.85100 45.09000
H  44.78000 50.59200 43.60400
H  42.75400 46.87700 40.57900
H  40.56800 45.01000 45.02400
H  41.08300 43.59900 44.15800
H  39.90700 44.75800 43.47600

