158

Mg 29.77700 59.50100 39.64100
C  26.78200 57.88100 38.79100
C  31.36900 56.70300 38.47500
C  32.47400 61.23000 39.41400
C  27.88000 62.51100 40.12700
N  29.12200 57.47100 38.85100
C  27.90800 57.05300 38.53400
C  27.86000 55.74200 37.80800
C  29.29900 55.23900 38.17200
C  29.99500 56.55000 38.47600
C  29.25300 54.24600 39.36300
C  27.73600 55.85700 36.22200
C  26.43700 55.26300 35.68700
H  25.65600 56.09500 34.64400
N  31.65800 58.98500 39.31400
C  32.15300 57.83500 38.82300
C  33.56800 57.93000 38.69500
C  33.99200 59.21300 39.08400
C  32.71900 59.88300 39.29600
C  34.52300 56.73300 38.21100
C  35.43200 59.87100 39.12600
O  36.36200 59.24800 38.65700
C  35.67200 61.21100 39.79100
N  30.08500 61.54000 39.75800
C  31.34500 62.00100 39.69200
C  31.36100 63.50600 39.88200
C  29.92900 63.87000 40.25600
C  29.21200 62.57300 40.02900
C  32.47500 64.10000 40.80200
C  29.29300 65.04000 39.39200
C  28.62700 66.26400 40.20700
N  27.67100 60.11900 39.67100
C  27.07000 61.32900 39.91900
C  25.61700 61.09500 39.72900
C  25.48200 59.72700 39.33700
C  26.74100 59.22200 39.30000
C  24.48600 62.12600 39.90400
C  24.51300 58.75100 38.84600
O  23.30500 58.74600 38.75400
C  25.31400 57.47000 38.41400
C  24.89500 56.30000 39.15000
O  25.21500 55.92500 40.28600
O  24.12800 55.52000 38.36700
C  23.33500 54.55600 39.15600
H  31.72900 55.76800 38.04100
H  33.31500 61.89700 39.21500
H  27.21200 63.37000 40.21200
H  26.99800 55.19500 38.19100
H  29.81400 54.68600 37.38700
H  29.85800 54.70600 40.14400
H  29.73600 53.27500 39.25300
H  28.23900 53.96600 39.64700
H  28.61100 55.48100 35.69300
H  27.74600 56.88700 35.86400
H  25.82800 54.87800 36.50600
H  26.65100 54.40900 35.04400
H  34.07000 55.81000 38.57000
H  35.50200 56.85200 38.67700
H  34.64200 56.59600 37.13600
H  36.63300 61.22000 40.30700
H  34.92400 61.48000 40.53700
H  35.80400 61.84400 38.91400
H  31.55200 63.82500 38.85700
H  29.92500 64.10300 41.32100
H  33.02600 64.82500 40.20200
H  33.08600 63.29400 41.20900
H  32.02200 64.53000 41.69500
H  28.52000 64.58700 38.77200
H  30.03600 65.42900 38.69600
H  27.65900 66.56200 39.80400
H  29.34600 67.08300 40.23600
H  28.55400 65.76000 41.17000
H  24.91400 63.08800 40.18400
H  23.96100 61.98300 40.84900
H  23.81900 62.04600 39.04600
H  25.24900 57.25300 37.34800
H  22.94500 54.85200 40.13000
H  23.91500 53.65700 39.36500
H  22.46800 54.27000 38.56100
Mg 7.14700 54.12600 41.58900
C  6.78300 50.54900 41.76900
C  10.37700 53.51100 40.67200
C  7.28500 57.24300 40.89000
C  3.70100 54.26300 42.39600
N  8.34600 52.28900 41.14100
C  8.02000 50.95600 41.23700
C  9.13100 49.94900 40.82300
C  10.32300 50.94100 40.86900
C  9.63600 52.34200 40.91000
C  11.42200 50.79800 42.00000
C  8.92000 49.35000 39.44200
C  8.38400 50.30800 38.41000
H  8.20800 49.68200 36.98600
N  8.65700 55.28900 40.91200
C  10.00200 54.86600 40.64100
C  10.75200 56.04500 40.43800
C  9.86700 57.13900 40.35800
C  8.52400 56.59500 40.68300
C  12.13000 55.99200 40.09100
C  10.19200 58.59900 39.98400
O  11.28600 58.98500 39.62100
C  9.16800 59.67200 39.92900
N  5.52300 55.49900 41.28700
C  5.96500 56.81600 41.16400
C  4.81000 57.83600 41.57600
C  3.64200 56.78700 41.88300
C  4.33300 55.44700 41.88800
C  5.26800 58.84500 42.62300
C  2.42800 56.81100 40.95500
C  1.04700 57.04900 41.60700
N  5.52300 52.72600 41.99200
C  4.22700 52.99200 42.41800
C  3.64000 51.76400 42.95600
C  4.64900 50.73500 42.65600
C  5.72600 51.39800 42.06500
C  2.33100 51.54700 43.65600
C  4.98400 49.33100 42.81800
O  4.39000 48.44200 43.39000
C  6.31300 49.12000 42.06100
C  5.93800 48.27900 40.86700
O  5.38000 48.68600 39.84000
O  6.16500 46.97500 41.13800
C  5.68900 46.04500 40.11900
H  11.43100 53.40600 40.40700
H  7.32400 58.33300 40.92200
H  2.64600 54.39000 42.64800
H  9.25300 49.23100 41.63400
H  10.65200 50.99200 39.83100
H  12.37700 51.10000 41.57000
H  11.37500 49.85500 42.54500
H  11.16000 51.60400 42.68500
H  8.30100 48.46700 39.59800
H  9.89900 49.01300 39.10000
H  9.08400 51.13800 38.30900
H  7.40800 50.75700 38.59100
H  12.34000 55.25700 39.31400
H  12.69400 55.77400 40.99800
H  12.38500 56.97700 39.70000
H  8.94100 59.91100 40.96800
H  8.27300 59.44800 39.34900
H  9.49600 60.59600 39.45200
H  4.42500 58.46600 40.77500
H  3.28700 57.09500 42.86600
H  6.27800 58.68400 42.99900
H  4.50200 58.98000 43.38700
H  5.38100 59.80300 42.11600
H  2.42600 55.87700 40.39300
H  2.62100 57.53500 40.16300
H  0.50300 57.78300 41.01300
H  1.16700 57.39200 42.63500
H  0.43600 56.16100 41.77000
H  1.63600 50.96100 43.05400
H  1.75100 52.42700 43.93300
H  2.39600 50.87300 44.50900
H  7.02700 48.58900 42.69000
H  6.41700 45.99800 39.31000
H  4.72700 46.31400 39.68200
H  5.56000 45.00900 40.43200

