158

Mg 35.63800 48.42800 26.38400
C  35.74300 46.63300 29.45400
C  34.49100 51.12500 28.22700
C  35.46400 50.23000 23.53900
C  36.39800 45.56100 24.64200
N  35.08100 48.80000 28.63400
C  35.33200 47.97000 29.70300
C  35.12300 48.72700 31.04400
C  34.57100 50.09300 30.56700
C  34.70000 50.00400 29.08800
C  33.14400 50.40100 31.19900
C  36.40700 48.57000 32.05100
C  36.01900 48.28900 33.54200
H  36.15200 49.41300 34.55100
N  34.88200 50.41700 25.90200
C  34.64400 51.43800 26.87400
C  34.41300 52.65100 26.19600
C  34.82600 52.47900 24.82400
C  35.06900 51.02400 24.67100
C  33.90400 53.92800 26.82400
C  35.06700 53.55200 23.68100
O  35.51100 53.20300 22.60300
C  34.62100 54.99100 23.92600
N  35.66600 47.92100 24.31400
C  35.74400 48.88000 23.38800
C  35.98300 48.18800 22.04500
C  36.44600 46.77300 22.39600
C  36.24000 46.77100 23.92100
C  34.81400 48.33300 21.08300
C  37.95200 46.47700 22.06300
C  38.25900 45.32300 21.14200
N  35.97200 46.42500 26.86600
C  36.25600 45.37000 26.02800
C  36.35600 44.13100 26.82400
C  36.14600 44.61100 28.12000
C  35.92100 45.97900 28.14200
C  36.64600 42.82300 26.27000
C  36.05900 44.16800 29.46600
O  36.22300 43.03700 29.89400
C  35.85700 45.49700 30.34400
C  34.65000 45.29400 31.21700
O  33.50600 45.64500 30.91400
O  35.08800 44.85500 32.45100
C  34.08600 44.42900 33.44700
H  34.15900 51.90600 28.91500
H  35.35000 50.76800 22.59600
H  36.55300 44.68500 24.01000
H  34.27500 48.27200 31.55500
H  35.30600 50.80400 30.94200
H  32.72800 51.24800 30.65200
H  33.04000 50.65200 32.25500
H  32.47900 49.56300 30.99500
H  36.92000 49.53200 32.03500
H  37.07700 47.78600 31.70000
H  36.55800 47.43000 33.94100
H  35.02100 47.86800 33.41500
H  34.69400 54.67900 26.85500
H  33.59900 53.67600 27.83900
H  32.97400 54.28900 26.38500
H  34.54400 55.39400 22.91600
H  35.36900 55.61900 24.41100
H  33.60400 55.10200 24.30200
H  36.84100 48.75300 21.68000
H  35.81000 46.06500 21.86400
H  35.07400 48.97600 20.24300
H  33.96000 48.88400 21.47800
H  34.51100 47.36900 20.67500
H  38.58900 46.45300 22.94700
H  38.37400 47.34600 21.55700
H  37.52000 44.56500 20.88200
H  39.05200 44.80200 21.67700
H  38.72300 45.70600 20.23300
H  35.99000 42.80000 25.40000
H  36.45300 42.01200 26.97300
H  37.68000 42.85500 25.92800
H  36.82500 45.57800 30.83800
H  34.32400 43.45900 33.88200
H  33.14900 44.23900 32.92300
H  34.03100 45.03700 34.35000
Mg 26.74900 50.43900 26.73000
C  25.07500 51.73700 29.51700
C  29.37800 49.69800 28.97000
C  28.42100 49.26100 24.16200
C  24.25000 51.60000 24.64200
N  27.17000 50.82500 28.94600
C  26.29900 51.26900 29.83700
C  26.79600 50.88500 31.21500
C  28.33300 50.63900 31.04400
C  28.30300 50.42600 29.53100
C  29.10000 51.81600 31.63100
C  25.95900 49.70800 31.81200
C  25.09300 50.03100 33.04200
H  25.88400 50.04700 34.34400
N  28.57500 49.55200 26.54800
C  29.42300 49.23400 27.60900
C  30.54700 48.57300 27.07400
C  30.43900 48.54400 25.64100
C  29.13800 49.12500 25.36500
C  31.69300 48.00400 27.92100
C  31.36900 47.89000 24.59500
O  31.10300 47.85100 23.41100
C  32.62600 47.21800 24.97700
N  26.44900 50.58600 24.60000
C  27.20800 49.77200 23.81200
C  26.60600 49.57700 22.43200
C  25.19300 50.28700 22.62000
C  25.24900 50.79200 24.07100
C  27.48700 50.19200 21.23600
C  23.98900 49.37200 22.40100
C  22.95600 49.78200 21.34300
N  25.14500 51.61600 26.93100
C  24.15600 51.87300 26.04200
C  22.96100 52.51700 26.69000
C  23.30400 52.44800 28.03400
C  24.67100 51.87500 28.15100
C  21.68200 52.97600 26.01000
C  22.76200 52.68600 29.34000
O  21.67000 53.11700 29.71500
C  23.96300 52.23700 30.37400
C  24.45000 53.32800 31.26300
O  25.22800 54.20500 30.92900
O  23.86400 53.24500 32.45500
C  23.94300 54.36100 33.36800
H  30.11300 49.31800 29.68300
H  28.93000 48.75300 23.34000
H  23.35900 51.87400 24.07200
H  26.70100 51.73600 31.88800
H  28.57700 49.74500 31.61700
H  28.63900 51.96800 32.60700
H  28.82800 52.69600 31.04900
H  30.18800 51.76300 31.60200
H  26.56500 48.84900 32.10100
H  25.35000 49.27200 31.01900
H  24.43000 49.20900 33.31000
H  24.41100 50.87800 32.96800
H  32.59900 48.57800 27.72600
H  31.91000 46.95000 27.75100
H  31.47300 47.95700 28.98700
H  33.28800 47.82000 25.59900
H  33.16000 47.01300 24.04900
H  32.35400 46.28000 25.46200
H  26.54000 48.50600 22.24000
H  25.14000 51.17500 21.99000
H  27.18500 51.19000 20.91700
H  27.42700 49.51300 20.38600
H  28.50200 50.38400 21.58500
H  23.42700 49.37600 23.33500
H  24.28000 48.33200 22.25900
H  23.38200 50.61200 20.77800
H  21.94900 50.04800 21.66400
H  22.96100 48.89800 20.70500
H  21.86300 53.92400 25.50300
H  20.82100 53.05600 26.67300
H  21.36400 52.27400 25.23900
H  23.70000 51.36300 30.97000
H  23.98400 53.99200 34.39300
H  23.07300 55.00300 33.22400
H  24.76800 54.99900 33.05100

