158

Mg 9.41800 3.96800 28.04100
C  10.17800 2.16600 30.83200
C  7.44500 6.03400 29.75500
C  7.87600 5.14800 25.02200
C  10.91700 1.41800 25.95300
N  8.65500 3.85500 30.06800
C  9.41500 3.26700 31.07500
C  9.14000 3.93400 32.42800
C  8.18300 5.04700 32.01300
C  8.20300 5.04700 30.46000
C  6.80600 5.12000 32.73600
C  10.42100 4.30900 33.16100
C  10.55900 3.71000 34.61600
H  10.71600 4.67500 35.80800
N  7.97200 5.40500 27.50000
C  7.31100 6.14700 28.35800
C  6.33500 6.97300 27.66300
C  6.39200 6.71100 26.32700
C  7.50600 5.73400 26.22200
C  5.19700 7.71300 28.44200
C  5.56100 7.26200 25.12100
O  5.83700 7.04800 23.95300
C  4.38500 8.12800 25.41300
N  9.37500 3.36500 25.86800
C  8.71000 4.01100 24.91700
C  8.94700 3.36700 23.52600
C  10.25600 2.50500 23.77200
C  10.22500 2.38300 25.28900
C  7.73300 2.59800 22.96600
C  11.54100 3.15400 23.23700
C  12.47900 2.10600 22.60500
N  10.46400 2.26200 28.32400
C  11.03600 1.33700 27.41400
C  11.71600 0.31200 28.19800
C  11.46900 0.66200 29.58200
C  10.63400 1.76500 29.56100
C  12.60100 -0.72900 27.60000
C  11.75700 0.34800 31.01300
O  12.52600 -0.53200 31.42600
C  10.99400 1.39700 31.82800
C  10.14700 0.65300 32.83600
O  8.92600 0.43900 32.64400
O  10.80400 0.31500 33.96600
C  9.88300 -0.13600 35.04000
H  7.06000 6.88000 30.32900
H  7.36700 5.51700 24.12900
H  11.47600 0.68800 25.36300
H  8.53400 3.22400 32.99100
H  8.63200 5.99400 32.31100
H  6.07600 4.66100 32.06900
H  6.53800 6.13400 33.03200
H  6.78600 4.47400 33.61300
H  10.49700 5.39000 33.28200
H  11.28800 4.11200 32.52900
H  11.49100 3.15100 34.53200
H  9.71500 3.03300 34.74600
H  5.33400 8.79200 28.50400
H  5.19000 7.34900 29.47000
H  4.24700 7.52200 27.94300
H  4.79400 9.04700 25.83400
H  3.70200 7.53000 26.01600
H  3.82800 8.30700 24.49300
H  9.10400 4.13100 22.76400
H  10.09600 1.51300 23.35200
H  7.20500 2.26000 23.85800
H  7.90300 1.72600 22.33400
H  7.12100 3.35900 22.48100
H  12.00100 3.74500 24.02900
H  11.35200 3.83000 22.40300
H  12.42500 2.31500 21.53700
H  12.16100 1.09800 22.87300
H  13.47600 2.21000 23.03400
H  13.18500 -1.32800 28.29900
H  13.27100 -0.30500 26.85300
H  11.99700 -1.36400 26.95200
H  11.77100 2.00900 32.28700
H  9.13800 -0.89300 34.79900
H  9.38000 0.75000 35.42700
H  10.45100 -0.43800 35.92000
Mg 53.75100 24.67600 45.34900
C  51.05900 26.55200 44.28600
C  51.99000 21.81600 44.13500
C  56.62200 22.87100 45.52700
C  55.40100 27.50700 46.27600
N  51.77600 24.30800 44.12500
C  50.95500 25.24600 43.88000
C  49.79200 24.68400 43.05000
C  49.82600 23.21300 43.42400
C  51.26100 23.05000 43.87400
C  48.67200 22.59700 44.32500
C  49.91600 24.72900 41.49700
C  48.60700 24.90700 40.64300
H  48.26900 23.82600 39.59300
N  54.18000 22.66300 44.98700
C  53.32800 21.66700 44.53700
C  54.01000 20.41400 44.60300
C  55.39300 20.65900 44.82300
C  55.46200 22.12400 45.14700
C  53.29700 19.07200 44.27800
C  56.45700 19.58100 44.93500
O  56.18300 18.41800 44.72400
C  57.95500 19.86700 45.24500
N  55.81300 25.18900 45.55900
C  56.73000 24.20100 45.72800
C  57.85900 24.76000 46.52200
C  57.52900 26.21400 46.66900
C  56.12300 26.32600 46.17500
C  58.11900 24.05900 47.90400
C  58.50200 27.14400 46.01900
C  59.85800 27.33900 46.84500
N  53.36300 26.68500 45.43100
C  54.09700 27.73600 45.85700
C  53.28600 28.89400 45.77300
C  52.08500 28.47800 45.20100
C  52.20200 27.12400 44.97200
C  53.75400 30.28600 46.18600
C  50.80500 28.97300 44.79300
O  50.34900 30.11100 44.69100
C  50.11000 27.69600 44.10700
C  49.68100 28.08500 42.68400
O  50.42900 28.48400 41.78600
O  48.34100 28.00400 42.61200
C  47.77200 28.61200 41.46200
H  51.37100 20.94600 43.90400
H  57.52500 22.31200 45.78200
H  55.90800 28.29900 46.83100
H  48.82600 25.13600 43.27300
H  49.60900 22.57600 42.56600
H  48.40300 21.61000 43.94900
H  47.80400 23.25200 44.38700
H  49.16000 22.51900 45.29700
H  50.33000 23.86000 40.98400
H  50.48300 25.62800 41.25700
H  48.77500 25.78600 40.02200
H  47.73700 24.99800 41.29400
H  53.87300 18.50200 43.54800
H  52.33300 19.15800 43.77700
H  53.13500 18.38400 45.10800
H  58.41500 20.61400 44.59800
H  58.54000 18.96600 45.06100
H  57.94300 19.98500 46.32800
H  58.75200 24.66700 45.90400
H  57.49900 26.45500 47.73200
H  57.53200 23.14100 47.92400
H  57.85200 24.64500 48.78400
H  59.17700 23.80700 47.96600
H  58.02700 28.11600 45.88700
H  58.80200 26.72700 45.05800
H  59.86000 27.03700 47.89200
H  60.12000 28.39500 46.79100
H  60.65500 26.82600 46.30800
H  53.17000 31.00300 45.60900
H  54.82800 30.47200 46.18300
H  53.31800 30.57400 47.14300
H  49.18600 27.38900 44.59600
H  46.76100 28.91400 41.73400
H  47.78300 27.86600 40.66800
H  48.31400 29.47700 41.08000

