158

Mg 48.02300 36.12800 28.31500
C  46.03800 34.73400 30.84800
C  48.79500 38.69700 30.56100
C  49.79800 37.61100 25.95000
C  47.25000 33.36600 26.30600
N  47.54200 36.55900 30.54500
C  46.70600 35.82200 31.36700
C  46.73500 36.33300 32.84400
C  47.26200 37.79100 32.57500
C  47.95900 37.70400 31.19500
C  46.07000 38.78600 32.45100
C  47.67400 35.48900 33.83900
C  48.85600 36.06500 34.71400
H  48.50400 36.64200 36.04000
N  49.08000 37.92400 28.26400
C  49.28200 38.83500 29.29600
C  50.09000 39.90500 28.76900
C  50.39100 39.58800 27.47800
C  49.77300 38.32200 27.19500
C  50.67700 41.09200 29.67800
C  51.25600 40.43200 26.51200
O  51.73700 39.96200 25.51300
C  51.63300 41.80900 26.84700
N  48.39700 35.64300 26.36200
C  49.28500 36.34900 25.57900
C  49.43200 35.70400 24.18700
C  48.89000 34.28200 24.38800
C  48.20400 34.33800 25.79600
C  48.84100 36.61800 23.08300
C  49.93200 33.14600 24.38300
C  50.81700 32.95000 23.21800
N  46.74400 34.49600 28.39200
C  46.61200 33.39100 27.57300
C  45.72600 32.38500 28.13200
C  45.41500 32.89600 29.39200
C  46.10800 34.12600 29.52500
C  45.33600 31.07000 27.45300
C  44.72800 32.61100 30.66900
O  44.04100 31.65900 30.98300
C  45.02400 33.86800 31.56200
C  45.20300 33.49100 32.91600
O  46.00600 32.74600 33.35300
O  44.26200 34.07500 33.69500
C  44.05200 33.65900 35.12000
H  49.00200 39.48900 31.28400
H  50.45700 38.04000 25.19200
H  47.31200 32.42800 25.75100
H  45.71000 36.37600 33.21400
H  47.97700 38.07800 33.34700
H  45.91600 39.34600 33.37300
H  45.15200 38.23900 32.23500
H  46.39600 39.55200 31.74700
H  47.95400 34.61400 33.25300
H  46.91400 35.21500 34.57200
H  49.35500 36.86700 34.17100
H  49.59700 35.26800 34.76900
H  51.75900 41.22400 29.64700
H  50.52000 40.93300 30.74500
H  50.21400 42.03100 29.37500
H  50.72500 42.26700 27.23900
H  51.95500 42.35000 25.95700
H  52.45200 41.76000 27.56400
H  50.51000 35.58300 24.07600
H  48.10400 34.01000 23.68300
H  48.07000 36.04700 22.56600
H  49.66700 36.87200 22.41800
H  48.43800 37.50700 23.56800
H  49.43000 32.19300 24.55400
H  50.48500 33.34600 25.30100
H  51.84700 32.95500 23.57300
H  50.87400 33.79600 22.53300
H  50.72300 31.97500 22.73900
H  44.34300 31.07600 27.00300
H  45.64100 30.23600 28.08600
H  46.06700 30.98900 26.64900
H  44.08700 34.40700 31.41900
H  43.47800 32.73400 35.18100
H  43.42700 34.39600 35.62400
H  44.97500 33.57100 35.69300
Mg 26.75500 50.61700 26.21700
C  24.44200 51.53100 28.83500
C  29.07600 49.79600 28.51300
C  28.75500 49.87200 23.70400
C  24.38500 51.77200 23.97700
N  26.76900 50.83500 28.45300
C  25.70400 51.08600 29.28800
C  25.99700 50.72800 30.72000
C  27.50000 50.25700 30.62200
C  27.85400 50.31200 29.07200
C  28.65700 50.96200 31.44900
C  25.01000 49.71000 31.33900
C  24.24800 50.33700 32.57500
H  24.11500 49.49700 33.87100
N  28.68300 50.04100 26.16800
C  29.52100 49.76900 27.21500
C  30.79600 49.31400 26.76600
C  30.82300 49.43900 25.39500
C  29.35700 49.84500 24.98400
C  31.77800 48.76400 27.66000
C  31.98700 49.34300 24.47100
O  31.85300 49.47700 23.29500
C  33.34900 49.14000 25.01000
N  26.53900 50.84200 24.13900
C  27.47700 50.21900 23.29700
C  27.04800 50.27600 21.84800
C  25.63900 50.92500 21.91300
C  25.47300 51.16500 23.43300
C  28.08700 51.12100 21.04200
C  24.61400 50.00200 21.27700
C  24.22600 50.22400 19.81900
N  24.84100 51.56800 26.33600
C  24.07400 51.96500 25.30300
C  22.82700 52.46900 25.82900
C  22.86300 52.33800 27.18200
C  24.11400 51.71800 27.50300
C  21.72500 53.04800 25.08000
C  22.25600 52.55700 28.49900
O  21.11900 53.03400 28.74600
C  23.25000 52.04700 29.61400
C  23.52400 53.10100 30.55900
O  24.35600 53.90800 30.30400
O  22.77500 52.91100 31.71700
C  23.07100 53.78600 32.85300
H  29.59500 49.36900 29.37300
H  29.35500 49.54400 22.85300
H  23.62500 51.91300 23.20500
H  26.12400 51.65700 31.27600
H  27.59100 49.25100 31.03000
H  29.61500 50.98100 30.93000
H  28.79000 50.52600 32.43900
H  28.44900 52.02600 31.56600
H  25.42900 48.88500 31.91500
H  24.31400 49.32400 30.59400
H  23.20600 50.49600 32.29600
H  24.61100 51.31600 32.88900
H  32.31000 47.88800 27.29000
H  31.37500 48.32500 28.57300
H  32.45300 49.56900 27.95400
H  33.93700 49.09400 24.09300
H  33.44900 48.17700 25.51200
H  33.61000 49.94400 25.69800
H  27.06600 49.27100 21.42600
H  25.46200 51.80700 21.29700
H  27.57600 51.91000 20.49000
H  28.64400 50.41100 20.43200
H  28.79600 51.57100 21.73600
H  23.70600 50.10500 21.87100
H  24.96400 48.96900 21.29200
H  24.74900 51.06500 19.36200
H  23.16000 50.44300 19.74600
H  24.61700 49.39300 19.23200
H  20.77600 52.97300 25.61000
H  21.63100 52.69600 24.05200
H  21.91500 54.11900 25.13700
H  22.91500 51.23800 30.26400
H  23.38000 54.78400 32.54400
H  23.82200 53.29300 33.47100
H  22.17400 53.89000 33.46400

