158

Mg 55.71700 23.98000 44.97100
C  53.21500 26.40200 44.32300
C  53.44400 21.57800 44.08600
C  58.18700 21.63900 44.88800
C  57.87700 26.51600 45.67100
N  53.56700 23.99800 44.28200
C  52.76500 25.06000 44.01700
C  51.38700 24.64100 43.51200
C  51.41300 23.12300 43.85300
C  52.86500 22.82700 44.14900
C  50.32900 22.77000 45.05000
C  51.01600 24.83900 42.00900
C  49.56800 25.24600 41.63100
H  49.24200 25.12100 40.10300
N  55.81300 21.90100 44.57300
C  54.75500 21.14100 44.22300
C  55.10200 19.74000 44.13200
C  56.46500 19.68600 44.50600
C  56.88300 21.13800 44.65600
C  54.11300 18.63400 43.92500
C  57.21300 18.45500 44.82400
O  56.71600 17.35800 44.72500
C  58.69400 18.37500 45.41100
N  57.71000 24.04200 45.18400
C  58.56100 22.99500 45.20500
C  60.01000 23.37900 45.57600
C  59.92800 24.95600 45.76800
C  58.37600 25.19600 45.51700
C  60.51600 22.66200 46.86200
C  60.90400 25.85000 44.96100
C  61.57400 26.89400 45.79400
N  55.51400 26.06200 45.18000
C  56.52600 26.93600 45.53900
C  55.99600 28.26000 45.42500
C  54.67700 28.13100 45.00600
C  54.42200 26.76700 44.81100
C  56.76500 29.47600 45.81000
C  53.46600 28.79000 44.70300
O  53.11700 29.96500 44.85100
C  52.44100 27.67200 44.15900
C  52.21000 28.10900 42.73300
O  52.84600 27.73300 41.79400
O  51.08800 28.94900 42.67400
C  50.58400 29.24500 41.30500
H  52.78100 20.74700 43.83800
H  58.99400 20.91300 45.00400
H  58.63800 27.19600 46.06000
H  50.56600 25.20400 43.95700
H  51.22000 22.44800 43.01900
H  50.15100 21.69700 44.97300
H  49.42600 23.37900 45.10100
H  50.83200 22.91600 46.00600
H  51.17300 23.87900 41.51800
H  51.75500 25.52300 41.59300
H  49.36100 26.29600 41.83800
H  48.79900 24.62800 42.09500
H  54.71000 17.72300 43.89600
H  53.57200 18.70700 42.98200
H  53.37400 18.58900 44.72600
H  59.29100 18.53700 44.51400
H  58.90400 17.43000 45.91200
H  58.88000 19.10600 46.19800
H  60.62800 22.96400 44.78000
H  60.00200 25.22600 46.82200
H  61.40100 22.05200 46.68400
H  59.82400 21.96200 47.32900
H  60.84100 23.31800 47.66900
H  60.52900 26.22000 44.00600
H  61.72000 25.20800 44.63100
H  62.63300 26.81400 45.55000
H  61.51900 26.71000 46.86700
H  61.28000 27.91100 45.53500
H  57.30100 29.26200 46.73500
H  56.04700 30.28500 45.93700
H  57.52500 29.70300 45.06200
H  51.53000 27.75900 44.75200
H  50.35800 30.30900 41.24200
H  49.63600 28.77500 41.04500
H  51.31700 29.02000 40.53100
Mg -10.96700 39.60900 40.82500
C  -9.82400 36.44500 39.65300
C  -7.95600 40.96800 39.85700
C  -12.42000 42.55200 41.14500
C  -14.00000 38.02000 41.88700
N  -9.17900 38.76700 39.63200
C  -8.91900 37.46700 39.46200
C  -7.44200 37.25900 39.07100
C  -6.79600 38.66000 39.48100
C  -8.03800 39.50400 39.63800
C  -5.89900 38.67500 40.74800
C  -7.08800 36.80400 37.61600
C  -8.09100 37.23200 36.54200
H  -8.66600 36.12900 35.70200
N  -10.25800 41.54600 40.71000
C  -9.04700 41.85200 40.15600
C  -8.96300 43.32400 40.06500
C  -10.29300 43.83000 40.31500
C  -11.07600 42.63000 40.74500
C  -7.68400 43.96200 39.80000
C  -10.74500 45.23200 40.05700
O  -9.88900 46.03900 39.65500
C  -12.21600 45.62000 40.07400
N  -12.86500 40.21100 41.56400
C  -13.22500 41.52000 41.57500
C  -14.68100 41.60600 42.05400
C  -15.08800 40.24100 42.53700
C  -13.91700 39.40300 41.89000
C  -15.00300 42.82800 43.02500
C  -16.48600 39.88000 41.93100
C  -17.58200 39.61900 42.98800
N  -11.77400 37.63100 40.83700
C  -13.00200 37.14100 41.33700
C  -12.97100 35.64300 41.11100
C  -11.76500 35.36300 40.40800
C  -11.08100 36.60000 40.29300
C  -14.06000 34.75900 41.59000
C  -10.93700 34.31700 39.85500
O  -11.10300 33.09400 39.82500
C  -9.57500 34.98400 39.47400
C  -8.59500 34.52500 40.44100
O  -8.49700 34.76800 41.68400
O  -7.72000 33.65900 39.76700
C  -6.80200 32.85500 40.64500
H  -6.97400 41.29900 39.51500
H  -13.02800 43.44400 41.30900
H  -14.92800 37.50700 42.14900
H  -7.01900 36.52000 39.75200
H  -6.05900 38.98400 38.74600
H  -5.65400 37.63200 40.95000
H  -6.49400 39.13200 41.53900
H  -5.02600 39.31800 40.63300
H  -6.82000 35.74800 37.59000
H  -6.09600 37.12800 37.30100
H  -7.49400 37.79100 35.82200
H  -8.96100 37.76100 36.92900
H  -7.77000 45.04200 39.91100
H  -7.25900 43.77000 38.81500
H  -7.02100 43.57000 40.57100
H  -12.70600 45.79400 41.03200
H  -12.71500 44.85700 39.47600
H  -12.25500 46.60200 39.60100
H  -15.13600 41.79000 41.08100
H  -14.92200 40.21400 43.61400
H  -15.10500 43.73400 42.42700
H  -14.13600 42.99300 43.66500
H  -15.85300 42.59000 43.66500
H  -16.36700 38.93100 41.41000
H  -16.76500 40.61300 41.17300
H  -17.14200 39.73300 43.97900
H  -18.04500 38.63300 43.02300
H  -18.41100 40.31300 42.85400
H  -14.74300 35.20900 42.31100
H  -13.68700 33.86100 42.08200
H  -14.84100 34.45700 40.89100
H  -9.34200 34.68800 38.45200
H  -5.77000 32.99000 40.32300
H  -6.95100 31.77600 40.59200
H  -6.65300 33.32700 41.61600

