158

Mg -0.32700 7.33400 26.24500
C  0.95900 9.26000 28.96900
C  -0.64800 4.78300 28.59600
C  -1.40300 5.38600 23.85600
C  0.27900 9.99700 24.11700
N  0.04300 7.09800 28.50600
C  0.53300 8.04200 29.43700
C  0.38500 7.63000 30.88800
C  0.07500 6.09600 30.68200
C  -0.20300 5.98800 29.14100
C  1.23800 5.21500 31.19600
C  -0.68400 8.44300 31.61600
C  -0.85600 8.24600 33.16300
H  0.21000 7.64600 34.02300
N  -0.77100 5.28600 26.17300
C  -0.88400 4.41500 27.24900
C  -1.42900 3.12800 26.75500
C  -1.80500 3.34900 25.41500
C  -1.36000 4.71500 25.10200
C  -1.55000 1.88500 27.62800
C  -2.28300 2.30100 24.41600
O  -2.49000 2.65500 23.26200
C  -2.43100 0.84700 24.76300
N  -0.52600 7.62700 24.27000
C  -1.04300 6.69700 23.45300
C  -1.49300 7.26500 22.05700
C  -1.12400 8.71000 22.22800
C  -0.43000 8.84700 23.60900
C  -0.86800 6.66500 20.75500
C  -2.35900 9.71900 22.15700
C  -2.23600 10.77600 21.11900
N  0.36000 9.21900 26.45700
C  0.69800 10.12900 25.46100
C  1.21200 11.36900 26.05600
C  1.37800 11.01400 27.40900
C  0.88800 9.71100 27.57300
C  1.50400 12.71100 25.39500
C  1.75100 11.63500 28.57500
O  2.26300 12.73300 28.85600
C  1.39600 10.58900 29.72900
C  2.57000 10.26600 30.58200
O  3.55000 9.72700 30.29200
O  2.50000 10.93100 31.77900
C  3.59100 10.79700 32.77200
H  -0.72600 4.00300 29.35600
H  -1.86300 4.93600 22.97400
H  0.57800 10.76100 23.39600
H  1.32900 7.77800 31.41300
H  -0.85000 5.85500 31.20500
H  1.65700 4.75600 30.30100
H  0.80800 4.48400 31.88100
H  1.99300 5.77900 31.74500
H  -1.66600 8.22100 31.19700
H  -0.53100 9.51500 31.49000
H  -1.77900 7.71300 33.39100
H  -0.93300 9.26500 33.54200
H  -1.30800 0.92400 27.17400
H  -2.58000 1.87000 27.98300
H  -0.86500 2.03600 28.46200
H  -2.85500 0.24500 23.95900
H  -2.98900 0.69000 25.68600
H  -1.47400 0.32500 24.78700
H  -2.55800 7.04900 22.14300
H  -0.28400 9.00000 21.59600
H  -1.41700 5.87000 20.25100
H  0.17500 6.38300 20.90500
H  -0.79100 7.51300 20.07400
H  -2.48200 10.08900 23.17500
H  -3.25900 9.18400 21.85800
H  -1.26200 10.77100 20.62900
H  -2.43200 11.71300 21.64000
H  -3.05000 10.70100 20.39800
H  0.65200 13.28000 25.02400
H  2.12200 12.45200 24.53500
H  2.04300 13.38800 26.05900
H  0.67000 11.09000 30.36900
H  4.49500 10.35900 32.34700
H  3.16000 10.21300 33.58500
H  3.76800 11.83900 33.03900
Mg 43.19900 42.12800 26.25400
C  42.45900 44.71900 28.64700
C  44.69100 40.41500 28.85600
C  44.43600 40.16500 23.92800
C  42.05200 44.46100 23.79300
N  43.52500 42.58000 28.53300
C  42.98000 43.57900 29.25400
C  42.98500 43.22400 30.78900
C  43.85600 41.89500 30.81600
C  44.07400 41.61100 29.29500
C  45.05900 41.88100 31.71800
C  41.51900 43.12100 31.30500
C  41.05800 44.12800 32.46400
H  40.39500 43.57100 33.71900
N  44.32000 40.43200 26.36000
C  44.83500 39.88300 27.55600
C  45.47100 38.60100 27.14100
C  45.32600 38.47300 25.74100
C  44.64100 39.71200 25.24900
C  46.13800 37.69000 28.09200
C  45.82300 37.37000 24.80500
O  45.56700 37.38000 23.61100
C  46.74700 36.40700 25.37800
N  43.15500 42.32700 24.12600
C  43.69300 41.21700 23.42300
C  43.52200 41.46900 21.93000
C  42.57900 42.78300 21.81700
C  42.57300 43.19900 23.34000
C  44.92300 41.55900 21.21900
C  41.14500 42.45200 21.34800
C  40.45500 41.12400 21.95000
N  42.36900 44.11700 26.15700
C  41.98500 44.87700 25.08900
C  41.41600 46.12600 25.53600
C  41.52900 46.06200 26.94500
C  42.16100 44.89600 27.28700
C  40.87900 47.32500 24.77300
C  41.21800 46.82800 28.16700
O  40.61800 47.91400 28.34000
C  41.82000 45.87700 29.30100
C  42.84800 46.70600 30.13700
O  43.99100 46.84800 29.88700
O  42.27500 47.09300 31.31200
C  43.12700 47.56900 32.40700
H  44.99500 39.75300 29.67000
H  44.83300 39.53400 23.13000
H  41.61500 45.05900 22.99100
H  43.60100 43.94300 31.32900
H  43.19500 41.10600 31.17300
H  45.02100 42.51900 32.60000
H  45.98100 42.21900 31.24700
H  45.23300 40.87500 32.10100
H  41.40100 42.10100 31.67000
H  40.74200 43.19100 30.54400
H  40.35100 44.87500 32.10400
H  41.92400 44.68900 32.81500
H  45.78400 37.75800 29.12100
H  47.20300 37.90000 28.18400
H  45.93400 36.64400 27.86100
H  46.13900 35.70100 25.94400
H  47.46300 36.91300 26.02600
H  47.26200 35.85900 24.58900
H  42.92300 40.67300 21.48900
H  42.93400 43.49200 21.06900
H  45.61900 41.83500 22.01100
H  44.96900 42.29900 20.42000
H  45.23300 40.60900 20.78300
H  41.06100 42.48200 20.26200
H  40.60300 43.34400 21.66300
H  39.82800 40.63000 21.20800
H  39.62200 41.42200 22.58700
H  41.07400 40.42000 22.50700
H  39.87900 47.58200 25.12000
H  40.99100 47.10200 23.71100
H  41.39500 48.22700 25.10100
H  41.08400 45.32100 29.88200
H  42.78800 48.55900 32.71200
H  44.16200 47.83900 32.19700
H  43.20700 46.90000 33.26400

