158

Mg 9.16200 3.33100 27.97200
C  10.60700 1.71600 30.79200
C  7.70300 5.51700 30.05600
C  7.67100 4.50800 25.38200
C  10.41400 0.61500 25.91800
N  9.04800 3.43300 30.20100
C  9.87200 2.83400 31.13500
C  9.76000 3.59800 32.52200
C  8.73100 4.69200 32.24700
C  8.48700 4.54500 30.75100
C  7.35100 4.50800 32.97100
C  11.19100 4.09300 33.11100
C  11.59000 3.68400 34.58800
H  10.51500 3.88500 35.66700
N  7.88500 4.83300 27.76300
C  7.39400 5.63900 28.70000
C  6.61500 6.63400 28.09100
C  6.56500 6.41900 26.63200
C  7.42600 5.24200 26.49500
C  5.98300 7.75100 28.95400
C  6.00200 7.26100 25.57300
O  5.94400 6.93000 24.38200
C  5.41100 8.62700 25.93800
N  9.10300 2.65900 25.89600
C  8.37900 3.36700 25.07700
C  8.39500 2.71200 23.64500
C  9.36800 1.51700 23.82000
C  9.67100 1.57100 25.29000
C  6.98700 2.35000 23.09700
C  10.62000 1.78100 22.92600
C  11.08800 0.43000 22.31600
N  10.23000 1.52800 28.22200
C  10.70800 0.60500 27.30100
C  11.51700 -0.37800 28.04000
C  11.49100 0.08600 29.35400
C  10.68800 1.19600 29.46500
C  12.17200 -1.54300 27.47900
C  12.00500 -0.21800 30.67100
O  12.75300 -1.10800 30.94600
C  11.46500 0.88300 31.73500
C  10.58700 0.17300 32.73700
O  9.60600 -0.45100 32.41200
O  10.87700 0.55300 34.07700
C  10.05100 -0.14900 35.11400
H  7.22400 6.21400 30.74800
H  7.22000 4.94000 24.48600
H  10.89400 -0.16200 25.32000
H  9.41000 2.88900 33.27200
H  9.21100 5.66200 32.36900
H  7.40800 4.02100 33.94400
H  6.77800 3.85800 32.31000
H  6.87700 5.49000 32.99400
H  11.37600 5.16200 33.00700
H  11.91900 3.62000 32.45100
H  12.28300 4.47500 34.87700
H  11.97800 2.67500 34.73000
H  6.47000 8.68300 28.66600
H  6.16500 7.64700 30.02400
H  4.91300 7.91400 28.82500
H  6.31500 9.08800 26.33700
H  4.60700 8.44800 26.65100
H  4.97500 9.19100 25.11300
H  8.67800 3.45500 22.90000
H  8.82600 0.61500 23.53600
H  6.68200 1.30300 23.10000
H  6.97000 2.59100 22.03500
H  6.16000 2.92500 23.51500
H  11.51200 2.05700 23.48900
H  10.51200 2.50500 22.11900
H  10.80800 0.44000 21.26200
H  10.65100 -0.46900 22.75100
H  12.17200 0.35000 22.39200
H  13.03400 -1.85500 28.06700
H  12.53600 -1.24100 26.49700
H  11.36000 -2.26000 27.35300
H  12.30900 1.43600 32.14800
H  9.31600 0.52200 35.55900
H  10.80900 -0.43200 35.84400
H  9.62100 -1.05000 34.67600
Mg 33.67100 48.62700 25.03700
C  34.09800 47.19900 28.23700
C  31.97300 51.24800 26.62300
C  33.16400 49.80300 22.09200
C  35.18100 45.69100 23.68200
N  33.31000 49.22200 27.25300
C  33.56700 48.52100 28.33400
C  33.28400 49.36600 29.61100
C  32.46800 50.55700 29.05100
C  32.64900 50.38600 27.54800
C  31.05600 50.63900 29.50700
C  34.50100 49.72000 30.35200
C  34.41400 49.69600 31.85600
H  33.01500 49.56000 32.54200
N  32.70100 50.31500 24.43300
C  32.07000 51.26100 25.17500
C  31.64400 52.35900 24.28200
C  31.90900 51.93800 22.96200
C  32.61600 50.59800 23.16000
C  30.99300 53.59500 24.71700
C  31.56500 52.71300 21.72600
O  31.91700 52.23600 20.65400
C  30.73700 54.00500 21.69000
N  34.12900 47.85500 23.14900
C  33.89100 48.58400 21.99000
C  34.47900 47.97400 20.73800
C  35.06300 46.65400 21.28500
C  34.85900 46.77800 22.78400
C  33.38800 47.84700 19.60300
C  36.56500 46.30100 20.78700
C  37.75900 46.75500 21.70500
N  34.31300 46.69600 25.66800
C  34.96200 45.69300 25.09700
C  35.31600 44.63600 26.02800
C  34.92800 45.22300 27.31100
C  34.42300 46.43800 27.05800
C  35.87300 43.30100 25.66800
C  34.97300 45.01300 28.77200
O  35.35200 44.04100 29.34500
C  34.40400 46.30100 29.38800
C  33.17000 45.79500 30.00400
O  32.08600 45.65900 29.45700
O  33.50800 45.46800 31.32500
C  32.44800 44.77100 32.12000
H  31.50600 52.10300 27.11600
H  32.99800 50.20700 21.09100
H  35.68500 44.81400 23.26900
H  32.63500 48.75700 30.24100
H  32.98000 51.49100 29.28300
H  30.70600 49.72800 29.99200
H  30.45800 50.70200 28.59700
H  30.85600 51.42200 30.23800
H  34.72200 50.75200 30.08200
H  35.35700 49.16200 29.97000
H  34.98500 50.52900 32.26500
H  34.93400 48.77300 32.11600
H  31.54000 54.44200 24.30500
H  31.12500 53.69600 25.79400
H  29.92300 53.68300 24.52500
H  29.80600 54.00500 22.25700
H  30.51000 54.28600 20.66100
H  31.35900 54.80000 22.10000
H  35.27600 48.68000 20.50500
H  34.40600 45.83400 20.99500
H  32.62900 48.62000 19.47900
H  32.82200 46.95400 19.87000
H  33.76700 47.68200 18.59400
H  36.79900 46.77600 19.83400
H  36.62200 45.21500 20.71200
H  37.52900 47.43500 22.52600
H  38.34400 47.38400 21.03500
H  38.34600 45.93500 22.11900
H  36.95600 43.35100 25.55600
H  35.37700 42.86900 24.79900
H  35.75500 42.62400 26.51400
H  35.16900 46.67400 30.07000
H  32.82700 43.75200 32.19800
H  31.47300 44.89500 31.64900
H  32.35600 45.26400 33.08800

