158

Mg 1.77500 -1.05300 43.97900
C  5.13100 -0.40200 43.59100
C  0.95900 1.95500 42.26000
C  -1.41400 -1.81000 43.94100
C  2.61400 -4.29400 44.87000
N  2.94500 0.61000 43.05000
C  4.30200 0.60900 43.05100
C  4.74000 1.85800 42.30600
C  3.42100 2.81200 42.23100
C  2.32200 1.80300 42.60800
C  3.39500 3.93100 43.32000
C  5.33300 1.46600 40.89700
C  6.23800 2.58500 40.33000
H  5.67900 3.29100 39.09700
N  -0.03400 -0.05300 43.35200
C  -0.11900 1.11400 42.63100
C  -1.47300 1.43400 42.29000
C  -2.29500 0.40500 42.77800
C  -1.30900 -0.52600 43.42200
C  -1.79700 2.72000 41.55000
C  -3.78500 0.26300 42.65200
O  -4.46100 1.07600 42.06300
C  -4.49800 -0.68800 43.57500
N  0.73500 -2.78000 44.23200
C  -0.59900 -2.83600 44.25400
C  -1.21300 -4.20100 44.78500
C  0.08600 -5.03700 45.11000
C  1.26100 -4.01300 44.68800
C  -2.24500 -4.09700 45.96100
C  0.31100 -6.39200 44.53900
C  1.00800 -7.46500 45.45400
N  3.47200 -2.10300 44.31400
C  3.67100 -3.38900 44.67800
C  5.10900 -3.69900 44.92600
C  5.72400 -2.52900 44.47400
C  4.68200 -1.62000 44.13300
C  5.69800 -4.96000 45.34000
C  6.98800 -1.83300 44.28300
O  8.11400 -2.21300 44.58900
C  6.64000 -0.44000 43.65400
C  7.16800 0.74000 44.47200
O  7.08000 0.91500 45.67700
O  7.71100 1.72600 43.66600
C  8.53300 2.80600 44.35600
H  0.70100 2.87100 41.72400
H  -2.45400 -2.14200 43.90100
H  2.90900 -5.27900 45.23800
H  5.58800 2.27600 42.84800
H  3.26800 3.18600 41.21900
H  4.29700 3.98100 43.92900
H  2.53300 3.79200 43.97300
H  3.34300 4.88400 42.79300
H  4.48900 1.20800 40.25800
H  5.89900 0.53800 40.97100
H  7.26300 2.25900 40.15300
H  6.31000 3.35700 41.09600
H  -1.16400 2.81900 40.66800
H  -1.54600 3.59000 42.15700
H  -2.87000 2.84700 41.40600
H  -5.54400 -0.39900 43.67100
H  -4.05100 -0.71400 44.56900
H  -4.36000 -1.61600 43.02000
H  -1.80500 -4.64100 43.98300
H  0.17400 -5.12400 46.19300
H  -1.99100 -4.81800 46.73800
H  -3.25000 -4.16900 45.54500
H  -2.25300 -3.11300 46.43100
H  0.90300 -6.31700 43.62600
H  -0.68200 -6.71600 44.22900
H  0.37100 -8.35000 45.43700
H  1.17000 -7.26400 46.51300
H  2.00300 -7.72800 45.09600
H  6.67000 -4.86000 45.82300
H  5.89000 -5.52500 44.42700
H  5.07200 -5.63500 45.92200
H  7.18100 -0.32600 42.71400
H  8.31900 3.78600 43.93000
H  9.60700 2.67500 44.22000
H  8.30800 2.97900 45.40800
Mg 8.72500 47.38800 27.18900
C  7.09500 46.85500 30.25100
C  11.64800 47.81300 28.97200
C  10.25300 48.68000 24.29000
C  5.64700 47.94000 25.64300
N  9.31400 47.35900 29.39000
C  8.53000 47.03000 30.42600
C  9.28000 47.17900 31.81300
C  10.71000 47.70600 31.31800
C  10.56700 47.66800 29.81400
C  11.01100 49.13600 31.82900
C  9.34900 45.84200 32.76800
C  9.04900 46.14900 34.27300
H  9.25600 45.14600 35.34900
N  10.68700 48.03000 26.66500
C  11.73300 47.95200 27.54200
C  12.98900 48.28200 26.82500
C  12.61000 48.47200 25.46700
C  11.17000 48.43000 25.38200
C  14.35000 48.39200 27.44300
C  13.52300 48.62000 24.28100
O  13.14700 48.86300 23.16700
C  14.96500 48.61600 24.37500
N  8.10200 48.18900 25.33200
C  8.88800 48.48500 24.31100
C  8.09700 48.91100 23.00500
C  6.59100 48.48300 23.41800
C  6.82900 48.07200 24.86900
C  8.34000 50.42800 22.55400
C  6.15200 47.28600 22.48200
C  5.85500 47.65400 20.97500
N  6.76900 47.25600 27.73100
C  5.65100 47.57000 27.05400
C  4.49100 47.22300 27.84500
C  5.02800 46.91300 29.14100
C  6.44400 47.00600 29.04000
C  3.08800 47.36100 27.39700
C  4.71200 46.71100 30.53500
O  3.63200 46.69700 31.04800
C  6.05200 46.52400 31.28600
C  6.07900 45.20100 32.03600
O  6.49700 44.12800 31.52300
O  5.71100 45.30000 33.34000
C  5.87700 44.10100 34.10500
H  12.55200 47.75300 29.58200
H  10.62500 49.12000 23.36200
H  4.68300 47.95000 25.12900
H  8.70600 47.90500 32.38900
H  11.50300 47.03000 31.63900
H  10.83600 49.87200 31.04400
H  12.09700 49.21500 31.88100
H  10.56100 49.48500 32.75800
H  10.35200 45.42000 32.70300
H  8.75100 45.07400 32.27700
H  8.04000 46.54300 34.39800
H  9.71100 46.94200 34.62300
H  14.99100 47.57000 27.12600
H  14.14600 48.33500 28.51200
H  14.70300 49.35800 27.08000
H  15.27700 49.44200 25.01500
H  15.36700 48.78600 23.37700
H  15.21900 47.62800 24.75800
H  8.48300 48.29400 22.19400
H  5.99700 49.39200 23.31700
H  8.93300 50.53700 21.64600
H  8.83600 51.04600 23.30300
H  7.38900 50.93700 22.39400
H  5.27100 46.73800 22.81900
H  6.96000 46.55500 22.50500
H  6.67900 47.23100 20.39900
H  5.68600 48.71800 20.81200
H  4.93300 47.09200 20.82800
H  2.90300 48.00900 26.54000
H  2.45500 47.56500 28.26000
H  2.81200 46.35400 27.08200
H  6.15700 47.28300 32.06100
H  5.86800 44.31700 35.17300
H  6.89000 43.70100 34.04600
H  5.31400 43.26500 33.68900

