158

Mg -11.57300 38.69700 42.57300
C  -9.96700 35.79200 41.42000
C  -9.12300 40.51200 40.79700
C  -13.56200 41.38400 42.59600
C  -14.20300 36.67900 43.46900
N  -9.90300 38.18100 41.28300
C  -9.46600 36.95400 40.87800
C  -8.19500 37.02400 40.11600
C  -7.76200 38.51600 40.22200
C  -9.01200 39.16200 40.76400
C  -6.42400 38.75900 41.05400
C  -8.41600 36.54500 38.66900
C  -7.26700 35.45400 38.34500
H  -5.99300 35.95300 37.64500
N  -11.35200 40.65800 41.86200
C  -10.23500 41.21400 41.24300
C  -10.42100 42.67900 41.09300
C  -11.68300 42.99600 41.73800
C  -12.23400 41.68200 42.12800
C  -9.38700 43.47700 40.46700
C  -12.26000 44.45500 41.89400
O  -11.65100 45.38100 41.27600
C  -13.48200 44.80500 42.66300
N  -13.63000 39.03700 42.82000
C  -14.14600 40.25300 43.03200
C  -15.48300 40.18600 43.66500
C  -15.82600 38.71900 43.67900
C  -14.41900 38.08400 43.43600
C  -15.50500 40.80700 45.13600
C  -16.75000 38.29600 42.62200
C  -18.17800 38.23200 43.25000
N  -11.92900 36.67500 42.82800
C  -13.00000 36.01200 43.14000
C  -12.80400 34.57100 43.18600
C  -11.47300 34.42300 42.53600
C  -11.07500 35.71500 42.24600
C  -13.84900 33.61100 43.59700
C  -10.45200 33.50700 42.07500
O  -10.32700 32.28600 42.15000
C  -9.52700 34.30800 41.30400
C  -8.28800 34.21200 42.14900
O  -8.20400 34.63100 43.29900
O  -7.32800 33.51800 41.44200
C  -5.95800 33.45500 41.95200
H  -8.27700 41.04400 40.35600
H  -14.12300 42.31800 42.65900
H  -15.03200 36.03100 43.76200
H  -7.55100 36.38900 40.72400
H  -7.57000 38.92400 39.23000
H  -5.86400 37.82900 41.15700
H  -6.55700 39.23000 42.02700
H  -5.80000 39.37900 40.41000
H  -8.37300 37.42300 38.02400
H  -9.39400 36.07900 38.55200
H  -7.87100 34.92300 37.60900
H  -7.02700 34.69400 39.08800
H  -8.39800 43.12800 40.76300
H  -9.41500 44.48600 40.87800
H  -9.44600 43.54100 39.38000
H  -14.31000 44.36000 42.11200
H  -13.64600 45.88300 42.66200
H  -13.37200 44.39700 43.66800
H  -16.12300 40.71900 42.96100
H  -16.15100 38.33000 44.64400
H  -14.53000 41.04700 45.56100
H  -16.05600 40.16800 45.82700
H  -16.06100 41.74000 45.23200
H  -16.55600 37.40900 42.01900
H  -16.75600 39.13400 41.92500
H  -18.57500 37.23900 43.04100
H  -18.64600 39.06000 42.71700
H  -18.29500 38.50300 44.30000
H  -14.46700 33.95900 44.42500
H  -13.36100 32.70700 43.96200
H  -14.45700 33.42300 42.71300
H  -9.43400 33.99500 40.26400
H  -5.30600 33.07000 41.16700
H  -5.93300 32.71400 42.75000
H  -5.56800 34.41500 42.29200
Mg -5.70800 25.63400 25.19300
C  -3.87400 26.96400 27.87500
C  -7.22600 23.46700 27.39000
C  -7.06000 24.08000 22.52700
C  -3.81200 27.63600 23.02600
N  -5.51000 25.31300 27.42000
C  -4.79900 25.99600 28.32800
C  -5.25200 25.62600 29.74000
C  -6.01400 24.33000 29.49700
C  -6.31500 24.39200 27.96700
C  -5.18800 23.03900 29.80400
C  -6.13900 26.75900 30.30900
C  -5.93000 26.83200 31.82300
H  -5.51300 25.67500 32.61400
N  -7.04400 23.96700 25.03000
C  -7.58100 23.25800 26.05500
C  -8.47100 22.21900 25.52800
C  -8.50200 22.43300 24.12600
C  -7.48800 23.50000 23.79900
C  -9.17000 21.21200 26.39000
C  -9.41900 21.69200 23.06000
O  -9.35000 21.97600 21.87300
C  -10.61200 20.85900 23.43200
N  -5.35800 25.71600 23.03200
C  -6.18100 25.14900 22.20300
C  -5.82900 25.45700 20.73400
C  -5.06200 26.76400 20.94400
C  -4.72700 26.74300 22.45300
C  -5.04500 24.27600 20.01400
C  -5.68800 28.01600 20.23000
C  -6.94000 28.63700 20.90900
N  -4.11700 27.00200 25.32500
C  -3.49100 27.85000 24.37800
C  -2.50400 28.74500 24.96700
C  -2.61800 28.35800 26.32000
C  -3.56800 27.32900 26.50200
C  -1.64200 29.77600 24.34300
C  -2.11300 28.63000 27.64400
O  -1.23100 29.42100 27.87700
C  -2.86600 27.72700 28.66800
C  -1.96100 26.77800 29.30600
O  -1.48600 25.79200 28.75800
O  -2.00500 26.81500 30.63200
C  -1.39800 25.65500 31.31600
H  -7.68400 22.82500 28.14600
H  -7.49100 23.68600 21.60400
H  -3.39300 28.35300 22.31700
H  -4.32900 25.58300 30.31900
H  -6.90400 24.35000 30.12600
H  -5.01900 22.42400 28.92000
H  -5.76300 22.45300 30.52200
H  -4.23700 23.33200 30.24900
H  -7.16600 26.72300 29.94700
H  -5.73900 27.66900 29.86000
H  -6.93000 27.07200 32.18300
H  -5.26300 27.67100 32.02400
H  -9.23400 20.22700 25.92700
H  -10.20100 21.52100 26.56100
H  -8.70200 21.00800 27.35300
H  -10.32000 19.85900 23.75300
H  -11.35200 20.84500 22.63200
H  -11.09800 21.27600 24.31400
H  -6.73300 25.70000 20.17600
H  -4.06000 26.68400 20.52400
H  -4.93300 23.38000 20.62600
H  -4.04400 24.53600 19.67100
H  -5.55200 23.98400 19.09400
H  -6.06400 27.63000 19.28200
H  -5.01200 28.84900 20.04300
H  -7.58000 29.11500 20.16700
H  -6.69300 29.38500 21.66200
H  -7.49900 27.86600 21.43800
H  -1.30100 29.50200 23.34500
H  -0.77800 29.94100 24.98800
H  -2.28100 30.65200 24.22500
H  -3.31400 28.29000 29.48600
H  -0.39300 25.47500 30.93300
H  -1.88700 24.70100 31.11700
H  -1.33600 25.92900 32.36900

