158

Mg -1.42300 17.50200 27.17900
C  -1.86000 15.29600 29.83200
C  -1.73900 20.14300 29.52200
C  -1.22200 19.58500 24.67600
C  -1.65900 14.76100 24.94300
N  -1.82000 17.68300 29.50000
C  -1.83300 16.61700 30.35300
C  -1.99300 17.10900 31.81400
C  -1.93000 18.66900 31.63900
C  -1.89500 18.83900 30.11900
C  -3.17900 19.31700 32.28800
C  -0.94600 16.58700 32.85300
C  -0.54700 17.44800 34.05800
H  -0.57000 16.79900 35.44400
N  -1.40700 19.47800 27.13300
C  -1.54500 20.44200 28.13500
C  -1.39800 21.74900 27.63100
C  -1.15400 21.56200 26.22200
C  -1.20400 20.18300 25.91800
C  -1.76500 23.00000 28.34100
C  -0.86900 22.63200 25.07700
O  -0.42300 22.45200 23.92000
C  -0.88000 24.03000 25.48500
N  -1.48100 17.26100 25.16300
C  -1.32800 18.28100 24.34300
C  -1.35900 17.81100 22.84700
C  -1.45100 16.26900 22.95000
C  -1.46600 16.02300 24.44500
C  -2.51500 18.35400 21.96300
C  -0.34000 15.52800 22.20300
C  1.01900 15.45300 22.91000
N  -1.62000 15.45400 27.29700
C  -1.77900 14.46200 26.33400
C  -1.90400 13.13900 26.95800
C  -1.90800 13.47800 28.31200
C  -1.73300 14.87800 28.46600
C  -2.32100 11.82600 26.28000
C  -2.02000 12.88200 29.59100
O  -2.15800 11.70900 29.96000
C  -2.04500 14.00700 30.61600
C  -0.94100 13.74600 31.56000
O  0.23200 13.94900 31.25800
O  -1.43400 13.27400 32.69800
C  -0.35800 12.95400 33.67600
H  -1.51100 20.90200 30.27400
H  -1.06900 20.29500 23.86100
H  -1.69600 13.93100 24.23500
H  -2.97200 16.74600 32.13000
H  -1.02000 19.18700 31.94300
H  -4.04300 19.38700 31.62700
H  -2.90000 20.35800 32.45600
H  -3.63200 18.82100 33.14600
H  -0.07100 16.09900 32.42200
H  -1.52200 15.71600 33.16500
H  -1.17100 18.33800 33.98100
H  0.51400 17.68800 33.98400
H  -1.09000 23.85600 28.31900
H  -2.12400 22.79200 29.34900
H  -2.65800 23.26400 27.77500
H  -0.66700 24.63400 24.60300
H  0.09500 24.18200 25.94900
H  -1.77100 24.37800 26.00700
H  -0.35600 18.01300 22.47200
H  -2.40700 15.97200 22.51900
H  -2.89700 19.22700 22.49200
H  -3.37800 17.72000 21.75700
H  -2.01400 18.69900 21.05800
H  -0.37000 15.96400 21.20500
H  -0.80300 14.54300 22.13600
H  1.10600 14.44500 23.31700
H  0.95900 16.21900 23.68300
H  1.80000 15.58500 22.16200
H  -2.82800 11.14600 26.96400
H  -1.43000 11.29900 25.93900
H  -3.05400 12.17200 25.55100
H  -2.99800 13.92900 31.13900
H  -0.69500 12.59200 34.64700
H  0.28700 13.81100 33.87100
H  0.25900 12.19200 33.20000
Mg 52.60400 25.10000 44.93300
C  50.07700 27.27100 43.90600
C  51.04600 22.46700 43.40800
C  55.58800 23.38800 44.58000
C  54.36900 27.87800 46.15700
N  50.69500 24.94000 43.87800
C  49.82400 25.92100 43.56100
C  48.69300 25.33300 42.63800
C  48.80600 23.82700 42.99200
C  50.29600 23.69500 43.47300
C  47.76700 23.22100 44.02400
C  49.05200 25.78900 41.22100
C  47.85700 25.89200 40.29900
H  48.27300 26.30100 38.88000
N  53.20700 23.10100 44.37800
C  52.39400 22.14300 43.79800
C  53.18800 20.91200 43.66100
C  54.51100 21.23500 43.98700
C  54.47200 22.62800 44.37800
C  52.61900 19.66600 43.08800
C  55.71800 20.21900 43.96800
O  55.49500 19.01100 43.82900
C  57.15000 20.57700 44.21800
N  54.73400 25.58000 45.29900
C  55.71100 24.68900 45.14500
C  57.00500 25.22800 45.75900
C  56.64800 26.72000 46.22300
C  55.15800 26.70800 45.98200
C  57.64900 24.38400 46.90300
C  57.37400 27.81500 45.36600
C  57.32400 29.17500 45.88700
N  52.33200 27.20000 44.95900
C  53.04200 28.14200 45.67100
C  52.31400 29.39400 45.69600
C  51.17500 29.10200 44.94400
C  51.22100 27.76100 44.52100
C  52.69700 30.66300 46.34800
C  49.97100 29.62100 44.52700
O  49.55900 30.75200 44.71100
C  49.17500 28.56700 43.74600
C  48.94800 29.07200 42.33700
O  49.73800 29.24300 41.39300
O  47.58200 29.29900 42.29200
C  47.12400 29.79000 41.02700
H  50.57700 21.54900 43.04800
H  56.60000 22.97800 44.59700
H  54.94300 28.69400 46.60000
H  47.66100 25.67000 42.73200
H  48.71200 23.24900 42.07200
H  47.27100 24.02600 44.56700
H  48.29800 22.57700 44.72500
H  47.03600 22.70800 43.39900
H  49.75400 25.04400 40.84700
H  49.47800 26.79100 41.27900
H  47.34700 26.76900 40.69600
H  47.19800 25.02500 40.33700
H  51.67800 19.94600 42.61400
H  52.48500 18.94200 43.89200
H  53.22400 19.27000 42.27300
H  57.85200 19.74300 44.24200
H  57.24900 21.03100 45.20400
H  57.38000 21.27600 43.41500
H  57.74200 25.42500 44.98000
H  56.63200 26.99400 47.27800
H  57.59800 24.91300 47.85500
H  58.68200 24.24400 46.58500
H  57.24600 23.38000 47.03400
H  56.91400 27.74500 44.38100
H  58.42200 27.51500 45.38500
H  58.30100 29.64200 46.01100
H  56.92200 29.09200 46.89700
H  56.62700 29.78400 45.31200
H  52.09800 30.80700 47.24800
H  52.46800 31.51100 45.70200
H  53.77800 30.80200 46.37500
H  48.16800 28.44400 44.14500
H  46.23000 30.41400 41.01500
H  46.86800 29.08100 40.23900
H  47.79700 30.60400 40.75700

