158

Mg 8.72500 47.38800 27.18900
C  7.09500 46.85500 30.25100
C  11.64800 47.81300 28.97200
C  10.25300 48.68000 24.29000
C  5.64700 47.94000 25.64300
N  9.31400 47.35900 29.39000
C  8.53000 47.03000 30.42600
C  9.28000 47.17900 31.81300
C  10.71000 47.70600 31.31800
C  10.56700 47.66800 29.81400
C  11.01100 49.13600 31.82900
C  9.34900 45.84200 32.76800
C  9.04900 46.14900 34.27300
H  9.25600 45.14600 35.34900
N  10.68700 48.03000 26.66500
C  11.73300 47.95200 27.54200
C  12.98900 48.28200 26.82500
C  12.61000 48.47200 25.46700
C  11.17000 48.43000 25.38200
C  14.35000 48.39200 27.44300
C  13.52300 48.62000 24.28100
O  13.14700 48.86300 23.16700
C  14.96500 48.61600 24.37500
N  8.10200 48.18900 25.33200
C  8.88800 48.48500 24.31100
C  8.09700 48.91100 23.00500
C  6.59100 48.48300 23.41800
C  6.82900 48.07200 24.86900
C  8.34000 50.42800 22.55400
C  6.15200 47.28600 22.48200
C  5.85500 47.65400 20.97500
N  6.76900 47.25600 27.73100
C  5.65100 47.57000 27.05400
C  4.49100 47.22300 27.84500
C  5.02800 46.91300 29.14100
C  6.44400 47.00600 29.04000
C  3.08800 47.36100 27.39700
C  4.71200 46.71100 30.53500
O  3.63200 46.69700 31.04800
C  6.05200 46.52400 31.28600
C  6.07900 45.20100 32.03600
O  6.49700 44.12800 31.52300
O  5.71100 45.30000 33.34000
C  5.87700 44.10100 34.10500
H  12.55200 47.75300 29.58200
H  10.62500 49.12000 23.36200
H  4.68300 47.95000 25.12900
H  8.70600 47.90500 32.38900
H  11.50300 47.03000 31.63900
H  10.83600 49.87200 31.04400
H  12.09700 49.21500 31.88100
H  10.56100 49.48500 32.75800
H  10.35200 45.42000 32.70300
H  8.75100 45.07400 32.27700
H  8.04000 46.54300 34.39800
H  9.71100 46.94200 34.62300
H  14.99100 47.57000 27.12600
H  14.14600 48.33500 28.51200
H  14.70300 49.35800 27.08000
H  15.27700 49.44200 25.01500
H  15.36700 48.78600 23.37700
H  15.21900 47.62800 24.75800
H  8.48300 48.29400 22.19400
H  5.99700 49.39200 23.31700
H  8.93300 50.53700 21.64600
H  8.83600 51.04600 23.30300
H  7.38900 50.93700 22.39400
H  5.27100 46.73800 22.81900
H  6.96000 46.55500 22.50500
H  6.67900 47.23100 20.39900
H  5.68600 48.71800 20.81200
H  4.93300 47.09200 20.82800
H  2.90300 48.00900 26.54000
H  2.45500 47.56500 28.26000
H  2.81200 46.35400 27.08200
H  6.15700 47.28300 32.06100
H  5.86800 44.31700 35.17300
H  6.89000 43.70100 34.04600
H  5.31400 43.26500 33.68900
Mg -10.16300 40.12400 42.01300
C  -8.90400 36.84200 41.36100
C  -7.15700 41.29500 40.49800
C  -11.48400 43.10300 41.54700
C  -13.30300 38.57300 42.50300
N  -8.19500 39.19000 41.22900
C  -8.05200 37.87800 40.96700
C  -6.62100 37.60400 40.30800
C  -5.98800 38.97200 40.39900
C  -7.20400 39.91700 40.69500
C  -4.86500 39.27900 41.43700
C  -6.67400 37.05200 38.83100
C  -5.92600 35.73700 38.48500
H  -4.84100 35.76200 37.42200
N  -9.45500 42.00600 41.15900
C  -8.18500 42.27400 40.65900
C  -8.15700 43.65000 40.27900
C  -9.43500 44.25500 40.48500
C  -10.17500 43.14400 41.05800
C  -6.94000 44.35700 39.67700
C  -9.92500 45.69700 40.30100
O  -9.03500 46.45700 39.96700
C  -11.32800 46.15500 40.36600
N  -12.07200 40.67900 42.07900
C  -12.35600 42.01300 41.93000
C  -13.84700 42.26900 42.12600
C  -14.44300 40.89400 42.51400
C  -13.24600 39.99100 42.36100
C  -14.13700 43.39300 43.17800
C  -15.64800 40.39800 41.63600
C  -16.99000 40.18400 42.26100
N  -10.94700 38.09100 42.22200
C  -12.22000 37.63000 42.38300
C  -12.25100 36.27200 42.51700
C  -10.96700 35.84400 42.16800
C  -10.19600 37.00300 41.95300
C  -13.47600 35.44600 42.90500
C  -10.01400 34.78800 41.92100
O  -10.23200 33.56700 42.04400
C  -8.69800 35.36300 41.30000
C  -7.54700 34.93100 42.12300
O  -6.96500 35.53400 43.05600
O  -6.96000 33.86000 41.48900
C  -5.56500 33.46400 41.90100
H  -6.17700 41.51700 40.06900
H  -11.98000 44.06400 41.39700
H  -14.28700 38.14300 42.69900
H  -6.05900 36.86300 40.87600
H  -5.42000 39.19500 39.49500
H  -4.67900 38.41700 42.07800
H  -5.21900 40.06500 42.10300
H  -3.92000 39.67500 41.06500
H  -6.32800 37.77300 38.08900
H  -7.73500 36.90100 38.62900
H  -6.71900 35.05500 38.18000
H  -5.45800 35.29000 39.36300
H  -5.94600 43.93000 39.81200
H  -6.83400 45.38000 40.04000
H  -6.97600 44.39300 38.58800
H  -11.92200 45.51600 39.71300
H  -11.40200 47.16900 39.97200
H  -11.65000 46.19800 41.40700
H  -14.33000 42.66600 41.23300
H  -14.66800 40.85000 43.57900
H  -15.09500 43.15400 43.64000
H  -14.33700 44.21600 42.49200
H  -13.39700 43.47800 43.97400
H  -15.48600 39.43400 41.15300
H  -15.89100 41.12200 40.85900
H  -16.94400 40.62700 43.25500
H  -17.26900 39.13000 42.25600
H  -17.81500 40.61100 41.69100
H  -13.21300 34.48800 43.35300
H  -14.17200 35.22400 42.09500
H  -14.03800 36.00900 43.65000
H  -8.55000 35.05400 40.26500
H  -4.96200 33.53900 40.99600
H  -5.51000 32.48100 42.36900
H  -5.18200 34.12100 42.68100

