158

Mg 35.65500 3.00300 30.41400
C  33.08700 3.92700 32.76700
C  37.77400 2.81700 33.20000
C  38.09000 2.45900 28.29800
C  33.31400 3.21700 27.74700
N  35.41000 3.42900 32.80300
C  34.28700 3.58800 33.46700
C  34.46900 3.65400 34.99200
C  36.02000 3.47700 35.11800
C  36.44200 3.19500 33.65900
C  36.75600 4.75100 35.79000
C  33.58500 2.61900 35.76100
C  33.97900 2.26500 37.16800
H  34.55700 3.40600 38.04400
N  37.68900 2.77900 30.67200
C  38.33200 2.55200 31.86800
C  39.68500 2.17400 31.56100
C  39.81400 2.06100 30.14800
C  38.56200 2.44200 29.64400
C  40.85300 1.84600 32.52700
C  41.00600 1.65300 29.26100
O  41.03000 1.84000 28.02000
C  42.18900 1.00800 29.97700
N  35.66000 2.98100 28.26400
C  36.86700 2.74600 27.70600
C  36.74400 2.82100 26.15000
C  35.13100 2.81700 26.01500
C  34.67100 2.98900 27.44300
C  37.43200 4.04900 25.51200
C  34.66900 1.51400 25.29400
C  33.75400 1.76100 24.06800
N  33.67200 3.50600 30.26300
C  32.89500 3.51000 29.06600
C  31.53400 3.84100 29.51800
C  31.58100 4.04100 30.89500
C  32.91200 3.87300 31.34500
C  30.37400 3.80500 28.55300
C  30.79100 4.38500 32.03100
O  29.58900 4.69800 32.13500
C  31.71900 4.24100 33.24900
C  31.69400 5.44600 34.07800
O  32.35900 6.46300 33.78900
O  30.99600 5.35700 35.23500
C  31.19000 6.45000 36.25700
H  38.46400 2.69300 34.03800
H  38.84300 2.26100 27.53200
H  32.54700 3.16800 26.97100
H  34.15600 4.66800 35.23800
H  36.42600 2.67500 35.73500
H  37.46900 4.47100 36.56600
H  36.01900 5.47600 36.13500
H  37.39600 5.21400 35.03900
H  33.83900 1.72600 35.19000
H  32.51400 2.80600 35.68600
H  34.66500 1.42100 37.24700
H  33.01300 1.98700 37.58700
H  41.77300 2.41500 32.39100
H  40.91400 0.76800 32.67400
H  40.50300 2.26200 33.47200
H  41.97600 0.30100 30.77900
H  42.77300 1.84100 30.37000
H  42.87100 0.55000 29.26100
H  37.25600 1.96300 25.71500
H  34.66600 3.64900 25.48700
H  36.68000 4.73900 25.13000
H  38.05500 3.77700 24.66000
H  37.99900 4.68500 26.19200
H  34.03100 0.99400 26.00900
H  35.47100 0.82200 25.03600
H  34.33100 1.39700 23.21800
H  33.42700 2.79500 23.96300
H  32.84100 1.17900 24.19700
H  30.63000 4.52200 27.77300
H  29.38300 3.86700 29.00300
H  30.44100 2.88700 27.97000
H  31.28300 3.45100 33.85900
H  31.56600 7.39000 35.85500
H  31.79700 6.19400 37.12500
H  30.19300 6.61400 36.66700
Mg 30.15100 57.63200 40.67800
C  27.57900 55.59800 39.47600
C  32.45900 55.49100 39.26200
C  32.61600 60.00800 41.12700
C  27.85400 60.07100 41.47100
N  30.00800 55.81400 39.61200
C  28.88700 55.07400 39.29800
C  29.24600 53.63800 38.66100
C  30.84300 53.64700 38.89000
C  31.15200 55.09100 39.32400
C  31.43400 52.54800 39.89000
C  28.75400 53.48800 37.19600
C  29.06500 54.42200 36.12600
H  27.95200 55.23800 35.33200
N  32.21800 57.76200 40.28300
C  33.01900 56.74200 39.71500
C  34.42900 57.09100 39.92200
C  34.53000 58.37000 40.52800
C  33.07700 58.78100 40.66100
C  35.45700 55.95800 39.73200
C  35.77600 58.95900 41.11600
O  36.87900 58.51500 40.83100
C  35.69300 60.12800 42.05200
N  30.20800 59.87500 41.00800
C  31.35500 60.54100 41.32100
C  31.04800 61.99200 41.71300
C  29.57500 61.85100 42.18800
C  29.16900 60.53700 41.46600
C  31.94600 62.64900 42.82900
C  28.74200 63.06600 41.66400
C  27.53600 63.64600 42.46300
N  28.13200 57.80100 40.56900
C  27.32000 58.87000 40.91600
C  25.90200 58.47900 40.79600
C  26.03300 57.16000 40.25400
C  27.37900 56.83200 40.03600
C  24.72000 59.21800 41.10200
C  25.24300 56.02600 39.87100
O  24.04000 55.79300 39.95200
C  26.22700 55.01600 39.24400
C  25.89400 53.76000 39.83600
O  26.29100 53.33800 40.93900
O  25.03800 53.05200 39.05700
C  24.48600 51.80900 39.59200
H  33.11400 54.70200 38.88700
H  33.33800 60.82200 41.21700
H  27.11900 60.75700 41.89700
H  28.73100 52.96200 39.34400
H  31.29500 53.52100 37.90600
H  31.15000 51.53600 39.60000
H  31.00200 52.73200 40.87400
H  32.52100 52.57700 39.81400
H  27.67000 53.38000 37.15700
H  29.18100 52.52200 36.92500
H  29.66600 53.89300 35.38700
H  29.56600 55.29900 36.53700
H  36.46700 56.29300 39.49600
H  35.26700 55.22700 38.94700
H  35.53100 55.37000 40.64700
H  35.25000 60.97600 41.53000
H  36.73400 60.21600 42.36400
H  35.03300 59.97000 42.90500
H  31.10000 62.49600 40.74800
H  29.54800 61.87800 43.27700
H  32.73400 62.02900 43.25700
H  31.25500 62.96100 43.61200
H  32.34700 63.53200 42.33200
H  28.29300 62.67300 40.75200
H  29.42200 63.89400 41.46500
H  26.59400 63.50200 41.93400
H  27.65900 64.72200 42.58900
H  27.55200 63.17100 43.44400
H  23.96300 58.46700 41.32600
H  24.37400 59.56700 40.12900
H  24.83400 60.02300 41.82800
H  25.99400 55.04300 38.18000
H  25.25900 51.08200 39.84200
H  23.88100 51.22500 38.89900
H  23.89000 52.10800 40.45500

