158

Mg 17.23600 -2.45400 28.16700
C  16.07200 -0.60500 30.81900
C  19.03300 -4.54600 30.20500
C  18.37100 -4.09400 25.46300
C  15.68600 -0.17000 25.89500
N  17.48600 -2.56100 30.25000
C  16.82300 -1.73300 31.18300
C  17.26200 -2.12500 32.64500
C  18.23400 -3.35900 32.47600
C  18.26200 -3.52300 30.87400
C  19.62500 -3.11100 33.10700
C  16.05600 -2.42300 33.59900
C  15.75800 -1.47400 34.80600
H  16.99300 -0.90400 35.53200
N  18.50800 -4.10700 27.86900
C  19.07700 -4.89500 28.80600
C  19.87100 -5.99600 28.24500
C  19.59900 -5.93500 26.80200
C  18.82200 -4.69500 26.66800
C  20.69400 -6.84800 29.09800
C  20.10800 -6.75100 25.67900
O  19.73000 -6.59700 24.54700
C  21.04200 -8.01500 25.97400
N  16.99800 -2.20500 25.99300
C  17.69600 -2.93000 25.16000
C  17.67200 -2.41100 23.72700
C  16.68400 -1.17300 23.84700
C  16.41700 -1.18800 25.34900
C  19.13700 -2.14700 23.12700
C  15.33300 -1.33200 23.11100
C  14.77200 -0.03500 22.52800
N  16.07300 -0.67300 28.25600
C  15.54400 0.09000 27.28600
C  14.78200 1.15700 27.93800
C  15.01100 0.96500 29.29800
C  15.81600 -0.16600 29.44100
C  13.83100 2.08800 27.37200
C  14.66900 1.43700 30.57200
O  13.94000 2.38600 30.92200
C  15.41400 0.50300 31.65400
C  16.42900 1.30900 32.53600
O  17.60500 1.12700 32.44700
O  15.84100 2.29800 33.23500
C  16.84300 3.24800 33.81700
H  19.59700 -5.17600 30.89600
H  18.66900 -4.65600 24.57600
H  15.27700 0.51200 25.14700
H  17.75200 -1.28300 33.13500
H  17.84300 -4.30600 32.84800
H  19.66700 -2.26900 33.79700
H  20.48700 -3.12400 32.44000
H  19.87000 -4.00600 33.67800
H  16.03700 -3.48700 33.83800
H  15.22100 -2.32000 32.90500
H  15.12500 -2.07500 35.45900
H  15.19700 -0.63100 34.40100
H  19.96900 -7.54800 29.51400
H  21.14500 -6.28200 29.91300
H  21.48400 -7.32200 28.51600
H  21.13800 -8.57500 25.04400
H  20.51200 -8.44100 26.82600
H  21.97700 -7.57800 26.32400
H  17.23900 -3.27700 23.22500
H  17.16800 -0.30400 23.40200
H  19.58100 -3.00000 22.61400
H  19.78300 -1.93900 23.98000
H  19.25100 -1.29400 22.45900
H  14.53800 -1.75100 23.72900
H  15.49000 -2.10100 22.35500
H  15.51400 0.75800 22.61600
H  13.82400 0.20500 23.00900
H  14.65400 -0.14400 21.44900
H  14.18300 3.05000 27.00100
H  13.18500 2.50000 28.14800
H  13.17500 1.62000 26.63900
H  14.69400 -0.04100 32.26400
H  17.50700 3.62400 33.03800
H  17.42700 2.71000 34.56300
H  16.43200 4.18600 34.19000
Mg -5.20500 25.32100 25.84700
C  -3.55300 26.53100 28.61000
C  -6.42900 22.84300 27.69100
C  -6.08900 23.91900 22.90700
C  -3.09400 27.55000 23.84800
N  -5.01100 24.77000 27.92100
C  -4.45400 25.52000 28.93000
C  -5.02400 25.10600 30.29800
C  -5.63800 23.71600 29.98000
C  -5.65600 23.69200 28.39500
C  -4.68400 22.59300 30.51900
C  -5.90800 26.24400 31.00300
C  -5.39500 26.63200 32.44100
H  -5.41600 25.44600 33.47000
N  -6.37300 23.76700 25.36800
C  -6.74600 22.82300 26.29500
C  -7.47600 21.74900 25.62000
C  -7.49800 22.13600 24.19200
C  -6.62500 23.35900 24.08000
C  -8.04100 20.52000 26.37400
C  -8.19100 21.38300 23.04800
O  -8.15500 21.81600 21.91000
C  -8.82100 20.04400 23.20300
N  -4.84000 25.84800 23.66100
C  -5.33600 25.03400 22.71300
C  -4.90000 25.53000 21.28300
C  -3.71900 26.50500 21.62200
C  -3.90300 26.71100 23.14400
C  -4.39600 24.37400 20.33900
C  -3.68800 27.76100 20.65700
C  -4.72800 28.85000 20.80300
N  -3.76300 26.81600 26.07900
C  -3.00000 27.63100 25.23600
C  -2.04800 28.45700 25.99700
C  -2.26400 28.09300 27.33100
C  -3.21500 27.02000 27.30400
C  -1.12700 29.43000 25.49800
C  -1.93800 28.37700 28.75500
O  -1.07200 29.20500 29.19100
C  -2.71600 27.38800 29.56800
C  -1.90100 26.53200 30.46200
O  -1.32000 25.51700 30.19400
O  -1.79400 27.17300 31.69000
C  -1.21600 26.55400 32.83900
H  -6.79000 21.93700 28.18100
H  -6.29400 23.33800 22.00500
H  -2.35900 28.11100 23.26700
H  -4.15300 24.95200 30.93500
H  -6.64900 23.49500 30.32400
H  -4.34400 22.83800 31.52500
H  -3.76600 22.55800 29.93200
H  -5.15900 21.61300 30.47200
H  -6.94000 25.90400 31.08600
H  -5.91200 27.10300 30.33100
H  -5.94500 27.50700 32.78600
H  -4.35400 26.95300 32.41200
H  -9.10900 20.36600 26.21500
H  -7.85000 20.45800 27.44600
H  -7.51000 19.67800 25.92900
H  -8.10100 19.27300 23.47900
H  -9.10000 19.66400 22.22000
H  -9.71600 20.07600 23.82500
H  -5.60800 26.14000 20.72300
H  -2.80300 25.93200 21.47600
H  -5.21200 23.78800 19.91700
H  -3.77400 23.66300 20.88300
H  -3.78300 24.69200 19.49500
H  -3.87700 27.47300 19.62300
H  -2.70200 28.22500 20.62700
H  -5.23800 28.83800 21.76600
H  -5.40900 28.78900 19.95300
H  -4.32500 29.85600 20.68500
H  -1.58900 30.11000 24.78200
H  -0.19900 29.06300 25.05900
H  -0.84800 30.08900 26.32000
H  -3.39800 27.93900 30.21600
H  -1.94200 25.87600 33.28600
H  -1.01900 27.34000 33.56900
H  -0.27700 26.07100 32.56700

