158

Mg 16.83500 51.43500 27.22100
C  19.24700 50.07200 29.51300
C  14.68500 51.73900 29.87900
C  14.59000 52.43300 25.06900
C  19.01700 50.61800 24.67200
N  16.98000 50.95700 29.44800
C  18.10500 50.53400 30.15800
C  17.90000 50.82100 31.66200
C  16.36800 51.11600 31.67400
C  15.96500 51.29800 30.27900
C  15.53700 50.07400 32.47700
C  18.77400 52.04600 32.16900
C  19.09800 51.96000 33.74400
H  18.15300 51.10500 34.67000
N  14.94000 52.08300 27.41900
C  14.18200 52.08200 28.63000
C  12.81100 52.55900 28.32500
C  12.75100 52.75500 26.88000
C  14.10800 52.41800 26.40100
C  11.69400 52.58100 29.40000
C  11.62400 53.32900 26.04600
O  11.73600 53.51400 24.83700
C  10.24300 53.56800 26.73000
N  16.86500 51.61200 25.17400
C  15.83400 52.12400 24.50900
C  16.18000 52.18800 22.98200
C  17.60400 51.61300 22.89600
C  17.85500 51.23800 24.33500
C  15.26500 51.40500 22.04100
C  18.67900 52.67400 22.38500
C  19.69400 52.10200 21.25400
N  18.71600 50.49800 27.05100
C  19.50700 50.24000 25.93200
C  20.68800 49.53300 26.34900
C  20.64800 49.53000 27.71500
C  19.48200 50.10700 28.11000
C  21.72900 48.89800 25.43000
C  21.45100 49.18900 28.90400
O  22.53500 48.68000 28.95200
C  20.54100 49.59600 30.12600
C  20.27200 48.43500 31.06800
O  19.98300 47.28800 30.71700
O  20.42400 48.97500 32.35300
C  20.13300 47.97000 33.32500
H  14.00800 51.89900 30.72000
H  13.89000 52.80000 24.31600
H  19.68000 50.35000 23.84700
H  18.13700 49.96200 32.28900
H  16.30900 52.13200 32.06300
H  14.72700 49.61600 31.90800
H  15.07700 50.57900 33.32700
H  16.17500 49.21100 32.66600
H  18.17100 52.93200 31.97000
H  19.64100 52.09600 31.51000
H  19.13800 53.01000 34.03500
H  20.09300 51.52000 33.81600
H  11.94700 52.37400 30.43900
H  10.91300 51.86700 29.13800
H  11.38400 53.62500 29.35400
H  10.28000 54.42300 27.40600
H  10.01200 52.64200 27.25700
H  9.53800 53.50800 25.90200
H  16.17200 53.25500 22.75600
H  17.75100 50.68200 22.34800
H  15.87200 50.91200 21.28100
H  14.54600 52.06100 21.55100
H  14.67100 50.68000 22.59700
H  19.31500 53.00200 23.20700
H  18.17000 53.58500 22.07200
H  20.63500 52.65100 21.29100
H  19.35700 52.07400 20.21800
H  19.95100 51.07200 21.50500
H  22.04600 47.99300 25.94900
H  22.48000 49.67600 25.29000
H  21.24000 48.67600 24.48100
H  20.98100 50.47300 30.60000
H  20.70400 47.07600 33.07300
H  19.07200 47.72300 33.29000
H  20.37200 48.22500 34.35700
Mg -10.92100 38.78100 41.75100
C  -9.21400 35.83500 40.63200
C  -8.20400 40.63100 40.73800
C  -12.80300 41.45100 42.06700
C  -13.64600 36.74800 42.57800
N  -9.06300 38.22600 40.50900
C  -8.50900 37.01700 40.26600
C  -7.18000 37.11200 39.58700
C  -6.74300 38.60600 39.87000
C  -8.08300 39.22500 40.45800
C  -5.58500 38.68500 40.87100
C  -7.17600 36.63700 38.11000
C  -6.21200 35.52100 37.69900
H  -5.01800 35.98200 36.77600
N  -10.54100 40.82900 41.40800
C  -9.35700 41.39000 41.00900
C  -9.44300 42.79000 40.95400
C  -10.82400 43.08600 41.28600
C  -11.46500 41.77700 41.61700
C  -8.30400 43.73600 40.35600
C  -11.43000 44.50500 41.19900
O  -10.64200 45.44400 40.91800
C  -12.83900 44.83800 41.60000
N  -13.00300 39.04200 42.00400
C  -13.38900 40.23400 42.39200
C  -14.81400 40.17300 43.03400
C  -15.13100 38.73500 43.06300
C  -13.82800 38.12600 42.52700
C  -14.80700 41.00800 44.34900
C  -16.38900 38.30000 42.28800
C  -17.70900 38.30000 43.05200
N  -11.44000 36.70600 41.61500
C  -12.51100 36.06800 42.10600
C  -12.24400 34.59700 42.06000
C  -11.01900 34.43900 41.53200
C  -10.51600 35.75400 41.20400
C  -13.24500 33.56300 42.46100
C  -10.01700 33.42100 41.06700
O  -9.91400 32.19300 41.01200
C  -8.77900 34.36700 40.53700
C  -7.53300 34.07900 41.32700
O  -6.74400 33.16700 41.06000
O  -7.25300 34.93300 42.30300
C  -5.92100 34.78600 42.96000
H  -7.22800 41.12100 40.72000
H  -13.46500 42.31900 42.09100
H  -14.52800 36.25100 42.98700
H  -6.53900 36.46100 40.18100
H  -6.39600 39.04800 38.93600
H  -4.66900 38.32400 40.40400
H  -5.87800 38.16300 41.78200
H  -5.44100 39.74300 41.09000
H  -7.07300 37.48400 37.43200
H  -8.21600 36.34600 37.96400
H  -6.81600 34.74200 37.23300
H  -5.72300 35.13300 38.59300
H  -7.43600 43.11900 40.12300
H  -7.98300 44.38700 41.16900
H  -8.61900 44.32100 39.49200
H  -13.55600 44.13400 41.17700
H  -13.03200 45.87000 41.30800
H  -12.84300 44.71900 42.68300
H  -15.56400 40.68700 42.43300
H  -15.37100 38.42900 44.08100
H  -15.35200 41.92800 44.13900
H  -13.82200 41.34000 44.67800
H  -15.38100 40.42100 45.06500
H  -16.26300 37.33700 41.79400
H  -16.42100 39.04600 41.49400
H  -18.29800 37.39700 42.89600
H  -18.31200 39.13700 42.70000
H  -17.59700 38.37900 44.13400
H  -13.81000 33.84800 43.34900
H  -12.75500 32.60400 42.62400
H  -13.79600 33.31600 41.55300
H  -8.54000 34.04900 39.52200
H  -5.43900 35.76200 43.02500
H  -5.16700 34.14500 42.50500
H  -6.09900 34.40300 43.96500

