158

Mg 40.60500 9.24700 29.92800
C  42.73500 10.46800 32.57800
C  38.28500 8.44400 32.05500
C  38.87200 8.23400 27.24000
C  43.39400 10.03200 27.75300
N  40.60500 9.32900 32.07700
C  41.45400 9.94400 32.96000
C  40.93800 9.97600 34.43200
C  39.53200 9.28800 34.17900
C  39.45800 8.90800 32.66000
C  39.25700 8.09600 35.08500
C  41.01200 11.40000 34.99000
C  40.23000 11.62700 36.29600
H  40.91500 12.40800 37.39000
N  38.78300 8.45300 29.63700
C  37.95100 8.20900 30.67400
C  36.70200 7.65400 30.18300
C  36.80200 7.68000 28.75900
C  38.19000 8.13200 28.46000
C  35.54100 7.17600 31.10800
C  35.82600 7.31800 27.65900
O  36.06900 7.44800 26.43500
C  34.41200 6.74800 28.06000
N  41.12500 9.10400 27.75700
C  40.17500 8.67600 26.91000
C  40.71400 8.65600 25.47100
C  42.14500 9.17700 25.66600
C  42.20200 9.60100 27.14400
C  40.52000 7.29000 24.68800
C  42.62400 10.33100 24.72000
C  42.22800 11.74400 25.04400
N  42.63400 10.12400 30.09500
C  43.54900 10.35900 29.15800
C  44.79200 10.90000 29.76800
C  44.56200 10.95100 31.11600
C  43.18800 10.52200 31.23300
C  46.04900 11.23800 28.97400
C  45.07400 11.31800 32.40700
O  46.17200 11.74200 32.67700
C  43.93100 11.01500 33.52100
C  44.42700 9.88100 34.36300
O  44.71400 8.73100 34.02700
O  44.71300 10.40000 35.64800
C  45.33900 9.49000 36.53400
H  37.52000 8.05700 32.73300
H  38.31100 7.95700 26.34500
H  44.16200 10.20000 26.99600
H  41.58800 9.37500 35.06700
H  38.81200 10.03300 34.51600
H  40.17900 7.75800 35.55800
H  38.75300 7.29900 34.53800
H  38.57100 8.33100 35.89900
H  40.69800 12.06900 34.18900
H  42.09100 11.50800 35.10500
H  39.86000 10.64500 36.59100
H  39.38500 12.24900 36.00000
H  35.55800 7.67600 32.07600
H  35.43500 6.10700 31.29200
H  34.55600 7.40100 30.69700
H  33.99000 6.33700 27.14300
H  33.95500 7.60100 28.56100
H  34.43400 5.92000 28.76800
H  40.14300 9.45600 25.00100
H  42.84700 8.35900 25.50300
H  41.47200 6.98200 24.25500
H  39.81600 7.48100 23.87700
H  40.19100 6.47100 25.32800
H  42.31600 10.07500 23.70600
H  43.70500 10.19300 24.74700
H  42.95200 12.15300 25.74900
H  41.30100 11.71100 25.61800
H  42.06200 12.28000 24.10900
H  46.93200 10.90300 29.51900
H  46.15000 12.32000 28.88200
H  46.20100 10.70900 28.03400
H  43.74200 11.87400 34.16600
H  45.89100 10.01400 37.31400
H  45.77800 8.63700 36.01700
H  44.49000 9.09700 37.09200
Mg 1.35700 42.04600 24.83800
C  2.93500 41.78100 27.98500
C  -1.50300 40.75200 26.29200
C  0.19700 41.58000 21.72600
C  4.52000 42.66200 23.44600
N  0.79200 41.46500 26.87800
C  1.60700 41.52500 28.06400
C  0.74800 41.25800 29.34700
C  -0.65000 40.91900 28.74500
C  -0.46700 41.05700 27.20100
C  -1.12100 39.54000 29.13500
C  0.70700 42.50600 30.30800
C  1.17100 42.23900 31.76900
H  0.22300 42.56800 32.92600
N  -0.51800 41.48000 24.10600
C  -1.49800 40.89700 24.87200
C  -2.60500 40.44800 24.00100
C  -2.24600 40.92000 22.73100
C  -0.77600 41.39300 22.80000
C  -3.77200 39.72800 24.54400
C  -3.10200 40.89400 21.44800
O  -2.61900 41.23200 20.37500
C  -4.48900 40.36100 21.41600
N  2.23700 42.15600 22.84000
C  1.55400 41.95500 21.76100
C  2.32700 42.44100 20.48600
C  3.64000 42.99200 21.09700
C  3.47700 42.65600 22.58000
C  2.52100 41.37200 19.34400
C  3.84800 44.49800 20.92200
C  3.93200 45.07300 19.51900
N  3.36000 42.23000 25.49700
C  4.50200 42.47900 24.82200
C  5.63500 42.59000 25.79600
C  4.99600 42.35800 27.00100
C  3.63600 42.13000 26.79700
C  7.14800 42.95400 25.49500
C  5.36200 42.19700 28.45900
O  6.38400 42.30900 29.11100
C  3.96700 41.84900 29.12000
C  4.02900 40.65500 30.01400
O  3.80800 39.50000 29.76600
O  4.37900 41.05800 31.25900
C  4.63000 40.08700 32.31500
H  -2.40600 40.38900 26.78700
H  -0.19600 41.40200 20.72300
H  5.48800 42.86500 22.98300
H  1.25800 40.39300 29.77000
H  -1.39600 41.63100 29.09800
H  -2.06400 39.60600 29.67800
H  -0.45100 39.04900 29.84000
H  -1.22400 38.89800 28.25900
H  -0.28300 42.96000 30.35400
H  1.22200 43.35400 29.85700
H  1.96100 42.97000 31.94000
H  1.70000 41.29100 31.85800
H  -4.26600 39.12800 23.78100
H  -4.43700 40.46700 24.99000
H  -3.39200 38.91000 25.15600
H  -4.45700 39.29200 21.20800
H  -5.05200 40.95600 20.69700
H  -4.95400 40.60700 22.37200
H  1.81100 43.28000 20.01900
H  4.48100 42.38900 20.75500
H  2.09800 40.36700 19.37700
H  3.57900 41.29100 19.09700
H  2.15500 41.74500 18.38800
H  4.63900 44.81900 21.60100
H  2.96300 44.93900 21.38000
H  3.05100 45.68300 19.31600
H  4.14500 44.45000 18.65000
H  4.63600 45.90500 19.51300
H  7.66700 41.99600 25.47100
H  7.52200 43.54900 26.32900
H  7.32500 43.59800 24.63400
H  3.76400 42.71000 29.75700
H  3.74800 39.61900 32.75100
H  4.93700 40.63000 33.20900
H  5.43800 39.39600 32.07500

