158

Mg -1.32800 34.91500 27.53900
C  -3.35500 33.18600 29.83600
C  -0.50300 37.13400 30.14600
C  0.31600 36.75400 25.21600
C  -2.67400 32.94000 24.95800
N  -1.83900 35.03700 29.77100
C  -2.58100 34.20000 30.43700
C  -2.47800 34.46500 31.91500
C  -1.95200 35.94200 31.90700
C  -1.23600 36.01900 30.60000
C  -3.02200 37.08200 32.04400
C  -1.64400 33.32400 32.60900
C  -2.47700 32.67500 33.70600
H  -1.82700 32.25100 35.02700
N  -0.34700 36.76500 27.64500
C  -0.11800 37.50800 28.78500
C  0.72000 38.63700 28.46100
C  1.05900 38.56100 27.04700
C  0.34800 37.31000 26.57000
C  1.12100 39.72900 29.41100
C  1.85100 39.42000 26.12200
O  2.12400 39.16800 24.91100
C  2.47600 40.56000 26.66700
N  -1.05300 34.74100 25.49200
C  -0.31000 35.60600 24.67000
C  -0.19800 35.18100 23.22800
C  -1.03000 33.82600 23.18900
C  -1.66700 33.84700 24.64900
C  -0.61100 36.23300 22.12000
C  -0.30200 32.50900 22.98700
C  -1.01400 31.35900 22.18800
N  -2.64800 33.34700 27.36400
C  -3.11900 32.69100 26.27200
C  -4.05100 31.59100 26.66000
C  -4.15800 31.77000 28.06100
C  -3.32100 32.84100 28.45000
C  -4.76100 30.55100 25.77300
C  -4.78200 31.25100 29.24700
O  -5.60400 30.30700 29.32500
C  -4.28300 32.12500 30.48200
C  -5.56900 32.74100 31.04400
O  -6.11800 33.77900 30.76000
O  -5.83700 32.03800 32.21800
C  -6.57400 32.59100 33.33200
H  -0.36300 37.87800 30.93400
H  0.83300 37.25200 24.39300
H  -3.07800 32.30400 24.16900
H  -3.53000 34.55400 32.18600
H  -1.15100 36.02700 32.64100
H  -3.91300 36.49300 32.26100
H  -3.00300 37.82300 31.24500
H  -2.74200 37.65400 32.92900
H  -0.78000 33.78600 33.08700
H  -1.27500 32.54700 31.94000
H  -2.67900 31.68500 33.29800
H  -3.42800 33.11300 34.00700
H  0.44300 39.81200 30.26000
H  1.24300 40.72200 28.97800
H  2.15400 39.48600 29.66000
H  3.22700 41.01300 26.02000
H  3.12900 40.18600 27.45600
H  1.71200 41.30400 26.89300
H  0.85700 34.99900 23.02300
H  -1.82300 33.91500 22.44600
H  -1.38400 35.85300 21.45100
H  0.26800 36.35600 21.48800
H  -1.05400 37.13700 22.53800
H  -0.06400 32.02400 23.93400
H  0.58800 32.63500 22.37000
H  -2.00500 31.72600 21.92000
H  -1.03100 30.40200 22.70900
H  -0.56200 31.23800 21.20300
H  -4.67000 29.71700 26.46900
H  -4.23600 30.40400 24.83000
H  -5.82700 30.75500 25.66400
H  -3.83400 31.39000 31.14900
H  -5.89600 32.81500 34.15500
H  -7.28700 31.88800 33.76200
H  -7.07800 33.50300 33.01200
Mg -4.34900 25.87200 26.16100
C  -3.36600 27.33900 28.98600
C  -6.23000 23.74200 28.04100
C  -5.33500 24.18300 23.38300
C  -2.38000 27.94800 24.20700
N  -4.86000 25.61400 28.25000
C  -4.38200 26.41400 29.20800
C  -4.91500 26.07100 30.55500
C  -5.72700 24.74300 30.32500
C  -5.62600 24.69200 28.78100
C  -5.29100 23.46500 31.05800
C  -5.76900 27.24200 31.19400
C  -5.83500 27.20300 32.75300
H  -5.40000 25.98100 33.56300
N  -5.74000 24.32900 25.78400
C  -6.41600 23.57800 26.68400
C  -7.47300 22.79800 26.12100
C  -7.17000 22.82700 24.68300
C  -6.02400 23.78500 24.50700
C  -8.50300 22.00800 26.89400
C  -7.84900 22.06900 23.50700
O  -7.59600 22.23700 22.31900
C  -8.96600 21.09800 23.68200
N  -3.74200 25.95900 24.09000
C  -4.34700 25.15500 23.13500
C  -3.68100 25.36800 21.78000
C  -3.00400 26.80600 21.95800
C  -3.09000 26.94600 23.50500
C  -2.79500 24.15600 21.28700
C  -3.67300 28.06500 21.28500
C  -2.89600 28.66700 20.13600
N  -3.06900 27.28400 26.49400
C  -2.25700 28.05900 25.58600
C  -1.34000 28.82800 26.41900
C  -1.77800 28.71700 27.76400
C  -2.83800 27.73900 27.69500
C  -0.18400 29.70600 25.99000
C  -1.56400 29.11600 29.09100
O  -0.76700 29.94900 29.58900
C  -2.50100 28.20700 29.94400
C  -1.60200 27.41500 30.76300
O  -0.65800 26.76800 30.39700
O  -1.81800 27.73500 32.02600
C  -1.23700 27.04700 33.17300
H  -6.90800 23.15200 28.66100
H  -5.74200 23.65700 22.51700
H  -1.73000 28.64900 23.67900
H  -4.03000 25.73700 31.09700
H  -6.78300 24.72100 30.59700
H  -6.11600 23.00900 31.60600
H  -4.55900 23.83400 31.77600
H  -4.87900 22.68200 30.42200
H  -6.73300 27.04300 30.72400
H  -5.31200 28.18100 30.88100
H  -6.84600 27.55200 32.96200
H  -5.34400 28.12600 33.06300
H  -8.16900 21.67800 27.87800
H  -8.66000 21.10400 26.30600
H  -9.44400 22.55700 26.93600
H  -9.61300 20.93700 22.82000
H  -9.66800 21.46000 24.43300
H  -8.48100 20.14900 23.91500
H  -4.51900 25.50600 21.09700
H  -1.93700 26.71500 21.75500
H  -1.90800 24.60000 20.83600
H  -3.41600 23.60200 20.58400
H  -2.51000 23.55000 22.14600
H  -3.91000 28.88000 21.96900
H  -4.62300 27.85200 20.79300
H  -2.05800 28.00800 19.90600
H  -2.53100 29.68100 20.29700
H  -3.59000 28.62800 19.29700
H  -0.44900 30.76200 25.94800
H  0.21600 29.22100 25.10000
H  0.59300 29.60300 26.74700
H  -3.14900 28.85800 30.53100
H  -0.26200 27.47200 33.40900
H  -1.03900 25.98500 33.03200
H  -1.82900 27.25700 34.06400

