158

Mg -1.62400 16.66700 26.13000
C  -1.83800 14.50200 28.93000
C  -2.20100 19.31400 28.28500
C  -1.20400 18.75100 23.54700
C  -1.84400 13.97100 24.14400
N  -2.16500 16.87700 28.31700
C  -2.09200 15.89500 29.27100
C  -2.28400 16.55900 30.60100
C  -2.77500 17.93400 30.39700
C  -2.40600 18.05500 28.87500
C  -4.28200 18.11900 30.61700
C  -1.10300 16.44200 31.56800
C  -1.48300 15.76300 32.90000
H  -2.13000 16.53700 34.06000
N  -1.51400 18.82400 25.92100
C  -1.83800 19.64100 26.95500
C  -1.64300 20.98100 26.44000
C  -1.26900 20.87600 25.06200
C  -1.33000 19.45100 24.75100
C  -1.81400 22.25400 27.20600
C  -0.82200 21.97000 24.15800
O  -0.40800 21.64400 23.04200
C  -0.86200 23.44500 24.57500
N  -1.91000 16.40700 24.08600
C  -1.54700 17.36200 23.19500
C  -1.57600 16.86100 21.75900
C  -1.65400 15.33000 22.07400
C  -1.70700 15.19100 23.55800
C  -2.82600 17.23000 20.88800
C  -0.35800 14.58500 21.48400
C  0.74400 14.17800 22.35600
N  -1.83100 14.69300 26.39800
C  -1.87500 13.66700 25.45800
C  -1.93800 12.44000 26.09100
C  -1.88600 12.69800 27.44900
C  -1.77400 14.08600 27.55900
C  -2.00900 11.17400 25.45800
C  -1.82500 12.04400 28.78200
O  -1.71500 10.86200 29.15100
C  -1.95000 13.27400 29.80700
C  -0.99400 13.17800 31.00300
O  0.20000 13.42400 30.91300
O  -1.59700 12.49000 31.99800
C  -0.73000 12.14900 33.09000
H  -2.47500 20.23300 28.80700
H  -1.07100 19.43800 22.70800
H  -1.95200 13.04900 23.56900
H  -3.09900 15.94500 30.98500
H  -2.38200 18.75000 31.00400
H  -4.46000 19.17200 30.83500
H  -4.64900 17.36500 31.31400
H  -4.77200 17.92000 29.66400
H  -0.80600 17.45900 31.82500
H  -0.23200 16.00500 31.07900
H  -0.56400 15.32200 33.28700
H  -2.15100 14.91300 32.76100
H  -2.60600 22.78600 26.67900
H  -0.88300 22.81700 27.26700
H  -2.22800 22.04900 28.19300
H  -1.89900 23.65800 24.83400
H  -0.61600 23.91200 23.62200
H  -0.09300 23.40600 25.34700
H  -0.61900 17.12900 21.31100
H  -2.46500 14.84100 21.53500
H  -2.65200 17.02500 19.83100
H  -3.07200 18.28700 20.98700
H  -3.71700 16.75300 21.29500
H  0.01000 15.24600 20.70000
H  -0.78200 13.77800 20.88500
H  0.60000 14.62400 23.34100
H  1.64100 14.68100 21.99600
H  0.81100 13.09800 22.48900
H  -0.98200 10.83200 25.33500
H  -2.46500 11.07300 24.47300
H  -2.50600 10.43000 26.08100
H  -2.94100 13.20000 30.25500
H  0.24800 11.75200 32.81800
H  -1.17000 11.42000 33.77000
H  -0.57900 13.04200 33.69800
Mg 46.63500 34.85600 28.59700
C  44.82600 33.14900 31.00700
C  46.55400 37.57700 30.66800
C  47.60100 36.90800 26.00900
C  45.73900 32.45800 26.31800
N  45.97300 35.20400 30.71700
C  45.22700 34.38100 31.50400
C  44.99400 34.95400 32.85900
C  45.12500 36.45900 32.50300
C  45.95200 36.41000 31.22500
C  43.85600 37.36200 32.33800
C  46.02700 34.38400 33.88800
C  45.42000 34.34600 35.30000
H  45.40900 35.69800 36.01400
N  47.31500 36.89100 28.46200
C  47.19300 37.84100 29.45500
C  47.87800 39.04500 29.00100
C  48.25800 38.79900 27.64500
C  47.78800 37.47400 27.31100
C  48.02800 40.23200 29.93500
C  49.02100 39.65900 26.70000
O  49.29900 39.34500 25.56700
C  49.31200 41.01100 27.05100
N  46.66700 34.75400 26.46800
C  47.15600 35.65100 25.59700
C  47.20400 35.09200 24.18000
C  46.75200 33.63000 24.32600
C  46.39100 33.59500 25.82300
C  46.42100 35.89700 23.00200
C  47.75500 32.54400 23.78900
C  47.16600 31.68400 22.68600
N  45.49400 33.17700 28.58800
C  45.32000 32.22500 27.60900
C  44.55700 31.05200 28.20500
C  44.41700 31.40600 29.53800
C  44.98700 32.65900 29.74400
C  44.06500 29.81300 27.40300
C  43.84300 30.89200 30.76700
O  43.33700 29.83900 31.07600
C  43.96600 32.09900 31.77900
C  44.64100 31.59700 32.99300
O  45.84000 31.33900 33.11500
O  43.63000 31.36500 33.88400
C  44.04000 30.77100 35.16100
H  46.42300 38.37700 31.39900
H  47.99100 37.54700 25.21400
H  45.53200 31.68900 25.57100
H  43.97800 34.65400 33.11600
H  45.63800 36.90300 33.35600
H  43.02500 36.70100 32.58200
H  43.83900 37.67900 31.29500
H  43.91900 38.26800 32.94100
H  46.84400 35.10400 33.94100
H  46.42700 33.41200 33.60000
H  46.02400 33.62700 35.85300
H  44.41400 33.92600 35.31500
H  48.02500 41.17300 29.38500
H  48.88400 40.07100 30.59000
H  47.08500 40.23200 30.48100
H  48.43900 41.55500 27.41100
H  49.72100 41.57800 26.21500
H  50.06100 40.96200 27.84100
H  48.25300 35.09300 23.88100
H  45.84200 33.52200 23.73600
H  45.63200 35.35000 22.48700
H  47.22200 36.05300 22.27800
H  45.89900 36.80900 23.29400
H  48.07100 31.99100 24.67400
H  48.65300 33.05500 23.44500
H  46.15200 31.95300 22.39200
H  47.24100 30.61500 22.88700
H  47.75600 31.72800 21.77100
H  44.78800 29.04300 27.67300
H  43.99900 29.93900 26.32300
H  43.11700 29.44200 27.79300
H  42.96000 32.43800 32.02800
H  43.50000 29.84100 35.34100
H  43.83200 31.37700 36.04300
H  45.08800 30.50700 35.30800

