158

Mg 48.02700 34.90500 26.85500
C  46.48800 33.37300 29.64900
C  48.63400 37.66700 28.74200
C  49.05100 36.24400 24.07400
C  46.92500 31.93900 25.01600
N  47.61800 35.46300 28.99600
C  47.05800 34.65300 29.97500
C  47.11900 35.40900 31.36900
C  47.45700 36.88400 30.92700
C  47.94600 36.64900 29.49200
C  46.24100 37.85500 30.89400
C  48.23600 34.81300 32.19700
C  47.87800 34.66700 33.65300
H  48.95800 34.96900 34.74400
N  48.87800 36.67000 26.43900
C  49.16400 37.66200 27.35200
C  49.93600 38.66100 26.69600
C  49.91400 38.40900 25.26400
C  49.16900 37.10300 25.24700
C  50.35900 39.94600 27.43100
C  50.48300 39.23700 24.18100
O  50.33400 39.02000 22.97000
C  51.37100 40.40500 24.53000
N  48.00000 34.11400 24.90400
C  48.47600 34.96800 23.92600
C  48.44100 34.29500 22.56000
C  47.86000 32.82800 22.89300
C  47.51000 32.96400 24.38700
C  47.72600 35.18300 21.56700
C  48.95500 31.73700 22.65000
C  48.41900 30.32800 22.39700
N  46.92500 32.99500 27.23900
C  46.62100 31.92000 26.33600
C  45.92500 30.83400 27.13900
C  45.77200 31.41100 28.39600
C  46.42300 32.71800 28.38000
C  45.43800 29.51300 26.67700
C  45.29600 31.14400 29.74700
O  44.73900 30.13200 30.19200
C  45.70400 32.47500 30.55700
C  46.31800 32.04900 31.89100
O  47.49200 31.70200 31.97300
O  45.45200 31.96300 32.93500
C  45.97300 31.13400 34.03100
H  48.76900 38.68300 29.11900
H  49.63500 36.63700 23.23900
H  46.58100 31.04000 24.49900
H  46.18900 35.46100 31.93500
H  48.28700 37.34600 31.46300
H  46.32700 38.59800 31.68600
H  45.35100 37.27700 31.14200
H  46.08800 38.41500 29.97200
H  49.07600 35.50600 32.22600
H  48.52500 33.86800 31.73600
H  47.69300 33.59300 33.66700
H  46.96900 35.20900 33.91600
H  50.01400 40.81300 26.86800
H  51.44200 39.85600 27.52500
H  50.01700 40.08500 28.45600
H  50.78500 41.26500 24.85700
H  51.91700 40.69800 23.63300
H  52.12200 40.09400 25.25600
H  49.49700 34.20000 22.30700
H  47.03400 32.68200 22.19700
H  47.22800 35.91400 22.20400
H  46.98000 34.62200 21.00400
H  48.36400 35.77300 20.90800
H  49.59100 31.58100 23.52100
H  49.55300 32.06300 21.79900
H  48.83100 29.58900 23.08400
H  48.56200 30.00200 21.36600
H  47.33200 30.33700 22.48400
H  45.81400 28.77300 27.38400
H  45.93600 29.34100 25.72200
H  44.38200 29.60400 26.42600
H  44.77500 33.00400 30.77100
H  45.40100 31.51500 34.87700
H  47.03100 31.35800 34.16700
H  45.76400 30.06600 33.96200
Mg 26.24800 50.37700 26.30700
C  24.00800 51.38600 28.87000
C  28.49200 49.36100 28.79700
C  28.29800 49.60500 23.80900
C  23.95100 51.60000 23.99600
N  26.26600 50.60400 28.57400
C  25.16900 50.83200 29.38000
C  25.43500 50.48600 30.84900
C  26.89400 49.89900 30.82600
C  27.29300 49.93900 29.28100
C  27.97100 50.73200 31.63400
C  24.28500 49.54000 31.37500
C  23.41900 49.78700 32.60600
H  23.75300 48.96500 33.98100
N  28.07100 49.61800 26.36500
C  28.88000 49.26900 27.45200
C  30.21700 48.66400 26.93800
C  30.13700 48.88200 25.52700
C  28.81800 49.44400 25.18200
C  31.25200 47.92600 27.83000
C  31.23100 48.45300 24.49400
O  31.11300 48.61900 23.27000
C  32.57600 47.88000 24.91900
N  26.15800 50.62800 24.18600
C  27.17500 50.23900 23.35400
C  26.80200 50.41400 21.86100
C  25.30900 50.85100 21.94700
C  25.09500 51.06300 23.47700
C  27.65700 51.48700 21.11500
C  24.36900 49.89100 21.14600
C  23.87100 48.55000 21.71000
N  24.33800 51.34400 26.31800
C  23.56700 51.73900 25.32900
C  22.33000 52.32500 25.83600
C  22.48000 52.20000 27.21000
C  23.67600 51.56600 27.46600
C  21.24600 52.83300 25.02600
C  21.86900 52.56100 28.45600
O  20.85100 53.18400 28.64200
C  22.80800 52.04700 29.62500
C  23.25200 53.23600 30.43300
O  24.02800 54.17600 30.13400
O  22.52500 53.18100 31.61400
C  22.86400 54.19500 32.67200
H  29.13500 48.97900 29.59200
H  29.00400 49.39600 23.00300
H  23.23000 51.94600 23.25200
H  25.32900 51.42300 31.39600
H  26.90300 48.94300 31.34900
H  27.79100 51.78200 31.86500
H  28.81000 50.71100 30.93900
H  28.31400 50.08100 32.43800
H  24.73700 48.56100 31.53500
H  23.58100 49.39900 30.55500
H  22.37300 49.66000 32.32800
H  23.47700 50.84300 32.87000
H  32.12100 48.58300 27.85000
H  31.43800 46.98300 27.31700
H  31.00000 47.70400 28.86700
H  33.22700 47.71000 24.06200
H  32.37400 46.86500 25.26300
H  32.94600 48.53000 25.71200
H  26.98300 49.43700 21.41200
H  25.26300 51.86100 21.53900
H  27.07900 52.39300 20.93400
H  27.92000 51.12200 20.12200
H  28.53400 51.81200 21.67500
H  24.81600 49.79000 20.15700
H  23.43100 50.39400 20.91500
H  24.04300 47.75500 20.98400
H  22.79000 48.63600 21.81800
H  24.32400 48.31500 22.67300
H  21.65900 53.25800 24.11100
H  20.77800 53.60300 25.63900
H  20.38600 52.18800 24.84900
H  22.18900 51.34500 30.18300
H  22.93800 55.19300 32.24100
H  23.84200 54.06600 33.13500
H  22.05000 54.31400 33.38700

