158

Mg 48.16800 15.82800 29.02700
C  46.09900 15.79700 31.67800
C  50.55400 17.65700 30.69700
C  50.08300 15.71500 26.20800
C  45.58200 14.16000 27.11600
N  48.27900 16.55000 30.99000
C  47.28600 16.39900 31.95200
C  47.89500 16.82800 33.32200
C  49.09700 17.69200 32.90700
C  49.37300 17.31600 31.39900
C  48.95700 19.24100 33.11100
C  48.27800 15.54500 34.20700
C  48.04500 15.69000 35.74800
H  47.74600 17.10600 36.29500
N  50.12600 16.47500 28.56700
C  50.92100 17.19700 29.46500
C  52.16800 17.47500 28.72800
C  52.09700 16.76700 27.46700
C  50.73600 16.37400 27.35200
C  53.41100 18.04000 29.45000
C  53.10500 16.46400 26.46400
O  52.84500 15.84400 25.43500
C  54.58000 16.79600 26.83300
N  47.88600 15.10700 27.00800
C  48.76000 15.26800 26.05100
C  48.16100 14.95900 24.62100
C  46.92800 14.24000 24.94900
C  46.75900 14.47900 26.46400
C  48.12900 16.21400 23.70600
C  46.95700 12.73800 24.53600
C  46.16900 12.19400 23.42500
N  46.26700 15.10900 29.28400
C  45.37800 14.43000 28.48500
C  44.19400 14.01000 29.16000
C  44.39800 14.51300 30.44200
C  45.68000 15.20000 30.46400
C  43.11900 13.09400 28.62100
C  43.85700 14.54300 31.77900
O  42.79600 14.15600 32.20800
C  45.02700 15.31600 32.69400
C  44.40900 16.44800 33.47900
O  44.05100 17.51100 33.09700
O  44.11800 15.93200 34.74000
C  43.16200 16.65500 35.59000
H  51.35800 18.13600 31.26000
H  50.57800 15.83800 25.24200
H  44.73000 13.80300 26.53300
H  47.15900 17.35600 33.92700
H  50.07200 17.48000 33.34600
H  47.99500 19.55300 33.51800
H  48.91400 19.68100 32.11500
H  49.73300 19.69700 33.72700
H  49.34600 15.59100 33.99600
H  47.85900 14.61100 33.83200
H  48.88400 15.38600 36.37300
H  47.25100 15.04000 36.11500
H  53.06000 18.85800 30.07900
H  54.04600 18.61900 28.78000
H  53.85200 17.20400 29.99300
H  55.02300 16.32900 27.71300
H  54.58800 17.87900 26.94900
H  55.13500 16.56900 25.92300
H  48.77500 14.23700 24.08300
H  46.08600 14.64900 24.38900
H  48.53200 17.04900 24.28000
H  47.11300 16.49400 23.42800
H  48.73800 15.99300 22.82900
H  46.52100 12.17400 25.36100
H  47.96700 12.34100 24.43200
H  46.57800 11.23100 23.12000
H  46.22500 12.94000 22.63200
H  45.11900 12.14300 23.71100
H  43.25000 12.70200 27.61200
H  42.17700 13.62400 28.48300
H  43.02700 12.21300 29.25600
H  45.42300 14.56700 33.38000
H  43.72500 17.41600 36.13000
H  42.73700 16.12500 36.44300
H  42.38600 17.06400 34.94300
Mg -5.55500 26.01600 25.77700
C  -4.48700 27.45300 28.75200
C  -7.57200 23.76200 27.54100
C  -6.26100 24.56400 22.88500
C  -3.14300 28.01600 24.02600
N  -5.73900 25.55200 27.86500
C  -5.40300 26.39700 28.87400
C  -6.06100 25.97400 30.18100
C  -6.71500 24.57500 29.79500
C  -6.73900 24.65300 28.27800
C  -5.86500 23.36400 30.28000
C  -6.99400 26.97800 30.86200
C  -7.03900 27.20400 32.36100
H  -6.45000 26.10000 33.20100
N  -6.74900 24.36100 25.25500
C  -7.55000 23.61300 26.10500
C  -8.28200 22.65400 25.29200
C  -7.92800 22.80000 23.92600
C  -6.95400 23.95000 23.95000
C  -9.12100 21.63000 25.93400
C  -8.29700 21.96700 22.73400
O  -7.83600 22.14600 21.62000
C  -9.36900 20.83300 22.95500
N  -4.72600 26.15600 23.75900
C  -5.19100 25.45800 22.73100
C  -4.55000 25.79900 21.41200
C  -3.60300 26.93200 21.79100
C  -3.80200 27.05100 23.28700
C  -3.78800 24.67200 20.69900
C  -3.99400 28.19800 20.92200
C  -2.86100 29.23100 20.67100
N  -4.20600 27.49400 26.22100
C  -3.35300 28.22100 25.45000
C  -2.70400 29.20500 26.23100
C  -3.09800 28.95200 27.58400
C  -4.00400 27.89400 27.51000
C  -1.74000 30.14900 25.75900
C  -2.95300 29.31900 28.99800
O  -2.24600 30.18900 29.52500
C  -3.80500 28.33000 29.75900
C  -2.83800 27.65900 30.61000
O  -2.02600 26.86200 30.23700
O  -3.05800 27.88200 31.97400
C  -2.29800 27.17000 32.96300
H  -8.13200 23.10000 28.20400
H  -6.59400 24.21000 21.90800
H  -2.41100 28.67400 23.55300
H  -5.28000 25.82900 30.92800
H  -7.77200 24.43600 30.02300
H  -5.04200 23.61200 30.95100
H  -5.38300 22.84700 29.45100
H  -6.50000 22.65100 30.80500
H  -8.00100 26.60300 30.67800
H  -6.88800 27.96000 30.40100
H  -8.10800 27.32600 32.53800
H  -6.52400 28.12200 32.64300
H  -10.13500 21.67900 25.53700
H  -9.09400 21.56800 27.02200
H  -8.72700 20.64000 25.70300
H  -9.10300 20.09700 23.71300
H  -9.59200 20.35200 22.00300
H  -10.27200 21.38100 23.22600
H  -5.37300 26.10400 20.76600
H  -2.57500 26.66400 21.54600
H  -2.91800 25.08600 20.18900
H  -4.37400 24.33900 19.84300
H  -3.58100 23.74300 21.23100
H  -4.85900 28.68900 21.36700
H  -4.10700 27.80400 19.91200
H  -2.47700 29.23600 19.65100
H  -1.97500 29.10900 21.29400
H  -3.29400 30.17700 20.99500
H  -0.79800 29.76200 25.37100
H  -1.40900 30.94700 26.42400
H  -2.21000 30.74500 24.97800
H  -4.49400 28.89200 30.38900
H  -1.26600 27.02100 32.64600
H  -2.74600 26.22700 33.27400
H  -2.36700 27.77300 33.86900

