158

Mg 24.83200 -5.20200 45.28900
C  26.22000 -2.22600 44.02800
C  21.93700 -4.35500 43.74100
C  23.86500 -8.37100 45.78500
C  28.07700 -6.02100 46.48700
N  24.18700 -3.51900 43.93300
C  24.89600 -2.38500 43.57600
C  24.10300 -1.47900 42.62600
C  22.61800 -1.98400 43.01600
C  22.89900 -3.40000 43.53400
C  21.86900 -1.12600 44.07100
C  24.59100 -1.67400 41.11600
C  25.06800 -0.39800 40.43600
H  26.15100 -0.51200 39.43500
N  23.12900 -6.17100 44.99600
C  22.03700 -5.61700 44.40000
C  20.97400 -6.61600 44.46200
C  21.44800 -7.76200 45.18100
C  22.85400 -7.50200 45.35800
C  19.51800 -6.46300 43.86800
C  20.58800 -8.99100 45.50500
O  19.35800 -9.07100 45.35500
C  21.24000 -10.24500 46.09200
N  25.79900 -6.96300 46.10000
C  25.16600 -8.15300 46.22000
C  26.13400 -9.21100 46.88700
C  27.35000 -8.32300 47.38300
C  27.08800 -7.02600 46.60400
C  25.58600 -10.15300 47.98900
C  28.76200 -8.94900 47.05300
C  29.65400 -9.12000 48.25900
N  26.84500 -4.35900 45.29900
C  27.99700 -4.73000 45.90500
C  29.01500 -3.65600 45.73700
C  28.30600 -2.69600 45.01100
C  27.03800 -3.15500 44.73200
C  30.42200 -3.54000 46.31500
C  28.54700 -1.40900 44.42000
O  29.53200 -0.70900 44.42400
C  27.17100 -1.08900 43.71600
C  26.68600 0.21900 44.26700
O  26.34500 0.52200 45.41100
O  26.67200 1.17900 43.25200
C  26.34700 2.57600 43.60800
H  20.95600 -4.02400 43.39300
H  23.56800 -9.41900 45.86700
H  28.95400 -6.44800 46.97900
H  24.33400 -0.49000 43.02100
H  22.06800 -2.17100 42.09300
H  22.12000 -0.07500 43.92400
H  22.06900 -1.47900 45.08200
H  20.79800 -1.30500 43.97700
H  23.64300 -1.95000 40.65400
H  25.36900 -2.43700 41.08100
H  25.45300 0.16500 41.28600
H  24.29300 0.08600 39.84200
H  18.82000 -6.27400 44.68300
H  19.06400 -7.39100 43.51800
H  19.42800 -5.65500 43.14200
H  20.51900 -11.06100 46.12900
H  21.65200 -9.96900 47.06300
H  21.98400 -10.61200 45.38500
H  26.59300 -9.86900 46.14900
H  27.15500 -8.07300 48.42600
H  25.72100 -11.19100 47.68500
H  24.52300 -9.92000 48.04900
H  25.99100 -10.08700 48.99900
H  29.32100 -8.32700 46.35300
H  28.71700 -9.97200 46.68100
H  29.83900 -10.19400 48.29600
H  29.04500 -8.82300 49.11200
H  30.56400 -8.55500 48.05500
H  30.76700 -4.52600 46.62700
H  30.27100 -3.06200 47.28300
H  31.16600 -3.03900 45.69500
H  27.24700 -1.18000 42.63200
H  27.25400 2.84800 44.14800
H  25.50500 2.73000 44.28400
H  26.18100 3.08100 42.65700
Mg 40.29600 9.82100 29.39100
C  42.19800 11.06600 32.07200
C  37.86100 8.90100 31.72200
C  38.32900 8.78700 26.81100
C  42.89800 10.36000 27.23400
N  39.99100 10.07700 31.67000
C  40.89800 10.76600 32.49600
C  40.32500 10.79500 33.97200
C  38.94600 9.99000 33.78700
C  38.88100 9.67400 32.28600
C  38.68900 8.81900 34.81800
C  40.26200 12.17900 34.66500
C  40.94800 12.33900 36.04100
H  40.04600 12.89900 37.11100
N  38.38800 9.04400 29.28700
C  37.53800 8.63800 30.33100
C  36.33100 8.06800 29.82400
C  36.33100 8.26700 28.38300
C  37.69200 8.83500 28.09900
C  35.18100 7.61800 30.67400
C  35.29200 8.04600 27.23700
O  35.38600 8.55200 26.14900
C  33.95400 7.45800 27.71900
N  40.63000 9.47400 27.34400
C  39.67500 8.96000 26.46000
C  40.26700 8.61400 25.11400
C  41.67100 9.27700 25.20100
C  41.83200 9.68300 26.66800
C  40.11000 7.03700 24.90300
C  41.85600 10.49500 24.19600
C  41.51900 11.89700 24.66200
N  42.23200 10.55500 29.60600
C  43.16600 10.70600 28.62900
C  44.37900 11.19900 29.20500
C  44.01500 11.50400 30.56400
C  42.70300 10.92800 30.79600
C  45.61000 11.46300 28.41100
C  44.48100 12.00600 31.81900
O  45.56400 12.54100 32.15100
C  43.31700 11.77200 32.79100
C  43.83600 10.76700 33.72700
O  44.29200 9.66000 33.42000
O  44.00200 11.29300 34.97900
C  44.68900 10.56200 36.02600
H  37.15900 8.49100 32.45000
H  37.74300 8.40800 25.97100
H  43.74000 10.43200 26.54300
H  41.00800 10.13400 34.50500
H  38.09300 10.64000 33.98200
H  38.98500 7.87400 34.36200
H  37.67000 8.84500 35.20400
H  39.34600 8.95000 35.67800
H  39.20100 12.40300 34.77100
H  40.65000 12.95600 34.00500
H  41.77500 13.03000 35.87600
H  41.29900 11.34300 36.31000
H  34.78800 6.66200 30.32900
H  34.40400 8.36100 30.49300
H  35.59200 7.59600 31.68300
H  33.53000 8.18000 28.41700
H  34.30200 6.52200 28.15400
H  33.34000 7.34400 26.82600
H  39.57200 9.11700 24.44100
H  42.36400 8.50500 24.86800
H  41.02100 6.84400 24.33500
H  39.25800 6.76900 24.27900
H  40.10500 6.52900 25.86700
H  41.10300 10.31000 23.42900
H  42.91600 10.41700 23.95700
H  40.85400 11.90600 25.52500
H  41.02700 12.40800 23.83400
H  42.38000 12.54600 24.82400
H  46.38900 11.34600 29.16400
H  45.68100 12.49400 28.06400
H  45.80000 10.79500 27.57100
H  42.92800 12.60200 33.38200
H  45.74600 10.36700 35.84400
H  44.14100 9.62100 36.08400
H  44.58600 11.09300 36.97200

