158

Mg 47.04600 34.21600 28.24800
C  45.55100 32.47600 30.97700
C  47.32800 36.98800 30.40600
C  47.94400 36.02600 25.57200
C  46.02800 31.69500 26.25700
N  46.59800 34.62600 30.47700
C  46.02300 33.74600 31.32100
C  46.07900 34.40800 32.75300
C  46.19400 35.90700 32.39400
C  46.76400 35.83800 30.97800
C  44.90000 36.77200 32.51100
C  47.22500 33.94600 33.75100
C  46.79500 33.61100 35.25200
H  46.96800 34.73600 36.24400
N  47.70300 36.19300 28.07200
C  47.70000 37.19500 29.06600
C  48.11500 38.40900 28.38000
C  48.29000 38.13900 26.97900
C  48.05600 36.72100 26.83400
C  48.13500 39.83100 29.03700
C  48.58700 39.06300 25.85100
O  48.63900 38.67200 24.68900
C  48.93300 40.52500 26.20900
N  46.98000 33.87600 26.20100
C  47.37300 34.78000 25.33600
C  47.27100 34.23700 23.84500
C  46.78400 32.82500 24.03000
C  46.63800 32.76200 25.58100
C  46.43200 35.08800 22.82100
C  47.66200 31.76600 23.45400
C  46.93700 30.53000 23.13200
N  45.94600 32.46900 28.50200
C  45.77400 31.42300 27.58000
C  45.03800 30.35100 28.19900
C  44.95000 30.76300 29.52600
C  45.56400 32.01500 29.65200
C  44.43700 29.15800 27.44200
C  44.46300 30.33200 30.82200
O  43.75100 29.39700 31.13100
C  44.99000 31.37000 31.83100
C  45.67500 30.84600 32.97400
O  46.87900 30.55600 32.92400
O  44.79000 30.67900 33.95200
C  45.39800 30.12200 35.19300
H  47.29200 37.90800 30.99400
H  48.24400 36.46400 24.61700
H  45.71800 30.84600 25.64400
H  45.15300 34.19300 33.28600
H  46.94400 36.43700 32.98100
H  45.08900 37.50000 33.30100
H  44.10500 36.15000 32.92100
H  44.66100 37.11800 31.50500
H  48.00100 34.70500 33.84700
H  47.68800 33.07300 33.29100
H  47.23900 32.69700 35.64600
H  45.75200 33.29500 35.22900
H  47.34300 40.47300 28.65000
H  49.09100 40.32900 28.87800
H  47.97700 39.80800 30.11500
H  49.10500 41.13100 25.32000
H  49.81700 40.50500 26.84700
H  48.11300 41.09200 26.65100
H  48.29800 34.15600 23.48900
H  45.76900 32.79400 23.63400
H  45.71100 34.51500 22.23700
H  47.10000 35.67300 22.18900
H  45.92300 35.93000 23.29200
H  48.42800 31.50600 24.18400
H  48.19400 32.04600 22.54500
H  46.96800 30.42600 22.04700
H  45.88500 30.55400 23.41600
H  47.47200 29.66700 23.52700
H  43.51800 29.59100 27.04700
H  44.19400 28.32600 28.10300
H  45.08900 28.72100 26.68600
H  44.04000 31.79300 32.15900
H  45.47500 30.94000 35.91000
H  46.41200 29.72600 35.14600
H  44.61200 29.43000 35.49600
Mg 6.67100 54.97500 40.56300
C  5.88700 51.52700 40.39000
C  9.96600 54.19000 40.07800
C  7.33900 58.29800 40.40000
C  3.26100 55.69800 40.67500
N  7.76600 53.02300 40.07200
C  7.22700 51.73200 40.11700
C  8.41800 50.63300 40.11700
C  9.67900 51.58300 40.33100
C  9.14900 52.99400 40.16400
C  10.50800 51.35800 41.56400
C  8.44400 49.75300 38.79700
C  8.32200 50.47700 37.43700
H  7.02100 50.81000 36.82900
N  8.42600 56.08200 40.30100
C  9.66400 55.54700 40.10200
C  10.63100 56.57700 39.86700
C  9.92800 57.76900 40.05700
C  8.48100 57.41800 40.29800
C  12.06400 56.44100 39.55100
C  10.51600 59.15800 40.02000
O  11.73400 59.29900 39.85500
C  9.77800 60.37000 40.50100
N  5.51400 56.72200 40.31900
C  6.01700 58.00500 40.45500
C  4.95100 59.09600 40.54000
C  3.65200 58.18200 40.47900
C  4.12800 56.76400 40.49000
C  5.07000 60.07400 41.72000
C  2.65500 58.59400 39.39500
C  1.94700 59.93600 39.52000
N  4.88200 53.92100 40.58500
C  3.56500 54.36300 40.68900
C  2.74300 53.27200 40.95500
C  3.55200 52.14700 40.82900
C  4.88700 52.57000 40.57100
C  1.26800 53.26900 41.28000
C  3.58300 50.72900 40.89900
O  2.72400 49.89700 41.23300
C  5.13700 50.29700 40.69900
C  5.06600 49.27600 39.60200
O  4.74300 49.45700 38.44300
O  5.27300 48.03000 40.18500
C  5.11600 46.90300 39.18800
H  10.99300 53.85400 39.92100
H  7.54700 59.36700 40.31500
H  2.19800 55.89700 40.82400
H  8.21700 50.01400 40.99100
H  10.29600 51.38600 39.45400
H  10.36500 52.23900 42.19100
H  11.53400 51.22800 41.22000
H  10.12900 50.60300 42.25300
H  7.70100 48.95800 38.87600
H  9.40800 49.25600 38.68700
H  8.93400 49.88500 36.75600
H  8.77600 51.44900 37.63100
H  12.37300 55.43300 39.27400
H  12.58800 56.76100 40.45100
H  12.31300 57.13400 38.74700
H  9.19600 60.87100 39.72800
H  10.59600 61.05500 40.72500
H  9.26900 60.27500 41.46000
H  4.93500 59.67900 39.61900
H  3.12400 58.32800 41.42200
H  5.96100 60.01600 42.34500
H  4.21100 59.80900 42.33700
H  4.89500 61.04600 41.25900
H  1.88400 57.82300 39.40200
H  3.19200 58.49600 38.45200
H  2.25100 60.53300 38.66000
H  2.35100 60.34600 40.44500
H  0.89700 59.85100 39.80100
H  0.88800 52.25500 41.40700
H  0.67800 53.75700 40.50400
H  1.08600 53.78200 42.22400
H  5.53300 49.82200 41.59600
H  5.70500 47.07000 38.28600
H  4.06600 46.79500 38.91600
H  5.45700 45.99400 39.68300

