158

Mg 36.03000 50.12900 25.85700
C  36.07000 48.23800 28.69900
C  34.56700 52.64300 27.71500
C  35.52700 51.91400 23.04200
C  36.93500 47.39800 23.91700
N  35.51900 50.49400 27.97400
C  35.65000 49.48700 28.90900
C  35.33400 50.11000 30.32800
C  34.58800 51.35700 29.97800
C  34.87000 51.53100 28.44100
C  32.97600 51.37200 30.29000
C  36.56000 50.33000 31.20400
C  36.35800 49.59800 32.53400
H  34.98800 49.67900 33.16600
N  35.30100 52.06600 25.44800
C  34.80900 52.94500 26.38500
C  34.38900 54.12900 25.71500
C  34.69500 54.02700 24.34500
C  35.22800 52.62300 24.19000
C  33.81000 55.25900 26.38500
C  34.41800 55.00400 23.13500
O  34.70900 54.72000 21.92900
C  33.82400 56.42400 23.30800
N  36.36200 49.81100 23.75100
C  36.07900 50.68800 22.78200
C  36.42800 50.11800 21.39300
C  36.93600 48.71400 21.71400
C  36.66700 48.56400 23.21700
C  35.27800 50.25000 20.32700
C  38.31800 48.41200 21.17500
C  39.50900 48.92300 22.02900
N  36.40800 48.17200 26.17600
C  36.80000 47.16700 25.29600
C  37.15200 45.98300 26.07900
C  36.86400 46.35300 27.42200
C  36.44100 47.69700 27.39600
C  37.48700 44.66500 25.50200
C  36.86100 45.82900 28.73900
O  37.24100 44.74000 29.15300
C  36.21100 47.03600 29.63800
C  34.89900 46.48300 30.11800
O  33.91500 46.29100 29.47800
O  35.01400 46.11000 31.38200
C  33.86200 45.56600 32.05400
H  34.07500 53.31800 28.41900
H  35.38700 52.43700 22.09300
H  37.41600 46.57700 23.38100
H  34.62400 49.45700 30.83500
H  34.96800 52.22600 30.51600
H  32.72500 50.37500 30.65300
H  32.41800 51.65800 29.39800
H  32.77600 51.83200 31.25700
H  36.69500 51.40500 31.31900
H  37.44200 49.84400 30.78600
H  37.12100 50.00500 33.19800
H  36.70900 48.57800 32.37400
H  33.51000 55.15900 27.42800
H  32.91300 55.45100 25.79700
H  34.53700 56.06400 26.27200
H  34.28900 57.09500 24.03000
H  32.77200 56.40200 23.59200
H  33.72200 56.92500 22.34500
H  37.27300 50.68800 21.00500
H  36.24300 47.97300 21.31500
H  34.51700 50.92200 20.72500
H  34.91700 49.26800 20.02100
H  35.60400 50.76000 19.42000
H  38.43200 48.88000 20.19700
H  38.35500 47.33100 21.04500
H  39.95700 48.06500 22.53100
H  39.15100 49.64900 22.75900
H  40.31300 49.33100 21.41600
H  37.96800 44.01600 26.23400
H  38.21300 44.86700 24.71400
H  36.63700 44.14300 25.06200
H  36.80000 47.35100 30.49900
H  33.04200 46.27100 31.92000
H  34.04100 45.32100 33.10100
H  33.42800 44.66600 31.61800
Mg 8.67100 46.90100 25.53600
C  6.75300 46.69900 28.42500
C  11.26300 48.06100 27.42200
C  10.42200 47.29000 22.73700
C  5.72000 46.42600 23.70000
N  8.97900 47.32200 27.76000
C  8.05400 47.21800 28.78100
C  8.64400 47.84700 30.08700
C  9.95900 48.52700 29.58800
C  10.09500 47.92400 28.20600
C  10.10100 50.12000 29.69500
C  8.91600 46.86700 31.27600
C  8.20400 47.25100 32.60400
H  8.19200 46.06600 33.64400
N  10.60900 47.47000 25.15100
C  11.55900 47.73300 26.11400
C  12.87500 47.73800 25.46200
C  12.70500 47.50500 24.04400
C  11.20500 47.43000 23.92000
C  14.17600 48.10600 26.16400
C  13.66000 47.40200 22.87300
O  13.23000 47.39800 21.69700
C  15.12100 47.14500 23.17300
N  8.17100 46.71300 23.52700
C  9.03500 47.07700 22.53800
C  8.41700 47.28300 21.15300
C  6.95400 46.88300 21.51800
C  6.92300 46.66000 22.97400
C  8.54800 48.69000 20.52000
C  6.57500 45.51900 20.77600
C  5.13400 45.44500 20.23300
N  6.65400 46.59500 25.88500
C  5.60200 46.29800 25.09700
C  4.40700 46.05500 25.82100
C  4.83800 46.21100 27.13800
C  6.17600 46.49600 27.14800
C  3.02600 45.91300 25.24200
C  4.41400 46.21500 28.51800
O  3.31800 46.07200 29.00000
C  5.67900 46.60300 29.39000
C  5.81900 45.56500 30.40400
O  6.23900 44.45000 30.21400
O  5.25100 45.95100 31.57200
C  4.86300 44.98100 32.56700
H  12.09200 48.40300 28.04500
H  10.98200 47.35700 21.80200
H  4.81000 46.27500 23.11500
H  7.97300 48.60000 30.49900
H  10.76400 48.06800 30.16200
H  9.14000 50.63400 29.69300
H  10.70200 50.47200 28.85600
H  10.64800 50.36900 30.60500
H  9.96400 46.71900 31.53400
H  8.44900 45.93400 30.95900
H  7.18100 47.60600 32.48000
H  8.73900 48.03800 33.13500
H  14.76500 48.75100 25.51300
H  14.73500 47.21900 26.46200
H  14.02500 48.73200 27.04400
H  15.42600 48.18800 23.25900
H  15.72500 46.71700 22.37300
H  15.30800 46.67300 24.13800
H  8.92300 46.60100 20.46800
H  6.22900 47.62500 21.18400
H  7.60000 49.18800 20.72100
H  8.70800 48.72000 19.44200
H  9.31200 49.38400 20.87100
H  6.63600 44.62300 21.39400
H  7.19700 45.46700 19.88200
H  4.60300 46.29500 20.66000
H  4.73200 44.47700 20.53300
H  5.05700 45.48700 19.14600
H  3.03500 45.46400 24.24900
H  2.54600 46.88900 25.32600
H  2.52700 45.13900 25.82500
H  5.53500 47.52900 29.94700
H  3.77500 45.04500 32.55200
H  5.24900 45.26400 33.54600
H  5.25100 43.96900 32.44800

