158

Mg -0.24600 7.01000 25.05500
C  0.71800 8.97900 27.89200
C  0.06300 4.23700 27.09000
C  -1.23400 5.12300 22.45500
C  0.34600 9.69400 23.03500
N  0.42000 6.68300 27.25800
C  0.63100 7.65300 28.25600
C  0.74300 7.06200 29.68100
C  0.55100 5.56300 29.31400
C  0.30600 5.47900 27.78300
C  1.69300 4.56400 29.80000
C  -0.34000 7.66300 30.61800
C  0.06600 7.92400 32.07100
H  1.11800 6.97800 32.72000
N  -0.52400 4.92700 24.79200
C  -0.29900 3.96000 25.72700
C  -0.66900 2.62300 25.16200
C  -1.03700 2.90400 23.79100
C  -0.96200 4.34600 23.62500
C  -0.47600 1.32400 25.98100
C  -1.42300 1.93400 22.68700
O  -1.79700 2.24500 21.57500
C  -1.29200 0.45600 23.09000
N  -0.49600 7.38500 23.12700
C  -0.99200 6.46500 22.23900
C  -1.20400 7.11300 20.79900
C  -0.96300 8.56100 21.20100
C  -0.22600 8.51800 22.51500
C  -0.14600 6.50900 19.84200
C  -2.31200 9.37200 21.32700
C  -2.44000 10.73100 20.57300
N  0.31700 8.97100 25.33000
C  0.56400 9.96100 24.41300
C  0.92200 11.20400 25.10000
C  0.90600 10.90100 26.52800
C  0.61700 9.50700 26.59800
C  1.13800 12.52700 24.48400
C  1.08500 11.49200 27.85600
O  1.41700 12.63100 28.16400
C  0.84100 10.26800 28.80600
C  2.02400 10.27600 29.69100
O  3.11700 9.84500 29.33000
O  1.72200 10.63100 30.96200
C  2.88400 10.87400 31.74900
H  0.06000 3.43100 27.82600
H  -1.67100 4.60700 21.59700
H  0.54200 10.52000 22.34900
H  1.78000 7.20800 29.98400
H  -0.28900 5.12300 29.85000
H  2.34000 5.02100 30.54900
H  2.30900 4.21300 28.97300
H  1.13800 3.70300 30.17200
H  -1.19600 6.98800 30.64100
H  -0.61800 8.60600 30.14800
H  -0.83900 7.92000 32.67900
H  0.48200 8.93200 32.06500
H  0.21000 0.60600 25.53100
H  -1.37600 0.71100 25.93600
H  -0.10100 1.46200 26.99500
H  -2.00300 0.24100 23.88700
H  -0.26700 0.34000 23.44400
H  -1.51400 -0.14900 22.21100
H  -2.16700 6.83600 20.37200
H  -0.26000 9.03100 20.51300
H  0.78800 7.07100 19.84900
H  -0.55600 6.43700 18.83500
H  0.23500 5.52700 20.12100
H  -2.56800 9.36700 22.38700
H  -3.04700 8.72700 20.84700
H  -1.47000 11.18100 20.36000
H  -3.14200 11.33400 21.14900
H  -2.78100 10.46500 19.57200
H  1.77700 13.14700 25.11300
H  0.19400 13.07100 24.48000
H  1.64700 12.48800 23.52100
H  -0.04200 10.48300 29.40700
H  2.57200 11.15100 32.75500
H  3.56200 11.59700 31.29500
H  3.39100 9.91900 31.88300
Mg 25.14800 1.44600 30.40800
C  27.27900 1.57500 33.42400
C  22.46800 1.55900 32.50600
C  23.27500 1.53500 27.70400
C  28.07000 1.18300 28.57700
N  24.97900 1.68800 32.73000
C  25.93500 1.75400 33.70100
C  25.27100 1.99900 35.03600
C  23.69100 1.92400 34.75100
C  23.69500 1.73100 33.24600
C  22.81900 1.00500 35.52900
C  25.82500 3.35300 35.72900
C  26.37100 3.12800 37.20000
H  25.90500 4.05900 38.30100
N  23.08900 1.57000 30.07100
C  22.12500 1.55900 31.09600
C  20.86900 1.72100 30.47900
C  21.05200 1.74700 29.06400
C  22.52800 1.65200 28.88100
C  19.54200 1.89500 31.16100
C  20.09000 1.81200 27.87800
O  20.48000 1.83300 26.70000
C  18.61100 1.72700 28.22200
N  25.63200 1.25100 28.48900
C  24.63600 1.49700 27.51700
C  25.25200 1.72100 26.10900
C  26.79400 1.43800 26.34700
C  26.88400 1.28400 27.87600
C  24.51600 0.84200 24.94100
C  27.73500 2.53400 25.71500
C  28.90200 1.95900 24.88700
N  27.29200 1.26900 30.84600
C  28.36700 1.15200 29.97300
C  29.53400 1.13000 30.73200
C  29.14900 1.28600 32.09300
C  27.77600 1.36200 32.09600
C  30.91600 1.08700 30.20200
C  29.72600 1.47800 33.46400
O  30.85700 1.61400 33.84700
C  28.47700 1.65300 34.40400
C  28.43000 0.53200 35.37000
O  27.98400 -0.56600 35.12200
O  28.93900 0.93100 36.54800
C  28.90700 0.17100 37.78700
H  21.66900 1.77500 33.21800
H  22.79400 1.47800 26.72500
H  28.93200 1.15000 27.90700
H  25.50700 1.10400 35.61200
H  23.26900 2.86300 35.10900
H  22.19300 0.35700 34.91600
H  22.14100 1.61400 36.12700
H  23.43700 0.38600 36.18100
H  25.04900 4.11800 35.69700
H  26.70500 3.82900 35.29800
H  27.39600 3.48100 37.08700
H  26.27900 2.05500 37.36800
H  19.04000 2.82900 30.90500
H  19.67100 2.08600 32.22600
H  18.83100 1.07200 31.08200
H  18.45700 0.81700 28.80200
H  17.96000 1.79200 27.35000
H  18.35200 2.58600 28.84000
H  25.09200 2.76300 25.83400
H  27.01500 0.46900 25.89900
H  23.88900 0.06300 25.37600
H  25.28600 0.32200 24.37100
H  23.94400 1.44600 24.23700
H  28.21400 3.15500 26.47200
H  27.11200 3.21500 25.13500
H  28.98500 0.87300 24.90200
H  29.85800 2.38200 25.19600
H  28.79800 2.20100 23.83000
H  31.48800 1.55700 31.00200
H  31.09500 1.59000 29.25100
H  31.13200 0.02200 30.12000
H  28.53800 2.62700 34.88900
H  28.05200 0.47300 38.39100
H  29.78500 0.21400 38.43100
H  28.90000 -0.88200 37.50500

