158

Mg 23.90100 -6.24700 45.64400
C  26.51300 -4.01500 44.52900
C  21.82300 -4.53000 43.63700
C  21.74200 -8.81100 46.01000
C  26.40300 -8.09800 47.35900
N  24.20600 -4.52000 44.29400
C  25.24200 -3.69800 44.06900
C  24.78300 -2.40500 43.30300
C  23.21200 -2.50300 43.30900
C  23.09900 -3.93300 43.76400
C  22.52800 -1.55200 44.28300
C  25.38500 -2.31800 41.89000
C  25.45600 -1.02600 41.11800
H  24.76400 -0.91200 39.75400
N  22.09400 -6.52900 44.93300
C  21.31900 -5.68900 44.15600
C  20.03300 -6.25500 43.90500
C  19.94400 -7.49800 44.52800
C  21.34300 -7.68500 45.18300
C  18.85500 -5.52800 43.21800
C  18.71800 -8.35500 44.62400
O  17.65800 -7.89100 44.24700
C  18.74900 -9.74800 45.05700
N  24.11900 -8.28400 46.41400
C  23.00300 -9.05500 46.60100
C  23.29400 -10.32600 47.42700
C  24.73700 -10.03800 48.05000
C  25.15600 -8.71800 47.22800
C  22.23800 -10.73300 48.56900
C  25.54500 -11.31000 47.66800
C  26.58000 -11.70500 48.83700
N  25.99000 -5.99100 46.14600
C  26.85600 -6.83300 46.78500
C  28.20100 -6.27900 46.82300
C  28.05600 -5.15700 45.93700
C  26.73800 -5.05800 45.53400
C  29.47800 -6.79200 47.42400
C  28.76400 -4.01700 45.38800
O  29.85900 -3.61300 45.71400
C  27.76700 -3.20600 44.46800
C  27.60300 -1.87800 45.00700
O  27.53200 -1.52000 46.23000
O  27.75200 -1.00200 44.00500
C  27.56900 0.43600 44.40700
H  21.09400 -3.97200 43.04500
H  21.12200 -9.63700 46.36700
H  27.25700 -8.58900 47.83000
H  25.14300 -1.54600 43.86900
H  22.78600 -2.33000 42.32100
H  21.56900 -1.20200 43.90200
H  23.16500 -0.68500 44.45500
H  22.28600 -2.07900 45.20600
H  24.96400 -3.04900 41.19900
H  26.42600 -2.63200 41.97100
H  26.47500 -0.69000 40.92400
H  25.04100 -0.24300 41.75300
H  18.60000 -6.11500 42.33600
H  19.22300 -4.57400 42.84100
H  18.01400 -5.41400 43.90200
H  17.92500 -10.30000 44.60400
H  18.62800 -9.93500 46.12400
H  19.65100 -10.19200 44.63700
H  23.34900 -11.10100 46.66200
H  24.74000 -9.81600 49.11700
H  22.82600 -10.71000 49.48800
H  21.86200 -11.75600 48.56800
H  21.39000 -10.05200 48.50000
H  26.16900 -11.07800 46.80500
H  24.90900 -12.19100 47.58500
H  26.51600 -12.78000 49.00600
H  26.56600 -11.11400 49.75200
H  27.57000 -11.43700 48.46800
H  29.94000 -7.49000 46.72500
H  29.28200 -7.24700 48.39400
H  30.25400 -6.02900 47.49600
H  28.21900 -3.18400 43.47600
H  26.61700 0.50800 44.93300
H  27.40300 0.92500 43.44700
H  28.48400 0.73300 44.92000
Mg 35.30700 3.13500 30.31000
C  32.82200 4.04700 32.68100
C  37.69700 3.28600 32.78200
C  37.75300 2.61500 27.92100
C  32.97700 3.51900 27.77700
N  35.18900 3.52600 32.46800
C  34.09900 3.90200 33.24500
C  34.48400 3.91800 34.74100
C  36.06200 4.00700 34.67300
C  36.36500 3.60700 33.23700
C  36.57400 5.41000 34.98200
C  34.04900 2.61100 35.54000
C  33.73900 2.81600 37.07800
H  34.58100 3.86500 37.91300
N  37.45500 2.88400 30.35500
C  38.21000 2.96100 31.50400
C  39.56500 2.67000 31.16500
C  39.64800 2.47700 29.73700
C  38.25600 2.65600 29.27000
C  40.71100 2.66400 32.15900
C  40.82000 2.05700 28.82100
O  40.69000 1.84200 27.63000
C  42.15600 1.83100 29.36300
N  35.35000 3.13900 28.20200
C  36.48700 2.82800 27.40800
C  36.16000 2.69100 25.93700
C  34.66100 2.84400 25.95100
C  34.24300 3.14100 27.43500
C  36.96400 3.64100 24.99700
C  33.82200 1.71500 25.16500
C  33.98400 1.55800 23.65100
N  33.29900 3.56200 30.20100
C  32.49300 3.76600 29.07200
C  31.08600 4.07500 29.50600
C  31.15200 4.16100 30.95100
C  32.53800 3.94000 31.25900
C  29.91700 4.30500 28.65300
C  30.47400 4.41100 32.14400
O  29.29800 4.75500 32.40100
C  31.48900 4.17800 33.29700
C  31.46000 5.26000 34.22900
O  31.88800 6.36200 34.00300
O  31.00700 4.79100 35.47500
C  31.02800 5.97000 36.39800
H  38.53800 3.25000 33.47800
H  38.48200 2.40500 27.13500
H  32.24900 3.67100 26.97700
H  34.05400 4.83500 35.14300
H  36.61400 3.28000 35.26900
H  35.82400 6.02200 35.48300
H  36.97600 5.94300 34.12100
H  37.35500 5.19700 35.71200
H  34.74000 1.79900 35.31600
H  33.09600 2.26200 35.14200
H  33.95100 1.84500 37.52600
H  32.67500 3.02700 37.19100
H  41.62300 3.02000 31.67800
H  40.75200 1.79200 32.81200
H  40.52100 3.36600 32.97000
H  42.74600 1.35900 28.57800
H  42.25700 1.31800 30.32000
H  42.65000 2.80100 29.41500
H  36.36700 1.65200 25.67800
H  34.39000 3.81000 25.52400
H  37.20600 4.47300 25.65800
H  36.32400 3.98600 24.18500
H  37.87200 3.25500 24.53400
H  32.78500 1.89700 25.44500
H  34.01100 0.71200 25.54800
H  34.49000 0.60200 23.51200
H  34.37600 2.36400 23.03100
H  33.01000 1.35100 23.20600
H  29.68400 5.26800 28.20000
H  29.00900 3.92900 29.12400
H  29.94500 3.67900 27.76100
H  31.23200 3.26000 33.82600
H  30.79300 5.65000 37.41300
H  30.29200 6.71000 36.08300
H  32.05300 6.34000 36.37900

