158

Mg 2.15400 -2.12000 43.97500
C  5.37400 -0.87000 43.59500
C  1.04400 0.69900 42.43000
C  -0.93400 -3.57900 43.67700
C  3.51500 -5.20000 44.93000
N  3.08900 -0.36200 43.09600
C  4.40300 -0.07300 43.08600
C  4.64500 1.21600 42.32400
C  3.24100 1.90600 42.30800
C  2.39600 0.70700 42.74500
C  3.19100 3.10900 43.21900
C  5.21600 0.90800 40.90600
C  6.36400 1.86200 40.32700
H  7.09400 1.18700 39.16100
N  0.28900 -1.50600 43.12800
C  0.07200 -0.33000 42.52900
C  -1.29800 -0.25500 42.11800
C  -1.91700 -1.42000 42.55900
C  -0.85000 -2.25400 43.15200
C  -1.89200 1.00700 41.44300
C  -3.38800 -1.77200 42.43300
O  -4.19000 -0.99500 41.94100
C  -3.94400 -2.96600 43.06500
N  1.36900 -4.12000 44.25000
C  0.05700 -4.38700 44.25700
C  -0.14800 -5.83100 44.69700
C  1.29100 -6.35400 45.12800
C  2.09700 -5.20300 44.64700
C  -1.19800 -5.96100 45.80500
C  1.78400 -7.70000 44.46500
C  2.50300 -8.59500 45.55200
N  4.04100 -2.91900 44.33600
C  4.43600 -4.10600 44.84900
C  5.88800 -4.09900 44.98400
C  6.28500 -2.85900 44.50100
C  5.10300 -2.19400 44.07600
C  6.66700 -5.25800 45.50500
C  7.43300 -2.01900 44.25800
O  8.65200 -2.20300 44.34500
C  6.88900 -0.67500 43.68400
C  7.24200 0.36700 44.74500
O  6.65400 0.59700 45.81400
O  8.33100 1.10100 44.25400
C  8.70500 2.38200 44.98300
H  0.70100 1.65200 42.02200
H  -1.85300 -4.14200 43.49500
H  3.93400 -6.13300 45.31200
H  5.37200 1.83800 42.84600
H  3.02800 2.22000 41.28600
H  4.07200 3.31700 43.82700
H  2.45100 2.92400 43.99800
H  3.03500 3.94000 42.53200
H  4.44200 1.11500 40.16600
H  5.46700 -0.15100 40.84800
H  7.13800 2.03800 41.07300
H  5.94400 2.84300 40.10800
H  -1.93600 1.68000 42.29900
H  -2.85400 0.87900 40.94600
H  -1.18700 1.37600 40.69800
H  -3.74300 -3.89000 42.52300
H  -5.01500 -2.76600 43.08800
H  -3.55000 -2.96600 44.08200
H  -0.38900 -6.34400 43.76600
H  1.35300 -6.41200 46.21500
H  -1.51400 -4.96800 46.12300
H  -0.90500 -6.58700 46.64800
H  -2.01100 -6.53900 45.36500
H  2.43600 -7.40800 43.64200
H  0.92800 -8.28500 44.13100
H  2.07200 -8.54700 46.55200
H  3.58900 -8.65500 45.47400
H  2.25600 -9.56700 45.12600
H  7.56600 -4.90700 46.01100
H  6.99500 -5.84000 44.64300
H  6.10000 -5.95200 46.12500
H  7.37500 -0.46200 42.73100
H  7.81400 2.93200 45.28700
H  9.45100 3.00500 44.49000
H  9.11100 2.14300 45.96600
Mg 54.07200 24.54400 44.88300
C  51.43600 26.77100 44.37600
C  51.96100 21.93500 44.20200
C  56.86100 22.53800 44.61100
C  56.15700 27.13300 45.62000
N  51.95100 24.41500 44.20700
C  51.01800 25.43500 44.17500
C  49.54400 24.84900 44.06700
C  49.79500 23.35500 44.45900
C  51.35700 23.21200 44.27400
C  49.43400 23.00200 45.90700
C  48.73700 25.03500 42.71200
C  49.45300 25.03400 41.33800
H  49.72000 23.57100 40.87300
N  54.38100 22.50600 44.41700
C  53.34500 21.59300 44.24200
C  54.02500 20.28800 44.08000
C  55.44600 20.47000 44.07400
C  55.64500 21.90200 44.38200
C  53.24200 19.01700 43.87000
C  56.46200 19.31900 43.83200
O  56.08800 18.18700 43.75300
C  57.91800 19.58800 43.62500
N  56.22700 24.86400 44.92100
C  57.15000 23.88400 44.88900
C  58.60800 24.39200 45.07300
C  58.37500 25.93200 45.41700
C  56.84400 26.00400 45.20500
C  59.30700 23.53900 46.21700
C  59.23400 26.91600 44.53300
C  58.61200 27.48100 43.18100
N  53.88800 26.56000 44.96900
C  54.79700 27.50500 45.41800
C  54.21300 28.78400 45.56900
C  52.93100 28.62300 45.03400
C  52.77800 27.21700 44.70400
C  54.78200 29.98800 46.23400
C  51.60800 29.14200 44.70900
O  51.22900 30.29100 44.86000
C  50.61500 27.97700 44.27200
C  50.09000 28.39200 42.93100
O  50.73900 28.64800 41.91800
O  48.73100 28.61300 43.09000
C  47.95800 28.75200 41.83100
H  51.28000 21.14300 43.88600
H  57.79000 21.96700 44.54700
H  56.81700 27.92400 45.98200
H  48.83100 25.28600 44.76600
H  49.36800 22.71700 43.68500
H  49.69600 21.94500 45.93400
H  48.37400 23.20300 46.06500
H  50.08100 23.60600 46.54300
H  48.11100 25.92600 42.74200
H  48.06900 24.18000 42.60100
H  50.44000 25.49700 41.32700
H  48.78800 25.50700 40.61500
H  53.01800 18.93400 42.80700
H  52.33100 19.06200 44.46600
H  53.80500 18.10400 44.06300
H  57.98800 20.51000 43.04900
H  58.19500 18.70600 43.04800
H  58.50000 19.66800 44.54300
H  59.07600 24.36200 44.09000
H  58.46700 26.03500 46.49800
H  59.57300 24.20100 47.04200
H  60.20000 23.06600 45.80900
H  58.61100 22.86200 46.71300
H  60.22200 26.46900 44.41900
H  59.38500 27.77100 45.19200
H  59.13300 27.15700 42.28000
H  58.65800 28.57000 43.13700
H  57.57400 27.17200 43.05800
H  55.71100 30.37600 45.81700
H  54.92900 29.78800 47.29500
H  53.99700 30.74300 46.17300
H  49.83800 28.02300 45.03600
H  48.52600 29.22300 41.02900
H  46.96900 29.18100 41.99300
H  47.81200 27.77100 41.38000

