158

Mg 17.09000 -1.15200 28.35200
C  15.86100 0.71200 31.10300
C  18.96400 -2.97900 30.48600
C  18.46600 -2.56900 25.67200
C  15.41100 1.13300 26.22900
N  17.43400 -1.01900 30.60200
C  16.70500 -0.29600 31.50200
C  17.19700 -0.61100 32.88600
C  18.36800 -1.66000 32.68500
C  18.25600 -1.91400 31.17800
C  19.85800 -1.18600 33.12600
C  15.96700 -0.98400 33.83000
C  15.86400 -0.32400 35.24400
H  17.16900 0.15200 35.91100
N  18.42000 -2.66500 28.06200
C  19.06800 -3.35800 29.07700
C  19.75300 -4.49000 28.50600
C  19.71100 -4.31900 27.07400
C  18.83700 -3.19200 26.86100
C  20.49900 -5.51900 29.39700
C  20.34100 -5.12100 26.00100
O  20.28400 -4.80500 24.83000
C  21.18400 -6.33200 26.24300
N  16.91200 -0.78900 26.27800
C  17.67400 -1.44300 25.35000
C  17.42300 -0.98200 23.96400
C  16.21500 0.00800 24.13400
C  16.12700 0.10500 25.61200
C  18.69700 -0.38800 23.26500
C  14.91200 -0.40000 23.40100
C  13.80700 -0.94600 24.29900
N  15.87700 0.53300 28.53200
C  15.28800 1.41600 27.58700
C  14.47900 2.42600 28.27600
C  14.70800 2.08300 29.64300
C  15.61400 0.98500 29.72600
C  13.71600 3.54000 27.53000
C  14.30300 2.46100 30.94100
O  13.55800 3.39600 31.30700
C  15.22000 1.77000 31.98900
C  16.17900 2.82900 32.53800
O  17.18900 3.18300 32.00300
O  15.69900 3.34800 33.68800
C  16.72100 4.06100 34.53300
H  19.61600 -3.63900 31.06200
H  18.75300 -2.93600 24.68500
H  14.85700 1.72400 25.49700
H  17.63900 0.28800 33.31800
H  18.21300 -2.55100 33.29300
H  20.26800 -1.98800 33.73900
H  19.85300 -0.25000 33.68500
H  20.43300 -1.12100 32.20200
H  16.08200 -2.05300 34.00700
H  15.04100 -0.79100 33.28800
H  15.33000 -1.05200 35.85600
H  15.22500 0.54300 35.07900
H  19.89000 -5.75500 30.27000
H  21.33900 -4.91200 29.73400
H  20.85000 -6.44000 28.93100
H  20.67100 -7.05500 26.87800
H  22.04500 -5.87800 26.73400
H  21.49800 -6.81600 25.31800
H  17.19800 -1.91600 23.45000
H  16.62500 0.94700 23.76400
H  19.45900 -0.14400 24.00400
H  18.48900 0.54000 22.73200
H  19.13800 -1.12800 22.59800
H  15.09200 -1.01600 22.52000
H  14.50600 0.51300 22.96600
H  13.28800 -0.07400 24.69700
H  14.19400 -1.65300 25.03300
H  13.09600 -1.40800 23.61400
H  12.66900 3.30300 27.71400
H  13.92700 3.56600 26.46100
H  13.93000 4.53700 27.91700
H  14.63500 1.32300 32.79200
H  16.97800 4.97300 33.99500
H  17.68800 3.55800 34.56200
H  16.36600 4.22100 35.55100
Mg 41.46900 9.32600 29.83500
C  43.39200 10.55300 32.47500
C  39.34600 7.94600 32.18600
C  39.58100 8.24700 27.25200
C  43.90700 10.28100 27.59700
N  41.48400 9.09200 32.14100
C  42.27200 9.86500 32.94100
C  41.82400 9.81900 34.36200
C  40.65000 8.77400 34.28000
C  40.43200 8.57900 32.81300
C  41.04600 7.40100 34.86500
C  41.50500 11.21200 34.92400
C  40.39100 11.36800 36.03000
H  40.92000 11.89000 37.34300
N  39.73800 8.18100 29.74600
C  39.00700 7.74600 30.85100
C  37.83000 6.98100 30.34700
C  37.90100 7.11800 28.91900
C  39.11600 7.82100 28.60200
C  36.84600 6.27400 31.29500
C  36.83200 6.72500 27.89800
O  36.90100 6.90200 26.65000
C  35.66000 6.08900 28.49100
N  41.65000 9.25600 27.75900
C  40.66500 9.04000 26.92600
C  41.15300 9.11700 25.44900
C  42.40600 10.01400 25.52500
C  42.71700 9.78800 27.02900
C  41.50300 7.77200 24.85200
C  42.14100 11.45800 25.10900
C  41.19600 12.34400 25.89200
N  43.34000 10.10600 29.93800
C  44.21600 10.52400 28.96200
C  45.40200 11.04900 29.51600
C  45.09200 11.12300 30.89400
C  43.80100 10.58000 31.08800
C  46.51800 11.73400 28.83400
C  45.53000 11.59100 32.15200
O  46.55200 12.15100 32.54600
C  44.46900 11.21900 33.21200
C  45.16700 10.31200 34.19100
O  45.40000 9.10800 34.05700
O  45.58500 11.11600 35.26600
C  46.32300 10.41100 36.27300
H  38.62900 7.62300 32.94500
H  39.05600 7.79900 26.40600
H  44.71600 10.65900 26.96900
H  42.63600 9.47700 35.00300
H  39.64000 9.10500 34.52100
H  40.20300 6.80000 35.20600
H  41.77900 7.52500 35.66200
H  41.45900 6.79500 34.05800
H  41.16000 11.85900 34.11800
H  42.45200 11.63200 35.26600
H  39.91000 10.42200 36.27800
H  39.63200 12.07800 35.70300
H  35.83800 6.68900 31.26000
H  37.18800 6.37900 32.32400
H  36.86500 5.24400 30.94100
H  35.97500 5.17800 29.00100
H  34.91600 5.85800 27.72800
H  35.11600 6.76700 29.14900
H  40.43200 9.62300 24.80700
H  43.26800 9.60800 24.99600
H  42.47600 7.81100 24.36100
H  40.77700 7.52700 24.07700
H  41.54700 6.96100 25.57900
H  41.74500 11.31800 24.10300
H  43.08200 11.99500 24.99200
H  40.75100 11.85700 26.75900
H  40.38900 12.64500 25.22400
H  41.59500 13.31000 26.20100
H  46.89800 12.50300 29.50700
H  46.52600 12.04900 27.79100
H  47.21800 10.89900 28.82400
H  44.13700 12.11300 33.74000
H  47.31600 10.11200 35.93600
H  45.79800 9.54100 36.66900
H  46.52200 11.06600 37.12100

