158

Mg 0.56100 7.42800 28.04900
C  1.06900 9.90200 30.26400
C  0.60500 5.14300 30.67200
C  0.54600 4.90600 25.74400
C  0.70000 9.76400 25.41600
N  0.75900 7.53600 30.23200
C  0.80200 8.69600 30.97000
C  0.77200 8.41300 32.46100
C  1.09600 6.88000 32.51500
C  0.71000 6.47600 31.09200
C  2.56900 6.54900 32.82100
C  -0.73700 8.78700 32.94900
C  -1.02400 8.94400 34.47300
H  0.10700 8.81800 35.48600
N  0.49400 5.37900 28.20300
C  0.47700 4.58800 29.32500
C  0.32500 3.18900 29.05300
C  0.15700 3.10800 27.59700
C  0.41600 4.46800 27.09800
C  0.42200 2.06400 30.08000
C  -0.17000 1.93300 26.70100
O  -0.18600 2.01500 25.48600
C  -0.36200 0.57000 27.37300
N  0.65700 7.35600 25.92300
C  0.68100 6.20500 25.21800
C  0.74700 6.39800 23.69400
C  0.60800 7.95300 23.61500
C  0.55800 8.37400 25.06600
C  2.03400 5.80000 23.08600
C  -0.61000 8.37100 22.64000
C  -0.40100 9.60700 21.68600
N  0.86000 9.44900 27.83200
C  0.86700 10.25000 26.74800
C  1.15900 11.64900 27.16900
C  1.27400 11.54900 28.54300
C  1.05600 10.19000 28.87900
C  1.15500 12.87600 26.27800
C  1.63000 12.18800 29.72100
O  2.08700 13.32100 29.91700
C  1.53600 11.21700 30.84400
C  2.85800 11.22300 31.56800
O  3.94500 10.98400 31.09900
O  2.55700 11.48800 32.89000
C  3.55000 11.30200 33.95500
H  0.51300 4.44400 31.50600
H  0.58700 4.08500 25.02500
H  0.90400 10.51000 24.64600
H  1.46300 9.00800 33.05900
H  0.43600 6.39900 33.23700
H  3.06900 5.79000 32.21900
H  2.58000 6.15300 33.83600
H  3.24200 7.38600 32.63600
H  -1.35900 8.00600 32.51200
H  -1.08000 9.76700 32.61500
H  -1.64000 8.11300 34.81800
H  -1.54400 9.89600 34.58000
H  1.13700 1.33500 29.70000
H  -0.56700 1.67500 30.32000
H  0.92100 2.53100 30.92900
H  -0.69500 -0.21100 26.69000
H  -1.20800 0.82100 28.01300
H  0.44700 0.25500 28.03300
H  -0.07700 5.87200 23.21100
H  1.53600 8.25000 23.12700
H  1.93500 4.71500 23.11400
H  2.85600 6.18700 23.68800
H  2.13100 6.18200 22.06900
H  -1.45400 8.69600 23.24800
H  -0.79300 7.56300 21.93200
H  -0.24800 9.26700 20.66100
H  0.47200 10.19800 21.96000
H  -1.29900 10.22100 21.75700
H  1.54000 12.53400 25.31700
H  1.84000 13.65000 26.62400
H  0.15100 13.29500 26.21500
H  0.66600 11.60800 31.37200
H  3.48900 10.29500 34.36800
H  3.28400 11.94300 34.79500
H  4.50800 11.69900 33.62000
Mg 53.69000 24.32500 43.75700
C  50.91200 26.64400 43.17000
C  51.54100 21.81900 42.91100
C  56.37700 22.48200 43.28900
C  55.66500 27.07800 44.26400
N  51.58200 24.31300 42.88300
C  50.59900 25.27300 42.90100
C  49.19900 24.75700 42.69000
C  49.37000 23.26700 42.91300
C  50.94100 23.13200 43.05200
C  48.64000 22.82700 44.23100
C  48.62000 25.06900 41.27800
C  49.61200 24.83300 40.07000
H  48.95500 24.33000 38.77000
N  53.95900 22.40100 43.24800
C  52.94900 21.55300 42.90000
C  53.52800 20.23300 42.72500
C  54.97800 20.40100 42.81500
C  55.21200 21.80100 43.10400
C  52.63400 19.04100 42.46200
C  55.96100 19.38900 42.46400
O  55.60000 18.23200 42.19800
C  57.44700 19.63000 42.47700
N  55.70400 24.82400 43.54400
C  56.68100 23.85500 43.59400
C  58.14700 24.34900 43.86000
C  57.91900 25.82600 44.24100
C  56.32500 25.95700 43.94000
C  58.97900 23.48200 44.85300
C  58.70600 26.88300 43.41400
C  60.04600 27.19800 43.95500
N  53.42200 26.46800 43.85300
C  54.29900 27.39100 44.18700
C  53.63700 28.65500 44.44200
C  52.29200 28.40400 44.07600
C  52.22700 27.09200 43.66100
C  54.24600 29.94700 45.07100
C  50.91200 28.95800 44.00300
O  50.48600 30.07200 44.43900
C  50.04300 27.86600 43.33800
C  49.51200 28.40400 42.04900
O  50.13300 28.76600 41.07800
O  48.13100 28.38500 42.14600
C  47.44200 28.60200 40.88300
H  50.84100 20.98600 42.81400
H  57.29800 21.89900 43.34600
H  56.23500 27.90100 44.69900
H  48.66900 25.27000 43.49200
H  48.91500 22.67200 42.12100
H  49.29700 23.10100 45.05600
H  48.57000 21.75500 44.04700
H  47.69800 23.34300 44.42000
H  48.32500 26.11200 41.39300
H  47.62100 24.69900 41.04900
H  50.29200 24.01700 40.31500
H  50.15300 25.77200 39.95000
H  51.87300 19.26100 41.71400
H  52.15900 18.69100 43.37900
H  53.19200 18.19400 42.06400
H  57.88800 18.66400 42.23000
H  57.76000 19.80700 43.50600
H  57.70800 20.38200 41.73300
H  58.69600 24.33700 42.91800
H  58.01800 26.04200 45.30500
H  58.29400 22.83000 45.39500
H  59.65600 24.05100 45.48900
H  59.57000 22.80600 44.23500
H  58.18400 27.83200 43.29500
H  58.68100 26.44400 42.41600
H  60.28400 26.48900 44.74800
H  60.16000 28.25600 44.18900
H  60.74300 26.91400 43.16700
H  53.97900 29.94900 46.12800
H  53.74500 30.75200 44.53200
H  55.31100 30.15500 44.96900
H  49.14900 27.66000 43.92600
H  47.68500 29.61400 40.56000
H  46.36200 28.45500 40.90500
H  47.74600 27.93700 40.07400

