158

Mg -1.71100 17.26400 25.89400
C  -2.23100 14.96600 28.46300
C  -2.95800 19.69700 28.08800
C  -1.55000 19.50300 23.40700
C  -1.25700 14.65900 23.68900
N  -2.53400 17.23100 28.06200
C  -2.52500 16.24100 28.89500
C  -3.07600 16.64400 30.29100
C  -3.76200 18.01200 29.96600
C  -3.03400 18.40200 28.61000
C  -5.30300 17.79900 29.69700
C  -1.95200 16.74900 31.37200
C  -2.17300 16.24700 32.78500
H  -0.97900 16.50200 33.74000
N  -2.14700 19.33200 25.75400
C  -2.57100 20.14300 26.79900
C  -2.68500 21.49600 26.34200
C  -2.24700 21.46800 24.98500
C  -2.01800 20.05000 24.63800
C  -3.14400 22.71800 27.21000
C  -2.00500 22.64000 24.12500
O  -1.74300 22.59200 22.90400
C  -1.77600 23.97600 24.76200
N  -1.39500 17.10100 23.83700
C  -1.41500 18.15200 23.02500
C  -1.10400 17.62200 21.62300
C  -0.67100 16.20900 21.78500
C  -1.13000 15.98100 23.17800
C  -2.19800 17.93700 20.53300
C  0.76200 15.69100 21.56700
C  1.89400 16.33900 22.32500
N  -1.72800 15.31000 26.02500
C  -1.56100 14.34000 25.01700
C  -1.67200 13.06100 25.59700
C  -2.02600 13.21200 26.94200
C  -1.93400 14.62200 27.18500
C  -1.46400 11.80800 24.81600
C  -2.34100 12.49900 28.14400
O  -2.37500 11.27900 28.41700
C  -2.47300 13.65300 29.20200
C  -1.55100 13.36000 30.31100
O  -0.46800 13.88500 30.40300
O  -2.03700 12.36600 31.05100
C  -1.26800 11.94500 32.24000
H  -3.28500 20.50900 28.74000
H  -1.33200 20.24700 22.63800
H  -0.94700 13.88600 22.98200
H  -3.71200 15.84900 30.67900
H  -3.62900 18.74000 30.76600
H  -5.64000 18.23900 28.75900
H  -5.81300 18.27000 30.53800
H  -5.44300 16.72300 29.79900
H  -1.60900 17.78300 31.40200
H  -1.04800 16.26900 30.99700
H  -2.44000 15.20000 32.93000
H  -2.98000 16.86500 33.17900
H  -3.92900 23.21700 26.64300
H  -2.34100 23.42000 27.43600
H  -3.60400 22.35200 28.12800
H  -2.62200 24.47900 25.22900
H  -1.34200 24.71200 24.08500
H  -1.06000 23.81800 25.56800
H  -0.21900 18.18400 21.32300
H  -1.30100 15.58500 21.15000
H  -3.08600 17.45000 20.93700
H  -1.93800 17.60800 19.52800
H  -2.29500 19.02200 20.49100
H  0.99400 15.67400 20.50200
H  0.87500 14.62500 21.76300
H  2.30100 15.70200 23.11100
H  1.58600 17.27400 22.79200
H  2.75300 16.49600 21.67300
H  -0.85400 11.87200 23.91500
H  -2.45500 11.63300 24.39800
H  -1.17100 10.94800 25.42000
H  -3.46700 13.68300 29.64800
H  -0.74800 12.80300 32.66700
H  -0.46900 11.24400 31.99800
H  -1.84800 11.54100 33.07000
Mg 9.28400 3.37800 27.79100
C  10.37700 1.72300 30.66500
C  7.69000 5.66800 29.73900
C  7.86900 4.57600 24.91000
C  10.66700 0.70200 25.92800
N  9.01800 3.59400 29.97600
C  9.67300 2.94000 30.98700
C  9.47600 3.58900 32.32000
C  8.48700 4.75200 32.00300
C  8.42300 4.71600 30.49800
C  7.07600 4.47500 32.61100
C  10.80900 4.03100 32.94600
C  11.20200 3.37400 34.35000
H  11.50400 4.34600 35.45800
N  7.99700 4.93700 27.44800
C  7.40200 5.78300 28.32100
C  6.67100 6.83300 27.65700
C  6.66200 6.38100 26.27100
C  7.55500 5.27500 26.12500
C  5.92200 7.95800 28.37300
C  5.84300 6.89000 25.09500
O  6.02300 6.64300 23.90700
C  4.85000 8.02200 25.29600
N  9.30000 2.58500 25.69700
C  8.67400 3.36700 24.74000
C  8.65500 2.79000 23.35800
C  9.57500 1.48900 23.59000
C  9.92500 1.57900 25.12600
C  7.28000 2.26600 22.74700
C  10.81700 1.46100 22.76500
C  10.65400 1.07500 21.20000
N  10.27800 1.63000 28.14500
C  10.81100 0.68300 27.28400
C  11.59200 -0.36600 28.07200
C  11.44700 0.06000 29.36100
C  10.61600 1.20900 29.39000
C  12.43000 -1.43200 27.42100
C  11.85200 -0.25900 30.79700
O  12.56700 -1.08300 31.25600
C  11.13200 0.88600 31.59400
C  10.15300 0.11300 32.53900
O  9.01800 -0.33000 32.33500
O  10.82300 0.03400 33.76500
C  10.15600 -0.51500 34.89200
H  7.40800 6.54300 30.32800
H  7.57900 4.92800 23.91800
H  11.17500 -0.01400 25.27800
H  9.06900 2.80400 32.95800
H  8.86100 5.69000 32.41500
H  7.16800 4.91500 33.60500
H  6.99900 3.39000 32.68200
H  6.40100 4.84300 31.83800
H  10.79800 5.09500 33.18100
H  11.58400 3.87900 32.19500
H  12.12300 2.80200 34.23900
H  10.36500 2.73800 34.63600
H  6.25200 7.94000 29.41200
H  4.87000 7.83800 28.11500
H  6.21500 8.92300 27.95900
H  4.17700 8.17000 24.45100
H  5.36300 8.97200 25.44500
H  4.28900 7.69300 26.17100
H  9.08200 3.59300 22.75800
H  9.17200 0.50400 23.35800
H  6.88600 2.91800 21.96700
H  6.51200 2.34400 23.51700
H  7.28400 1.20100 22.51500
H  11.47600 0.68300 23.15100
H  11.29300 2.43700 22.85900
H  9.64100 0.83100 20.87800
H  11.09100 0.07700 21.19200
H  11.11200 1.79400 20.52100
H  11.75800 -2.00400 26.78200
H  12.88900 -2.11600 28.13500
H  13.15600 -0.96300 26.75700
H  11.80000 1.55900 32.13100
H  9.34600 -1.19300 34.62100
H  9.60900 0.20100 35.50600
H  10.89300 -1.00900 35.52400

