158

Mg -1.19700 17.36800 27.56400
C  -1.73500 15.14400 30.12300
C  -1.57500 19.90100 29.78500
C  -1.11500 19.53800 24.96500
C  -1.20400 14.68700 25.27600
N  -1.60500 17.43000 29.69800
C  -1.62300 16.43400 30.61400
C  -1.58400 16.92800 32.07200
C  -1.67700 18.48500 31.89500
C  -1.51800 18.63200 30.38700
C  -2.95400 19.19300 32.47800
C  -0.30300 16.50500 32.86300
C  -0.11500 17.27000 34.18700
H  0.41500 16.51400 35.46800
N  -1.25200 19.46700 27.39900
C  -1.43700 20.34000 28.43900
C  -1.34400 21.66300 27.91300
C  -1.08900 21.61300 26.57000
C  -1.09300 20.17900 26.19600
C  -1.44700 22.90000 28.86700
C  -0.81300 22.69700 25.47700
O  -0.59200 22.38100 24.29900
C  -0.73700 24.10800 25.80000
N  -0.98400 17.16700 25.49100
C  -1.09600 18.16100 24.62900
C  -1.13700 17.72200 23.16900
C  -1.11600 16.20500 23.23800
C  -1.14800 15.98700 24.77400
C  -2.37100 18.35200 22.35300
C  -0.03500 15.37500 22.51800
C  1.44500 15.67700 22.81400
N  -1.45100 15.31200 27.62100
C  -1.43200 14.35500 26.59900
C  -1.77400 13.06100 27.19900
C  -1.76700 13.35400 28.54700
C  -1.69700 14.73400 28.74100
C  -2.01300 11.75300 26.50800
C  -2.07300 12.71800 29.80900
O  -2.31300 11.55400 30.11300
C  -2.02600 13.80900 30.90000
C  -0.96500 13.40800 31.84400
O  0.26800 13.37400 31.62900
O  -1.48800 12.92900 33.04000
C  -0.44500 12.42200 33.97300
H  -1.69000 20.62800 30.59300
H  -0.96400 20.20600 24.11500
H  -1.17400 13.81100 24.62400
H  -2.46500 16.51200 32.56100
H  -0.86100 19.02400 32.37600
H  -2.69800 20.22300 32.72600
H  -3.28100 18.62200 33.34700
H  -3.78500 19.24000 31.77300
H  0.42300 16.70100 32.07400
H  -0.32800 15.45000 33.13500
H  -0.92200 17.94500 34.47200
H  0.72400 17.95100 34.03900
H  -0.41200 23.24000 28.85700
H  -1.76200 22.61800 29.87100
H  -2.10900 23.71700 28.57800
H  -1.63600 24.48900 26.28600
H  -0.61900 24.73500 24.91600
H  0.17500 24.34000 26.34900
H  -0.19900 18.06900 22.73500
H  -2.10400 15.79900 23.02500
H  -2.95200 18.86500 23.11900
H  -2.83200 17.54000 21.79000
H  -2.02600 19.18400 21.73900
H  -0.29600 15.37900 21.46000
H  -0.19000 14.34900 22.85300
H  1.78600 15.99700 21.82900
H  1.96000 14.76400 23.11400
H  1.66200 16.38700 23.61100
H  -2.32900 11.96800 25.48700
H  -2.72300 11.14300 27.06600
H  -1.07800 11.19500 26.46400
H  -3.05300 13.75300 31.26200
H  0.10800 11.58900 33.53800
H  -0.84900 12.13500 34.94400
H  0.16600 13.26700 34.28900
Mg 50.18700 46.70700 42.86500
C  46.94500 47.26300 41.53900
C  50.25200 43.78200 41.21000
C  53.23500 46.45900 43.83700
C  50.18200 50.18300 43.75800
N  48.81800 45.69600 41.43100
C  47.50600 45.98800 41.20600
C  46.75500 44.98700 40.40200
C  47.67500 43.77500 40.60800
C  48.99700 44.41500 41.11000
C  47.16600 42.63100 41.55200
C  46.61800 45.45100 38.89000
C  45.27100 45.74400 38.34100
H  44.70500 44.63300 37.39200
N  51.58700 45.30200 42.51100
C  51.46000 44.12200 41.81800
C  52.64700 43.27700 42.07400
C  53.53400 44.04300 42.87200
C  52.83400 45.32200 43.08800
C  52.88900 41.89400 41.51900
C  54.92800 43.59700 43.41200
O  55.32900 42.46700 43.21100
C  55.73000 44.48200 44.36400
N  51.54800 48.21400 43.48300
C  52.76300 47.75700 43.90100
C  53.72700 48.84500 44.42300
C  52.64900 50.05600 44.47200
C  51.35800 49.47100 43.88800
C  54.52400 48.43200 45.71200
C  53.15900 51.30400 43.60500
C  53.43100 52.59100 44.33500
N  48.84900 48.42200 42.67500
C  49.00400 49.76200 43.06300
C  47.83200 50.52200 42.76300
C  46.92600 49.59400 42.22500
C  47.64800 48.33600 42.11700
C  47.63900 51.92800 43.03800
C  45.65300 49.42100 41.57900
O  44.66200 50.11800 41.36800
C  45.58200 47.85600 41.20600
C  44.42500 47.23200 41.80500
O  44.25400 46.93300 42.99500
O  43.39600 47.15600 40.86100
C  42.10100 46.77400 41.32500
H  50.30800 42.77400 40.79400
H  54.30300 46.44600 44.06300
H  50.19000 51.20800 44.13400
H  45.81800 44.70200 40.88100
H  47.91500 43.35200 39.63300
H  46.17800 42.85400 41.95300
H  47.87100 42.52100 42.37700
H  46.96200 41.80100 40.87600
H  47.22900 44.70100 38.38700
H  47.18600 46.37500 38.77900
H  45.35700 46.71900 37.86100
H  44.44800 45.84600 39.04800
H  53.95100 41.78200 41.29700
H  52.36800 41.61300 40.60400
H  52.64200 41.16000 42.28600
H  55.20800 44.79300 45.26900
H  55.89500 45.37800 43.76600
H  56.69900 44.08200 44.66300
H  54.49200 48.97500 43.65800
H  52.51200 50.34600 45.51400
H  54.39600 49.25500 46.41500
H  55.58900 48.37900 45.48500
H  54.19800 47.51800 46.20800
H  52.44900 51.58100 42.82500
H  54.14500 51.11300 43.18100
H  54.48600 52.85500 44.26400
H  53.13200 52.44400 45.37300
H  52.80300 53.40700 43.97800
H  48.46400 52.30600 43.64000
H  46.78800 52.04900 43.70800
H  47.52400 52.44300 42.08400
H  45.51300 47.86200 40.11800
H  42.24400 45.87100 41.91800
H  41.50500 46.62700 40.42400
H  41.48600 47.44700 41.92300

