158

Mg 49.38600 45.54400 43.32400
C  46.19300 46.13000 42.32400
C  49.23800 42.42100 42.04600
C  52.66800 45.35500 43.61100
C  49.64300 49.08100 44.16500
N  47.90400 44.49700 42.13300
C  46.68300 44.93300 41.85600
C  45.91800 44.00800 40.89600
C  46.79200 42.67100 41.08300
C  48.04100 43.18300 41.80300
C  46.06400 41.56900 41.90200
C  45.85000 44.58500 39.38100
C  44.47600 44.60600 38.76900
H  44.30800 43.54600 37.64800
N  50.71300 44.07500 43.04600
C  50.45100 42.81600 42.48800
C  51.68200 42.00100 42.48600
C  52.71600 42.80300 43.06100
C  52.08200 44.15000 43.28400
C  51.72500 40.48700 42.10600
C  54.13600 42.37900 43.24400
O  54.47600 41.20900 42.88800
C  55.25000 43.20700 43.82600
N  50.88900 47.05400 43.72800
C  52.19500 46.66400 43.74800
C  53.17200 47.80600 43.92200
C  52.19400 48.91700 44.41300
C  50.82400 48.35300 44.09300
C  54.35900 47.66500 45.01100
C  52.42200 50.35600 43.79600
C  52.43500 51.43200 44.83200
N  48.11700 47.21600 43.42900
C  48.31600 48.52500 43.94000
C  47.07200 49.27600 43.79600
C  46.18300 48.40100 43.22200
C  46.91400 47.17900 42.98600
C  46.87700 50.68700 44.27500
C  44.84400 48.15900 42.69200
O  43.94200 48.93900 42.61800
C  44.79300 46.63600 42.16100
C  43.77400 46.11100 43.17100
O  43.97900 45.87600 44.40000
O  42.59300 45.87700 42.52000
C  41.67500 44.97200 43.18700
H  49.10700 41.40500 41.66700
H  53.74500 45.18000 43.63800
H  49.78500 50.09100 44.55300
H  44.90900 43.73300 41.20500
H  47.05500 42.32600 40.08300
H  44.97800 41.55500 41.80500
H  46.17000 41.46500 42.98200
H  46.38800 40.65400 41.40600
H  46.54800 44.09700 38.70000
H  46.08800 45.64800 39.38500
H  44.36600 45.57900 38.28900
H  43.60800 44.60100 39.42900
H  52.41100 40.26300 41.28900
H  50.77400 40.05400 41.79600
H  52.13800 39.91400 42.93600
H  56.09200 42.53600 44.00000
H  54.94400 43.43900 44.84600
H  55.55500 44.05600 43.21400
H  53.55000 48.06800 42.93400
H  52.30400 48.91800 45.49800
H  54.51100 46.66000 45.40300
H  54.17600 48.35000 45.83900
H  55.29500 47.98700 44.55500
H  51.71600 50.67900 43.03200
H  53.40400 50.37000 43.32400
H  53.45400 51.81800 44.86800
H  52.16500 51.15200 45.85000
H  51.75200 52.13300 44.35100
H  47.60700 51.09500 44.97500
H  45.96200 50.60800 44.86200
H  46.73800 51.29500 43.38000
H  44.38600 46.53900 41.15500
H  41.17800 45.37100 44.07200
H  42.38500 44.17600 43.40900
H  40.94100 44.51200 42.52500
Mg 49.43400 35.72400 27.49400
C  47.40200 34.05000 29.70800
C  50.01100 38.15300 29.84500
C  50.75100 37.64200 25.16300
C  48.68900 33.30900 25.03900
N  48.88600 35.89800 29.57600
C  48.07900 35.05800 30.28500
C  47.99000 35.47900 31.73100
C  48.58400 36.92300 31.64100
C  49.27800 36.99500 30.26600
C  47.52300 38.05200 31.90100
C  48.79200 34.49300 32.62300
C  48.38700 34.17400 34.10300
H  47.35200 35.11700 34.77600
N  50.31100 37.60000 27.47600
C  50.46800 38.39000 28.54900
C  50.99300 39.69500 28.10600
C  51.24000 39.60900 26.70200
C  50.67000 38.26300 26.34900
C  51.16600 40.85600 29.07600
C  51.95500 40.57900 25.87100
O  52.25300 40.34100 24.71500
C  52.49500 41.84700 26.39700
N  49.83100 35.41200 25.31500
C  50.42000 36.40600 24.66100
C  50.47300 35.99200 23.18000
C  49.92500 34.54100 23.15500
C  49.39500 34.39800 24.55000
C  49.68500 36.92400 22.22200
C  50.90000 33.43100 22.79000
C  51.71300 33.51000 21.47500
N  48.36300 33.98600 27.35500
C  48.18600 33.12300 26.32100
C  47.34200 32.01500 26.78700
C  46.96500 32.37400 28.09800
C  47.57300 33.56700 28.36800
C  46.99400 30.70900 26.09200
C  46.15900 31.95800 29.24500
O  45.42300 30.98900 29.45400
C  46.27700 33.09800 30.31900
C  46.64000 32.42500 31.65900
O  47.61500 31.72200 31.93900
O  45.53300 32.60900 32.48700
C  45.54900 31.70700 33.66300
H  49.98100 38.92900 30.61300
H  51.07000 38.36100 24.40500
H  48.52200 32.43900 24.40000
H  46.91500 35.45400 31.90500
H  49.27100 37.12900 32.46200
H  46.52200 37.68300 32.12600
H  47.42200 38.54600 30.93400
H  47.95300 38.69100 32.67200
H  49.78000 34.93500 32.75800
H  49.06100 33.62900 32.01500
H  49.32000 34.20000 34.66600
H  48.18300 33.12300 34.30700
H  50.57800 41.67300 28.65800
H  52.18900 41.16900 29.28500
H  50.74800 40.56700 30.04100
H  51.73900 42.51600 26.80800
H  53.08800 42.40800 25.67400
H  53.28800 41.60800 27.10600
H  51.49300 35.95800 22.79800
H  49.06200 34.38400 22.50800
H  49.08000 36.41400 21.47300
H  50.47100 37.50200 21.73600
H  49.04500 37.63000 22.75200
H  50.34100 32.50100 22.69200
H  51.47600 33.49600 23.71300
H  52.75000 33.72600 21.73100
H  51.15600 34.20800 20.85000
H  51.74400 32.54100 20.97700
H  46.68700 31.02100 25.09300
H  46.23000 30.12500 26.60600
H  47.94600 30.17900 26.07400
H  45.40200 33.74400 30.38800
H  44.54900 31.31000 33.84300
H  45.81900 32.33000 34.51600
H  46.21300 30.84500 33.60100

