158

Mg 44.44200 4.73900 47.19900
C  42.33800 7.45800 46.91100
C  41.67200 2.66600 46.64000
C  46.51800 2.16800 46.79200
C  47.21500 6.91500 46.89300
N  42.18400 5.02700 46.83700
C  41.55300 6.29400 46.68100
C  39.97000 6.15200 46.61800
C  39.84700 4.57900 46.55100
C  41.31000 4.07900 46.71700
C  38.89100 3.98400 47.67700
C  39.34400 6.82700 45.37600
C  39.82600 6.21800 44.04900
H  40.46800 7.26400 43.14300
N  44.16700 2.65200 46.79100
C  42.95400 2.01000 46.69700
C  43.23300 0.59000 46.62200
C  44.61500 0.36300 46.59100
C  45.19800 1.74500 46.71100
C  42.05600 -0.42400 46.57300
C  45.30100 -1.00300 46.59200
O  44.59400 -2.03300 46.65300
C  46.77600 -1.05200 46.58400
N  46.53500 4.60000 46.74600
C  47.15600 3.43500 46.83000
C  48.63500 3.56700 47.07900
C  48.82700 5.06800 46.78600
C  47.38800 5.58200 46.71000
C  49.10300 3.17300 48.48700
C  49.64900 5.40900 45.50600
C  51.21100 5.35100 45.73700
N  44.78500 6.77000 47.07800
C  45.93400 7.47900 46.99600
C  45.58300 8.91100 46.92200
C  44.16300 8.91900 46.93200
C  43.73800 7.57700 47.04400
C  46.56000 10.02800 46.73000
C  42.98500 9.75100 46.93200
O  42.78400 10.99200 46.94100
C  41.73900 8.78200 47.08000
C  41.01800 8.99900 48.43000
O  41.09500 8.29500 49.40700
O  40.33500 10.20100 48.39400
C  39.70800 10.54800 49.69100
H  40.72900 2.12000 46.56900
H  47.27700 1.40900 46.59100
H  48.01000 7.66200 46.94500
H  39.58700 6.61700 47.52600
H  39.47100 4.12700 45.63300
H  38.09300 4.68700 47.91900
H  39.51300 3.72500 48.53300
H  38.42800 3.06800 47.31000
H  39.46100 7.90900 45.32200
H  38.26100 6.69800 45.36500
H  38.94700 5.85700 43.51500
H  40.54300 5.43500 44.29900
H  42.03400 -0.83300 47.58300
H  42.15000 -1.32100 45.96000
H  41.11700 -0.00300 46.21400
H  47.16800 -2.05000 46.38500
H  47.05300 -0.64900 47.55900
H  47.11700 -0.44600 45.74600
H  49.21800 2.92000 46.42400
H  49.29500 5.61300 47.60500
H  48.24600 2.73900 49.00100
H  49.36100 4.10500 48.99000
H  49.94500 2.48900 48.38300
H  49.44500 6.41900 45.15100
H  49.34600 4.72600 44.71200
H  51.68100 4.98800 44.82300
H  51.47200 4.80700 46.64500
H  51.56000 6.37200 45.88700
H  47.17500 9.79900 45.85900
H  47.24000 10.00900 47.58200
H  46.09500 11.00200 46.57900
H  41.07100 8.99700 46.24700
H  40.31100 11.23900 50.28000
H  39.31000 9.69400 50.23900
H  38.79900 11.00800 49.30500
Mg 0.54500 43.92000 25.71000
C  2.14900 43.79100 28.85600
C  -2.40400 42.81800 27.24800
C  -0.69800 43.68200 22.67700
C  3.83700 44.37400 24.22600
N  -0.03400 43.50400 27.79500
C  0.73200 43.62300 28.90900
C  -0.05600 43.50500 30.17600
C  -1.42700 42.94500 29.61300
C  -1.32700 43.09500 28.09800
C  -1.77000 41.45000 29.94500
C  -0.02000 44.77800 31.06400
C  0.31900 44.65100 32.60000
H  0.35800 43.20800 33.19000
N  -1.32400 43.42600 25.08100
C  -2.40000 42.96500 25.85200
C  -3.54000 42.87300 24.98200
C  -3.09500 43.12000 23.66200
C  -1.64800 43.36100 23.73100
C  -4.90500 42.44100 25.45300
C  -3.88900 43.14900 22.33200
O  -3.34200 43.47900 21.28200
C  -5.31700 42.82700 22.39100
N  1.45400 43.91200 23.63500
C  0.64100 43.95000 22.61100
C  1.44500 44.03200 21.38800
C  2.91000 44.44000 21.85200
C  2.74300 44.24700 23.35600
C  1.32000 42.74800 20.52200
C  3.33100 45.90200 21.46800
C  2.52800 47.02800 22.19700
N  2.53000 44.27500 26.36000
C  3.74600 44.32800 25.63500
C  4.84300 44.38900 26.60500
C  4.25800 44.19500 27.84300
C  2.88400 44.06600 27.67500
C  6.32800 44.48700 26.33000
C  4.56200 44.14900 29.25800
O  5.66400 44.20700 29.86700
C  3.18400 43.92900 29.95500
C  3.30500 42.62300 30.79200
O  2.95800 41.48500 30.54700
O  3.93000 43.01400 31.92400
C  4.50600 41.92000 32.79400
H  -3.35400 42.48400 27.67100
H  -1.14500 43.60500 21.68300
H  4.79200 44.64300 23.76900
H  0.46400 42.72400 30.73100
H  -2.26800 43.57400 29.90300
H  -1.74200 40.84300 29.04000
H  -2.78700 41.45100 30.33700
H  -1.06000 41.09100 30.69100
H  -1.04400 45.14200 31.14600
H  0.60000 45.53900 30.59100
H  -0.43000 45.19700 33.17400
H  1.27600 45.07300 32.90600
H  -5.64200 43.22500 25.28000
H  -5.10800 42.16400 26.48700
H  -5.20600 41.56200 24.88200
H  -5.82200 42.96600 21.43500
H  -5.71400 43.52400 23.13000
H  -5.51700 41.82600 22.77200
H  1.07900 44.89500 20.83200
H  3.69500 43.74100 21.56500
H  0.48500 42.17400 20.92300
H  2.23600 42.15700 20.48800
H  0.99700 43.00900 19.51500
H  3.23500 45.98600 20.38600
H  4.40700 45.99400 21.61300
H  1.81600 47.51800 21.53400
H  3.22400 47.83600 22.42100
H  2.05100 46.77200 23.14400
H  6.80500 45.23100 26.96800
H  6.62200 44.63000 25.29000
H  6.76900 43.54000 26.64100
H  3.02300 44.84900 30.51700
H  5.57600 41.84600 32.60000
H  4.03100 40.95500 32.61500
H  4.39500 42.17100 33.84800

