158

Mg 43.17700 42.46300 25.75700
C  42.39400 44.85500 28.26600
C  44.46500 40.49600 28.24900
C  44.35600 40.39300 23.48800
C  42.21400 44.81100 23.37000
N  43.48000 42.76500 27.94700
C  42.94200 43.72700 28.80600
C  43.19000 43.43900 30.36800
C  44.11400 42.10100 30.27900
C  44.03500 41.76500 28.67500
C  45.50700 42.35100 30.90100
C  41.86800 43.39900 31.16600
C  41.49200 42.32900 32.26100
H  40.86000 42.89300 33.46400
N  44.09500 40.59800 25.83800
C  44.47600 39.93800 27.00500
C  44.86800 38.56900 26.63200
C  44.70600 38.53900 25.20900
C  44.42800 39.85900 24.80500
C  45.30800 37.50400 27.67300
C  44.95400 37.38100 24.22800
O  44.86000 37.46100 22.99900
C  45.18100 36.05000 24.80900
N  43.27700 42.59500 23.74800
C  43.84400 41.57300 23.00700
C  43.76100 41.91000 21.51400
C  42.73000 43.11900 21.49500
C  42.75100 43.56200 22.95000
C  45.09600 42.31500 20.88000
C  41.34000 42.74100 20.91800
C  40.36400 42.08200 21.89200
N  42.48400 44.42600 25.78300
C  42.14500 45.26500 24.74100
C  41.69700 46.52400 25.29400
C  41.78500 46.39800 26.65800
C  42.23600 45.08800 26.88600
C  41.25700 47.68700 24.47300
C  41.54300 47.10000 27.87000
O  41.31800 48.26300 28.10400
C  41.84700 46.12600 28.95100
C  42.88200 46.67800 29.90400
O  44.10800 46.59100 29.69300
O  42.38000 47.16600 31.08900
C  43.36400 47.33000 32.15400
H  44.89500 39.90000 29.05600
H  44.74300 39.72900 22.71200
H  41.91000 45.58400 22.66100
H  43.80200 44.24500 30.77300
H  43.73300 41.21600 30.78800
H  45.71800 43.40900 31.05700
H  46.23500 41.82300 30.28600
H  45.72600 41.89600 31.86700
H  41.00800 43.38300 30.49700
H  41.79200 44.42100 31.53600
H  42.37300 41.74400 32.52600
H  40.85800 41.55700 31.82500
H  45.26800 37.89500 28.69000
H  46.31500 37.17700 27.41500
H  44.66000 36.64700 27.86000
H  45.55400 35.37700 24.03800
H  44.28800 35.69500 25.32500
H  46.04800 36.17600 25.45800
H  43.42100 40.98800 21.04200
H  43.11600 43.99600 20.97500
H  45.73600 42.58700 21.71900
H  44.88800 43.25400 20.36600
H  45.52500 41.51700 20.27300
H  41.54700 42.13000 20.04000
H  41.02100 43.73300 20.60100
H  40.22000 41.10400 21.43200
H  39.42200 42.62800 21.84600
H  40.60100 42.05600 22.95600
H  40.16900 47.67400 24.40800
H  41.60900 47.51500 23.45600
H  41.66300 48.65800 24.75900
H  40.87300 46.03300 29.43000
H  44.04300 46.47800 32.18100
H  42.82800 47.43700 33.09700
H  43.79000 48.33100 32.08300
Mg 10.20300 47.51500 26.05000
C  8.17200 47.80000 28.89400
C  12.82000 48.77300 27.84400
C  12.02600 47.22100 23.28000
C  7.29500 46.55900 24.26400
N  10.46500 48.16100 28.09400
C  9.52700 48.12200 29.12200
C  10.18900 48.44400 30.47100
C  11.40000 49.28700 29.95400
C  11.63400 48.79600 28.58200
C  11.17600 50.88800 30.02200
C  10.61400 47.17000 31.26900
C  10.73400 47.28800 32.74500
H  10.46300 46.12700 33.74200
N  12.23500 47.94600 25.59700
C  13.16400 48.44000 26.48900
C  14.50800 48.35900 25.85700
C  14.22100 47.91800 24.51500
C  12.79200 47.65100 24.37100
C  15.71600 48.76500 26.63800
C  15.20100 47.78900 23.31300
O  14.87000 47.60800 22.12300
C  16.73600 47.94500 23.63600
N  9.70600 47.16400 23.94400
C  10.67100 46.97600 23.06200
C  10.01200 46.68700 21.64600
C  8.56200 46.31600 22.01800
C  8.50900 46.66700 23.47500
C  10.08500 47.93600 20.75300
C  8.10800 44.85100 21.70800
C  8.20600 43.67900 22.77900
N  8.09100 47.30000 26.45600
C  7.02300 46.89600 25.59900
C  5.81200 46.97800 26.36700
C  6.21500 47.19200 27.68200
C  7.59600 47.48100 27.69600
C  4.35400 46.58700 26.01900
C  5.77400 47.31900 29.06600
O  4.69600 47.06300 29.61400
C  7.07500 47.65700 29.97000
C  7.23400 46.42300 30.75100
O  7.34000 45.27800 30.30500
O  7.25800 46.76800 32.08900
C  7.20000 45.58400 33.02600
H  13.59900 49.18900 28.48600
H  12.48500 47.16500 22.29100
H  6.41000 46.30000 23.68000
H  9.43900 49.04700 30.98400
H  12.37800 49.19100 30.42400
H  12.12600 51.32300 30.33300
H  10.47900 51.14100 30.82100
H  10.85200 51.28600 29.06100
H  11.63000 46.93400 30.95500
H  9.98100 46.29200 31.13900
H  10.18500 48.08200 33.25100
H  11.75300 47.65000 32.88200
H  15.51200 48.53200 27.68300
H  16.01000 49.80300 26.48400
H  16.50500 48.06500 26.36400
H  16.91200 47.32700 24.51600
H  16.84300 48.93200 24.08600
H  17.34900 47.77200 22.75100
H  10.65100 45.87000 21.30900
H  7.80200 46.92700 21.53100
H  9.10300 48.13500 20.32300
H  10.83200 47.80400 19.97000
H  10.24900 48.89500 21.24400
H  8.66000 44.47500 20.84700
H  7.06500 44.89100 21.39400
H  8.38500 43.82700 23.84400
H  8.94400 42.90200 22.57800
H  7.26800 43.14500 22.63000
H  4.38100 45.60100 25.55400
H  4.02400 47.32900 25.29200
H  3.67200 46.61100 26.86800
H  6.89500 48.53500 30.59100
H  6.46700 44.80900 32.80600
H  6.99700 45.98900 34.01700
H  8.12200 45.00400 33.07100

