158

Mg 24.97200 -5.30200 46.33600
C  27.27400 -3.06000 44.82400
C  22.66500 -4.43100 44.06900
C  23.10700 -7.91300 47.53900
C  27.70900 -6.50900 48.31800
N  25.12100 -4.07400 44.48000
C  26.09100 -3.19600 44.10500
C  25.65900 -2.34300 42.90300
C  24.07100 -2.49800 42.98300
C  23.90000 -3.75800 43.89400
C  23.23000 -1.32600 43.45800
C  26.26600 -2.84700 41.50200
C  26.80700 -1.84600 40.46600
H  26.35400 -1.97900 38.99500
N  23.04100 -6.05700 45.81400
C  22.21700 -5.56700 44.83000
C  20.96500 -6.22100 44.89300
C  21.02400 -7.17800 45.97200
C  22.45300 -7.08500 46.52300
C  19.82800 -5.78100 44.01000
C  19.93400 -8.06700 46.38200
O  18.82900 -8.14200 45.86800
C  20.07000 -8.81400 47.62400
N  25.39400 -6.93900 47.61800
C  24.46500 -7.89500 47.97100
C  25.08400 -9.03200 48.78200
C  26.59500 -8.73300 48.68600
C  26.56200 -7.28000 48.18600
C  24.43600 -9.15600 50.22700
C  27.48800 -9.63200 47.76500
C  28.71900 -10.41900 48.39000
N  26.98300 -4.74100 46.67700
C  27.95500 -5.35500 47.50400
C  29.18700 -4.53100 47.41900
C  28.91200 -3.62200 46.38900
C  27.64300 -3.84400 45.95000
C  30.41100 -4.70900 48.05500
C  29.51100 -2.57800 45.56400
O  30.62100 -2.12800 45.61800
C  28.51700 -2.18300 44.52300
C  28.31100 -0.74800 44.60000
O  27.32000 -0.22600 45.04200
O  29.40400 -0.11100 44.08800
C  29.19600 1.31500 43.81100
H  21.88200 -4.06500 43.40200
H  22.55000 -8.77600 47.91000
H  28.52300 -6.96600 48.88400
H  26.00700 -1.33200 43.11400
H  23.69300 -2.83600 42.01800
H  22.45300 -1.05000 42.74500
H  23.70000 -0.35300 43.59900
H  22.81100 -1.54100 44.44200
H  25.49800 -3.43100 40.99600
H  27.09300 -3.53300 41.68600
H  27.89100 -1.82500 40.57500
H  26.41700 -0.88500 40.80200
H  19.16600 -6.64300 43.93300
H  20.37100 -5.68400 43.07000
H  19.38800 -4.84400 44.35000
H  19.11700 -9.13400 48.04700
H  20.46300 -8.01200 48.24900
H  20.74600 -9.62900 47.36700
H  25.03000 -9.98700 48.25800
H  27.10000 -8.63800 49.64700
H  23.42500 -8.74900 50.20600
H  24.98400 -8.64300 51.01700
H  24.37400 -10.21600 50.47700
H  27.84300 -9.06000 46.90800
H  26.78400 -10.41200 47.47700
H  28.88400 -11.35800 47.86100
H  28.67200 -10.62400 49.46000
H  29.63900 -9.87800 48.16900
H  30.15500 -4.74900 49.11300
H  31.10700 -3.88400 47.89900
H  30.89900 -5.65200 47.81200
H  28.99400 -2.30100 43.54900
H  30.17200 1.78700 43.69700
H  28.56800 1.84500 44.52800
H  28.77900 1.33100 42.80400
Mg 5.98800 53.44900 40.74100
C  5.67800 49.87700 40.75300
C  8.87000 52.99600 39.09800
C  5.65500 56.52900 39.52800
C  2.56200 53.49200 41.73100
N  7.07200 51.65900 39.99000
C  6.83300 50.35700 40.16000
C  7.92600 49.47400 39.51700
C  9.08100 50.47300 39.60000
C  8.33200 51.81900 39.56300
C  10.06000 50.37800 40.75800
C  7.64600 48.99400 38.00400
C  6.68200 49.82200 37.15700
H  7.14800 51.04800 36.47700
N  7.20600 54.72800 39.66200
C  8.38500 54.32000 39.01100
C  8.96800 55.36700 38.21400
C  8.00000 56.40200 38.33900
C  6.84300 55.93100 39.17400
C  10.46500 55.33600 37.62900
C  8.14200 57.74700 37.59400
O  9.00700 57.95000 36.75100
C  7.12200 58.81800 37.76300
N  4.26100 54.80500 40.56900
C  4.42200 56.07900 40.13700
C  3.23900 57.02200 40.41900
C  2.23600 55.97100 41.02600
C  3.04600 54.66700 41.14100
C  3.65000 58.25100 41.24300
C  0.96100 55.73200 40.21400
C  -0.29500 55.48800 41.10600
N  4.48500 52.02800 41.46700
C  3.21200 52.25600 41.85400
C  2.70300 51.03900 42.43700
C  3.57800 50.02200 41.90600
C  4.67300 50.70900 41.35100
C  1.38800 50.87700 43.19900
C  3.83300 48.60600 41.77900
O  3.26400 47.66000 42.31700
C  5.19600 48.48700 40.98400
C  4.75600 47.77300 39.80000
O  4.05200 48.20600 38.88200
O  5.28100 46.47900 39.87700
C  4.98500 45.59300 38.76200
H  9.84400 52.83800 38.63100
H  5.50600 57.57100 39.23700
H  1.53100 53.48800 42.09100
H  8.07800 48.61800 40.17400
H  9.63100 50.38100 38.66400
H  11.01700 49.95700 40.45200
H  9.72600 49.71000 41.55100
H  10.30500 51.36300 41.15600
H  7.31300 47.95600 38.01900
H  8.61300 49.06600 37.50500
H  5.82200 50.11700 37.75900
H  6.33600 49.11500 36.40300
H  10.97000 54.37500 37.72700
H  11.02200 56.15000 38.09300
H  10.49500 55.50800 36.55300
H  6.97000 59.04900 38.81700
H  6.20300 58.42600 37.32700
H  7.58800 59.64300 37.22400
H  2.82200 57.25900 39.44000
H  2.14200 56.21300 42.08400
H  2.93900 58.31300 42.06700
H  3.52300 59.08200 40.54900
H  4.70300 58.34900 41.50800
H  1.06200 54.90500 39.51200
H  0.75500 56.55600 39.53000
H  -0.09000 55.30900 42.16100
H  -0.82600 54.62500 40.70700
H  -0.84500 56.41800 40.96000
H  0.95200 51.83100 43.49400
H  1.36100 50.11500 43.97800
H  0.69800 50.53700 42.42600
H  5.87300 47.86500 41.56900
H  5.33800 45.94200 37.79100
H  3.92900 45.32500 38.76800
H  5.51300 44.64600 38.88000

