158

Mg 1.05700 8.07400 27.70700
C  1.96900 10.42300 30.15500
C  1.42000 5.60500 30.00800
C  0.80000 5.95800 25.23400
C  1.29300 10.66400 25.24600
N  1.52600 8.03500 29.92300
C  1.78600 9.14800 30.71200
C  1.69400 8.75500 32.18500
C  2.00500 7.18100 32.08800
C  1.65900 6.85800 30.61500
C  3.47000 6.75100 32.49700
C  0.32500 9.10400 32.83000
C  0.07700 8.91000 34.31600
H  1.18800 8.26200 35.12400
N  0.89700 6.00400 27.62100
C  1.07500 5.16000 28.67700
C  0.95200 3.82300 28.24700
C  0.59200 3.87700 26.87400
C  0.76800 5.28900 26.47100
C  0.93300 2.59300 29.14700
C  0.16300 2.79600 26.00200
O  -0.20300 3.04400 24.85700
C  0.02600 1.43800 26.53800
N  1.19900 8.28100 25.56500
C  1.00100 7.25200 24.78200
C  0.87600 7.65700 23.36000
C  0.76000 9.23100 23.39200
C  1.08600 9.41900 24.84800
C  2.17000 7.22600 22.63100
C  -0.55500 9.80600 22.91100
C  -0.49800 10.85000 21.73300
N  1.47700 10.08400 27.65100
C  1.56200 10.94400 26.60200
C  2.02500 12.23600 27.14400
C  2.26800 12.04900 28.50300
C  1.93300 10.74500 28.76300
C  2.12500 13.42600 26.28300
C  2.59000 12.74600 29.68800
O  3.05600 13.82900 29.91100
C  2.41400 11.68900 30.80600
C  3.62700 11.43900 31.64100
O  4.53800 10.66700 31.36000
O  3.57100 12.18700 32.80300
C  4.73300 12.06400 33.63100
H  1.55100 4.85300 30.78900
H  0.56500 5.26100 24.42700
H  1.43000 11.41800 24.46800
H  2.45200 9.32200 32.72500
H  1.27600 6.68100 32.72600
H  3.83000 6.24000 31.60500
H  3.28600 5.98700 33.25100
H  4.16200 7.48500 32.91200
H  -0.47100 8.55600 32.32500
H  0.24200 10.17300 32.63100
H  -0.88000 8.41800 34.48700
H  -0.08200 9.81200 34.90700
H  -0.11800 2.32100 29.24300
H  1.35900 2.85200 30.11600
H  1.63100 1.79300 28.90300
H  -0.43600 0.90600 25.70600
H  -0.64100 1.42000 27.40000
H  1.03700 1.03200 26.56600
H  -0.03500 7.19500 22.97900
H  1.54600 9.78700 22.88100
H  2.53100 6.29900 23.07600
H  2.94500 7.99100 22.58900
H  2.00200 6.85300 21.62100
H  -1.01100 10.38200 23.71600
H  -1.24000 9.05700 22.51200
H  -0.79800 11.69100 22.35900
H  -1.11800 10.45200 20.93000
H  0.53800 10.97100 21.41800
H  1.12500 13.71400 25.96000
H  2.74200 13.25900 25.40000
H  2.53500 14.27500 26.83100
H  1.66800 11.95700 31.55400
H  4.73900 12.72200 34.50000
H  5.62200 12.44100 33.12600
H  5.00500 11.04000 33.88700
Mg 55.94100 23.89000 44.78800
C  53.76100 26.52500 44.27400
C  53.53000 21.71600 43.85600
C  58.34900 21.51400 44.70500
C  58.49000 26.38800 45.46400
N  53.91600 24.09400 44.12100
C  53.16300 25.24100 43.97400
C  51.78500 24.97200 43.43900
C  51.56800 23.46000 43.81600
C  53.09100 23.04700 43.83400
C  50.92300 23.27500 45.22400
C  51.76200 25.19400 41.90700
C  50.36200 25.28600 41.34900
H  49.94800 24.47000 40.05800
N  55.92300 21.83500 44.28000
C  54.78400 21.10800 44.04100
C  55.16800 19.70000 43.76700
C  56.56400 19.59400 43.99700
C  57.01700 21.03100 44.34700
C  54.24100 18.66000 43.43500
C  57.36200 18.26700 44.01900
O  56.81400 17.19100 43.78000
C  58.79500 18.27000 44.38100
N  58.09700 23.98700 45.16300
C  58.84800 22.81300 44.98100
C  60.32000 23.06100 45.32600
C  60.44900 24.61400 45.32500
C  58.97000 25.07900 45.36900
C  60.86800 22.34200 46.66100
C  61.19600 25.21300 44.10800
C  62.35700 26.14200 44.43900
N  56.05700 26.04100 45.06200
C  57.15000 26.82800 45.33500
C  56.65200 28.23200 45.33100
C  55.32100 28.11300 45.00200
C  55.01400 26.75900 44.78600
C  57.54100 29.52400 45.49700
C  54.08800 28.87200 44.79400
O  53.78300 30.06400 44.84500
C  53.13300 27.92300 44.17200
C  52.86300 28.30600 42.80500
O  53.66900 28.31600 41.87300
O  51.49500 28.41000 42.62500
C  50.99700 28.87900 41.34100
H  52.69900 21.03500 43.66000
H  59.20600 20.83800 44.66300
H  59.19800 27.21900 45.44600
H  51.14500 25.67800 43.96900
H  50.98600 22.94500 43.05200
H  50.08300 22.60300 45.05000
H  50.55000 24.24600 45.55000
H  51.54600 22.79900 45.98100
H  52.20900 24.35000 41.38200
H  52.33500 26.05900 41.57200
H  50.25900 26.34600 41.11600
H  49.63400 24.99800 42.10700
H  54.62900 18.27500 42.49200
H  53.20600 18.99600 43.38000
H  54.14100 17.84100 44.14800
H  59.39200 18.90100 43.72200
H  59.30900 17.31300 44.47300
H  58.93000 18.68100 45.38200
H  60.88200 22.61300 44.50700
H  60.99000 24.95000 46.21000
H  60.38300 21.38600 46.85700
H  60.70500 22.92300 47.56800
H  61.88300 22.03500 46.40900
H  60.50800 25.86600 43.57100
H  61.61000 24.44200 43.45800
H  62.44000 26.96000 43.72300
H  63.33600 25.67600 44.32500
H  62.25100 26.66400 45.39000
H  57.04400 30.40700 45.09500
H  58.52100 29.44400 45.02700
H  57.63700 29.64300 46.57700
H  52.15500 27.98800 44.65000
H  51.43000 29.86800 41.19700
H  49.94100 29.14000 41.41500
H  51.22300 28.26400 40.47000

