158

Mg 25.30200 1.29300 29.89800
C  27.59900 0.91300 32.62900
C  22.90400 1.83600 32.12800
C  23.27500 1.49300 27.32400
C  28.08300 0.76900 27.75300
N  25.31200 1.29300 32.13900
C  26.34600 1.42200 32.97700
C  25.83200 1.89600 34.37600
C  24.28200 1.96500 34.20800
C  24.15400 1.71000 32.71700
C  23.58200 0.86200 35.11700
C  26.46000 3.24500 34.90900
C  26.94200 3.19600 36.39100
H  26.29800 4.18900 37.38800
N  23.30200 1.60200 29.71400
C  22.42200 1.77300 30.74700
C  21.08700 1.72900 30.29400
C  21.19200 1.73500 28.89100
C  22.65200 1.64000 28.58300
C  19.87200 1.74700 31.19300
C  20.11100 1.76800 27.83700
O  20.31700 1.69100 26.65500
C  18.68200 1.78100 28.25700
N  25.62200 1.06100 27.92600
C  24.62800 1.25400 26.99100
C  25.11900 1.23100 25.50800
C  26.60800 1.33400 25.76800
C  26.78300 1.00800 27.25200
C  24.60900 0.16200 24.54200
C  27.35700 2.59300 25.24100
C  27.32100 3.79100 26.13500
N  27.31300 0.77600 30.11400
C  28.33400 0.60500 29.11900
C  29.59200 0.39700 29.76900
C  29.31100 0.55400 31.13700
C  27.95800 0.74400 31.30900
C  30.86100 0.06800 29.07800
C  29.99700 0.64100 32.39500
O  31.14300 0.52600 32.68500
C  28.88800 0.99300 33.44000
C  29.10200 0.00900 34.50200
O  29.10500 -1.18200 34.29800
O  29.20000 0.66600 35.66200
C  29.36900 -0.04700 36.91700
H  22.14800 1.99700 32.89900
H  22.61100 1.62500 26.46700
H  28.86600 0.77700 26.99200
H  26.07700 1.14900 35.13100
H  23.94800 2.96100 34.49700
H  24.04900 -0.10800 34.94600
H  22.55600 0.76000 34.76300
H  23.57200 1.19300 36.15500
H  25.75100 4.05200 34.72500
H  27.40100 3.42900 34.38900
H  28.01300 3.39500 36.38800
H  26.73100 2.20700 36.79800
H  19.56500 2.78500 31.32100
H  20.26100 1.38200 32.14400
H  19.14600 0.98500 30.90900
H  18.51300 2.59300 28.96400
H  18.45500 0.75300 28.53800
H  18.03600 1.97900 27.40100
H  24.76200 2.13000 25.00700
H  27.11300 0.42700 25.43500
H  24.23000 -0.62700 25.19100
H  25.41200 -0.39400 24.05700
H  23.82700 0.34000 23.80400
H  26.90700 2.80000 24.27000
H  28.41000 2.35000 25.09600
H  26.85800 3.64300 27.11000
H  26.65100 4.48900 25.63200
H  28.32200 4.21700 26.20200
H  31.04100 0.13000 28.00400
H  30.99000 -0.95900 29.42000
H  31.50300 0.84700 29.48900
H  29.04100 2.01900 33.77400
H  29.43300 -1.12900 36.80300
H  28.59500 -0.01400 37.68500
H  30.30000 0.26700 37.38900
Mg 40.98200 9.99400 29.51600
C  42.70700 11.13300 32.45100
C  38.96100 8.09800 31.61100
C  39.43500 8.77600 26.79900
C  43.60800 11.14800 27.68800
N  40.80700 9.78500 31.84700
C  41.59600 10.36000 32.83200
C  40.99900 10.06200 34.20300
C  39.99500 8.89200 33.83800
C  39.96100 8.79400 32.31300
C  40.12200 7.59400 34.63400
C  40.45200 11.33200 34.86700
C  39.93900 11.15000 36.36100
H  40.49500 12.09200 37.45100
N  39.30600 8.75200 29.27500
C  38.65800 8.06900 30.26100
C  37.59100 7.28900 29.60800
C  37.63500 7.56100 28.19100
C  38.81300 8.36300 28.02400
C  36.75200 6.27400 30.36300
C  36.79300 7.03600 27.13200
O  36.93100 7.24400 25.95900
C  35.52800 6.28300 27.49500
N  41.38000 10.09900 27.54600
C  40.67700 9.45100 26.58900
C  41.38700 9.45200 25.18900
C  42.65800 10.28400 25.50300
C  42.57400 10.53700 27.02700
C  41.61600 8.11800 24.52000
C  42.79700 11.45500 24.55900
C  42.16900 12.81500 24.89900
N  42.79200 10.99300 29.92500
C  43.67600 11.48100 29.06000
C  44.74700 12.02900 29.77600
C  44.38400 12.00800 31.19200
C  43.18200 11.32700 31.13600
C  46.08500 12.35800 29.15100
C  44.83500 12.32800 32.52600
O  45.76300 12.95300 33.00100
C  43.69100 11.77400 33.42500
C  44.30000 10.88800 34.47200
O  44.97100 9.88600 34.17700
O  44.00400 11.31500 35.73900
C  44.76900 10.62000 36.81000
H  38.43700 7.56600 32.40800
H  39.17900 8.36100 25.82200
H  44.36000 11.57300 27.02000
H  41.91100 9.70100 34.67800
H  39.01400 9.13600 34.24400
H  40.20100 6.79300 33.89800
H  39.21200 7.53400 35.23100
H  40.96300 7.45600 35.31300
H  39.88600 11.97500 34.19400
H  41.28500 11.97500 35.15300
H  40.34900 10.16100 36.56400
H  38.85100 11.11300 36.29600
H  36.75600 5.38400 29.73300
H  35.73400 6.63500 30.51000
H  37.34900 6.14800 31.26700
H  34.78900 6.85400 28.05900
H  35.83000 5.34800 27.96700
H  34.96600 6.02300 26.59800
H  40.74500 10.03400 24.52800
H  43.53200 9.66000 25.31700
H  41.34500 7.32700 25.21900
H  42.65800 7.99300 24.22500
H  40.88800 8.07200 23.71000
H  42.51400 11.18600 23.54100
H  43.85100 11.73000 24.51700
H  41.47100 13.13800 24.12700
H  43.00500 13.51000 24.96900
H  41.64400 12.95100 25.84500
H  46.70200 12.60400 30.01500
H  46.11400 13.20500 28.46500
H  46.26600 11.44800 28.57900
H  43.30400 12.65800 33.93300
H  44.70300 11.20200 37.72900
H  45.81800 10.40700 36.60400
H  44.38900 9.60900 36.95500

