158

Mg 46.00900 4.75600 48.21000
C  43.73600 7.20200 47.45100
C  43.37200 2.47300 47.69400
C  48.17000 2.20800 48.12000
C  48.62500 7.06800 47.47100
N  43.71400 4.87800 47.82100
C  43.04800 5.96200 47.40200
C  41.60700 5.67800 46.92300
C  41.45400 4.19100 47.37800
C  42.89500 3.82700 47.72100
C  40.43200 4.03200 48.52200
C  41.68600 5.88400 45.37400
C  40.78100 7.03500 44.78800
H  41.33600 7.92600 43.65300
N  45.81100 2.66700 48.04800
C  44.64800 1.93400 47.84900
C  45.03200 0.54800 47.67400
C  46.38500 0.34300 47.89600
C  46.83800 1.72700 48.11300
C  44.01400 -0.56800 47.31900
C  47.21800 -0.93600 47.71000
O  46.61100 -2.01400 47.52800
C  48.65500 -0.97400 47.73700
N  48.07400 4.60800 47.98200
C  48.77600 3.44300 48.13300
C  50.31300 3.65300 47.96100
C  50.45600 5.22600 47.85400
C  48.98800 5.67800 47.76200
C  50.97900 3.01700 49.21900
C  51.35100 5.80000 46.79500
C  52.56300 6.58500 47.31700
N  46.23100 6.71800 47.77700
C  47.31500 7.51400 47.50700
C  46.92900 8.89500 47.50100
C  45.53600 8.83800 47.43600
C  45.12300 7.48100 47.63100
C  47.89000 10.08400 47.56800
C  44.37300 9.67200 47.34800
O  44.29500 10.90600 47.15900
C  43.13600 8.63900 47.31500
C  42.10000 8.97700 48.33500
O  41.94800 8.32200 49.35300
O  41.15100 9.87000 47.82400
C  40.12400 10.16800 48.76800
H  42.53900 1.77800 47.56900
H  48.96400 1.46200 48.18300
H  49.45300 7.78000 47.47100
H  40.86300 6.38000 47.29800
H  41.10200 3.47500 46.63400
H  40.98400 3.70400 49.40300
H  39.61000 3.34700 48.31300
H  39.85900 4.94700 48.67400
H  41.34800 5.01400 44.81000
H  42.64800 6.20500 44.97600
H  40.58900 7.70200 45.62900
H  39.76800 6.68100 44.59900
H  44.41400 -1.03500 46.41900
H  43.05200 -0.10600 47.09600
H  44.06700 -1.12700 48.25400
H  48.97300 -0.57200 48.69900
H  49.06400 -0.30300 46.98200
H  49.13400 -1.95200 47.69300
H  50.55800 3.16300 47.01900
H  50.89700 5.66100 48.75100
H  51.38300 2.11900 48.75200
H  50.20700 2.65600 49.89900
H  51.78700 3.65100 49.58400
H  50.91100 6.49500 46.08000
H  51.88900 4.98900 46.30400
H  52.36500 7.11700 48.24700
H  52.86000 7.31100 46.56100
H  53.40600 5.93200 47.54400
H  48.69400 9.91500 46.85100
H  48.32700 10.17300 48.56200
H  47.31800 10.98200 47.33500
H  42.61400 8.86000 46.38300
H  39.48500 10.91400 48.29400
H  40.37800 10.47200 49.78300
H  39.45100 9.31800 48.87800
Mg 16.73700 52.56400 26.36900
C  18.21300 51.24300 29.22800
C  14.00200 53.21500 28.38800
C  14.95600 53.58500 23.53500
C  18.94900 50.86300 24.41000
N  16.30800 52.32600 28.52800
C  17.11200 51.94400 29.50900
C  16.50000 52.24300 30.85000
C  15.02500 52.57700 30.56500
C  15.14000 52.73800 29.07600
C  14.08500 51.37400 31.01900
C  17.37900 53.40700 31.45800
C  17.49200 53.40200 32.98600
H  16.43700 52.58800 33.73100
N  14.84300 53.37700 26.00200
C  13.87900 53.57000 27.00800
C  12.73500 54.23600 26.36600
C  12.98300 54.27400 24.97900
C  14.32600 53.70000 24.76600
C  11.51100 54.70800 27.11100
C  12.01900 54.66700 23.78400
O  12.33700 54.57800 22.60600
C  10.56500 55.20100 24.07500
N  16.91900 52.36800 24.31900
C  16.14300 52.86300 23.33300
C  16.64100 52.55800 21.90900
C  18.07600 51.98900 22.30600
C  18.00000 51.70700 23.76600
C  15.60800 51.46700 21.23000
C  19.30000 52.94600 21.88700
C  20.47500 52.23900 21.22400
N  18.27000 51.24300 26.68900
C  19.06000 50.61100 25.76700
C  20.05400 49.85600 26.48100
C  19.74300 50.04700 27.82000
C  18.62600 50.87100 27.88900
C  21.28900 49.26100 25.87000
C  20.23100 49.88300 29.20000
O  21.21600 49.29400 29.52700
C  19.20900 50.69800 30.16300
C  18.56300 49.71500 31.09700
O  17.73600 48.85600 30.74400
O  19.06000 49.91700 32.38800
C  18.62100 49.02200 33.44200
H  13.13700 53.35000 29.04100
H  14.45600 53.94300 22.63300
H  19.71600 50.41400 23.77700
H  16.56000 51.28700 31.37100
H  14.64000 53.44800 31.09600
H  14.58400 50.65200 31.66600
H  13.73100 50.86400 30.12300
H  13.26000 51.83400 31.56300
H  16.79800 54.29300 31.20000
H  18.37800 53.46000 31.02500
H  17.45700 54.36500 33.49400
H  18.50600 53.10600 33.25800
H  10.63800 54.12200 26.82300
H  11.28900 55.71800 26.76500
H  11.75600 54.73100 28.17300
H  10.03000 54.44000 24.64300
H  10.15200 55.16600 23.06700
H  10.65300 56.11400 24.66500
H  16.62900 53.35900 21.16900
H  18.17500 51.01100 21.83600
H  14.86300 51.01300 21.88300
H  16.19600 50.68600 20.74800
H  15.07500 51.99700 20.44000
H  19.62600 53.34800 22.84600
H  18.98200 53.80900 21.30100
H  20.55800 52.66600 20.22400
H  20.18600 51.19600 21.09400
H  21.41600 52.22700 21.77300
H  21.67800 49.85100 25.04000
H  21.02100 48.24700 25.57400
H  22.14500 49.20500 26.54300
H  19.69700 51.51500 30.69500
H  19.37100 48.80400 34.20200
H  18.06200 48.19500 33.00400
H  17.90400 49.55400 34.06800

