158

Mg 40.66400 9.01600 29.18000
C  42.46100 10.28500 31.86300
C  38.53300 7.64700 31.52000
C  39.05100 7.71500 26.67000
C  43.34800 9.95200 27.13200
N  40.47900 9.13000 31.40500
C  41.34000 9.70600 32.28300
C  40.80200 9.60200 33.70900
C  39.77400 8.45700 33.59500
C  39.56000 8.41500 32.04400
C  40.04700 7.04100 34.14200
C  40.13400 10.91800 34.33600
C  40.34200 11.01100 35.86400
H  40.77800 12.27200 36.49300
N  39.04400 7.78000 29.12200
C  38.27000 7.36800 30.17900
C  37.15300 6.57000 29.68200
C  37.21400 6.65100 28.24700
C  38.44800 7.40800 27.94900
C  36.15600 5.92800 30.64900
C  36.22400 6.08000 27.11000
O  36.42800 6.11000 25.92900
C  34.95300 5.42300 27.53200
N  41.32400 8.63800 27.19600
C  40.33600 8.25100 26.30800
C  40.74900 8.50000 24.84800
C  42.11900 9.16700 25.02100
C  42.31200 9.23700 26.51700
C  40.62700 7.18100 24.02300
C  42.26600 10.47200 24.24200
C  41.70300 11.71400 24.87500
N  42.46100 10.11900 29.36800
C  43.52200 10.30600 28.41400
C  44.52900 11.10300 29.12500
C  44.15500 11.08800 30.47600
C  42.89300 10.51300 30.51800
C  45.76300 11.67900 28.50200
C  44.60700 11.57800 31.69800
O  45.54100 12.23700 32.07200
C  43.48900 11.02500 32.65000
C  44.10200 10.03600 33.59600
O  44.66300 8.95900 33.33500
O  43.96900 10.57300 34.90700
C  44.57200 9.80500 35.92200
H  37.75400 7.29400 32.19800
H  38.39100 7.61200 25.80600
H  44.02100 10.28300 26.33800
H  41.58200 9.21600 34.36600
H  38.85600 8.71400 34.12400
H  40.80900 7.18700 34.90700
H  40.27900 6.28400 33.39300
H  39.22200 6.77900 34.80500
H  39.06300 10.96500 34.14400
H  40.56500 11.78700 33.83800
H  41.09200 10.30700 36.22600
H  39.41700 10.63900 36.30400
H  36.49500 5.70600 31.66100
H  36.04200 4.91100 30.27500
H  35.18700 6.42600 30.69100
H  35.09200 4.67100 28.30800
H  34.39900 5.04200 26.67300
H  34.40400 6.26000 27.96300
H  40.07100 9.17500 24.32600
H  42.80500 8.42600 24.61100
H  41.60100 6.76600 23.76500
H  40.12600 7.37700 23.07500
H  40.08500 6.44900 24.62000
H  41.73800 10.44900 23.28900
H  43.33500 10.60300 24.07800
H  41.37200 11.55900 25.90200
H  40.95000 12.10600 24.19100
H  42.49000 12.46000 24.98900
H  45.41200 12.29100 27.67100
H  46.43400 10.89100 28.15900
H  46.30300 12.21400 29.28300
H  43.06700 11.87300 33.18900
H  45.56600 9.40300 35.72400
H  43.92500 8.99500 36.25900
H  44.67600 10.52500 36.73400
Mg 16.71300 51.95900 27.02000
C  18.77300 50.78400 29.49600
C  14.24800 52.61800 29.39400
C  14.72400 53.19300 24.55200
C  19.16500 51.18400 24.59600
N  16.56700 51.70300 29.20900
C  17.57400 51.30200 30.03500
C  17.18200 51.45700 31.48100
C  15.67900 51.84400 31.48500
C  15.43900 51.99700 29.95000
C  14.68400 50.74500 31.99900
C  18.11300 52.57200 32.16000
C  18.61200 52.44600 33.62200
H  17.70800 51.63800 34.52800
N  14.77500 52.84500 26.99200
C  13.98900 53.11400 28.10600
C  12.78100 53.76000 27.62800
C  12.86200 53.93400 26.22500
C  14.19500 53.32600 25.83100
C  11.69100 54.22000 28.62200
C  11.89300 54.66000 25.28200
O  12.09600 54.78200 24.13900
C  10.61500 55.22200 25.83300
N  16.83700 51.97500 24.85500
C  15.94100 52.66200 24.09700
C  16.38700 52.58900 22.58200
C  17.92300 52.44700 22.73500
C  18.04000 51.82600 24.13200
C  15.72400 51.40700 21.77800
C  18.87300 53.70200 22.66300
C  19.36800 54.08100 21.21100
N  18.45900 50.99600 26.94700
C  19.40700 50.76500 25.95100
C  20.49300 49.94700 26.45000
C  20.30900 50.01700 27.80800
C  19.08400 50.65800 28.10200
C  21.60900 49.33000 25.65400
C  20.88300 49.60700 29.06300
O  21.78700 48.77100 29.28400
C  19.97900 50.13800 30.26500
C  19.74500 48.98000 31.12300
O  19.28100 47.89500 30.69000
O  19.91500 49.42900 32.42700
C  19.52400 48.39400 33.37700
H  13.57300 52.89700 30.20500
H  14.07500 53.55000 23.74900
H  19.92500 51.16400 23.81300
H  17.26500 50.52600 32.04200
H  15.43500 52.73100 32.07000
H  14.18900 50.34900 31.11200
H  13.92600 51.19700 32.63900
H  15.26300 49.94700 32.46300
H  17.61800 53.53900 32.07200
H  18.93600 52.69400 31.45600
H  18.69300 53.38200 34.17500
H  19.62900 52.07600 33.75700
H  10.70400 53.88900 28.29700
H  11.78200 55.30100 28.51700
H  12.02800 53.89500 29.60600
H  9.95800 54.56600 26.40400
H  9.94300 55.52100 25.02700
H  10.69500 56.13200 26.42600
H  16.13300 53.53600 22.10600
H  18.33700 51.77100 21.98700
H  14.72900 51.32300 22.21500
H  16.22000 50.44100 21.86800
H  15.57000 51.70600 20.74100
H  19.71600 53.55300 23.33800
H  18.26500 54.53700 23.01300
H  19.01100 55.09500 21.02900
H  19.02400 53.40900 20.42400
H  20.44300 54.11900 21.38900
H  21.64100 49.85400 24.69900
H  21.51100 48.24500 25.64200
H  22.57900 49.46700 26.13200
H  20.46300 50.89600 30.88200
H  18.44300 48.26200 33.33500
H  19.67800 48.77000 34.38800
H  19.96600 47.40800 33.23700

