158

Mg 35.23200 1.39600 29.38500
C  32.97600 2.26200 31.88600
C  37.85400 1.80800 31.52300
C  37.31800 0.99800 26.71500
C  32.56800 1.99500 27.09300
N  35.34500 2.05100 31.38300
C  34.29600 2.18300 32.27300
C  34.79700 2.31800 33.73100
C  36.34000 2.48900 33.46600
C  36.51100 2.03600 32.00200
C  36.91200 3.91500 33.82000
C  34.42500 1.07600 34.56400
C  34.06100 1.32000 36.06700
H  34.50500 2.62700 36.84300
N  37.28400 1.33000 29.17600
C  38.20100 1.49100 30.18000
C  39.55400 1.45300 29.66500
C  39.38100 1.34100 28.28300
C  37.94800 1.23800 27.99000
C  40.76100 1.80300 30.56500
C  40.53800 1.27400 27.22600
O  40.31800 1.16000 26.05800
C  41.99300 1.36900 27.63100
N  34.93400 1.36900 27.22200
C  36.00100 1.20700 26.31900
C  35.48100 1.29000 24.87300
C  33.98900 1.70400 25.00500
C  33.80800 1.72200 26.51000
C  36.28300 2.32900 23.95600
C  33.01400 0.75800 24.31800
C  32.98400 -0.65900 24.92700
N  33.16100 1.81200 29.43300
C  32.23100 2.02900 28.44100
C  30.93100 2.39800 29.03900
C  31.15900 2.40400 30.42400
C  32.53400 2.13800 30.59000
C  29.68300 2.90200 28.35700
C  30.57800 2.77200 31.65300
O  29.45600 3.21500 31.93200
C  31.70000 2.50100 32.71700
C  31.73700 3.83000 33.45900
O  32.07800 4.90500 32.98500
O  31.24300 3.67500 34.68800
C  31.27800 4.94200 35.44000
H  38.66800 1.99900 32.22500
H  38.08000 0.77700 25.96500
H  31.73900 2.40700 26.51400
H  34.37300 3.20200 34.20700
H  36.84000 1.74400 34.08600
H  36.05700 4.59100 33.78400
H  37.64500 4.30500 33.11400
H  37.35500 3.79600 34.80900
H  35.22600 0.33800 34.60500
H  33.49700 0.68500 34.14600
H  34.51000 0.42500 36.49800
H  32.98000 1.19900 36.13800
H  41.40800 2.28900 29.83500
H  41.26400 0.84900 30.72400
H  40.53900 2.19800 31.55600
H  42.24600 0.65300 28.41300
H  42.42100 2.34700 27.85500
H  42.56200 1.00700 26.77500
H  35.71900 0.31400 24.45100
H  33.94400 2.75000 24.70200
H  36.98100 2.00300 23.18500
H  36.94200 2.92400 24.58800
H  35.56900 2.94200 23.40700
H  33.33800 0.52600 23.30300
H  32.01500 1.19400 24.34800
H  32.85900 -1.37100 24.11100
H  31.99800 -0.81400 25.36600
H  33.79600 -0.96800 25.58500
H  29.88200 3.80200 27.77600
H  28.83800 3.16500 28.99300
H  29.42400 2.14200 27.62000
H  31.42100 1.71800 33.42200
H  30.50200 5.58000 35.01600
H  32.27000 5.39300 35.47500
H  31.04600 4.55800 36.43300
Mg -1.73300 33.38200 26.95200
C  -3.21900 31.66700 29.61800
C  -0.15800 35.58900 29.00900
C  -0.90600 35.33800 24.29400
C  -3.46100 31.18100 24.67300
N  -1.82900 33.70600 29.06300
C  -2.45100 32.89100 29.98900
C  -2.04200 33.33000 31.41300
C  -1.12100 34.56100 31.17700
C  -1.03700 34.60500 29.61600
C  -1.67400 35.91400 31.83300
C  -1.41400 32.20300 32.29500
C  -0.45200 32.60100 33.41000
H  -0.62300 32.06100 34.84200
N  -0.66900 35.18300 26.69000
C  -0.07900 35.94400 27.61000
C  0.74100 37.00000 27.00400
C  0.54000 36.90600 25.60300
C  -0.42200 35.81500 25.45200
C  1.71700 37.80200 27.90700
C  1.08500 37.80800 24.55900
O  0.82100 37.67800 23.36300
C  2.06500 38.88100 24.86800
N  -2.28700 33.41300 24.72100
C  -1.77500 34.32500 23.90300
C  -1.94400 33.86600 22.43500
C  -2.54600 32.37400 22.60700
C  -2.79500 32.30600 24.07400
C  -2.87100 34.71300 21.61800
C  -1.55500 31.20900 22.09600
C  -0.11400 31.11500 22.64400
N  -3.04500 31.75200 27.10000
C  -3.61800 30.98300 26.09600
C  -4.40200 29.91100 26.77700
C  -4.27000 30.15800 28.14100
C  -3.45500 31.27300 28.28500
C  -5.36200 28.94800 26.13800
C  -4.76900 29.73700 29.47800
O  -5.47700 28.77200 29.77400
C  -4.00900 30.70200 30.45200
C  -4.98900 31.45200 31.34000
O  -5.36900 32.61100 31.20700
O  -5.27600 30.59400 32.41200
C  -5.78800 31.30700 33.65300
H  0.46200 36.17100 29.69400
H  -0.50700 35.89300 23.44200
H  -3.97000 30.44600 24.04500
H  -2.99600 33.64500 31.83700
H  -0.07200 34.47000 31.45800
H  -2.52000 35.63100 32.45900
H  -2.07600 36.58600 31.07600
H  -0.87700 36.44300 32.35400
H  -1.02300 31.40400 31.66500
H  -2.29000 31.83000 32.82500
H  -0.14700 33.64700 33.42200
H  0.45400 32.11100 33.05400
H  2.73100 37.40600 27.86000
H  1.25700 37.85500 28.89400
H  1.75100 38.86600 27.67100
H  1.60100 39.73000 25.37100
H  2.46400 39.27100 23.93200
H  2.92200 38.57900 25.47000
H  -0.99900 33.78200 21.89800
H  -3.46000 32.29500 22.01900
H  -2.86000 35.69400 22.09300
H  -3.92200 34.42700 21.58500
H  -2.59100 34.93700 20.58900
H  -1.49700 31.35900 21.01800
H  -2.03500 30.23900 22.23200
H  -0.07200 31.84000 23.45600
H  0.73500 31.36900 22.00800
H  -0.04100 30.12200 23.08700
H  -5.05300 28.77900 25.10600
H  -6.39700 29.29000 26.17100
H  -5.35400 27.96400 26.60600
H  -3.50900 29.96900 31.08600
H  -4.96900 31.76700 34.20500
H  -6.09300 30.54100 34.36500
H  -6.61700 31.99200 33.47300

