158

Mg -9.37000 39.98300 43.33900
C  -8.24000 36.91300 42.20000
C  -6.71600 41.52900 41.90800
C  -10.94900 42.90800 43.85400
C  -12.57600 38.32400 43.98900
N  -7.71300 39.27100 42.23200
C  -7.45900 37.97300 41.78600
C  -6.22600 37.95200 40.93200
C  -5.71100 39.45900 40.82700
C  -6.69400 40.14200 41.81700
C  -4.21600 39.73500 41.09600
C  -6.33300 37.29400 39.51700
C  -5.28300 36.12100 39.28200
H  -4.30700 36.40900 38.07900
N  -8.84700 41.97000 42.93000
C  -7.65500 42.38500 42.45600
C  -7.61300 43.89900 42.46700
C  -8.84800 44.32400 43.08800
C  -9.60600 43.04500 43.32200
C  -6.42500 44.73500 41.92700
C  -9.14200 45.69200 43.37000
O  -8.28200 46.53000 43.23100
C  -10.41300 46.11000 43.96700
N  -11.46900 40.52300 43.87400
C  -11.84300 41.81400 44.00500
C  -13.18200 41.97100 44.66600
C  -13.73300 40.52600 44.55400
C  -12.51700 39.73200 44.08200
C  -13.08800 42.39200 46.16100
C  -14.90000 40.30600 43.55100
C  -16.12000 39.71600 44.27400
N  -10.16900 38.02600 43.33100
C  -11.45800 37.52900 43.65800
C  -11.45800 36.06200 43.65000
C  -10.23100 35.75000 42.97500
C  -9.49900 36.99100 42.88800
C  -12.58600 35.16600 43.90100
C  -9.33600 34.73600 42.49600
O  -9.50200 33.52000 42.55800
C  -8.02100 35.38900 41.93000
C  -6.90300 34.88800 42.75300
O  -6.51200 35.23500 43.88300
O  -6.26200 33.98800 41.93300
C  -5.17900 33.13800 42.57400
H  -5.99100 42.03400 41.26600
H  -11.40300 43.88500 44.03700
H  -13.51600 37.88600 44.32900
H  -5.60200 37.42700 41.65600
H  -6.03800 39.80100 39.84500
H  -3.64700 38.83200 41.32100
H  -4.15500 40.29500 42.02900
H  -3.76800 40.19400 40.21400
H  -6.18400 37.99800 38.69900
H  -7.31400 36.85500 39.33200
H  -5.84100 35.22700 39.00400
H  -4.74100 35.88000 40.19700
H  -6.71300 45.28800 41.03400
H  -5.65000 44.02200 41.64500
H  -6.15500 45.39000 42.75600
H  -10.44600 47.19800 43.90900
H  -10.67400 45.76500 44.96700
H  -11.23500 45.77100 43.33700
H  -13.71300 42.74000 44.10500
H  -14.12500 40.19300 45.51500
H  -12.11100 42.82100 46.38600
H  -13.20200 41.56200 46.85800
H  -13.87900 43.08000 46.45600
H  -14.53800 39.66500 42.74700
H  -15.18500 41.19600 42.98900
H  -16.92300 40.22200 43.73700
H  -16.24400 39.94000 45.33400
H  -16.27400 38.65400 44.08500
H  -13.25300 34.91100 43.07700
H  -13.25100 35.61700 44.63700
H  -12.12500 34.26300 44.30000
H  -7.75100 35.17300 40.89700
H  -4.80000 32.25500 42.06000
H  -5.58800 32.78600 43.52100
H  -4.29500 33.72000 42.83700
Mg -5.46100 24.81600 26.06400
C  -3.79900 26.20500 28.81000
C  -6.64300 22.38200 28.22100
C  -7.24300 23.62500 23.46800
C  -3.75400 26.93800 23.94000
N  -5.22100 24.44900 28.27700
C  -4.70300 25.23700 29.20700
C  -5.08800 24.83900 30.60700
C  -5.54500 23.39100 30.42000
C  -5.82400 23.33700 28.85200
C  -4.56400 22.30900 30.91400
C  -6.13700 25.67100 31.23700
C  -6.22100 25.94200 32.73100
H  -5.53500 25.00600 33.70600
N  -6.75500 23.29300 25.88200
C  -7.04500 22.34100 26.82300
C  -7.81900 21.24000 26.22600
C  -8.14200 21.71900 24.92000
C  -7.41700 22.98400 24.68300
C  -8.34600 20.08000 27.08300
C  -9.17600 21.12000 23.94800
O  -9.35900 21.55900 22.83800
C  -10.00000 19.91800 24.32300
N  -5.49300 25.32800 23.95200
C  -6.44800 24.74800 23.13900
C  -6.42900 25.31800 21.73200
C  -5.21000 26.31300 21.82300
C  -4.76800 26.24100 23.32500
C  -6.33400 24.31000 20.49300
C  -5.50400 27.76800 21.34900
C  -4.25800 28.48400 20.85100
N  -4.03500 26.21100 26.22800
C  -3.33200 26.96700 25.30000
C  -2.46000 27.89700 26.00400
C  -2.50700 27.53000 27.35000
C  -3.50200 26.59800 27.48200
C  -1.58500 28.94200 25.43200
C  -1.94200 27.76700 28.64200
O  -0.97200 28.43700 29.05100
C  -2.85100 27.08500 29.66800
C  -2.00900 26.26500 30.53600
O  -1.40900 25.24500 30.17300
O  -1.99500 26.79700 31.81900
C  -1.19800 26.17300 32.86300
H  -6.90700 21.52200 28.84000
H  -7.91900 23.32700 22.66400
H  -3.24700 27.64500 23.28100
H  -4.10500 24.88600 31.07600
H  -6.53200 23.31500 30.87600
H  -4.50500 22.44000 31.99400
H  -3.63500 22.46900 30.36500
H  -4.94200 21.31200 30.68700
H  -7.13700 25.48800 30.84400
H  -5.80600 26.61000 30.79300
H  -7.25600 26.04600 33.05800
H  -5.72700 26.90800 32.83400
H  -9.42700 19.98400 27.18400
H  -7.94700 19.95700 28.09000
H  -8.11400 19.16000 26.54700
H  -9.16800 19.21900 24.40700
H  -10.61500 19.47900 23.53700
H  -10.60500 19.96900 25.22900
H  -7.33300 25.92400 21.67800
H  -4.40800 25.84800 21.25000
H  -6.01200 23.35100 20.89800
H  -5.58900 24.63800 19.76700
H  -7.31600 24.24500 20.02500
H  -5.77600 28.25700 22.28400
H  -6.40400 27.81500 20.73500
H  -3.38500 27.84400 20.72500
H  -3.92100 29.12800 21.66400
H  -4.46000 28.96000 19.89100
H  -1.54400 28.93500 24.34300
H  -0.57900 28.85000 25.84000
H  -2.00900 29.93400 25.58700
H  -3.41500 27.76000 30.31200
H  -1.27900 25.08700 32.83800
H  -1.52600 26.67400 33.77400
H  -0.14400 26.43500 32.76500

