158

Mg 42.41300 3.67500 46.74500
C  40.62000 6.71500 46.51400
C  39.23500 2.12200 46.51700
C  43.95500 0.79300 46.37100
C  45.28800 5.47200 46.06000
N  40.19900 4.41100 46.54600
C  39.76400 5.60300 46.54000
C  38.23300 5.65000 46.64200
C  37.82800 4.14600 46.81800
C  39.17600 3.48200 46.72100
C  37.21200 3.80900 48.27100
C  37.62100 6.25100 45.29000
C  38.03300 5.44400 43.99800
H  38.65400 6.25400 42.91000
N  41.73800 1.66000 46.55200
C  40.37900 1.27900 46.51500
C  40.25900 -0.14000 46.34800
C  41.64300 -0.53800 46.25100
C  42.55000 0.62700 46.43400
C  38.93400 -0.97300 46.23700
C  42.09300 -1.94700 45.84600
O  41.26400 -2.83300 45.65100
C  43.49700 -2.37600 45.44700
N  44.36700 3.15600 46.32400
C  44.79600 1.87400 46.37400
C  46.29000 1.80400 46.05200
C  46.72100 3.33600 45.98400
C  45.36200 4.04500 46.08200
C  47.11100 0.92700 47.01800
C  47.67700 3.68700 44.88300
C  49.12700 3.98900 45.33400
N  42.91000 5.69900 46.42600
C  44.14000 6.29900 46.11900
C  44.06000 7.74300 46.21700
C  42.67500 7.89100 46.28200
C  42.02400 6.66100 46.38600
C  45.07800 8.80400 46.04400
C  41.67400 9.00600 46.30800
O  41.77400 10.21400 46.32300
C  40.32000 8.21200 46.44700
C  39.39900 8.62100 47.54200
O  39.47200 8.26900 48.67600
O  38.39600 9.32400 47.07600
C  37.48400 9.93600 48.00400
H  38.28400 1.59300 46.59900
H  44.55300 -0.12100 46.33700
H  46.18600 6.09100 45.99400
H  37.94700 6.17000 47.55700
H  37.28400 3.61500 46.03700
H  37.16700 4.66100 48.95000
H  37.83000 3.02300 48.70300
H  36.25600 3.29000 48.19500
H  37.80200 7.32400 45.23500
H  36.53100 6.24400 45.30700
H  37.18900 4.87200 43.61300
H  38.73600 4.63400 44.19500
H  38.14000 -0.58100 46.87300
H  39.16100 -1.94100 46.68400
H  38.64600 -1.14200 45.20000
H  44.18600 -2.41300 46.29000
H  43.89700 -1.86500 44.57100
H  43.53200 -3.38100 45.02600
H  46.40100 1.25700 45.11600
H  47.17500 3.57100 46.94700
H  46.45900 0.46100 47.75800
H  47.88900 1.48500 47.54000
H  47.49200 0.08300 46.44300
H  47.34500 4.48900 44.22400
H  47.60600 2.73700 44.35300
H  49.26000 4.35700 46.35200
H  49.58800 4.67800 44.62700
H  49.81700 3.14600 45.37500
H  44.57100 9.76900 46.06900
H  45.73600 8.67900 45.18400
H  45.72100 8.84900 46.92300
H  39.78000 8.35400 45.51100
H  37.73500 10.98400 48.16600
H  37.49000 9.43800 48.97400
H  36.43000 9.80400 47.75900
Mg 26.62700 50.60500 26.51500
C  24.70000 52.01700 29.02200
C  29.02000 49.70800 28.91900
C  28.71300 49.53900 24.02900
C  24.47800 52.03000 24.24400
N  26.82800 50.92600 28.69400
C  25.82400 51.37700 29.51300
C  26.23800 51.09100 30.97600
C  27.70000 50.55600 30.94800
C  27.84400 50.29800 29.44000
C  28.75900 51.46500 31.45100
C  25.25800 50.12600 31.73600
C  24.78100 50.50300 33.22800
H  24.94000 49.49400 34.39900
N  28.62500 49.69900 26.50100
C  29.43600 49.49300 27.57200
C  30.71100 48.92400 27.08600
C  30.64600 48.91900 25.57800
C  29.29200 49.38100 25.30500
C  31.85400 48.68700 28.09800
C  31.67700 48.51300 24.47200
O  31.57700 48.68000 23.22900
C  32.98300 47.92400 24.94100
N  26.64600 50.81700 24.46400
C  27.45300 50.12000 23.61400
C  27.01700 50.22300 22.17600
C  25.53300 50.74200 22.31600
C  25.54700 51.25300 23.75800
C  27.87400 51.21900 21.42200
C  24.42500 49.60700 22.21900
C  23.32600 49.96800 21.25300
N  24.89700 51.84200 26.56500
C  24.12300 52.25100 25.56900
C  22.94800 52.86200 26.03800
C  23.02000 52.81700 27.39900
C  24.31400 52.22200 27.70100
C  21.92700 53.53800 25.30500
C  22.47600 53.13800 28.68300
O  21.52700 53.82100 28.87700
C  23.55500 52.61100 29.77000
C  23.99100 53.81300 30.51600
O  24.61500 54.78000 30.10700
O  23.67100 53.66900 31.84300
C  24.19500 54.66700 32.78500
H  29.61700 49.25200 29.71100
H  29.23100 49.09800 23.17500
H  23.80800 52.40200 23.46600
H  26.27400 51.97800 31.60900
H  27.83600 49.57400 31.40200
H  28.56300 51.75100 32.48400
H  28.75400 52.37000 30.84500
H  29.72800 50.99300 31.61800
H  25.62400 49.10000 31.73200
H  24.41900 49.98500 31.05400
H  23.71300 50.71900 33.21200
H  25.40400 51.36600 33.46100
H  31.80800 47.66500 28.47500
H  31.87200 49.38300 28.93600
H  32.79400 48.89300 27.58500
H  32.73100 47.22600 25.73900
H  33.50700 48.76900 25.38900
H  33.60800 47.56800 24.12300
H  26.98200 49.23800 21.71100
H  25.43300 51.56000 21.60400
H  28.77700 51.59600 21.90100
H  27.32900 52.07000 21.01300
H  28.25800 50.77800 20.50200
H  23.95100 49.32500 23.15900
H  24.96500 48.75700 21.80100
H  23.62200 50.75700 20.56000
H  22.51400 50.38800 21.84700
H  23.01700 49.09300 20.68100
H  22.43900 54.18700 24.59400
H  21.31800 54.16600 25.95600
H  21.30900 52.83000 24.75300
H  23.12700 51.90200 30.47900
H  23.55000 54.51600 33.65000
H  23.97900 55.68900 32.47200
H  25.26600 54.46400 32.79000

