158

Mg 1.19800 -1.73500 43.67900
C  4.35400 -0.09900 43.12800
C  -0.31100 0.95400 42.27800
C  -1.65200 -3.42100 43.65600
C  3.04500 -4.54100 44.83000
N  1.99800 0.16100 42.83800
C  3.29800 0.59400 42.64000
C  3.33700 1.95000 41.93300
C  1.80400 2.37400 41.99000
C  1.09900 1.10200 42.46200
C  1.45400 3.61100 42.91800
C  3.82800 1.77100 40.46000
C  5.15500 2.62900 40.08300
H  6.15200 1.93200 39.03600
N  -0.81100 -1.30700 42.99600
C  -1.21400 -0.10300 42.44500
C  -2.60900 -0.17500 42.16400
C  -3.05300 -1.48300 42.50500
C  -1.83700 -2.16200 43.12500
C  -3.40000 1.00400 41.60200
C  -4.44900 -2.05400 42.18000
O  -5.28700 -1.24400 41.76900
C  -4.64800 -3.58900 42.35300
N  0.80100 -3.83500 43.97600
C  -0.52500 -4.21000 44.03400
C  -0.57300 -5.71800 44.61900
C  0.96200 -6.06300 44.81400
C  1.66700 -4.72100 44.51800
C  -1.28900 -5.74100 46.02200
C  1.54900 -7.15000 43.92000
C  1.91500 -8.51900 44.62400
N  3.27000 -2.27100 44.04500
C  3.85700 -3.43000 44.51700
C  5.23200 -3.24600 44.60600
C  5.54000 -1.91900 44.12600
C  4.28100 -1.37600 43.79700
C  6.22400 -4.30100 45.16000
C  6.57300 -0.90200 43.82500
O  7.77000 -1.00900 43.99200
C  5.85800 0.35200 43.12100
C  6.01700 1.54200 44.00600
O  5.20000 1.94000 44.85100
O  7.16200 2.19000 43.65300
C  7.51500 3.49400 44.33200
H  -0.69800 1.94700 42.04200
H  -2.64100 -3.81700 43.89600
H  3.50500 -5.44500 45.23600
H  4.04400 2.54500 42.51100
H  1.44900 2.77600 41.04100
H  2.39500 3.87200 43.40100
H  0.70000 3.21900 43.60100
H  1.03700 4.48000 42.40900
H  3.17000 2.15300 39.67900
H  4.06300 0.72400 40.26900
H  5.71400 2.97700 40.95200
H  4.75100 3.50600 39.57800
H  -3.54300 0.93000 40.52400
H  -2.84000 1.93100 41.73400
H  -4.38700 1.19900 42.02000
H  -3.76800 -3.96100 41.82900
H  -5.59600 -3.83100 41.87200
H  -4.69100 -3.92300 43.39000
H  -1.06800 -6.45500 43.98700
H  1.12900 -6.29300 45.86700
H  -0.65000 -6.14100 46.81000
H  -2.24100 -6.27100 45.98600
H  -1.49900 -4.69200 46.22900
H  2.42900 -6.81900 43.36800
H  0.83500 -7.42600 43.14300
H  1.42800 -9.33200 44.08500
H  1.56100 -8.46100 45.65300
H  2.99400 -8.56000 44.47800
H  7.12100 -4.42100 44.55300
H  5.80800 -5.30100 45.28400
H  6.52300 -3.96200 46.15200
H  6.20800 0.43100 42.09100
H  6.57300 3.99600 44.55400
H  7.95200 4.21100 43.63700
H  8.12000 3.35400 45.22800
Mg 39.84800 9.81600 30.24900
C  41.90000 10.67700 33.04200
C  37.58300 8.42200 32.60600
C  38.30200 8.34300 27.82200
C  42.34300 10.90500 28.09900
N  39.73200 9.59600 32.53700
C  40.66500 10.05000 33.41700
C  40.13800 10.02800 34.82100
C  38.80800 9.17900 34.74400
C  38.68200 9.03400 33.23500
C  38.68500 7.79500 35.43600
C  40.00000 11.45800 35.39700
C  39.29100 11.60800 36.73300
H  39.98200 10.99900 37.92100
N  38.05500 8.72700 30.18300
C  37.34000 8.22900 31.19600
C  36.19300 7.51000 30.66000
C  36.37700 7.52800 29.26200
C  37.63400 8.20600 29.01500
C  35.21400 6.74900 31.49100
C  35.54400 6.95700 28.12800
O  35.92800 7.02100 26.92500
C  34.23300 6.36100 28.35300
N  40.33200 9.44700 28.22700
C  39.41800 8.94400 27.42100
C  39.76000 9.25400 25.91300
C  40.96200 10.24200 26.02900
C  41.16700 10.31300 27.59900
C  39.92900 7.92000 24.97600
C  40.63000 11.65500 25.41400
C  39.69500 12.57200 26.05300
N  41.75100 10.63300 30.46300
C  42.63200 11.02500 29.47600
C  43.78400 11.51100 30.16800
C  43.50700 11.38600 31.54200
C  42.28700 10.85200 31.69600
C  45.13200 11.82000 29.48900
C  44.04700 11.69400 32.79400
O  45.13400 12.20000 33.02600
C  43.01100 11.20900 33.84500
C  43.59200 10.12100 34.72700
O  43.78100 8.93800 34.42500
O  43.90400 10.58600 35.91200
C  44.34400 9.77000 37.00800
H  36.84500 8.11800 33.35200
H  38.03600 7.73800 26.95200
H  43.18900 11.20700 27.47800
H  40.90100 9.52000 35.41100
H  37.88100 9.60800 35.12300
H  37.67200 7.44500 35.63600
H  39.30500 7.78000 36.33200
H  39.13400 7.09200 34.73300
H  39.64700 12.13600 34.62000
H  41.01500 11.76000 35.65400
H  38.25100 11.28600 36.68300
H  39.27400 12.68800 36.88300
H  35.41500 5.68000 31.42600
H  34.27200 7.09000 31.06100
H  35.20700 6.99700 32.55300
H  33.61100 6.44000 27.46100
H  33.74900 6.90000 29.16700
H  34.33200 5.32400 28.67500
H  38.86300 9.76300 25.56200
H  41.87400 9.83800 25.58900
H  40.93200 7.85600 24.55500
H  39.24600 7.98600 24.12900
H  39.71300 7.00000 25.51900
H  40.10200 11.36700 24.50500
H  41.54200 12.20700 25.18900
H  38.75500 12.53800 25.50200
H  40.00400 13.61600 26.08600
H  39.42100 12.18000 27.03200
H  45.23000 12.83300 29.09700
H  45.41200 11.10300 28.71700
H  45.90500 11.80400 30.25800
H  42.76700 12.13500 34.36600
H  43.92800 10.13200 37.94800
H  45.42600 9.87000 37.08300
H  44.12200 8.70300 36.98700

