158

Mg 44.58200 5.33900 47.23000
C  42.63600 8.22800 47.01300
C  41.82300 3.52700 46.36000
C  46.62900 2.71700 46.70800
C  47.40500 7.40200 47.57600
N  42.46200 5.82900 46.66900
C  41.89800 7.11800 46.66700
C  40.40600 7.10600 46.20800
C  40.11400 5.55000 46.35100
C  41.50400 4.85800 46.49900
C  39.21600 5.25300 47.63500
C  40.01700 7.89700 44.94900
C  41.11900 7.74700 43.82200
H  40.74400 8.11500 42.38300
N  44.29200 3.37500 46.70100
C  43.03300 2.76400 46.44800
C  43.23400 1.36600 46.04000
C  44.64200 1.15800 45.97800
C  45.26000 2.40300 46.46900
C  42.20200 0.34900 45.58700
C  45.30400 -0.13900 45.30700
O  44.55900 -1.00500 44.87900
C  46.83000 -0.25200 45.29000
N  46.73400 5.15900 47.07700
C  47.29500 3.92600 46.92200
C  48.83600 4.03500 46.89000
C  49.03200 5.55200 47.20600
C  47.64300 6.06400 47.31400
C  49.58200 3.21600 47.98900
C  49.89400 6.32800 46.14600
C  51.02100 7.19900 46.69400
N  45.02600 7.37300 47.31500
C  46.19800 8.08400 47.51100
C  45.91200 9.50100 47.52600
C  44.52200 9.60800 47.36400
C  44.04200 8.27200 47.23400
C  46.86900 10.66200 47.37800
C  43.39000 10.53700 47.14800
O  43.41700 11.77500 47.00000
C  42.09800 9.63100 47.21000
C  41.46700 9.82800 48.46000
O  41.66900 9.18200 49.45400
O  40.49600 10.83200 48.34900
C  39.53700 10.77200 49.45500
H  40.87600 3.04200 46.11400
H  47.21800 1.80300 46.60500
H  48.26800 8.07100 47.58700
H  39.77900 7.62300 46.93400
H  39.68500 5.16300 45.42600
H  39.05900 6.14100 48.24800
H  39.68600 4.49000 48.25600
H  38.31800 4.85900 47.16000
H  40.04400 8.94600 45.24400
H  39.07600 7.44900 44.62800
H  41.38700 6.69500 43.72500
H  41.96200 8.33300 44.18800
H  42.08500 -0.53500 46.21400
H  42.41400 0.08100 44.55200
H  41.25700 0.88600 45.66500
H  46.97600 -1.23900 44.85100
H  47.25200 -0.30900 46.29300
H  47.19900 0.60900 44.73400
H  49.15000 3.63800 45.92500
H  49.46300 5.68600 48.19800
H  49.19900 3.35000 49.00100
H  50.61600 3.51900 47.82700
H  49.49400 2.13400 47.88700
H  49.26300 7.07900 45.67000
H  50.30900 5.65600 45.39500
H  51.91400 7.04700 46.08700
H  51.17700 6.91800 47.73500
H  50.87500 8.27500 46.60400
H  47.51200 10.55700 46.50500
H  47.47000 10.62800 48.28700
H  46.43700 11.66300 47.39500
H  41.48400 10.00800 46.39200
H  38.98300 9.83400 49.49000
H  38.66900 11.40300 49.26300
H  39.92500 10.89200 50.46700
Mg 0.01600 43.24800 25.97800
C  1.83000 43.42800 28.92500
C  -2.95000 42.99000 27.95100
C  -1.78600 42.50900 23.19000
C  2.92100 43.31800 24.22300
N  -0.50700 43.10700 28.17300
C  0.47700 43.34200 29.21300
C  -0.21700 43.28500 30.55300
C  -1.70700 43.07400 30.22400
C  -1.76600 43.03600 28.69900
C  -2.29000 41.79500 30.88300
C  -0.03000 44.48000 31.54900
C  0.43100 44.24200 33.06000
H  -0.07000 42.88400 33.62300
N  -2.04800 42.72600 25.62900
C  -3.09400 42.85500 26.48800
C  -4.34100 42.76300 25.77700
C  -4.05400 42.54700 24.38500
C  -2.55500 42.58400 24.33300
C  -5.68700 42.98300 26.52600
C  -4.96500 42.44700 23.22500
O  -4.56200 42.51600 22.08600
C  -6.45000 42.35400 23.47600
N  0.61000 42.81500 24.05000
C  -0.39100 42.64500 23.07500
C  0.32500 42.42500 21.63300
C  1.79200 42.76800 22.02100
C  1.78900 43.01600 23.51000
C  0.11000 41.07600 20.89300
C  2.21200 43.97300 21.27600
C  1.47600 45.25400 21.63200
N  2.01400 43.35000 26.47000
C  3.08900 43.54400 25.60000
C  4.34100 43.84600 26.37800
C  3.86500 43.64600 27.73600
C  2.44500 43.47500 27.70100
C  5.73100 44.01400 25.88400
C  4.36400 43.48500 29.12900
O  5.48800 43.47800 29.61800
C  2.97400 43.43900 29.96400
C  3.05500 42.16100 30.75300
O  2.75000 41.03200 30.37200
O  3.51500 42.49100 31.92600
C  3.61300 41.36000 32.92600
H  -3.84000 42.91300 28.57900
H  -2.36200 42.47600 22.26200
H  3.88500 43.46300 23.73100
H  0.13900 42.35100 30.98700
H  -2.32700 43.92600 30.50300
H  -3.07300 42.12700 31.56500
H  -1.50000 41.13400 31.24200
H  -2.81400 41.30800 30.06100
H  -0.87500 45.16200 31.45900
H  0.75000 44.96300 30.96100
H  -0.01900 45.00600 33.69500
H  1.47600 44.48000 33.25800
H  -5.60000 43.67800 27.36200
H  -6.03200 42.08100 27.03200
H  -6.44400 43.31700 25.81700
H  -7.06800 41.86900 22.72000
H  -6.72000 43.40700 23.55800
H  -6.59700 41.93600 24.47200
H  -0.13600 43.20400 21.02700
H  2.39100 41.89100 21.77600
H  -0.31400 41.29500 19.91300
H  -0.64700 40.37800 21.24900
H  1.05300 40.58100 20.66100
H  2.21400 43.72600 20.21400
H  3.27400 44.06500 21.50600
H  2.10400 45.73900 22.37900
H  0.54500 45.18100 22.19400
H  1.45400 45.83900 20.71300
H  6.01300 45.05400 25.72400
H  5.88400 43.35100 25.03300
H  6.48500 43.69000 26.60200
H  2.80800 44.32200 30.58200
H  3.39000 40.35700 32.56100
H  2.94000 41.55600 33.76000
H  4.62500 41.32500 33.33100

