158

Mg 17.39200 -1.74600 27.93300
C  16.12300 0.39800 30.64200
C  19.14400 -3.38500 30.14600
C  18.70300 -3.29200 25.30300
C  15.59700 0.43700 25.68000
N  17.74300 -1.37200 30.11100
C  16.95100 -0.68200 31.01900
C  17.43600 -0.96500 32.42000
C  18.61800 -1.97100 32.23800
C  18.41200 -2.36000 30.73300
C  20.05800 -1.36100 32.38800
C  16.30500 -1.47800 33.32400
C  16.30400 -1.37800 34.87300
H  17.47000 -0.67200 35.52700
N  18.61000 -3.29400 27.72900
C  19.28300 -3.85100 28.78900
C  20.06600 -4.92500 28.26800
C  19.94700 -4.97600 26.85300
C  19.06800 -3.87300 26.55800
C  20.81000 -5.76500 29.33800
C  20.61800 -5.88800 25.87700
O  20.36000 -5.83500 24.65000
C  21.52300 -7.07600 26.31600
N  17.23700 -1.35600 25.87800
C  17.97200 -2.20700 24.98200
C  17.71800 -1.82400 23.55800
C  16.51500 -0.82500 23.68700
C  16.43400 -0.56900 25.20300
C  19.03000 -1.24100 22.91700
C  15.23300 -1.31800 23.02600
C  15.18700 -0.86100 21.48700
N  16.11700 -0.03000 28.06200
C  15.47200 0.64000 27.01400
C  14.94500 1.79500 27.65700
C  15.08400 1.72200 29.00100
C  15.82700 0.62900 29.26600
C  14.18100 2.88300 26.97000
C  14.76100 2.40600 30.22500
O  14.14800 3.48400 30.39200
C  15.43200 1.52200 31.36300
C  16.34400 2.38300 32.16500
O  17.52600 2.57900 31.89700
O  15.55100 2.95000 33.16300
C  16.19600 4.05900 33.85800
H  19.73200 -3.99800 30.83200
H  19.15200 -3.84000 24.47100
H  15.07100 0.98900 24.89800
H  17.86300 -0.02800 32.77600
H  18.44900 -2.77200 32.95700
H  20.82700 -1.96400 31.90600
H  20.42500 -1.36200 33.41500
H  20.06200 -0.37200 31.93000
H  15.88300 -2.45800 33.09900
H  15.46600 -0.80600 33.14700
H  16.34700 -2.38500 35.28900
H  15.41100 -1.04600 35.40200
H  20.74800 -6.79600 28.99000
H  20.49000 -5.83700 30.37800
H  21.86700 -5.49700 29.36600
H  22.15200 -6.80100 27.16200
H  22.26800 -7.24900 25.53900
H  20.98100 -8.00000 26.51800
H  17.57400 -2.69600 22.92100
H  16.78700 0.08500 23.15200
H  19.75500 -0.77200 23.58200
H  18.72900 -0.44000 22.24200
H  19.70500 -1.94800 22.43600
H  14.31600 -1.07100 23.56200
H  15.37000 -2.39500 22.92700
H  15.30900 -1.67400 20.77100
H  16.04000 -0.21900 21.26800
H  14.21600 -0.43200 21.23900
H  14.50400 3.04300 25.94200
H  14.25900 3.78900 27.57100
H  13.10500 2.71400 27.01300
H  14.66900 1.21700 32.07900
H  16.25100 4.97900 33.27600
H  17.06000 3.73100 34.43500
H  15.50300 4.33100 34.65400
Mg 2.04800 42.24400 26.37600
C  3.35300 42.15000 29.51900
C  -0.89500 40.87600 27.47600
C  0.95900 42.00600 23.08300
C  5.05500 43.49300 25.16800
N  1.31600 41.69400 28.25400
C  1.99400 41.81000 29.46100
C  1.04900 41.53000 30.69000
C  -0.26300 41.02500 29.95200
C  0.09900 41.22400 28.47700
C  -0.65400 39.59100 30.34700
C  0.77100 42.80200 31.58900
C  1.35100 42.65300 33.04800
H  1.06900 41.35500 33.79300
N  0.28800 41.46100 25.41500
C  -0.86400 41.01200 26.07800
C  -1.83800 40.72900 25.14600
C  -1.32800 41.00500 23.88200
C  0.04200 41.55000 24.03600
C  -3.11300 40.02800 25.66100
C  -2.05900 40.89300 22.42200
O  -1.65700 41.50800 21.41200
C  -3.45100 40.30200 22.42100
N  2.95400 42.53500 24.41200
C  2.26400 42.51700 23.23900
C  3.09300 43.06400 22.04500
C  4.25300 43.74000 22.83300
C  4.10000 43.22700 24.23900
C  3.62400 41.85000 21.23200
C  4.28800 45.24400 22.60300
C  4.66000 45.85800 21.16600
N  3.86900 42.63900 27.15300
C  4.99600 43.19000 26.54100
C  5.99900 43.41100 27.52600
C  5.40800 43.01700 28.72400
C  4.10400 42.56300 28.40900
C  7.43900 43.95400 27.35200
C  5.53000 42.89100 30.11600
O  6.52800 43.13600 30.84900
C  4.23400 42.31400 30.67600
C  4.56800 41.02000 31.36700
O  4.87400 39.95700 30.83600
O  4.73200 41.27600 32.70400
C  5.00800 40.08000 33.51900
H  -1.80100 40.47800 27.93800
H  0.71600 41.92800 22.02100
H  6.00700 43.89600 24.81700
H  1.55500 40.76100 31.27400
H  -1.12100 41.64200 30.22000
H  -1.73700 39.55600 30.46400
H  -0.23200 39.38000 31.33000
H  -0.26500 38.84000 29.66000
H  -0.29400 42.91900 31.79100
H  1.24600 43.62900 31.06100
H  1.04500 43.58500 33.52300
H  2.43500 42.75600 32.99100
H  -2.98500 39.43600 26.56700
H  -3.37300 39.33300 24.86300
H  -4.00100 40.62200 25.88100
H  -4.12400 40.97600 22.95100
H  -3.37400 39.31600 22.87700
H  -3.78000 40.08700 21.40400
H  2.59200 43.88400 21.53100
H  5.21900 43.33300 22.53400
H  4.46200 42.02700 20.55700
H  2.83600 41.61000 20.51800
H  3.67400 40.91200 21.78400
H  5.13700 45.59000 23.19200
H  3.38700 45.72600 22.98100
H  4.49600 44.97000 20.55600
H  5.69400 46.15800 20.99600
H  3.91400 46.62800 20.96900
H  8.19300 43.21600 27.62900
H  7.57900 44.76600 28.06500
H  7.58700 44.32400 26.33800
H  3.96200 43.15300 31.31600
H  4.40200 40.16900 34.42000
H  6.07400 39.97300 33.72200
H  4.67000 39.15300 33.05600

