158

Mg 48.22500 24.92000 28.60300
C  49.10900 27.21900 31.23300
C  47.19000 22.80400 31.05700
C  47.87200 22.72800 26.18400
C  49.59800 27.21700 26.36100
N  48.18300 25.10100 30.82400
C  48.47900 26.10300 31.67100
C  48.15300 25.71300 33.10700
C  47.65400 24.21400 33.03600
C  47.71400 24.02000 31.55500
C  48.40600 23.15500 33.88900
C  47.08400 26.67500 33.73000
C  47.30300 27.05700 35.22200
H  46.12900 26.98400 36.15000
N  47.67500 23.04400 28.58700
C  47.15400 22.39400 29.69200
C  46.62000 21.15400 29.25100
C  46.87700 21.01600 27.84900
C  47.50100 22.28400 27.45400
C  45.95700 20.17900 30.18000
C  46.44700 19.97700 26.79600
O  46.65100 20.03000 25.60600
C  45.63600 18.77100 27.37900
N  48.78500 24.96800 26.60400
C  48.35800 23.96100 25.79000
C  48.53500 24.26300 24.26300
C  48.95200 25.79500 24.32700
C  49.18900 25.99400 25.84100
C  49.58800 23.24500 23.62600
C  47.84300 26.76600 23.68000
C  46.49300 26.97300 24.42000
N  49.14400 26.88800 28.70700
C  49.70600 27.63500 27.70200
C  50.29900 28.83300 28.27900
C  50.05800 28.72300 29.63000
C  49.39500 27.51100 29.86600
C  50.94500 30.01600 27.54600
C  50.19700 29.41100 30.82300
O  50.77600 30.44500 31.05200
C  49.57900 28.49500 31.98200
C  50.73900 28.26300 32.97400
O  51.71000 27.54100 32.74600
O  50.65800 29.11900 34.01200
C  51.60100 28.95500 35.16200
H  46.66000 22.22900 31.82000
H  47.61400 22.11300 25.31900
H  49.93600 27.99000 25.66700
H  49.11600 25.80800 33.60700
H  46.59200 24.09500 33.25000
H  49.01800 23.66100 34.63500
H  49.03400 22.62900 33.17000
H  47.61600 22.51900 34.28900
H  46.12400 26.16300 33.65600
H  46.95000 27.61500 33.19500
H  47.58000 28.11000 35.16200
H  48.13900 26.48700 35.62700
H  45.01800 20.18900 29.62600
H  45.85400 20.54000 31.20400
H  46.60700 19.30500 30.22700
H  46.10100 18.29400 28.24200
H  45.57000 17.99600 26.61500
H  44.65600 19.18400 27.61900
H  47.59600 24.05300 23.75000
H  49.94800 25.91100 23.90000
H  49.23600 22.81300 22.69000
H  49.83100 22.46600 24.34900
H  50.47200 23.83500 23.38500
H  47.69900 26.35800 22.68000
H  48.31100 27.74500 23.58500
H  46.02300 27.93700 24.22500
H  46.75900 26.95100 25.47700
H  45.80600 26.17600 24.13800
H  51.12300 30.85600 28.21700
H  50.28700 30.28600 26.72000
H  51.87000 29.76100 27.03000
H  48.75500 28.98700 32.50000
H  52.40500 28.23800 34.99700
H  50.92300 28.65200 35.96000
H  51.89000 29.93100 35.55300
Mg 9.77900 46.94400 26.20700
C  7.73400 47.36200 28.98400
C  12.27400 48.58600 27.90600
C  11.56400 47.08500 23.33900
C  6.79700 46.31800 24.33100
N  9.95100 47.66300 28.22400
C  9.06700 47.68200 29.22000
C  9.69400 48.00600 30.57400
C  10.89600 48.87500 30.06100
C  11.09700 48.37300 28.62900
C  10.66000 50.46000 30.16900
C  10.21700 46.78500 31.41300
C  9.77000 46.65400 32.88100
H  9.99900 45.32500 33.66800
N  11.74700 47.55600 25.75000
C  12.65400 48.20000 26.58800
C  13.84100 48.55100 25.80100
C  13.63900 48.08300 24.49700
C  12.26600 47.57200 24.50100
C  15.03800 49.37600 26.43100
C  14.57400 48.14500 23.20000
O  14.21400 47.96400 22.05000
C  15.96600 48.61700 23.35600
N  9.26600 46.94800 24.11300
C  10.19200 46.77400 23.14000
C  9.56900 46.25700 21.83900
C  8.13900 45.83300 22.27800
C  8.05000 46.41200 23.66100
C  9.74700 47.35100 20.75000
C  7.76600 44.28100 22.13700
C  8.64900 43.31300 22.82300
N  7.75800 46.82700 26.48800
C  6.68700 46.49900 25.70800
C  5.48800 46.50500 26.49900
C  5.90900 46.75000 27.74200
C  7.22500 47.01900 27.72600
C  4.05000 46.20400 26.04200
C  5.41400 46.84200 29.10400
O  4.28600 46.75100 29.53000
C  6.64200 47.19100 30.00300
C  6.96500 45.98700 30.80700
O  7.69900 45.04700 30.54900
O  6.21500 46.02400 31.98100
C  6.42600 44.96600 32.95300
H  13.07700 49.04000 28.49000
H  12.11700 46.80100 22.44100
H  5.91300 45.84500 23.89700
H  8.94900 48.49100 31.20500
H  11.78300 48.71000 30.67300
H  10.78200 50.90500 29.18100
H  11.39400 50.94600 30.81200
H  9.69400 50.76800 30.56800
H  11.30600 46.77300 31.43900
H  10.02100 45.82900 30.92800
H  8.77200 47.07500 33.00200
H  10.45300 47.38600 33.31200
H  15.87300 48.68200 26.33300
H  14.79900 49.69300 27.44600
H  15.36400 50.30300 25.95900
H  16.62700 48.05900 22.69300
H  16.43000 48.34100 24.30300
H  16.00100 49.70500 23.28900
H  10.06800 45.33800 21.53200
H  7.36700 46.43900 21.80400
H  10.70300 47.82600 20.97000
H  8.92700 48.03700 20.96200
H  9.82700 46.83500 19.79300
H  7.77900 44.04900 21.07200
H  6.75600 44.13200 22.52100
H  8.17900 42.68000 23.57500
H  9.43400 43.90100 23.29800
H  9.12000 42.65200 22.09500
H  3.55400 47.13800 25.77600
H  3.46700 45.76200 26.85100
H  4.12400 45.46900 25.24100
H  6.50500 48.17900 30.44300
H  7.19100 44.24900 32.65500
H  5.42800 44.55700 33.11400
H  6.68800 45.34400 33.94100

