158

Mg 36.03000 48.56900 24.05900
C  36.51700 46.77000 27.04400
C  34.33700 50.93200 25.77500
C  35.39700 49.98200 21.14600
C  37.37000 45.65800 22.26200
N  35.46500 48.74200 26.14500
C  35.93600 48.04200 27.29500
C  35.54600 48.65600 28.56100
C  34.71900 49.92500 28.09100
C  34.76000 49.83200 26.58300
C  33.29000 50.19000 28.70100
C  36.84300 49.07900 29.34400
C  36.85800 48.89600 30.89600
H  35.56000 49.14400 31.63000
N  35.08200 50.25200 23.47500
C  34.40800 51.12600 24.33800
C  34.03000 52.30100 23.59900
C  34.23700 51.99200 22.21400
C  34.95600 50.69900 22.18800
C  33.56300 53.51200 24.31500
C  33.80500 52.78300 20.98700
O  34.12400 52.50200 19.82800
C  33.18400 54.10000 21.28300
N  36.46600 47.99200 21.99000
C  36.11300 48.80200 21.03000
C  36.49500 48.29600 19.63600
C  37.25600 46.90000 19.97500
C  37.07600 46.83500 21.47800
C  35.28500 48.02300 18.61400
C  38.81500 46.94800 19.65500
C  39.26900 46.18300 18.44000
N  36.73100 46.68200 24.50000
C  37.20400 45.60700 23.66300
C  37.36600 44.41400 24.50700
C  37.17400 44.87400 25.83300
C  36.72300 46.20300 25.77000
C  37.57200 43.03400 24.02000
C  37.27100 44.42200 27.26700
O  37.65100 43.42700 27.79400
C  36.87800 45.68400 28.04400
C  35.75900 45.44100 28.97300
O  34.62500 45.34700 28.59700
O  36.21100 45.28700 30.28000
C  35.11600 45.01500 31.27800
H  33.84700 51.73800 26.32500
H  35.23600 50.42600 20.16200
H  37.70500 44.76000 21.73700
H  34.80000 48.09500 29.12400
H  35.28800 50.82900 28.31200
H  33.37200 49.74500 29.69200
H  32.50000 49.71200 28.12000
H  33.08300 51.25800 28.76100
H  37.12500 50.07500 29.00300
H  37.66900 48.50400 28.92600
H  37.65600 49.52900 31.28400
H  37.24300 47.88600 31.03300
H  34.14800 54.30200 23.84300
H  33.81900 53.48600 25.37400
H  32.48100 53.48500 24.19200
H  32.27400 53.80500 21.80700
H  33.05000 54.53300 20.29100
H  33.78500 54.76100 21.90800
H  37.25900 48.96200 19.23500
H  36.80900 46.06900 19.43000
H  34.48300 48.69000 18.93200
H  34.93400 46.99100 18.58600
H  35.48800 48.38700 17.60700
H  39.47100 46.63400 20.46700
H  39.22100 47.94900 19.50800
H  38.49700 45.92500 17.71500
H  39.76800 45.23100 18.62000
H  39.96000 46.88500 17.97400
H  37.56100 42.33700 24.85800
H  38.55800 42.85700 23.59000
H  36.84500 42.68800 23.28500
H  37.69500 45.99400 28.69400
H  35.60900 44.94200 32.24700
H  34.75600 43.99600 31.13600
H  34.22600 45.64400 31.26900
Mg 6.72600 54.37700 41.45900
C  5.92900 50.90700 41.29600
C  9.71700 53.78900 40.08600
C  7.28000 57.66400 41.46500
C  3.28200 54.92200 42.52100
N  7.66100 52.51500 40.53700
C  7.22500 51.20900 40.79500
C  8.28700 50.23400 40.30300
C  9.56700 51.21100 40.32800
C  8.98200 52.62700 40.28100
C  10.43000 51.10000 41.57000
C  8.06700 49.58900 38.82900
C  7.21400 50.39200 37.82100
H  6.57700 49.67800 36.65500
N  8.30400 55.60400 40.77600
C  9.43000 55.18700 40.22000
C  10.33100 56.31300 40.09400
C  9.66500 57.45300 40.58700
C  8.38900 56.98000 41.00400
C  11.70200 56.33200 39.53500
C  10.20200 58.92600 40.52800
O  11.22300 59.31100 39.97500
C  9.31700 60.02800 41.07600
N  5.35800 56.06900 41.76900
C  5.90100 57.28500 41.76900
C  4.82500 58.39500 42.11800
C  3.52200 57.50300 42.34000
C  4.08400 56.05000 42.24800
C  5.30500 59.35700 43.25600
C  2.34700 57.85800 41.35200
C  0.91900 57.38800 41.74700
N  4.95800 53.21200 41.94500
C  3.70300 53.62000 42.37000
C  2.90100 52.43000 42.59500
C  3.70600 51.35700 42.33000
C  4.94700 51.83800 41.75500
C  1.44200 52.41000 43.11400
C  3.77400 49.88900 42.27300
O  2.93500 49.11600 42.65800
C  5.22700 49.58000 41.52300
C  5.04700 48.70000 40.39300
O  4.40900 48.94500 39.33800
O  5.80100 47.57300 40.70800
C  5.70400 46.54300 39.64900
H  10.76300 53.62800 39.81500
H  7.42400 58.73100 41.64300
H  2.26700 55.12700 42.86500
H  8.41100 49.41000 41.00500
H  10.13500 51.09500 39.40500
H  10.08500 50.20500 42.08700
H  10.39700 51.94000 42.26400
H  11.47600 50.94800 41.30200
H  7.60900 48.62300 39.04200
H  9.03900 49.47900 38.34900
H  7.97100 50.98900 37.31200
H  6.56700 51.10100 38.33600
H  11.97400 55.36400 39.11400
H  12.42700 56.64700 40.28600
H  11.71900 56.99200 38.66700
H  9.91300 60.94000 41.05900
H  9.03700 59.82600 42.11000
H  8.37400 60.17000 40.54900
H  4.68200 59.02700 41.24200
H  3.23800 57.59700 43.38800
H  4.84600 59.13400 44.21900
H  5.02800 60.35300 42.91100
H  6.36800 59.27400 43.48300
H  2.56400 57.32700 40.42500
H  2.38700 58.94200 41.24800
H  0.56300 56.81900 40.88800
H  0.26000 58.20700 42.03200
H  0.90800 56.75800 42.63600
H  0.94500 51.57900 42.61500
H  0.94000 53.33800 42.84100
H  1.43800 52.19200 44.18200
H  5.82500 49.08500 42.28900
H  6.08000 46.93300 38.70400
H  4.66600 46.22100 39.56100
H  6.37400 45.69800 39.80600

