158

Mg -1.74200 17.39400 26.06200
C  -1.81700 15.27200 28.84300
C  -2.34500 20.12100 28.08200
C  -1.42800 19.35000 23.28300
C  -0.91700 14.60200 24.06100
N  -2.30200 17.62200 28.21600
C  -2.16700 16.64100 29.20900
C  -2.45100 17.24100 30.56900
C  -2.87000 18.70200 30.20300
C  -2.47100 18.87200 28.73200
C  -4.40100 18.95700 30.43400
C  -1.26300 17.21300 31.63400
C  -1.62100 16.63600 32.99300
H  -2.30200 17.58600 34.07700
N  -1.93100 19.45600 25.74800
C  -2.15000 20.42300 26.69300
C  -2.17800 21.69000 26.01400
C  -1.87500 21.49500 24.59200
C  -1.72000 20.04200 24.46500
C  -2.38800 23.01700 26.81500
C  -1.77700 22.44200 23.44300
O  -1.42400 22.08200 22.27600
C  -1.88400 23.97700 23.68400
N  -1.34600 16.96000 23.97300
C  -1.37100 17.96100 23.01900
C  -0.97200 17.44800 21.57800
C  -0.47500 15.91700 21.95100
C  -0.92100 15.84100 23.43000
C  -2.17100 17.43800 20.58700
C  1.00100 15.62000 21.68100
C  2.09300 16.60900 22.18100
N  -1.75200 15.38500 26.26200
C  -1.40700 14.36200 25.38500
C  -1.45000 13.10400 26.10000
C  -1.60700 13.42600 27.43300
C  -1.70900 14.78700 27.51300
C  -1.23800 11.76600 25.47300
C  -1.67400 12.80300 28.71500
O  -1.57900 11.61900 29.05800
C  -1.94200 13.99800 29.68100
C  -0.94000 13.83400 30.76500
O  0.21200 14.19200 30.70900
O  -1.54900 13.22900 31.88900
C  -0.66000 13.01600 33.07100
H  -2.55000 21.02900 28.65400
H  -1.21000 19.90800 22.37100
H  -0.56200 13.73900 23.49400
H  -3.32100 16.82800 31.08100
H  -2.38600 19.45800 30.82100
H  -4.84400 19.42100 29.55300
H  -4.51100 19.62900 31.28500
H  -4.92200 18.01000 30.57300
H  -0.94300 18.23600 31.82800
H  -0.37400 16.70600 31.25900
H  -0.69400 16.16000 33.31400
H  -2.35400 15.84100 32.85600
H  -2.38300 22.89400 27.89800
H  -3.39400 23.29600 26.50100
H  -1.72700 23.83600 26.53300
H  -2.11200 24.45600 22.73200
H  -0.98800 24.39800 24.13900
H  -2.73900 24.06800 24.35400
H  -0.16400 18.04700 21.15600
H  -0.98200 15.10200 21.43600
H  -2.91100 18.11600 21.01200
H  -2.72000 16.49800 20.53900
H  -1.78200 17.70800 19.60600
H  1.01800 15.66500 20.59200
H  1.14300 14.58800 22.00100
H  1.57000 17.47100 22.59600
H  2.68400 16.76100 21.27700
H  2.73200 16.17900 22.95200
H  -1.14300 11.01500 26.25700
H  -0.41500 11.80500 24.75900
H  -2.18500 11.47500 25.01800
H  -2.84800 13.89000 30.27700
H  0.41100 12.97700 32.87100
H  -1.04700 12.13000 33.57300
H  -0.82300 13.85200 33.75200
Mg 43.53500 2.99100 46.77200
C  42.88700 6.24900 45.52700
C  40.32100 2.18200 45.88000
C  44.34700 -0.26200 47.44500
C  47.01800 3.93200 47.04100
N  41.88900 4.02100 45.75000
C  41.81400 5.37300 45.43400
C  40.37500 5.79900 44.94800
C  39.60500 4.49300 45.19000
C  40.65000 3.55600 45.75100
C  38.32900 4.67100 46.02800
C  40.49400 6.12400 43.45100
C  39.73800 7.30500 42.93100
H  38.73500 7.09900 41.73800
N  42.53900 1.16300 46.72000
C  41.21700 1.05700 46.28500
C  40.88200 -0.31800 46.26400
C  41.94800 -1.08300 46.69700
C  43.01500 -0.08900 47.03300
C  39.70100 -0.88400 45.57100
C  42.02000 -2.57500 46.76000
O  40.98500 -3.18900 46.60000
C  43.25400 -3.22700 47.10500
N  45.34900 2.00100 47.16000
C  45.39200 0.63500 47.52500
C  46.69800 0.27900 48.13100
C  47.62600 1.53700 47.84000
C  46.63300 2.60000 47.35500
C  46.59500 -0.06700 49.64100
C  48.81300 1.24900 46.88400
C  48.65200 0.44200 45.59600
N  44.79100 4.70500 46.36700
C  46.12200 4.91500 46.51400
C  46.35800 6.33000 46.15400
C  45.10900 6.92700 45.91400
C  44.21400 5.88400 45.96700
C  47.69600 6.99400 45.97900
C  44.47700 8.19700 45.58200
O  44.96600 9.28900 45.40100
C  42.98800 7.76200 45.27700
C  42.13900 8.49000 46.25900
O  41.90300 8.09700 47.37300
O  41.74800 9.67100 45.73500
C  40.79700 10.44300 46.51300
H  39.26600 1.93900 45.74000
H  44.88300 -1.20400 47.57300
H  48.04700 4.29400 47.07600
H  40.02100 6.67000 45.49900
H  39.25100 4.11700 44.23100
H  37.45200 4.79100 45.39200
H  38.32600 5.53600 46.69000
H  38.12800 3.78000 46.62300
H  40.08900 5.31500 42.84300
H  41.54000 6.29700 43.19900
H  40.45800 8.07000 42.63900
H  39.09600 7.78600 43.66900
H  38.96900 -1.36100 46.22400
H  39.98900 -1.50100 44.71900
H  39.02900 -0.11300 45.19300
H  43.30100 -3.17600 48.19300
H  44.07800 -2.78400 46.54600
H  43.24700 -4.25200 46.73300
H  47.11200 -0.59600 47.63000
H  48.00700 1.93300 48.78100
H  45.62700 0.23700 50.03900
H  47.40900 0.45200 50.14600
H  46.76700 -1.13800 49.75600
H  49.66900 0.85900 47.43400
H  49.11100 2.25900 46.60200
H  49.11500 0.87400 44.70800
H  47.59300 0.58800 45.38200
H  49.05200 -0.56100 45.74100
H  48.29500 6.82900 46.87400
H  47.56900 8.05400 45.75700
H  48.22200 6.60800 45.10600
H  42.82300 8.11300 44.25800
H  41.23200 11.09200 47.27300
H  40.06900 9.78300 46.98600
H  40.16400 11.00500 45.82700

