158

Mg 49.21500 44.80100 43.06800
C  45.86300 45.41000 42.02000
C  48.92800 41.62100 41.79400
C  52.50600 44.66900 43.04000
C  49.43000 48.37500 43.69000
N  47.52900 43.62100 42.10300
C  46.30100 44.08800 41.75300
C  45.55100 43.03500 40.95300
C  46.32100 41.76900 41.29500
C  47.68800 42.35300 41.74200
C  45.66100 40.83100 42.30200
C  45.56800 43.38800 39.46200
C  44.39400 42.76000 38.59700
H  44.77200 41.91900 37.32900
N  50.53200 43.32100 42.65100
C  50.21300 42.06400 42.14700
C  51.35800 41.23800 42.24100
C  52.45500 42.09400 42.51800
C  51.87000 43.44600 42.75900
C  51.34500 39.70700 41.91100
C  53.86900 41.67400 42.81100
O  54.15700 40.45800 42.76400
C  55.03000 42.63100 43.12800
N  50.79100 46.36600 43.20900
C  52.08800 45.95600 43.33700
C  52.95100 47.14100 43.84600
C  52.00200 48.38600 44.09000
C  50.63500 47.67200 43.67900
C  53.87700 46.83300 45.03600
C  52.39100 49.66500 43.21700
C  52.63100 50.95000 43.97700
N  47.89600 46.53600 42.95500
C  48.15500 47.84100 43.30500
C  46.93000 48.59500 43.23500
C  46.03300 47.68700 42.73100
C  46.60700 46.43100 42.62400
C  46.77400 50.08400 43.43500
C  44.68100 47.65700 42.20600
O  43.84600 48.55100 41.94500
C  44.51100 46.03600 41.80100
C  43.31200 45.38900 42.36400
O  42.69300 44.38900 41.88400
O  42.92600 46.08500 43.46900
C  41.60200 45.82500 43.98200
H  48.70500 40.60600 41.46000
H  53.59700 44.63000 43.07300
H  49.48000 49.42200 43.99500
H  44.54300 42.83400 41.31400
H  46.48400 41.19200 40.38500
H  45.49800 39.86300 41.82900
H  44.67000 41.18700 42.58500
H  46.23700 40.67400 43.21300
H  46.49000 43.00000 39.03100
H  45.55300 44.47700 39.42400
H  43.71800 43.57400 38.33500
H  43.85400 42.12400 39.29700
H  51.59200 39.08000 42.76800
H  51.88700 39.50300 40.98800
H  50.37100 39.30100 41.63700
H  56.00600 42.19600 43.34300
H  54.80300 43.26400 43.98600
H  55.19400 43.24400 42.24200
H  53.56800 47.40900 42.98900
H  51.96500 48.62800 45.15200
H  53.99300 47.74600 45.62100
H  54.89400 46.78500 44.64600
H  53.61900 45.86300 45.46200
H  51.50200 49.91200 42.63700
H  53.09500 49.45700 42.41100
H  53.07700 50.64400 44.92300
H  51.65800 51.39900 44.17800
H  53.27600 51.66600 43.46700
H  45.79700 50.16600 43.91200
H  46.76700 50.46000 42.41200
H  47.56800 50.58500 43.98800
H  44.32600 46.02400 40.72700
H  41.54600 44.79900 44.34600
H  40.97400 46.31300 43.23600
H  41.49700 46.36000 44.92500
Mg 26.66900 50.88300 27.29200
C  24.48600 51.74000 29.89800
C  28.88100 49.69200 29.76700
C  28.68100 49.96500 24.81800
C  24.16600 51.92500 25.00500
N  26.69200 50.84300 29.53100
C  25.62000 51.21100 30.36800
C  25.94300 50.77700 31.82200
C  27.46400 50.27600 31.79700
C  27.68600 50.29300 30.28500
C  28.43100 51.15700 32.63400
C  24.89400 49.75900 32.49500
C  24.12000 50.24500 33.73900
H  23.95200 49.24800 34.87200
N  28.55800 50.03400 27.26800
C  29.31500 49.61300 28.42100
C  30.60100 49.25400 27.91300
C  30.67700 49.34300 26.48500
C  29.26500 49.80400 26.09400
C  31.64200 48.76300 28.89200
C  31.81200 49.09400 25.51000
O  31.63200 49.05000 24.30300
C  33.20900 48.82600 26.10100
N  26.45400 51.10500 25.23100
C  27.50200 50.58000 24.37900
C  27.07000 50.62800 22.88400
C  25.63100 51.24000 22.98500
C  25.37100 51.40600 24.48800
C  27.94500 51.56500 22.05100
C  24.62700 50.22000 22.38800
C  23.81000 50.74300 21.19800
N  24.76200 51.77200 27.31300
C  23.84800 52.05100 26.33300
C  22.71600 52.66200 26.93000
C  22.87100 52.57600 28.29900
C  24.16300 52.05600 28.56300
C  21.51400 53.26700 26.19200
C  22.17200 52.73900 29.57000
O  21.09000 53.20600 29.95000
C  23.21500 52.23400 30.60700
C  23.54800 53.35600 31.43200
O  24.07200 54.39400 31.06000
O  23.09400 53.07300 32.75300
C  23.39700 53.94900 33.87700
H  29.44900 49.28000 30.60400
H  29.24100 49.55900 23.97400
H  23.29000 52.16000 24.39700
H  25.86400 51.66500 32.44900
H  27.55200 49.26800 32.20100
H  28.70500 50.62000 33.54200
H  27.89800 52.01700 33.03800
H  29.31400 51.58200 32.15700
H  25.28600 48.76500 32.71200
H  24.09600 49.62500 31.76500
H  23.14300 50.66600 33.50100
H  24.71100 51.03900 34.19600
H  32.42600 49.47800 29.14300
H  32.18700 47.97400 28.37500
H  31.18700 48.32400 29.78000
H  33.45500 49.27800 27.06200
H  33.80600 49.32300 25.33600
H  33.38800 47.75000 26.11100
H  27.12700 49.58300 22.57900
H  25.54200 52.25800 22.60700
H  28.59500 52.15600 22.69600
H  27.45100 52.12100 21.25400
H  28.62900 50.90300 21.52000
H  23.94500 49.81800 23.13700
H  25.12200 49.31600 22.03200
H  23.92900 51.80900 21.00400
H  22.73900 50.65200 21.37700
H  24.19900 50.23900 20.31300
H  20.73300 53.41900 26.93700
H  21.17100 52.49100 25.50800
H  21.70300 54.22500 25.70700
H  22.70200 51.40800 31.10000
H  23.95800 54.82700 33.55700
H  23.99600 53.36800 34.57800
H  22.47200 54.20200 34.39400

