158

Mg 2.27300 -1.52500 44.70500
C  5.55200 -0.67100 44.34700
C  1.52200 0.89800 42.20100
C  -0.86300 -2.58600 44.66700
C  3.34500 -4.55100 46.26200
N  3.42500 -0.24300 43.29700
C  4.79800 -0.01200 43.36600
C  5.32000 1.02100 42.38500
C  3.97000 1.50400 41.72600
C  2.89900 0.72300 42.48400
C  3.86600 3.03900 41.76900
C  6.48100 0.43200 41.43000
C  7.78100 1.22100 41.36200
H  8.28100 1.55200 39.95300
N  0.52600 -0.75000 43.79200
C  0.43500 0.19300 42.80000
C  -0.93400 0.49700 42.52400
C  -1.67100 -0.56700 43.18100
C  -0.70100 -1.35600 43.97000
C  -1.45900 1.56500 41.64000
C  -3.32500 -0.65600 43.02000
O  -3.99600 0.18500 42.41300
C  -4.05800 -1.84800 43.72500
N  1.38200 -3.37000 45.28700
C  0.03400 -3.41900 45.31400
C  -0.43500 -4.78900 45.87500
C  0.90500 -5.34400 46.45700
C  1.97200 -4.38000 45.99700
C  -1.73100 -4.98200 46.67300
C  1.30200 -6.80900 46.25600
C  1.65200 -7.80400 47.40400
N  4.05700 -2.48000 45.33200
C  4.30300 -3.60700 46.03900
C  5.66000 -3.57600 46.40600
C  6.20100 -2.40900 45.85000
C  5.15900 -1.82700 45.16700
C  6.51200 -4.57500 47.24300
C  7.35700 -1.57800 45.74000
O  8.50000 -1.74200 46.18000
C  6.94600 -0.36000 44.71400
C  7.10500 0.90500 45.38500
O  6.43800 1.31700 46.33700
O  8.21800 1.57300 44.88500
C  8.61600 2.86400 45.42100
H  1.24700 1.68500 41.49500
H  -1.89600 -2.92200 44.77800
H  3.68400 -5.40500 46.85100
H  5.56300 1.85300 43.04700
H  4.13600 1.24800 40.67900
H  4.77200 3.58200 42.03900
H  3.12300 3.14800 42.55900
H  3.53400 3.43700 40.81100
H  6.06100 0.14700 40.46500
H  6.72100 -0.54600 41.84700
H  8.56300 0.74600 41.95400
H  7.75900 2.16400 41.90800
H  -1.82200 2.41400 42.21900
H  -2.23700 1.19400 40.97300
H  -0.77200 1.89600 40.86000
H  -5.09400 -1.88400 43.38800
H  -4.03300 -1.82500 44.81500
H  -3.57400 -2.76400 43.38800
H  -0.50300 -5.32800 44.93000
H  0.91300 -5.19700 47.53700
H  -2.29500 -4.10400 46.98800
H  -1.65600 -5.70000 47.49000
H  -2.51400 -5.34700 46.00800
H  2.08600 -6.90900 45.50400
H  0.38000 -7.23100 45.85600
H  2.62600 -8.26000 47.22000
H  0.91900 -8.60800 47.46900
H  1.56600 -7.35300 48.39200
H  5.88300 -5.27200 47.79700
H  7.19500 -3.94300 47.80900
H  7.14200 -5.09300 46.51900
H  7.57900 -0.47100 43.83400
H  9.30300 3.23000 44.65800
H  8.98200 2.76600 46.44200
H  7.80100 3.58000 45.53200
Mg -2.41100 35.16600 26.62200
C  -4.30500 33.30800 29.00600
C  -1.68000 37.32900 28.95900
C  -0.79300 36.97000 24.25000
C  -4.03000 33.28300 24.13500
N  -3.02000 35.32800 28.74600
C  -3.65800 34.42800 29.56300
C  -3.53900 34.73000 31.08400
C  -2.79800 36.15000 30.91000
C  -2.48400 36.30600 29.43000
C  -3.45800 37.47600 31.54100
C  -2.86500 33.63900 31.99700
C  -3.66500 33.29400 33.30700
H  -2.76100 33.15100 34.55000
N  -1.35200 36.96700 26.59400
C  -1.10500 37.66900 27.75300
C  -0.22600 38.74500 27.36900
C  0.08900 38.67200 26.00000
C  -0.64500 37.52100 25.54100
C  0.08900 39.75500 28.49500
C  0.92800 39.54100 25.21100
O  1.13600 39.31600 24.02300
C  1.60700 40.80500 25.84600
N  -2.43700 35.24900 24.53000
C  -1.59400 35.95100 23.77900
C  -1.61200 35.57000 22.30500
C  -2.63500 34.35700 22.27000
C  -3.16700 34.36700 23.74700
C  -1.98500 36.80300 21.36500
C  -1.74200 33.10500 21.82500
C  -0.95800 32.31000 22.83800
N  -3.94400 33.58600 26.51200
C  -4.45600 32.94700 25.39900
C  -5.32200 31.90600 25.85200
C  -5.31700 31.91100 27.26300
C  -4.41100 32.96900 27.60200
C  -6.09000 30.94800 25.03100
C  -5.81700 31.37300 28.51200
O  -6.50400 30.40800 28.80300
C  -5.16500 32.30000 29.68100
C  -6.30300 32.93900 30.34800
O  -7.15300 33.67100 29.86400
O  -6.51500 32.38200 31.61400
C  -7.76500 32.61100 32.33400
H  -1.53700 38.07800 29.74000
H  -0.29100 37.50900 23.44400
H  -4.48600 32.73600 23.30800
H  -4.55900 34.94100 31.40500
H  -1.86600 36.03700 31.46500
H  -4.49800 37.31600 31.82500
H  -3.42100 38.33300 30.86800
H  -2.78700 37.80300 32.33500
H  -1.79500 33.82600 32.08100
H  -2.88600 32.69100 31.46100
H  -4.20400 32.35400 33.18000
H  -4.37600 34.11200 33.41700
H  0.29200 39.25400 29.44100
H  -0.81400 40.26700 28.82500
H  0.82500 40.53900 28.31200
H  1.06700 41.46600 26.52300
H  1.89400 41.40800 24.98400
H  2.43400 40.34600 26.38800
H  -0.58400 35.32700 22.03600
H  -3.46500 34.63400 21.61900
H  -2.34000 37.62200 21.99100
H  -2.86200 36.61600 20.74500
H  -1.11400 36.99900 20.74000
H  -1.06600 33.31300 20.99600
H  -2.42300 32.38400 21.37200
H  -1.06300 32.66300 23.86400
H  0.07300 32.37400 22.49200
H  -1.29100 31.27200 22.82800
H  -5.92200 29.98600 25.51400
H  -5.75000 30.97100 23.99600
H  -7.16600 31.08400 25.14100
H  -4.66300 31.66800 30.41300
H  -8.06000 31.72100 32.89100
H  -8.56200 32.98000 31.68900
H  -7.63000 33.37900 33.09500

