158

Mg 17.20600 -1.70800 27.67800
C  16.01100 0.20800 30.36500
C  18.69300 -3.86400 29.78700
C  18.64100 -3.15400 24.90900
C  15.44900 0.49500 25.61800
N  17.31000 -1.80600 29.82500
C  16.76400 -0.96200 30.73900
C  17.17500 -1.36000 32.19500
C  18.10000 -2.64600 32.03700
C  18.05700 -2.76200 30.44600
C  19.48300 -2.39700 32.65400
C  15.88500 -1.44900 33.13900
C  16.00900 -0.75100 34.46900
H  17.33500 -0.25200 34.97700
N  18.44200 -3.25600 27.42900
C  18.96400 -4.04300 28.42600
C  19.66300 -5.19400 27.87300
C  19.70200 -4.95300 26.45200
C  18.89200 -3.79300 26.13800
C  20.26900 -6.24900 28.72200
C  20.43700 -5.76000 25.35400
O  20.51500 -5.44300 24.17000
C  21.15400 -7.06600 25.66400
N  16.89600 -1.49100 25.57700
C  17.74600 -2.10200 24.65800
C  17.52700 -1.63000 23.21000
C  16.36900 -0.57800 23.47400
C  16.20800 -0.49000 24.92900
C  18.68400 -1.05100 22.44200
C  15.11900 -0.77500 22.64100
C  14.77600 0.31700 21.61700
N  15.97300 0.02700 27.90400
C  15.29900 0.76200 26.99000
C  14.59000 1.86100 27.68500
C  14.87500 1.64200 28.99400
C  15.81100 0.60200 29.03700
C  13.73700 2.91700 27.01400
C  14.61200 2.25700 30.25400
O  13.92200 3.22800 30.51600
C  15.48000 1.37200 31.19000
C  16.51000 2.17400 31.71100
O  17.61700 2.27200 31.20600
O  16.06700 2.87600 32.82000
C  16.93500 3.95200 33.36600
H  19.23300 -4.56000 30.43200
H  19.21800 -3.55800 24.07600
H  15.04900 1.32800 25.03400
H  17.80500 -0.54200 32.54500
H  17.60700 -3.55800 32.37500
H  19.57800 -1.59900 33.39000
H  20.15900 -2.24700 31.81200
H  19.82200 -3.30000 33.16000
H  15.86900 -2.50400 33.41100
H  14.94300 -1.15400 32.67600
H  15.50700 -1.29700 35.26900
H  15.34600 0.11400 34.46600
H  19.83500 -6.45500 29.70100
H  21.31400 -6.01700 28.92700
H  20.32200 -7.14100 28.09800
H  21.70300 -6.91200 26.59300
H  21.81300 -7.25900 24.81700
H  20.45600 -7.90400 25.65900
H  17.19000 -2.45300 22.58100
H  16.74600 0.40800 23.20100
H  18.62900 -0.07300 21.96400
H  18.92700 -1.71900 21.61600
H  19.59200 -1.08900 23.04400
H  14.29500 -0.95900 23.33100
H  15.22800 -1.73600 22.13800
H  13.71300 0.26700 21.38000
H  15.39200 0.06000 20.75500
H  15.15100 1.26900 21.99300
H  14.11900 3.92200 27.19800
H  12.73300 2.82600 27.42800
H  13.76200 2.84700 25.92600
H  14.87600 1.04400 32.03700
H  16.40500 4.41700 34.19700
H  17.14900 4.74700 32.65200
H  17.86700 3.43300 33.58800
Mg -10.62900 39.58200 41.79600
C  -9.48700 36.39000 41.26800
C  -7.62800 40.90200 40.50200
C  -12.05700 42.67100 41.55100
C  -13.91000 38.26000 42.28800
N  -8.72400 38.75200 41.14300
C  -8.50700 37.35400 40.96100
C  -7.19900 37.17000 40.24100
C  -6.51900 38.63100 40.19200
C  -7.62800 39.46600 40.65700
C  -5.27800 38.81500 41.09100
C  -7.45400 36.56100 38.80900
C  -6.91300 35.09600 38.54900
H  -6.65800 34.69000 37.12200
N  -9.87300 41.54400 41.23900
C  -8.63100 41.86200 40.83000
C  -8.52100 43.25300 40.66100
C  -9.72500 43.80500 41.09700
C  -10.62900 42.67100 41.25000
C  -7.24700 43.98900 40.26100
C  -10.08600 45.28600 41.15100
O  -9.32000 46.18100 40.67600
C  -11.28700 45.60500 42.02200
N  -12.71000 40.34800 41.81300
C  -12.95800 41.65000 41.92600
C  -14.48200 41.94200 41.95600
C  -15.05800 40.51800 42.10800
C  -13.82200 39.62000 42.05200
C  -14.93900 43.03000 43.03000
C  -16.08800 40.10600 41.00200
C  -17.34900 39.32800 41.45600
N  -11.53400 37.71500 41.98000
C  -12.85600 37.35900 42.19400
C  -12.87500 35.88300 42.26100
C  -11.59500 35.46500 41.83900
C  -10.81800 36.60700 41.67000
C  -14.06800 35.12700 42.66800
C  -10.79700 34.25300 41.62300
O  -11.08300 33.09100 41.87100
C  -9.42300 34.86900 41.09700
C  -8.23300 34.42700 41.92400
O  -7.69200 34.97100 42.91600
O  -7.84200 33.20500 41.39300
C  -6.50600 32.74000 41.76000
H  -6.72100 41.19500 39.96800
H  -12.54900 43.63500 41.40800
H  -14.84500 37.70300 42.37400
H  -6.54800 36.54700 40.85500
H  -6.12700 38.84300 39.19700
H  -5.44200 39.47600 41.94200
H  -4.48200 39.17000 40.43500
H  -4.95400 37.89400 41.57500
H  -7.12800 37.12500 37.93500
H  -8.54000 36.54500 38.71800
H  -7.64000 34.37300 38.91900
H  -6.03400 34.91400 39.16700
H  -7.29700 44.32500 39.22500
H  -6.42200 43.28300 40.35800
H  -7.06900 44.86000 40.89100
H  -11.35200 44.84200 42.79900
H  -12.23600 45.56800 41.48800
H  -11.23600 46.64000 42.35900
H  -14.58000 42.32000 40.93800
H  -15.46800 40.31000 43.09600
H  -14.88600 44.01900 42.57400
H  -14.20300 42.98900 43.83200
H  -15.98000 42.84600 43.29700
H  -15.73800 39.39600 40.25300
H  -16.29000 40.90900 40.29400
H  -17.19600 38.26400 41.27200
H  -18.25000 39.60500 40.91000
H  -17.50000 39.36400 42.53500
H  -13.72800 34.11200 42.87600
H  -14.74000 35.28300 41.82400
H  -14.53300 35.53500 43.56500
H  -9.31700 34.54300 40.06200
H  -6.67400 32.33300 42.75700
H  -5.78600 33.55800 41.74400
H  -6.17600 31.96300 41.07000

