158

Mg 25.89600 1.06900 29.71100
C  27.70600 0.76000 32.59400
C  23.15500 1.93200 31.56800
C  24.09300 1.46900 26.84500
C  28.56000 0.12500 27.85200
N  25.46900 1.38600 31.78400
C  26.37400 1.15600 32.79900
C  25.83500 1.47700 34.14500
C  24.27700 1.49500 33.87800
C  24.27900 1.65500 32.32300
C  23.40400 0.32000 34.40300
C  26.39900 2.82700 34.76200
C  27.28600 2.58600 36.08300
H  26.83200 3.27200 37.35800
N  23.89100 1.56100 29.27500
C  22.96400 1.91000 30.18700
C  21.69500 2.13300 29.50300
C  21.89500 1.91200 28.05100
C  23.31100 1.56300 27.99800
C  20.38900 2.54700 30.10700
C  20.99700 2.16800 26.81700
O  21.27900 1.99100 25.62900
C  19.56600 2.77200 27.05500
N  26.21800 0.60500 27.62600
C  25.44100 1.03800 26.64400
C  26.18800 1.23300 25.24900
C  27.59400 0.67500 25.59600
C  27.45800 0.44100 27.12000
C  25.49700 0.62000 24.04600
C  28.78900 1.55100 25.27300
C  28.80900 2.95500 26.05300
N  27.82400 0.34800 30.10100
C  28.79500 0.03800 29.18500
C  29.98400 -0.22600 30.02900
C  29.63700 0.08200 31.38200
C  28.27600 0.43600 31.34000
C  31.33900 -0.60600 29.65300
C  30.08100 0.12200 32.76600
O  31.16100 -0.09400 33.26400
C  28.79200 0.68500 33.60000
C  28.69800 -0.34700 34.62900
O  28.07200 -1.33800 34.44900
O  29.29300 0.08900 35.77400
C  29.04200 -0.77400 36.98400
H  22.33400 2.25000 32.21300
H  23.58400 1.81400 25.94300
H  29.50800 -0.05400 27.33900
H  26.08900 0.68100 34.84500
H  23.69100 2.38400 34.10700
H  23.16500 -0.35300 33.57900
H  22.44300 0.60900 34.82700
H  23.83300 -0.27100 35.21200
H  25.51500 3.43400 34.95700
H  26.98500 3.44800 34.08500
H  28.29700 2.77300 35.72200
H  27.35100 1.54800 36.41000
H  20.59900 2.57000 31.17700
H  19.57700 1.86600 29.85300
H  20.17300 3.56700 29.79100
H  19.05900 3.04700 26.13000
H  19.67800 3.79100 27.42600
H  18.93400 2.23900 27.76600
H  26.29500 2.26000 24.89900
H  27.75700 -0.28600 25.10800
H  26.19100 -0.08300 23.58400
H  25.11900 1.36700 23.34900
H  24.78100 -0.17100 24.27100
H  28.87700 1.83600 24.22500
H  29.77400 1.09600 25.38600
H  28.28700 2.81700 26.99900
H  28.32500 3.70000 25.42200
H  29.80800 3.32500 26.28100
H  31.19200 -1.40700 28.92800
H  31.91800 -1.06000 30.45700
H  31.85500 0.23300 29.18700
H  29.15700 1.63800 33.98400
H  29.05100 -1.82200 36.68700
H  28.17100 -0.46400 37.56100
H  29.88600 -0.59100 37.64900
Mg -12.88000 16.48600 41.12600
C  -10.02100 14.89900 40.31400
C  -11.56600 19.36000 39.86500
C  -16.09200 17.74500 40.92600
C  -14.34100 13.29900 41.54200
N  -10.97200 17.00600 39.95400
C  -9.90700 16.20500 39.87600
C  -8.62200 16.97100 39.44000
C  -9.18500 18.43200 39.37500
C  -10.69600 18.29200 39.79900
C  -8.36900 19.57300 40.11900
C  -8.08700 16.39500 38.14200
C  -6.52500 16.18900 38.14200
H  -5.62300 16.82600 37.07500
N  -13.71300 18.28000 40.62600
C  -12.95200 19.38100 40.20200
C  -13.79900 20.55700 40.10200
C  -15.12600 20.15600 40.35400
C  -15.04800 18.66700 40.67600
C  -13.33100 21.92900 39.68100
C  -16.31300 20.99700 40.27000
O  -16.29300 22.15700 40.02800
C  -17.70700 20.45800 40.45400
N  -14.94400 15.63500 41.42700
C  -16.04100 16.39900 41.24000
C  -17.33900 15.48000 41.19400
C  -16.71300 14.17500 41.70600
C  -15.27400 14.35900 41.38800
C  -18.58000 15.92700 42.05800
C  -17.31600 12.76200 41.15900
C  -17.90500 11.73800 42.13800
N  -12.34000 14.59400 41.18300
C  -13.00200 13.35300 41.40800
C  -12.09100 12.21100 41.29700
C  -10.86400 12.82500 41.02500
C  -11.06900 14.23100 40.86600
C  -12.33300 10.75800 41.50700
C  -9.49700 12.52700 40.77700
O  -8.86900 11.46100 40.76500
C  -8.92100 13.83700 40.25000
C  -7.65000 14.06600 40.83700
O  -7.38100 14.87100 41.72000
O  -6.68300 13.39800 40.17300
C  -5.25800 13.49600 40.57200
H  -11.07100 20.28000 39.54600
H  -17.14500 18.01500 40.81900
H  -14.78600 12.30900 41.66000
H  -7.91100 16.87100 40.25900
H  -9.19000 18.67800 38.31300
H  -7.29500 19.39100 40.11800
H  -8.67100 19.59900 41.16600
H  -8.55100 20.55900 39.69200
H  -8.36200 17.01200 37.28700
H  -8.45000 15.37300 38.04300
H  -6.36100 15.12200 37.99300
H  -6.07900 16.40400 39.11400
H  -13.78800 22.35400 38.78800
H  -12.26300 21.90500 39.46600
H  -13.55700 22.60900 40.50200
H  -18.49600 21.10100 40.06300
H  -18.01400 20.31700 41.49100
H  -17.85000 19.53700 39.88900
H  -17.63500 15.48900 40.14500
H  -16.64800 14.05400 42.78700
H  -18.36000 16.89700 42.50400
H  -18.60500 15.24700 42.90900
H  -19.51500 15.82700 41.50700
H  -16.67900 12.14800 40.52300
H  -18.12800 13.02900 40.48200
H  -18.95300 11.63600 41.85300
H  -17.91000 12.03000 43.18800
H  -17.36100 10.79400 42.17800
H  -12.59800 10.59900 42.55300
H  -11.41000 10.21700 41.30100
H  -13.12500 10.39400 40.85400
H  -8.69300 13.67400 39.19700
H  -4.79000 12.56900 40.90500
H  -5.05600 14.39400 41.15500
H  -4.66500 13.70500 39.68100

