158

Mg 0.45500 8.18700 25.16400
C  1.56400 9.83100 28.00600
C  1.06300 5.20700 26.77800
C  -0.27700 6.54100 22.21800
C  0.54000 11.07600 23.33700
N  1.53500 7.64100 27.17900
C  1.46000 8.43300 28.23600
C  1.68100 7.63500 29.58500
C  1.42300 6.15200 29.12400
C  1.44100 6.37600 27.58800
C  2.51700 5.16000 29.50600
C  0.62200 8.03900 30.65600
C  0.93400 7.96400 32.12800
H  2.10000 7.07400 32.67100
N  0.38600 6.10700 24.59400
C  0.63000 5.08400 25.41000
C  0.38700 3.80400 24.71500
C  0.13800 4.19800 23.38900
C  0.04200 5.67000 23.37000
C  0.49000 2.44800 25.44200
C  -0.08400 3.29900 22.16200
O  -0.13800 3.67400 21.03000
C  -0.12400 1.84300 22.50000
N  0.09000 8.77300 23.00600
C  -0.26700 7.94600 22.05200
C  -0.55800 8.65200 20.68500
C  -0.60700 10.14600 21.17900
C  0.00500 10.00500 22.57200
C  0.54100 8.27900 19.66000
C  -2.03600 10.81600 21.24400
C  -2.08700 12.20000 20.55000
N  0.89600 10.13100 25.51000
C  1.00400 11.25000 24.66900
C  1.53200 12.41900 25.40600
C  1.77600 11.87300 26.69700
C  1.39000 10.47700 26.73000
C  1.63300 13.80700 24.77300
C  2.24500 12.26300 28.00400
O  2.76000 13.27200 28.50900
C  2.01800 10.98700 28.89000
C  3.20400 10.74500 29.70100
O  4.36000 10.54900 29.33700
O  2.70700 10.63400 31.02500
C  3.67300 10.42600 32.09700
H  1.25600 4.29000 27.33900
H  -0.52500 6.01600 21.29300
H  0.56400 12.01200 22.77400
H  2.71100 7.80400 29.90000
H  0.46000 5.72700 29.40800
H  2.96100 5.58100 30.40800
H  3.37500 5.09900 28.83700
H  2.08900 4.19200 29.76800
H  -0.24200 7.38900 30.51800
H  0.35100 9.08700 30.53100
H  -0.02200 7.71900 32.59200
H  1.14600 8.96100 32.51400
H  -0.27200 1.70300 25.21800
H  0.45900 2.49900 26.53100
H  1.43900 1.93200 25.29900
H  -0.41700 1.24900 21.63400
H  -0.90800 1.76400 23.25300
H  0.84800 1.51400 22.86800
H  -1.54600 8.46000 20.26600
H  0.08700 10.77700 20.62400
H  1.06900 9.12000 19.21100
H  -0.08400 7.76900 18.92700
H  1.19400 7.52100 20.09300
H  -2.37000 10.77400 22.28100
H  -2.79600 10.23600 20.72000
H  -1.11600 12.48000 20.14300
H  -2.14300 12.94500 21.34400
H  -2.85000 12.24000 19.77300
H  1.35500 14.60200 25.46400
H  1.05200 13.79500 23.85100
H  2.65700 13.98500 24.44300
H  1.13700 11.21900 29.48900
H  4.27700 11.32200 32.24400
H  4.35400 9.67600 31.69400
H  3.15100 10.20600 33.02800
Mg 16.89000 52.18200 26.48800
C  18.77600 50.65600 29.17100
C  14.55400 52.97000 28.88500
C  15.14600 53.51900 24.14600
C  19.07500 50.63900 24.26000
N  16.72500 51.88200 28.82200
C  17.66200 51.29300 29.71200
C  17.23400 51.51100 31.17500
C  15.77700 52.08100 30.98000
C  15.65400 52.33400 29.49700
C  14.61600 51.17900 31.58600
C  18.17300 52.52400 31.86700
C  17.84700 52.96600 33.39400
H  16.69200 52.22300 34.11400
N  15.08200 53.10700 26.52500
C  14.26700 53.35700 27.56700
C  13.08900 54.17500 27.15700
C  13.27100 54.29300 25.72200
C  14.55600 53.64400 25.41500
C  12.00700 54.82200 28.10800
C  12.39000 55.09700 24.74100
O  12.66600 55.22100 23.57400
C  11.08000 55.80600 25.16400
N  17.01200 52.04100 24.48100
C  16.21000 52.80400 23.68800
C  16.51900 52.57100 22.17600
C  17.84900 51.82900 22.20600
C  18.04800 51.47100 23.75400
C  15.44700 51.77100 21.39500
C  19.02900 52.64000 21.63100
C  19.55500 53.81700 22.45900
N  18.57000 50.90400 26.65400
C  19.34900 50.30500 25.65200
C  20.39400 49.49100 26.22300
C  20.19300 49.62900 27.58200
C  19.06900 50.44700 27.82200
C  21.39900 48.66200 25.54200
C  20.71400 49.28400 28.84900
O  21.71300 48.68500 29.09900
C  19.81200 49.90900 29.92000
C  19.24600 48.84700 30.87500
O  18.64900 47.79100 30.60800
O  19.77000 49.12300 32.12300
C  19.33700 48.24900 33.25700
H  13.74800 53.23800 29.57100
H  14.68500 54.00500 23.28300
H  19.81700 50.34900 23.51400
H  17.19200 50.49600 31.57200
H  15.70300 53.06300 31.44700
H  15.01100 50.29300 32.08300
H  14.04200 50.80100 30.74000
H  13.98500 51.71800 32.29200
H  18.00200 53.44500 31.30900
H  19.16300 52.08900 31.73100
H  17.60800 54.02300 33.27300
H  18.77100 52.77800 33.93900
H  11.94200 55.89100 27.90400
H  12.17200 54.68100 29.17600
H  11.09700 54.26800 27.88000
H  10.62300 55.22200 25.96200
H  10.49500 55.80500 24.24400
H  11.14100 56.86300 25.42100
H  16.59800 53.57100 21.75000
H  17.76600 50.85400 21.72700
H  14.50000 52.30700 21.46500
H  15.29900 50.79400 21.85500
H  15.76700 51.45200 20.40300
H  18.88600 52.90500 20.58300
H  19.86500 51.94200 21.64800
H  19.68900 54.65900 21.77900
H  20.28300 53.55600 23.22800
H  18.72200 54.11700 23.09400
H  21.57500 49.07300 24.54800
H  20.94400 47.67500 25.46100
H  22.32500 48.51600 26.09800
H  20.40000 50.64800 30.46400
H  20.27900 48.00300 33.74600
H  18.89800 47.31400 32.91100
H  18.64100 48.67100 33.98300

