158

Mg 35.43200 47.79700 25.13000
C  35.48500 46.13400 28.20600
C  34.47000 50.63900 26.90900
C  35.03700 49.32000 22.22200
C  36.29700 44.90300 23.48200
N  34.92600 48.32800 27.28100
C  35.15400 47.48600 28.39100
C  34.84900 48.25300 29.73800
C  34.26600 49.57100 29.21500
C  34.67900 49.52600 27.71600
C  32.79500 49.74000 29.56900
C  36.17900 48.45800 30.53700
C  36.08600 48.29000 32.03900
H  34.72100 48.25600 32.79300
N  34.84400 49.71000 24.65900
C  34.46500 50.76900 25.54900
C  34.17100 51.95200 24.77200
C  34.38700 51.57800 23.36400
C  34.79200 50.13700 23.34700
C  33.62500 53.31000 25.34300
C  34.22100 52.38000 22.11500
O  34.33400 52.00100 20.93200
C  33.86800 53.82800 22.23800
N  35.78600 47.28200 23.16100
C  35.42700 48.03400 22.11900
C  35.77000 47.44800 20.73600
C  36.43900 46.08000 21.13500
C  36.15000 45.99800 22.66900
C  34.54100 47.28500 19.83400
C  37.93700 46.01100 20.73700
C  38.50100 44.57800 20.71700
N  35.89900 45.92600 25.69300
C  36.17500 44.78200 24.90300
C  36.49500 43.70000 25.74900
C  36.22100 44.16100 27.03600
C  35.87100 45.53500 26.93500
C  36.72700 42.32000 25.31800
C  36.08300 43.78300 28.38400
O  36.28900 42.71600 28.93200
C  35.59100 45.09000 29.21900
C  34.29800 44.70300 29.75600
O  33.28600 44.44100 29.09800
O  34.33700 44.81600 31.06500
C  33.09700 44.36200 31.80800
H  34.20400 51.54900 27.45100
H  34.91400 49.76600 21.23300
H  36.44000 43.92200 23.02400
H  34.14300 47.71700 30.37300
H  34.83900 50.40000 29.63000
H  32.16300 49.86800 28.69100
H  32.61100 50.69500 30.06100
H  32.37600 48.87200 30.07800
H  36.66700 49.42300 30.40600
H  36.82400 47.64900 30.19300
H  36.65100 49.10200 32.49600
H  36.65100 47.41900 32.37300
H  34.46400 53.94000 25.63700
H  32.94500 53.07300 26.16100
H  33.08800 53.93500 24.62800
H  32.84400 53.86800 22.60900
H  33.99700 54.31900 21.27300
H  34.57700 54.29500 22.92200
H  36.45800 48.23000 20.41700
H  35.89400 45.23500 20.71300
H  34.22100 48.29000 19.56000
H  33.73900 46.84500 20.42700
H  34.82800 46.87200 18.86700
H  38.54600 46.56500 21.45100
H  37.96400 46.39300 19.71700
H  39.32400 44.39400 21.40700
H  38.92200 44.56000 19.71200
H  37.70100 43.84400 20.81500
H  36.40800 41.70500 26.16000
H  37.79300 42.28600 25.09600
H  36.10200 42.14400 24.44200
H  36.24300 45.33400 30.05700
H  32.23900 44.95500 31.49000
H  33.11600 44.74500 32.82900
H  32.96400 43.29500 31.63600
Mg 6.34700 55.08100 41.39400
C  5.19200 51.77600 41.53600
C  9.34400 53.93600 39.96000
C  7.18200 58.23200 40.52800
C  3.16500 56.15500 42.28100
N  7.14000 53.08400 40.73900
C  6.44800 51.90900 40.90800
C  7.19500 50.75100 40.26600
C  8.66500 51.40800 40.33500
C  8.42900 52.91600 40.28700
C  9.58200 51.02000 41.55300
C  6.74700 50.35600 38.82500
C  5.68000 51.28000 38.10600
H  6.25600 52.39300 37.29600
N  8.01400 55.95600 40.36600
C  9.10100 55.29000 39.89100
C  10.09900 56.22300 39.38600
C  9.42000 57.50600 39.32900
C  8.16300 57.29000 40.10400
C  11.49100 55.82300 38.98300
C  9.96900 58.83300 38.71900
O  11.06700 58.92500 38.19200
C  9.15900 60.15700 38.72000
N  5.27100 56.99900 41.41500
C  5.91900 58.15200 41.17500
C  5.01500 59.30900 41.56000
C  3.74800 58.62900 42.06200
C  4.09800 57.13100 42.00300
C  5.76300 60.33800 42.44100
C  2.51900 59.21100 41.34900
C  2.12700 58.57600 40.05400
N  4.55400 54.16200 41.95600
C  3.38200 54.75400 42.33000
C  2.44800 53.69700 42.66200
C  3.18100 52.51500 42.50000
C  4.40000 52.89800 41.94000
C  1.06100 53.95900 43.19800
C  3.09100 51.07800 42.57100
O  2.16600 50.36800 43.03100
C  4.44400 50.54500 42.05100
C  4.18300 49.56800 41.00700
O  3.70000 49.79300 39.90900
O  4.58200 48.33000 41.45200
C  4.30000 47.28100 40.46700
H  10.35700 53.65300 39.66600
H  7.52500 59.23500 40.26400
H  2.24800 56.58300 42.69300
H  7.19700 49.84300 40.87000
H  9.17800 51.13600 39.41300
H  9.68300 51.81200 42.29600
H  10.57200 50.78600 41.16000
H  9.10700 50.25100 42.16300
H  6.35200 49.34000 38.85700
H  7.63500 50.53100 38.21800
H  5.03100 51.72500 38.86100
H  4.98500 50.61300 37.59500
H  11.72500 55.73000 37.92200
H  11.81100 54.91300 39.49200
H  12.19900 56.60500 39.25800
H  8.22100 60.18500 38.16500
H  9.92400 60.84300 38.35500
H  9.06600 60.53800 39.73700
H  4.95900 59.78500 40.58200
H  3.50300 58.80600 43.11000
H  5.08600 60.71700 43.20800
H  5.99000 61.16400 41.76800
H  6.67000 59.96200 42.91300
H  2.67100 60.28900 41.30100
H  1.68000 59.06400 42.02800
H  3.00600 58.28000 39.48300
H  1.56100 59.14300 39.31400
H  1.57700 57.69600 40.38600
H  0.52000 54.66300 42.56600
H  1.07300 54.29800 44.23400
H  0.55000 53.00200 43.08700
H  4.90100 50.04400 42.90500
H  3.22300 47.28400 40.29400
H  4.61800 46.34900 40.93400
H  4.91900 47.44100 39.58500

