158

Mg -1.82800 17.75300 26.34700
C  -2.11000 15.43000 29.03100
C  -2.30200 20.29300 28.56400
C  -2.27100 19.85900 23.73400
C  -1.79600 15.02900 24.24200
N  -2.18200 17.83100 28.56000
C  -2.10000 16.79900 29.47600
C  -2.27700 17.29400 30.92000
C  -2.43500 18.85200 30.75100
C  -2.33000 19.03200 29.18500
C  -3.62800 19.57800 31.44200
C  -1.09200 16.77100 31.82500
C  -0.48600 17.62000 32.96800
H  -0.15400 16.90100 34.27800
N  -2.11700 19.69100 26.21600
C  -2.26300 20.65800 27.22900
C  -2.12100 22.02700 26.66100
C  -2.13900 21.85800 25.23600
C  -2.15500 20.41700 25.02700
C  -1.84300 23.21200 27.59000
C  -1.98500 22.92400 24.17000
O  -1.78700 22.69500 22.98300
C  -2.23900 24.34100 24.58100
N  -2.17200 17.47600 24.26100
C  -2.18100 18.48500 23.36100
C  -2.03600 18.00400 21.90200
C  -1.99800 16.47200 22.10900
C  -1.92900 16.28300 23.63700
C  -3.31500 18.46800 21.11300
C  -0.74700 15.77400 21.39200
C  0.64600 16.02700 21.95700
N  -1.98700 15.66700 26.56200
C  -1.91700 14.68200 25.60500
C  -1.98300 13.39600 26.24200
C  -2.10000 13.62600 27.60300
C  -2.01300 15.01200 27.74600
C  -1.96600 12.18500 25.46600
C  -2.21600 12.93900 28.85600
O  -2.25000 11.78600 29.23400
C  -2.25400 14.11700 29.77500
C  -1.15900 13.74300 30.65400
O  -0.01600 13.96700 30.45800
O  -1.62300 13.05700 31.74200
C  -0.64100 12.75500 32.83500
H  -2.27200 20.99800 29.39800
H  -2.35700 20.57000 22.91000
H  -1.71600 14.17800 23.56300
H  -3.19300 16.84900 31.31000
H  -1.47000 19.26600 31.04100
H  -3.20000 20.49900 31.83700
H  -4.20800 19.06100 32.20600
H  -4.32000 19.90400 30.66500
H  -0.27300 16.62000 31.12100
H  -1.43500 15.81200 32.21400
H  -1.21300 18.39600 33.20700
H  0.40200 18.03900 32.49700
H  -1.05300 23.88700 27.26200
H  -1.57600 23.00200 28.62600
H  -2.72300 23.85600 27.60000
H  -3.00700 24.34500 25.35500
H  -2.52700 25.08600 23.84000
H  -1.33700 24.68500 25.08600
H  -1.09700 18.43300 21.55300
H  -2.96600 16.06200 21.82100
H  -3.09500 19.00800 20.19200
H  -4.06000 19.14200 21.53500
H  -3.78500 17.56200 20.72900
H  -0.64900 16.31900 20.45300
H  -0.95300 14.71000 21.27700
H  0.93700 15.05000 22.34400
H  0.61700 16.69600 22.81600
H  1.38700 16.41700 21.26000
H  -1.54600 11.31800 25.97700
H  -1.23900 12.38100 24.67900
H  -2.96000 11.97700 25.07100
H  -3.15500 14.27700 30.36700
H  -0.00300 12.02100 32.34000
H  -1.01800 12.31900 33.76000
H  -0.06700 13.65200 33.06500
Mg 47.37000 16.16800 28.19200
C  45.22700 16.16100 31.09900
C  49.57300 18.01300 30.09100
C  48.98500 16.73500 25.34300
C  44.76100 14.73100 26.50000
N  47.28900 17.06900 30.23500
C  46.44700 16.79100 31.27100
C  47.00900 17.16800 32.64400
C  48.35200 17.88800 32.31900
C  48.43000 17.68800 30.75200
C  48.48100 19.30200 32.82300
C  47.15600 16.00600 33.66500
C  46.51300 16.17500 35.11200
H  46.18600 17.54700 35.58200
N  49.13400 17.07200 27.80100
C  49.89000 17.76600 28.69800
C  51.03100 18.39300 28.04300
C  50.90600 17.95500 26.64100
C  49.69100 17.15500 26.56300
C  52.01800 19.26500 28.66100
C  51.84000 18.23800 25.48900
O  51.60600 18.01500 24.30900
C  53.17200 18.77600 25.78100
N  47.01700 15.71700 26.20000
C  47.74500 16.13200 25.13500
C  47.11100 15.68000 23.82100
C  45.95300 14.72600 24.28400
C  45.90200 15.06100 25.76000
C  46.63300 16.81200 22.91500
C  46.16300 13.18700 23.90900
C  45.21800 12.57300 22.88000
N  45.39500 15.47500 28.65500
C  44.54900 14.87900 27.86200
C  43.36500 14.40300 28.69100
C  43.56200 14.88400 29.94700
C  44.84600 15.48500 29.89100
C  42.11500 13.78300 28.26300
C  43.08200 14.98200 31.33800
O  42.12800 14.48500 31.89600
C  44.14700 15.84300 32.13800
C  43.45700 16.95800 32.81100
O  43.34200 18.11300 32.37600
O  42.86200 16.44200 33.94800
C  41.93200 17.36900 34.62500
H  50.37700 18.45600 30.68200
H  49.47700 17.02000 24.41100
H  44.10000 14.04800 25.96200
H  46.29400 17.91700 32.98700
H  49.21600 17.39200 32.76300
H  49.27600 19.35900 33.56700
H  47.50200 19.60800 33.19100
H  48.76000 19.96800 32.00700
H  48.23200 15.91100 33.81100
H  46.76000 15.11700 33.17400
H  47.30700 15.76600 35.73600
H  45.72200 15.42500 35.12100
H  52.21400 20.24900 28.23400
H  52.98600 18.76600 28.62300
H  51.83900 19.47800 29.71500
H  53.04000 19.62000 26.45800
H  53.58400 19.10100 24.82600
H  53.88100 18.01600 26.11000
H  47.92300 15.25200 23.23400
H  45.08900 15.10900 23.74100
H  45.75200 16.68200 22.28700
H  47.28100 16.80400 22.03900
H  46.55800 17.74700 23.47100
H  46.08500 12.52700 24.77300
H  47.14000 13.07500 23.43800
H  44.32600 13.17900 22.71700
H  44.74000 11.67800 23.27900
H  45.64200 12.27600 21.92100
H  41.86600 14.14600 27.26600
H  41.28100 14.10800 28.88400
H  42.26100 12.70300 28.25000
H  44.45100 15.11600 32.89200
H  42.16400 17.45900 35.68600
H  40.90700 17.02400 34.48600
H  41.85300 18.32800 34.11300

