158

Mg 17.49700 -1.33200 28.47300
C  16.59400 0.81800 31.24800
C  19.81700 -2.86200 30.52100
C  18.83800 -2.87400 25.81600
C  16.03800 1.11300 26.45300
N  18.16000 -1.01600 30.60100
C  17.44400 -0.27600 31.56600
C  18.00600 -0.60700 32.96900
C  19.13800 -1.62300 32.66500
C  19.04800 -1.93700 31.20600
C  20.54800 -1.15800 33.19600
C  16.94200 -1.19600 33.94000
C  16.82700 -0.55300 35.29200
H  17.94700 0.07100 36.00600
N  18.91900 -2.82400 28.23900
C  19.71400 -3.31800 29.21000
C  20.51000 -4.35200 28.61600
C  20.21200 -4.47200 27.25800
C  19.28700 -3.36600 27.06700
C  21.58600 -5.06900 29.42100
C  20.65000 -5.46000 26.26500
O  20.32900 -5.36300 25.12800
C  21.55900 -6.66300 26.59700
N  17.35900 -0.93900 26.39900
C  17.97200 -1.79400 25.48100
C  17.66600 -1.25200 24.02700
C  16.67300 -0.06100 24.32300
C  16.66300 0.06900 25.81300
C  18.99100 -0.70300 23.34000
C  15.26100 -0.16100 23.58000
C  14.16900 -1.05000 24.22200
N  16.43900 0.63600 28.73900
C  15.90200 1.42500 27.79500
C  15.16600 2.52800 28.46700
C  15.35800 2.22300 29.81500
C  16.22800 1.15800 29.88700
C  14.20400 3.43700 27.75900
C  14.92900 2.50200 31.22000
O  13.97800 3.18400 31.59600
C  15.85400 1.71900 32.16400
C  16.68000 2.70700 32.75500
O  17.48700 3.36600 32.17200
O  16.33700 2.82400 34.11000
C  16.99400 3.88900 34.88900
H  20.49500 -3.45300 31.14100
H  19.33000 -3.36000 24.97100
H  15.40400 1.65200 25.74600
H  18.52100 0.21600 33.46600
H  19.05500 -2.53400 33.25800
H  20.43000 -0.25800 33.80000
H  21.15400 -0.99700 32.30400
H  20.90900 -1.96800 33.82800
H  17.20200 -2.25100 34.03000
H  15.95300 -1.25000 33.48500
H  16.38000 -1.21900 36.03000
H  16.05900 0.21400 35.19800
H  22.32500 -5.60200 28.82200
H  21.22300 -5.82700 30.11600
H  22.10400 -4.31400 30.01200
H  21.16200 -7.46300 25.97200
H  21.33100 -7.00300 27.60700
H  22.63600 -6.50300 26.55100
H  17.23800 -1.95500 23.31200
H  17.17200 0.77700 23.83700
H  19.71400 -0.48600 24.12600
H  18.91900 0.35700 23.10000
H  19.27400 -1.36000 22.51700
H  15.48900 -0.51500 22.57400
H  14.86600 0.84700 23.45600
H  13.36500 -0.48800 24.69700
H  14.62100 -1.70700 24.96500
H  13.69600 -1.65300 23.44700
H  13.95000 3.19400 26.72800
H  14.68300 4.40700 27.62300
H  13.33300 3.58900 28.39700
H  15.32100 1.11200 32.89600
H  18.02400 3.65500 35.15900
H  16.35200 4.13200 35.73600
H  17.25100 4.75200 34.27400
Mg -4.31300 26.02600 25.83700
C  -3.10700 27.47700 28.82800
C  -6.19500 23.86900 27.82800
C  -5.13800 24.09300 23.09200
C  -2.10900 27.92300 23.99900
N  -4.51800 25.67700 28.08800
C  -3.99500 26.43500 29.03400
C  -4.60700 26.07800 30.39200
C  -5.31700 24.66600 30.12400
C  -5.44900 24.76600 28.56900
C  -4.57900 23.40600 30.56900
C  -5.59800 27.23100 30.94100
C  -5.47500 27.45900 32.53100
H  -4.99500 26.32100 33.40100
N  -5.66700 24.40300 25.48300
C  -6.29300 23.68000 26.46900
C  -7.17700 22.69500 25.78300
C  -6.87600 22.70200 24.39300
C  -5.88700 23.76900 24.23500
C  -8.17300 21.77000 26.59900
C  -7.34100 21.77500 23.32800
O  -6.88000 21.91600 22.17000
C  -8.44700 20.71000 23.49600
N  -3.62400 25.91800 23.89000
C  -4.10000 25.01300 22.91800
C  -3.39100 25.32800 21.53500
C  -2.32700 26.52600 21.90100
C  -2.66700 26.82300 23.32300
C  -2.85400 24.02800 20.77800
C  -2.29300 27.67900 20.88900
C  -3.15200 28.91700 21.18600
N  -2.91900 27.45000 26.22300
C  -2.21200 28.21700 25.38200
C  -1.47800 29.20300 26.15400
C  -1.79100 28.89400 27.51600
C  -2.66900 27.80000 27.51300
C  -0.58800 30.32400 25.67500
C  -1.55300 29.29300 28.87600
O  -1.05600 30.28000 29.37900
C  -2.39500 28.27700 29.75000
C  -1.51300 27.39500 30.45000
O  -0.56500 26.72900 29.97100
O  -1.87700 27.54000 31.77000
C  -0.86800 26.88300 32.61900
H  -6.91000 23.29200 28.41700
H  -5.16500 23.41400 22.23700
H  -1.42400 28.57800 23.45500
H  -3.84800 25.88700 31.15000
H  -6.21800 24.61900 30.73600
H  -4.64700 22.65600 29.78200
H  -5.07000 23.00200 31.45400
H  -3.51400 23.52100 30.77400
H  -6.63200 27.02000 30.66600
H  -5.30700 28.14000 30.41400
H  -6.43000 27.83900 32.89600
H  -4.71200 28.17700 32.83100
H  -7.84700 21.56200 27.61900
H  -8.23500 20.78800 26.13000
H  -9.14000 22.27200 26.62200
H  -8.06200 19.75000 23.83900
H  -8.83000 20.50100 22.49600
H  -9.22900 21.04500 24.17700
H  -4.23600 25.72700 20.97400
H  -1.29900 26.18000 22.00200
H  -1.83800 24.31100 20.50300
H  -3.52600 23.87600 19.93400
H  -2.85900 23.19000 21.47600
H  -2.70000 27.18100 20.00900
H  -1.28700 27.94200 20.56500
H  -2.52000 29.68000 21.64100
H  -3.88900 28.53100 21.89000
H  -3.62100 29.26400 20.26500
H  0.09800 30.59400 26.47800
H  -1.18800 31.21400 25.48400
H  -0.09900 29.96900 24.76800
H  -2.97700 28.94100 30.38900
H  0.08700 27.40300 32.53300
H  -0.76800 25.83200 32.34900
H  -1.18900 26.95200 33.65800

