158

Mg 55.83700 25.53700 45.38000
C  53.12700 26.87100 43.35200
C  54.77300 22.40900 44.36000
C  58.84800 24.28400 46.13000
C  56.85200 28.70600 45.94200
N  54.12300 24.78800 43.89600
C  53.13900 25.49200 43.26400
C  52.12200 24.52000 42.62200
C  52.45500 23.17700 43.28300
C  53.87700 23.39900 43.87900
C  51.48300 23.00200 44.47300
C  52.24700 24.45000 41.06800
C  50.86300 24.38000 40.35900
H  50.77100 23.73100 38.92100
N  56.66600 23.58400 45.36900
C  56.06900 22.45700 44.92600
C  56.94600 21.30800 45.08400
C  58.22200 21.84300 45.41800
C  58.00500 23.31600 45.69000
C  56.47900 19.93300 44.74300
C  59.54100 21.11800 45.53600
O  59.53900 19.84900 45.39900
C  60.87400 21.72000 45.91300
N  57.71400 26.37800 45.75600
C  58.73600 25.70100 46.21200
C  59.87500 26.61600 46.83200
C  59.19500 27.98400 46.78600
C  57.85000 27.69900 46.09400
C  60.23000 26.17400 48.23200
C  59.93600 29.19300 46.11800
C  60.22200 30.31900 47.16600
N  55.12100 27.40800 44.93900
C  55.56200 28.60200 45.33000
C  54.52700 29.61100 45.06100
C  53.57500 29.02100 44.20100
C  53.99900 27.64800 44.14000
C  54.57600 31.04600 45.47000
C  52.34300 29.24800 43.48500
O  51.59900 30.18600 43.33100
C  52.14000 27.86400 42.79400
C  52.29300 28.02000 41.21200
O  53.25600 27.71000 40.60800
O  51.15200 28.70300 40.71400
C  51.04800 28.88300 39.26600
H  54.54100 21.36900 44.12100
H  59.78400 23.92700 46.56600
H  57.06700 29.63700 46.47100
H  51.08700 24.74900 42.87500
H  52.51300 22.35300 42.57200
H  50.51200 22.52600 44.34000
H  51.32800 23.91400 45.04900
H  51.85400 22.40900 45.31000
H  52.86400 23.59500 40.79000
H  52.84000 25.27800 40.67900
H  50.51600 25.41200 40.32300
H  50.22900 23.92800 41.12200
H  55.49500 19.65000 45.11500
H  57.12100 19.13000 45.10300
H  56.38100 19.76100 43.67100
H  61.11400 22.60900 45.33100
H  61.56700 20.97900 45.51500
H  60.94800 21.85700 46.99200
H  60.80700 26.55800 46.27000
H  58.84800 28.23100 47.78900
H  61.18400 25.67000 48.07500
H  59.42300 25.49300 48.50000
H  60.30700 26.99400 48.94700
H  59.52100 29.75200 45.27900
H  60.94500 28.91600 45.81300
H  59.30100 30.38000 47.74500
H  60.52000 31.25100 46.68600
H  61.02900 30.06400 47.85300
H  53.58500 31.31600 45.83500
H  54.91300 31.64100 44.62100
H  55.24600 31.31300 46.28800
H  51.08900 27.59900 42.91500
H  50.19600 29.51100 39.00500
H  51.03600 27.91700 38.76000
H  51.95100 29.40800 38.95300
Mg 0.26800 43.57300 25.26400
C  2.37100 43.15400 28.20700
C  -2.44400 42.79900 27.29500
C  -1.52200 43.56100 22.51900
C  3.22300 43.96600 23.41700
N  0.04200 42.84100 27.55600
C  0.99400 42.96300 28.50000
C  0.37600 42.79700 29.89100
C  -1.13800 42.51500 29.52200
C  -1.18200 42.70900 28.01700
C  -1.74200 41.09600 29.73100
C  0.58500 43.98300 30.82400
C  0.83900 43.72000 32.29400
H  0.60100 42.34700 32.99200
N  -1.70800 43.22500 24.95200
C  -2.70700 43.00000 25.90400
C  -4.01700 43.06000 25.20000
C  -3.73100 43.27100 23.78200
C  -2.25800 43.36500 23.68900
C  -5.33500 43.01900 25.90100
C  -4.67400 43.32700 22.67700
O  -4.27500 43.27400 21.55700
C  -6.17600 43.27800 22.91100
N  0.75200 43.74700 23.29500
C  -0.15900 43.78700 22.31600
C  0.48700 43.88500 20.96800
C  1.89500 44.32700 21.28200
C  1.97500 43.93400 22.77800
C  0.36100 42.51000 20.14400
C  2.11300 45.79300 21.05100
C  3.36600 46.29000 20.21200
N  2.38600 43.46100 25.64300
C  3.40800 43.76800 24.81200
C  4.66200 43.92200 25.57800
C  4.27800 43.64100 26.88200
C  2.90100 43.38900 26.89400
C  5.97800 44.19100 24.99100
C  4.84300 43.54300 28.17200
O  5.95200 43.81800 28.65500
C  3.56100 43.31100 29.14400
C  3.81200 42.04900 29.94200
O  3.59600 40.91200 29.61300
O  4.35600 42.34700 31.12500
C  4.65300 41.20700 31.97500
H  -3.29100 42.83200 27.98400
H  -2.05100 43.66000 21.56900
H  4.08300 44.36600 22.87600
H  0.77300 41.89500 30.35600
H  -1.81100 43.22300 30.00400
H  -2.77800 41.17500 30.06200
H  -1.20100 40.52200 30.48300
H  -1.85100 40.58300 28.77600
H  -0.25000 44.68200 30.85500
H  1.36200 44.63300 30.42100
H  0.41200 44.46000 32.97100
H  1.89600 43.81000 32.54300
H  -5.27100 42.82800 26.97200
H  -5.95400 42.21200 25.50800
H  -5.90800 43.94600 25.88500
H  -6.56000 42.28400 23.14100
H  -6.53900 43.64200 21.95100
H  -6.48900 44.06200 23.60100
H  -0.08100 44.55000 20.31600
H  2.64100 43.73600 20.75200
H  -0.18700 41.85700 20.82300
H  1.27700 42.02400 19.80900
H  -0.33800 42.49000 19.30700
H  2.12500 46.32200 22.00400
H  1.27000 46.22500 20.51300
H  2.96600 46.95100 19.44300
H  3.90800 45.46400 19.75200
H  4.09300 46.80800 20.83800
H  6.58000 44.67100 25.76200
H  5.94300 44.67300 24.01400
H  6.50400 43.26700 24.74900
H  3.61600 44.21600 29.74900
H  5.48200 40.59000 31.63000
H  3.82100 40.53600 32.18900
H  5.04100 41.69600 32.86800

