158

Mg -2.19100 16.90800 26.53500
C  -2.43800 14.61800 28.95900
C  -3.07500 19.44200 28.89500
C  -2.13400 19.24700 24.06300
C  -2.16900 14.36400 24.05800
N  -2.82300 17.03200 28.61000
C  -2.59800 15.92700 29.46300
C  -2.74900 16.33400 30.90400
C  -3.00100 17.87700 30.81800
C  -3.03300 18.15800 29.36100
C  -4.35100 18.30200 31.37900
C  -1.62100 15.93500 31.89900
C  -1.18500 16.95500 32.94800
H  -0.95200 16.32100 34.38600
N  -2.44700 19.02400 26.48600
C  -2.83600 19.85400 27.56100
C  -2.78900 21.22200 27.08100
C  -2.56000 21.15300 25.67100
C  -2.36300 19.76000 25.37800
C  -3.07900 22.44700 28.00600
C  -2.63500 22.25900 24.64600
O  -2.42500 22.12800 23.44800
C  -2.96700 23.63000 25.10000
N  -2.20400 16.87600 24.27200
C  -2.13600 17.97100 23.49100
C  -1.99300 17.60700 22.01100
C  -1.82000 15.98200 22.06700
C  -2.08000 15.69000 23.60400
C  -3.12700 18.14300 21.16700
C  -0.54500 15.33300 21.49000
C  0.70800 15.41300 22.41400
N  -2.28500 14.89600 26.40600
C  -2.27500 13.97200 25.42200
C  -2.15700 12.62700 25.96500
C  -2.24800 12.86300 27.31900
C  -2.29400 14.26400 27.54500
C  -2.20300 11.34900 25.27600
C  -2.26100 12.19000 28.56800
O  -2.34400 11.00800 28.80500
C  -2.46300 13.27400 29.67000
C  -1.38400 13.12500 30.66800
O  -0.22800 13.39500 30.44800
O  -1.89200 12.55600 31.84200
C  -0.77900 11.92200 32.58300
H  -3.28100 20.28400 29.55900
H  -2.04800 19.91700 23.20600
H  -2.24400 13.54000 23.34500
H  -3.58600 15.70900 31.21400
H  -2.24300 18.48100 31.31700
H  -4.13700 19.00700 32.18300
H  -4.89600 17.52800 31.91900
H  -5.03100 18.85500 30.73100
H  -0.75000 15.54200 31.37300
H  -1.96500 15.05200 32.43700
H  -1.84000 17.81400 33.09700
H  -0.23100 17.36600 32.61800
H  -2.30500 23.20200 27.87700
H  -3.16900 22.26700 29.07800
H  -4.04500 22.82200 27.66900
H  -3.88800 23.67700 25.68000
H  -3.13800 24.18300 24.17600
H  -2.26200 24.13400 25.76100
H  -0.99600 17.83700 21.63400
H  -2.71400 15.55900 21.61000
H  -2.66500 18.67900 20.33700
H  -3.66900 18.80400 21.84300
H  -3.79100 17.39500 20.73500
H  -0.31500 15.86200 20.56600
H  -0.77600 14.29800 21.23800
H  0.52700 15.56000 23.47900
H  1.27600 16.26500 22.03900
H  1.49600 14.66200 22.36100
H  -1.95300 11.41600 24.21700
H  -3.19800 10.97300 25.51600
H  -1.48500 10.64400 25.69500
H  -3.35400 13.18300 30.29100
H  -0.35800 11.17700 31.90900
H  -1.25800 11.47800 33.45600
H  -0.14800 12.73900 32.93300
Mg -2.40600 34.60300 26.74400
C  -4.02900 32.68700 29.21600
C  -1.04100 36.52000 29.22100
C  -1.18700 36.62900 24.43600
C  -4.34700 32.98900 24.30600
N  -2.46900 34.48900 28.95300
C  -3.19000 33.70500 29.73100
C  -2.85300 34.00100 31.21600
C  -1.88600 35.28800 31.12700
C  -1.79600 35.42500 29.65700
C  -2.51400 36.46500 31.95700
C  -2.21300 32.77900 31.91700
C  -3.01100 32.19600 33.16600
H  -2.32200 32.07100 34.54100
N  -1.15700 36.29600 26.81800
C  -0.65900 36.90900 27.90800
C  0.22700 38.01600 27.50500
C  0.27600 37.91800 26.08400
C  -0.80500 36.98100 25.71800
C  0.87500 38.84100 28.54400
C  1.20100 38.69000 25.11300
O  1.15100 38.45100 23.94000
C  2.10000 39.71700 25.64000
N  -3.01100 34.95700 24.66300
C  -2.24000 35.80300 24.01700
C  -2.72900 35.84700 22.55900
C  -3.54700 34.56800 22.40300
C  -3.65000 34.11200 23.86100
C  -3.54800 37.22100 22.23200
C  -2.75900 33.55400 21.50600
C  -1.67900 32.70400 22.21700
N  -3.91300 33.16100 26.72400
C  -4.47400 32.48100 25.64100
C  -5.21200 31.32100 26.15200
C  -5.04600 31.44400 27.57300
C  -4.25800 32.53700 27.85000
C  -6.00900 30.25900 25.34400
C  -5.46600 30.78500 28.83600
O  -6.10700 29.67700 28.95500
C  -4.93800 31.67300 29.94800
C  -6.04400 32.29700 30.69400
O  -6.72900 33.14400 30.16800
O  -6.10800 31.89700 32.07800
C  -6.99500 32.69500 32.97400
H  -0.59400 37.11500 30.02100
H  -0.89100 37.29900 23.62600
H  -4.82800 32.33700 23.57300
H  -3.73100 34.33700 31.76900
H  -0.90100 35.20100 31.58500
H  -2.74400 37.24400 31.23100
H  -1.82400 36.97700 32.62800
H  -3.43100 36.25400 32.50800
H  -1.23400 33.07400 32.29500
H  -1.99000 31.94700 31.24900
H  -3.25200 31.13800 33.06400
H  -3.94800 32.75300 33.16900
H  1.93200 38.96200 28.30600
H  0.86300 38.51900 29.58500
H  0.45600 39.84500 28.49100
H  2.70600 39.23900 26.41000
H  1.52200 40.54800 26.04500
H  2.80400 40.03600 24.87100
H  -1.86100 35.87200 21.90000
H  -4.52500 34.82000 21.99400
H  -3.84800 37.12800 21.18800
H  -2.89600 38.06000 22.47700
H  -4.48500 37.30200 22.78300
H  -2.12000 34.10000 20.81200
H  -3.44400 32.88300 20.98700
H  -0.86200 32.66300 21.49600
H  -2.09300 31.69500 22.20700
H  -1.32900 32.98000 23.21100
H  -5.54600 30.20300 24.35900
H  -7.08700 30.42000 25.34600
H  -5.78500 29.32800 25.86400
H  -4.31000 31.04000 30.57300
H  -6.31800 33.38800 33.47300
H  -7.59200 32.07900 33.64700
H  -7.73400 33.31300 32.46400

