158

Mg 36.13200 2.92800 30.52500
C  33.46400 3.85500 32.57600
C  38.24200 3.33300 33.19900
C  38.75600 2.28400 28.38800
C  34.01500 2.95700 27.68800
N  35.89600 3.72300 32.51100
C  34.67600 3.82300 33.20400
C  34.87700 3.81900 34.70200
C  36.37600 4.20000 34.79000
C  36.91700 3.79300 33.44500
C  36.52700 5.63100 35.10700
C  34.56900 2.40200 35.33000
C  34.09200 2.35200 36.79800
H  34.90500 3.28600 37.77900
N  38.14400 2.50000 30.81600
C  38.82500 2.76000 31.99300
C  40.13000 2.17500 31.75500
C  40.24100 1.81600 30.39400
C  39.02000 2.25100 29.78900
C  41.20500 2.17100 32.76000
C  41.42700 1.00700 29.63000
O  41.39400 0.78000 28.41600
C  42.73200 0.64200 30.33700
N  36.40500 2.82700 28.38700
C  37.56200 2.58800 27.72100
C  37.41500 2.32900 26.23000
C  35.88200 2.35500 26.03800
C  35.37600 2.68000 27.50000
C  38.17600 3.42100 25.44000
C  35.37500 0.95600 25.58700
C  33.96600 1.00700 24.96500
N  34.20200 3.40400 30.16600
C  33.43000 3.20100 28.97700
C  32.03400 3.45700 29.33500
C  32.05400 3.75100 30.72100
C  33.33100 3.62800 31.17700
C  30.83500 3.38400 28.45500
C  31.22400 4.18700 31.86500
O  30.03200 4.39100 31.88000
C  32.11000 4.22000 33.12000
C  32.03200 5.55600 33.80200
O  32.27900 6.66500 33.32500
O  31.73200 5.35900 35.12500
C  31.84500 6.57600 35.90400
H  38.95500 3.30800 34.02600
H  39.58000 1.94500 27.75600
H  33.27800 2.95000 26.88300
H  34.28800 4.59000 35.19800
H  36.95200 3.67200 35.55000
H  36.93900 6.29000 34.34200
H  37.14300 5.74100 36.00000
H  35.56800 6.08900 35.34800
H  35.41500 1.74300 35.13000
H  33.68800 2.01100 34.82100
H  34.23500 1.31700 37.10800
H  33.06800 2.69900 36.93800
H  41.59700 1.16100 32.88300
H  40.77800 2.43500 33.72800
H  42.04400 2.81800 32.50400
H  43.35000 1.54000 30.33700
H  43.35700 -0.02300 29.74000
H  42.73100 0.13700 31.30300
H  37.68500 1.30000 25.99300
H  35.55900 3.15700 25.37400
H  39.19900 3.06000 25.33500
H  38.16200 4.39400 25.93200
H  37.75500 3.33400 24.43900
H  35.37500 0.21400 26.38500
H  35.98400 0.47900 24.81900
H  33.59700 2.02000 24.80200
H  33.13200 0.55200 25.49900
H  33.95500 0.43700 24.03600
H  31.17100 2.75200 27.63200
H  30.45700 4.31900 28.04200
H  30.01400 2.89900 28.98300
H  31.63600 3.47400 33.75800
H  30.90000 7.11000 35.80300
H  32.74300 7.19100 35.84600
H  31.81100 6.22400 36.93500
Mg 47.83500 15.13100 28.14400
C  45.80300 14.80500 30.99800
C  50.00100 17.09700 30.19900
C  49.63900 15.83000 25.47500
C  45.39200 13.51900 26.22600
N  47.91400 15.75200 30.37000
C  46.95900 15.55600 31.27300
C  47.38500 15.99900 32.61200
C  48.47000 17.09200 32.22300
C  48.82500 16.62900 30.86100
C  48.01700 18.56000 32.33700
C  47.96600 14.82500 33.46800
C  48.40500 15.19200 34.94900
H  48.09000 16.60300 35.46100
N  49.71400 16.20100 27.93200
C  50.42400 16.82700 28.91300
C  51.53400 17.43900 28.22600
C  51.41900 17.15800 26.88300
C  50.29200 16.32000 26.68800
C  52.49200 18.30100 28.99200
C  52.31000 17.72900 25.76000
O  52.12200 17.37400 24.60800
C  53.67300 18.48600 25.93800
N  47.50000 14.75100 26.17300
C  48.48700 15.04200 25.24800
C  48.10700 14.49700 23.85000
C  46.76300 13.74500 24.08300
C  46.47800 13.98700 25.58600
C  48.14600 15.55400 22.66800
C  46.64800 12.24900 23.71300
C  45.63600 11.86800 22.63300
N  45.95300 14.36100 28.51600
C  45.02200 13.78700 27.64000
C  43.81200 13.47600 28.38800
C  44.07100 13.94600 29.66900
C  45.38900 14.37600 29.76600
C  42.62600 12.70300 27.79300
C  43.49100 14.08200 30.93700
O  42.41000 13.79000 31.45100
C  44.60900 14.64000 31.88300
C  44.07700 15.89200 32.48500
O  43.90300 16.94200 31.87300
O  43.92200 15.75900 33.87700
C  43.44700 16.84800 34.73700
H  50.52800 17.84300 30.79800
H  50.21400 16.14900 24.60300
H  44.62100 13.06500 25.60000
H  46.60200 16.41800 33.24300
H  49.30800 16.83400 32.87100
H  46.93500 18.62700 32.45700
H  48.28000 19.10400 31.43000
H  48.69000 19.02300 33.05900
H  48.82400 14.41100 32.93800
H  47.30200 13.96100 33.48600
H  49.48700 15.06000 34.95900
H  47.94100 14.60700 35.74300
H  53.49800 17.98800 28.71400
H  52.52300 18.21800 30.07900
H  52.24500 19.33300 28.74200
H  53.51600 19.37200 26.55200
H  54.07100 18.89800 25.01000
H  54.39700 17.82200 26.41000
H  48.84200 13.71500 23.66000
H  45.96200 14.22400 23.51900
H  48.24900 16.57500 23.03600
H  47.27400 15.63000 22.01800
H  48.97600 15.39300 21.98000
H  46.20000 11.80200 24.60100
H  47.62300 11.85700 23.42500
H  46.08300 11.07400 22.03500
H  45.35400 12.76900 22.08900
H  44.77800 11.43800 23.15000
H  42.57800 12.94000 26.73000
H  41.77400 13.10500 28.34200
H  42.80700 11.66900 28.08600
H  44.80700 13.94100 32.69600
H  42.40400 16.59500 34.92300
H  43.40600 17.77900 34.17000
H  43.94700 16.81900 35.70500

