158

Mg 16.39300 -1.68200 28.10600
C  15.61400 0.61000 30.80600
C  18.21700 -3.55300 30.17700
C  17.45900 -3.29300 25.39600
C  14.66200 0.65000 26.05100
N  17.03200 -1.38100 30.19000
C  16.40000 -0.57300 31.17800
C  16.86200 -0.99300 32.48100
C  17.75100 -2.24300 32.34100
C  17.64200 -2.43900 30.78900
C  19.26600 -2.07100 32.75900
C  15.73500 -1.16700 33.48300
C  15.87300 -0.52700 34.85400
H  17.18400 0.06200 35.26900
N  17.53000 -3.26000 27.86300
C  18.16400 -3.96800 28.82600
C  18.85100 -5.10900 28.26500
C  18.63300 -5.11500 26.81300
C  17.80200 -3.86500 26.64200
C  19.61000 -6.05500 29.10200
C  18.98100 -6.06500 25.64400
O  18.47100 -5.89200 24.54700
C  19.96300 -7.14800 25.86600
N  15.85100 -1.54400 25.94600
C  16.61900 -2.23600 25.02400
C  16.35100 -1.69200 23.62300
C  15.28200 -0.57600 23.87400
C  15.21200 -0.47500 25.35700
C  17.47400 -1.22600 22.68300
C  13.85800 -0.91400 23.33300
C  13.31400 -0.03500 22.14000
N  15.27000 0.18800 28.30900
C  14.61700 0.91300 27.42700
C  13.95300 2.04400 28.06300
C  14.31100 1.88800 29.42600
C  15.13500 0.77500 29.49300
C  13.26600 3.13600 27.45100
C  14.09900 2.53500 30.69600
O  13.51900 3.54100 31.03500
C  14.86400 1.57800 31.72400
C  15.75700 2.53900 32.55800
O  16.81500 3.02600 32.14900
O  15.07700 2.84300 33.64400
C  15.58500 4.00500 34.34300
H  18.53100 -4.31200 30.89700
H  17.91200 -3.77100 24.52500
H  14.11500 1.35100 25.41600
H  17.47100 -0.17900 32.87400
H  17.34500 -3.10500 32.87100
H  19.84000 -2.25500 31.85100
H  19.50100 -2.78300 33.55000
H  19.56300 -1.10600 33.16900
H  15.55400 -2.24000 33.55400
H  14.85100 -0.78800 32.96900
H  15.61000 -1.37300 35.48900
H  15.21700 0.34300 34.86300
H  19.83200 -6.98200 28.57400
H  19.02800 -6.28300 29.99500
H  20.52500 -5.59000 29.46800
H  20.88200 -6.75100 26.29600
H  19.99000 -7.62700 24.88700
H  19.34200 -7.77500 26.50700
H  15.97000 -2.59000 23.13600
H  15.69800 0.39100 23.59300
H  18.33500 -0.74200 23.14300
H  17.20900 -0.50100 21.91300
H  17.75900 -2.14900 22.17800
H  13.08000 -0.97100 24.09500
H  13.91200 -1.91900 22.91300
H  12.25400 0.15200 22.31300
H  13.42800 -0.56200 21.19300
H  13.82000 0.92600 22.04300
H  13.84000 3.52500 26.61000
H  13.18400 3.90300 28.22100
H  12.30100 2.74400 27.12900
H  14.09000 1.13600 32.35300
H  14.90300 4.83200 34.14700
H  16.51500 4.50800 34.07800
H  15.58200 3.87300 35.42500
Mg -12.15300 38.53500 41.59000
C  -9.62600 36.26000 40.94500
C  -10.41500 40.92100 39.82200
C  -14.81200 40.64000 41.84200
C  -14.22300 35.97000 42.74000
N  -10.42600 38.48600 40.13000
C  -9.47200 37.48000 40.19200
C  -8.19100 37.87900 39.53700
C  -8.47300 39.40900 39.13500
C  -9.83700 39.67400 39.75700
C  -7.25700 40.33700 39.50400
C  -7.72700 36.95100 38.35400
C  -6.27900 36.40500 38.43400
H  -5.50900 36.44400 37.09500
N  -12.56600 40.53800 40.87700
C  -11.65900 41.38400 40.24100
C  -12.33800 42.61100 39.88800
C  -13.58500 42.61600 40.52700
C  -13.71700 41.19000 41.09400
C  -11.63000 43.75000 39.06800
C  -14.58200 43.79700 40.56600
O  -14.26400 44.86200 40.04600
C  -15.95300 43.76600 41.07400
N  -14.36300 38.24800 41.99100
C  -15.16300 39.32200 42.18200
C  -16.53900 38.90100 42.73300
C  -16.38400 37.28900 42.89500
C  -14.94800 37.12200 42.50400
C  -16.95000 39.65400 44.04000
C  -17.36300 36.39400 42.02600
C  -18.61500 35.92200 42.76100
N  -12.07000 36.44600 41.76500
C  -12.93400 35.56300 42.41700
C  -12.17500 34.32600 42.61900
C  -10.88500 34.58600 42.16500
C  -10.90000 35.81700 41.55600
C  -12.60800 33.17400 43.43500
C  -9.47500 34.08300 42.03500
O  -9.08200 32.98000 42.36100
C  -8.69000 35.08100 41.17600
C  -7.40600 35.37700 41.90900
O  -6.35900 34.74200 41.68300
O  -7.49700 36.49800 42.66600
C  -6.21900 36.88700 43.29400
H  -9.72800 41.67300 39.42800
H  -15.60900 41.31800 42.15600
H  -14.89500 35.21900 43.16100
H  -7.45200 37.81700 40.33600
H  -8.53500 39.47600 38.04900
H  -6.64500 39.78000 40.21400
H  -7.51800 41.35100 39.80600
H  -6.61000 40.55600 38.65400
H  -7.84000 37.60600 37.49000
H  -8.39900 36.13400 38.09200
H  -6.17700 35.40500 38.85700
H  -5.75600 37.02700 39.15900
H  -12.32200 44.26100 38.39900
H  -11.07800 43.22800 38.28600
H  -10.84700 44.31300 39.57700
H  -16.48800 42.96300 40.56700
H  -16.49500 44.70600 40.97600
H  -16.01100 43.46900 42.12100
H  -17.22000 39.16500 41.92400
H  -16.43300 37.06700 43.96100
H  -17.41500 40.59900 43.75700
H  -16.07000 39.91800 44.62600
H  -17.60200 39.06700 44.68700
H  -16.77600 35.51500 41.75900
H  -17.81800 37.00400 41.24500
H  -18.48600 36.22700 43.79900
H  -18.74100 34.85100 42.59800
H  -19.46800 36.40900 42.29000
H  -12.84800 32.27200 42.87100
H  -13.39000 33.43700 44.14700
H  -11.75300 32.94700 44.07200
H  -8.49500 34.57500 40.23100
H  -6.10400 36.03900 43.97000
H  -6.27600 37.71200 44.00400
H  -5.43300 36.99100 42.54700

