158

Mg 36.73400 2.45700 30.19800
C  33.90300 3.22300 32.37100
C  38.66100 2.48000 32.87800
C  39.15200 1.54400 28.13500
C  34.48500 2.70600 27.38700
N  36.30500 2.87300 32.36000
C  35.10000 3.02600 33.07700
C  35.29400 2.88800 34.62100
C  36.89100 2.90100 34.70400
C  37.30400 2.77100 33.20900
C  37.38700 4.23600 35.39100
C  34.56000 1.68000 35.22800
C  34.25200 1.66500 36.80300
H  34.88300 2.80200 37.72900
N  38.75600 2.20800 30.41600
C  39.33000 2.23500 31.60900
C  40.76400 1.88600 31.46600
C  40.96700 1.50100 30.09700
C  39.59500 1.78200 29.46400
C  41.66200 1.87100 32.68900
C  42.14500 0.82300 29.33400
O  42.07300 0.69600 28.08800
C  43.34200 0.25100 30.09300
N  36.81700 2.32600 28.00200
C  37.94000 1.79800 27.46700
C  37.76900 1.54000 25.97200
C  36.25100 1.75900 25.73700
C  35.81500 2.30600 27.09600
C  38.74800 2.41400 25.12400
C  35.49600 0.48600 25.22700
C  35.04800 -0.57200 26.25200
N  34.63500 2.78900 29.84100
C  33.92000 2.94300 28.67400
C  32.55800 3.28400 28.98600
C  32.55000 3.40300 30.38100
C  33.82500 3.11300 30.87800
C  31.47300 3.39100 27.97600
C  31.69700 3.79800 31.53400
O  30.50100 4.21300 31.56000
C  32.50000 3.62000 32.84400
C  32.51500 4.83100 33.75200
O  32.72200 6.01800 33.40100
O  32.02500 4.56100 35.02400
C  32.23700 5.61600 35.97700
H  39.32500 2.66200 33.72600
H  39.72600 0.91200 27.45400
H  33.89000 2.95000 26.50500
H  34.89300 3.68000 35.25500
H  37.17900 2.07700 35.35700
H  37.52500 4.25600 36.47200
H  36.78200 5.09900 35.11300
H  38.28800 4.56600 34.87400
H  35.10400 0.77800 34.94700
H  33.65000 1.55500 34.64000
H  34.52600 0.64200 37.06100
H  33.19200 1.64900 37.05900
H  41.27300 1.18100 33.43800
H  41.70600 2.88300 33.09300
H  42.67100 1.58900 32.39200
H  43.04000 -0.18000 31.04800
H  44.05600 1.07300 30.13800
H  43.78300 -0.48900 29.42400
H  38.07800 0.50600 25.81800
H  36.07900 2.55600 25.01300
H  39.38900 3.13300 25.63400
H  38.29800 2.96500 24.29800
H  39.39600 1.77100 24.52800
H  36.07300 -0.09400 24.50600
H  34.72300 0.85000 24.55100
H  35.51400 -1.54800 26.12200
H  34.01100 -0.71400 25.94700
H  35.04800 -0.20200 27.27700
H  31.17400 2.42100 27.57900
H  31.64900 4.10700 27.17400
H  30.50300 3.56800 28.44300
H  32.00600 2.89600 33.49400
H  33.23600 6.01000 35.78800
H  32.30000 5.33000 37.02700
H  31.54000 6.41000 35.70700
Mg 55.30000 23.26900 43.92500
C  52.63800 25.30700 42.72300
C  53.26700 20.49800 43.12700
C  58.02000 21.23900 44.22000
C  57.18600 25.98900 44.62700
N  53.26100 22.95400 42.88400
C  52.39400 23.93100 42.48100
C  51.10300 23.41100 41.95200
C  51.19200 21.95100 42.42500
C  52.64000 21.72700 42.90000
C  50.27100 21.73100 43.65400
C  50.87800 23.53400 40.40600
C  49.50200 24.13600 39.97300
H  48.86500 23.68800 38.63000
N  55.60200 21.14100 43.76000
C  54.60400 20.19200 43.48300
C  55.23800 18.88400 43.51200
C  56.66900 19.06600 43.79700
C  56.81700 20.50300 43.99300
C  54.59600 17.50600 43.20000
C  57.63100 17.93100 43.92600
O  57.34200 16.79100 43.83200
C  59.01200 18.17800 44.40300
N  57.30000 23.56900 44.38300
C  58.18200 22.56400 44.53200
C  59.58900 23.06300 44.82200
C  59.34300 24.58300 44.99300
C  57.86000 24.74000 44.74700
C  60.37100 22.48700 46.04700
C  60.17400 25.33900 44.01000
C  61.35500 26.15200 44.67800
N  55.01600 25.32000 43.68300
C  55.90000 26.29200 44.05700
C  55.23300 27.54100 43.91100
C  53.88200 27.24100 43.48700
C  53.86700 25.86000 43.20600
C  55.86700 28.88400 44.33000
C  52.49000 27.74000 43.18800
O  51.98300 28.83800 43.39100
C  51.72700 26.58300 42.58200
C  51.54300 27.01400 41.17800
O  52.19200 26.68100 40.23400
O  50.41900 27.74300 41.12100
C  49.89100 28.29800 39.88400
H  52.64900 19.60800 42.98900
H  59.00000 20.75600 44.21000
H  57.85100 26.84300 44.77800
H  50.32700 24.01000 42.42800
H  50.89000 21.27400 41.62600
H  50.51500 20.75600 44.07500
H  49.22300 21.82700 43.37200
H  50.48000 22.50400 44.39400
H  50.99900 22.57000 39.91200
H  51.61800 24.16500 39.91500
H  49.69800 25.19300 39.79600
H  48.72100 23.95600 40.71300
H  54.89700 17.24500 42.18600
H  53.52800 17.65500 43.03800
H  54.78400 16.73600 43.94900
H  59.72700 18.51500 43.65100
H  59.39200 17.25800 44.84600
H  58.88900 18.83200 45.26700
H  60.14700 22.77600 43.93100
H  59.57500 25.01400 45.96700
H  61.16200 21.91000 45.57000
H  59.79200 21.87500 46.73900
H  60.78100 23.33500 46.59500
H  59.71700 26.02500 43.29700
H  60.69400 24.79000 43.22500
H  61.23100 26.19300 45.76000
H  61.46600 27.07500 44.10800
H  62.27500 25.57900 44.56200
H  56.87000 28.76400 44.73900
H  55.38800 29.24300 45.24100
H  55.80400 29.61500 43.52300
H  50.70800 26.43100 42.93800
H  50.70000 28.83500 39.38800
H  49.10300 28.99700 40.16400
H  49.58300 27.42300 39.31200

