158

Mg 48.80300 35.64300 27.89100
C  46.70900 33.92100 30.10700
C  48.84100 38.29900 30.17700
C  50.17500 37.59200 25.53900
C  48.50100 33.05100 25.57700
N  47.92200 36.08300 29.90500
C  47.28100 35.12800 30.69300
C  47.25900 35.56000 32.14900
C  47.39700 37.07600 31.97600
C  48.14900 37.19400 30.59800
C  46.04500 37.87100 31.99600
C  48.47300 34.97700 33.01300
C  48.43000 34.92400 34.54300
H  47.53700 35.98000 35.28200
N  49.50500 37.63600 27.93800
C  49.44400 38.48700 28.99100
C  50.08800 39.74200 28.61700
C  50.52100 39.56000 27.26100
C  50.10700 38.20100 26.85000
C  50.18200 40.92700 29.63500
C  51.20300 40.55300 26.30000
O  51.58200 40.34400 25.17300
C  51.64200 41.87400 26.87200
N  49.22100 35.33000 25.81600
C  49.79500 36.31300 25.03700
C  50.09300 35.80200 23.57700
C  49.78700 34.29700 23.66100
C  49.17900 34.18800 25.10800
C  49.39400 36.49200 22.44200
C  51.05000 33.32100 23.41200
C  50.98800 32.48700 22.16900
N  47.79300 33.83900 27.77200
C  47.80000 32.78100 26.81000
C  46.98900 31.67700 27.26000
C  46.55800 32.07700 28.54800
C  46.98100 33.42500 28.82200
C  46.71700 30.34100 26.56300
C  45.84400 31.65800 29.73100
O  45.33900 30.56200 29.93300
C  45.85400 32.87700 30.75100
C  46.42500 32.26200 31.94800
O  47.52000 31.74100 32.05600
O  45.53500 32.23100 32.97300
C  45.92200 31.56800 34.20200
H  48.91100 39.12500 30.88700
H  50.75800 38.09600 24.76600
H  48.37900 32.20700 24.89600
H  46.28500 35.38000 32.60400
H  48.04200 37.44000 32.77600
H  45.96300 38.76200 31.37300
H  45.87600 38.17000 33.03100
H  45.31200 37.10700 31.73600
H  49.38200 35.52300 32.75900
H  48.67500 33.96000 32.67700
H  49.42800 35.02700 34.96900
H  48.01600 33.96500 34.85500
H  51.05900 41.51900 29.37200
H  50.31800 40.63300 30.67600
H  49.30700 41.56000 29.48500
H  50.73600 42.43100 27.10900
H  52.14500 42.32700 26.01800
H  52.32600 41.73100 27.71000
H  51.15400 36.00600 23.43200
H  48.98100 34.04900 22.97000
H  48.73400 35.78400 21.94000
H  50.15300 36.93700 21.79800
H  48.88100 37.29700 22.96800
H  51.26600 32.63600 24.23100
H  51.91100 33.97900 23.28900
H  51.51800 32.89400 21.30700
H  49.98100 32.19600 21.86700
H  51.53400 31.61200 22.52200
H  47.70100 29.91200 26.37500
H  46.34100 30.51900 25.55500
H  46.05100 29.72700 27.16800
H  44.88300 33.24900 31.07900
H  46.53100 30.67200 34.08000
H  45.03900 31.35200 34.80500
H  46.55200 32.26100 34.76000
Mg 1.25500 41.13900 25.46700
C  2.27400 41.56400 28.91800
C  -1.68900 39.78800 26.73200
C  0.40500 40.67500 22.30200
C  4.55400 41.74300 24.53600
N  0.35400 40.80800 27.56500
C  0.93500 41.08300 28.77500
C  -0.03500 40.73700 29.96200
C  -1.28400 40.16200 29.18600
C  -0.86300 40.27300 27.76100
C  -1.56600 38.70500 29.62400
C  -0.30000 41.96800 30.89900
C  -0.56900 41.69100 32.40800
H  -1.55900 40.49700 32.70100
N  -0.47700 40.43900 24.65100
C  -1.58500 40.02000 25.32000
C  -2.59200 39.69100 24.31100
C  -1.91400 39.86300 23.02600
C  -0.58000 40.39000 23.28600
C  -3.94200 39.17900 24.65900
C  -2.54300 39.56000 21.62800
O  -1.94400 39.86100 20.59400
C  -3.95600 39.02600 21.49100
N  2.37900 41.18100 23.69800
C  1.75300 41.00800 22.47100
C  2.80100 41.14800 21.33600
C  4.13700 41.37000 22.11400
C  3.65600 41.50100 23.49700
C  2.89100 40.01500 20.23800
C  4.84100 42.71300 21.71300
C  4.15100 44.06900 22.00600
N  3.10500 41.65200 26.45500
C  4.35700 41.80700 25.92600
C  5.29800 41.96100 27.00100
C  4.48300 41.88200 28.18000
C  3.12700 41.70500 27.80100
C  6.81500 42.02500 26.91900
C  4.58800 41.94100 29.57100
O  5.57800 42.21200 30.25100
C  3.19600 41.73900 30.15300
C  3.21600 40.42700 30.97300
O  3.66900 39.37500 30.51200
O  2.87400 40.62500 32.29800
C  3.02800 39.44200 33.07900
H  -2.46700 39.15900 27.17000
H  0.12200 40.53800 21.25600
H  5.61500 41.80700 24.28200
H  0.44700 40.02800 30.63500
H  -2.16200 40.78600 29.35400
H  -1.02700 38.40900 30.52400
H  -1.14600 38.00400 28.90300
H  -2.64500 38.69900 29.77800
H  -1.18600 42.51500 30.57400
H  0.52600 42.67800 30.89600
H  -1.04500 42.57800 32.82600
H  0.36700 41.51100 32.93700
H  -4.10300 39.36400 25.72100
H  -3.86600 38.10700 24.47200
H  -4.77000 39.52800 24.04300
H  -4.04200 37.97600 21.77200
H  -4.19700 38.92700 20.43200
H  -4.70600 39.65200 21.97500
H  2.51700 42.11300 20.91800
H  4.86100 40.55600 22.13700
H  2.21300 39.16900 20.35400
H  3.90600 39.62500 20.16600
H  2.54800 40.40800 19.28100
H  4.98200 42.61800 20.63700
H  5.79800 42.64700 22.23000
H  3.99200 44.51800 21.02600
H  4.82700 44.71600 22.56500
H  3.21100 44.01900 22.55600
H  7.13600 42.08500 25.87900
H  7.23000 41.17900 27.46600
H  7.09900 42.91000 27.48800
H  3.05400 42.63700 30.75400
H  4.10400 39.27400 33.11900
H  2.57400 38.60200 32.55300
H  2.80100 39.47000 34.14500

