158

Mg 55.51100 22.59500 44.78200
C  53.42500 24.96200 43.52900
C  53.12900 20.23400 43.89200
C  57.84500 20.19800 45.16300
C  57.89200 24.99300 45.35200
N  53.57500 22.61600 43.69000
C  52.90100 23.71500 43.18800
C  51.54300 23.30000 42.71000
C  51.34800 21.83700 43.33600
C  52.72700 21.54500 43.72800
C  50.32200 21.71600 44.49900
C  51.33700 23.66800 41.22200
C  50.05600 24.40300 40.91100
H  49.25100 23.86900 39.75200
N  55.46400 20.57800 44.39500
C  54.42700 19.75500 44.03500
C  54.81100 18.36900 44.06000
C  56.20000 18.34800 44.33500
C  56.60200 19.72600 44.63300
C  53.87600 17.25600 43.87500
C  57.03300 17.07900 44.52000
O  56.44300 15.96300 44.46300
C  58.47400 17.05900 45.01700
N  57.54300 22.51000 45.32800
C  58.32100 21.45400 45.48100
C  59.83700 21.71900 45.85100
C  59.80400 23.35000 45.74000
C  58.30300 23.65100 45.47500
C  60.25400 21.23600 47.28700
C  60.69800 23.94700 44.53100
C  61.44800 25.25100 44.79700
N  55.63700 24.55700 44.65800
C  56.60700 25.44700 45.00800
C  56.11700 26.80700 44.83900
C  54.84300 26.70300 44.32800
C  54.58600 25.29800 44.21500
C  56.85100 28.09700 45.19400
C  53.65200 27.38000 43.86600
O  53.38100 28.57500 43.89100
C  52.82800 26.31200 43.15000
C  52.92000 26.54700 41.69400
O  53.87500 26.23100 40.95500
O  51.86300 27.30400 41.35200
C  51.93100 28.12000 40.14900
H  52.38500 19.47100 43.65300
H  58.64900 19.51700 45.44600
H  58.54700 25.85500 45.49200
H  50.89300 23.89900 43.34800
H  51.05500 21.08600 42.60100
H  50.85800 21.19500 45.29300
H  49.49100 21.09800 44.15700
H  49.93400 22.71600 44.68800
H  51.39000 22.73600 40.66000
H  52.14100 24.31900 40.88000
H  50.26500 25.40300 40.53000
H  49.42000 24.43400 41.79500
H  54.02600 16.94000 42.84300
H  52.82900 17.48500 44.07400
H  54.11100 16.42700 44.54300
H  58.53300 17.40900 46.04800
H  59.07700 17.66400 44.33900
H  58.94100 16.07500 45.05100
H  60.37600 21.27300 45.01500
H  60.05700 23.86300 46.66700
H  59.39600 20.75200 47.75300
H  60.56300 22.13400 47.82200
H  61.02000 20.47200 47.15100
H  60.07600 24.10700 43.65000
H  61.43600 23.17800 44.30100
H  61.33200 25.79900 43.86100
H  62.52800 25.20300 44.93700
H  60.97800 25.89800 45.53800
H  56.36500 28.64700 46.00000
H  56.72000 28.76400 44.34100
H  57.93200 27.98300 45.27500
H  51.77200 26.37200 43.41300
H  51.28500 28.99800 40.15100
H  51.57600 27.50500 39.32300
H  52.96800 28.39000 39.95100
Mg -10.39000 39.77300 38.92000
C  -9.07200 36.63600 38.29700
C  -7.05200 40.99100 38.33300
C  -11.56100 42.93500 38.57000
C  -13.54200 38.50300 39.17300
N  -8.40400 38.87100 38.40400
C  -8.08600 37.56900 38.22200
C  -6.58000 37.31900 37.80500
C  -6.03100 38.56500 38.53600
C  -7.18100 39.55800 38.40200
C  -5.69700 38.23600 40.06800
C  -6.34000 37.41800 36.28300
C  -6.17800 36.07800 35.54900
H  -7.29000 35.78300 34.49500
N  -9.44700 41.69000 38.51100
C  -8.06600 41.95500 38.25300
C  -7.89500 43.33200 38.09200
C  -9.16300 43.98400 38.10500
C  -10.13900 42.86800 38.47000
C  -6.55800 43.93500 37.75900
C  -9.45600 45.40800 37.86600
O  -8.54100 46.21700 37.63400
C  -10.83800 46.02400 37.94800
N  -12.26800 40.56600 38.85900
C  -12.49400 41.91300 38.90700
C  -13.99000 42.21700 39.15100
C  -14.66500 40.80500 39.27300
C  -13.41800 39.87500 39.10100
C  -14.21300 43.10000 40.39100
C  -15.82300 40.56400 38.22900
C  -17.17500 40.14400 38.90300
N  -11.16100 37.90900 38.89000
C  -12.49500 37.55800 39.06100
C  -12.56700 36.11900 39.01800
C  -11.30100 35.69500 38.63800
C  -10.46600 36.79700 38.64200
C  -13.83600 35.35900 39.18700
C  -10.41000 34.57200 38.27200
O  -10.65300 33.44200 38.11700
C  -8.96600 35.09200 38.04100
C  -8.10400 34.38800 38.99600
O  -8.41800 34.11800 40.16100
O  -6.93900 33.86600 38.46200
C  -6.16700 32.92500 39.23800
H  -6.01700 41.32900 38.25100
H  -11.89000 43.96300 38.73400
H  -14.49000 38.01500 39.40500
H  -6.05500 36.46300 38.22900
H  -5.08900 38.88100 38.09000
H  -6.49100 38.63300 40.70100
H  -4.71300 38.65500 40.28000
H  -5.47700 37.18700 40.26600
H  -5.42700 38.00100 36.16100
H  -7.17000 37.97500 35.84800
H  -6.04100 35.23400 36.22400
H  -5.20700 36.24400 35.08300
H  -6.54400 44.29500 36.73000
H  -5.71300 43.25300 37.85800
H  -6.45400 44.86700 38.31500
H  -11.54200 45.44800 37.34800
H  -10.94000 47.03300 37.54700
H  -11.26100 45.95700 38.95100
H  -14.33800 42.76100 38.27400
H  -15.04200 40.58000 40.27000
H  -15.06600 42.90300 41.04000
H  -14.33200 44.15600 40.15000
H  -13.23600 42.97800 40.85900
H  -15.55800 39.82900 37.46800
H  -16.16700 41.47600 37.74100
H  -17.32700 40.81500 39.74900
H  -17.05300 39.07100 39.05200
H  -17.88800 40.31900 38.09800
H  -14.76100 35.89700 38.98200
H  -13.91000 35.06900 40.23500
H  -13.75600 34.51400 38.50300
H  -8.65200 34.93500 37.00900
H  -5.84300 33.39200 40.16800
H  -5.32400 32.54800 38.65900
H  -6.75400 32.07300 39.57900

