158

Mg 16.60400 -0.73300 27.85800
C  15.55400 1.16100 30.52500
C  18.42100 -2.69500 29.91600
C  18.17600 -2.02900 25.17600
C  14.99100 1.48900 25.68400
N  17.07000 -0.64100 30.02900
C  16.45100 0.16400 30.93100
C  16.88000 -0.22600 32.38500
C  17.68800 -1.57200 32.12100
C  17.80100 -1.60800 30.60900
C  19.07400 -1.63700 32.79900
C  15.80200 -0.26000 33.52500
C  16.19000 -0.95000 34.80600
H  17.36500 -0.40500 35.52600
N  17.92400 -2.19200 27.57300
C  18.42000 -2.98200 28.59900
C  19.10300 -4.14600 28.03500
C  19.13200 -3.93800 26.60800
C  18.37800 -2.74500 26.40900
C  19.73900 -5.15500 28.90000
C  19.87400 -4.67700 25.49700
O  19.78400 -4.47300 24.28500
C  20.95700 -5.73900 25.83700
N  16.71800 -0.23100 25.79800
C  17.40700 -0.95600 24.93300
C  17.31700 -0.43600 23.45400
C  16.00100 0.49400 23.59900
C  15.94400 0.63200 25.11400
C  18.66300 0.21000 23.03300
C  14.76300 -0.14800 23.01300
C  13.97700 -1.13300 23.86900
N  15.30300 0.82700 28.00400
C  14.72100 1.65700 27.03400
C  13.81500 2.63300 27.67100
C  14.13100 2.41000 29.05000
C  15.04500 1.39900 29.16800
C  13.03900 3.61000 26.98300
C  13.91000 2.91500 30.43600
O  13.12600 3.75700 30.79600
C  14.83800 2.15600 31.44000
C  15.71800 3.13200 32.14200
O  16.68500 3.69800 31.75400
O  15.15200 3.37700 33.39600
C  15.64200 4.54700 34.16200
H  19.08200 -3.27500 30.56400
H  18.67100 -2.50600 24.32700
H  14.36200 2.09500 25.02800
H  17.57100 0.59200 32.58400
H  17.13100 -2.43000 32.49600
H  19.27700 -0.77000 33.42800
H  19.83900 -1.57400 32.02400
H  19.10800 -2.56900 33.36400
H  14.84400 -0.63800 33.16800
H  15.69000 0.81300 33.68500
H  16.42500 -2.00700 34.68500
H  15.36400 -0.90600 35.51500
H  19.09300 -5.36900 29.75200
H  20.67200 -4.77800 29.31800
H  19.95400 -6.06800 28.34600
H  21.69700 -5.74000 25.03700
H  20.71900 -6.79800 25.93300
H  21.52800 -5.37100 26.69000
H  17.23400 -1.41400 22.97800
H  16.42700 1.42000 23.21100
H  18.55400 1.29000 23.12500
H  18.96100 0.06400 21.99400
H  19.42400 -0.15600 23.72200
H  15.11600 -0.76300 22.18600
H  14.05900 0.57000 22.59400
H  13.06200 -0.74400 24.31800
H  14.56300 -1.46300 24.72700
H  13.81100 -2.06200 23.32300
H  12.89700 3.36900 25.93000
H  13.49200 4.59000 27.13700
H  12.07300 3.59500 27.48800
H  14.25300 1.51900 32.10300
H  15.87700 5.42200 33.55700
H  16.45500 4.40900 34.87500
H  14.82700 4.75300 34.85600
Mg 9.99900 47.72800 26.44300
C  7.69100 47.90100 28.89300
C  12.30600 49.00200 28.47000
C  12.06400 47.97600 23.71100
C  7.44600 46.77700 24.10300
N  9.94500 48.40200 28.42900
C  8.91300 48.37700 29.21300
C  9.40200 48.84000 30.61500
C  10.73700 49.57600 30.36900
C  11.04600 48.99800 29.04100
C  10.72100 51.14300 30.34800
C  9.40900 47.59600 31.58700
C  10.12700 47.75300 32.84400
H  9.78600 46.73500 34.01900
N  11.91400 48.29700 26.24700
C  12.75100 48.66900 27.20400
C  14.09400 48.84300 26.68500
C  14.01200 48.61800 25.30200
C  12.61000 48.20500 25.03100
C  15.21700 49.30500 27.62300
C  15.13700 48.69100 24.21400
O  14.95600 48.23600 23.10900
C  16.44700 49.19400 24.55300
N  9.74000 47.43700 24.22000
C  10.77700 47.60900 23.40300
C  10.40600 47.26700 21.95600
C  9.01100 46.55400 22.09200
C  8.68100 46.92200 23.54400
C  10.51000 48.58100 21.10700
C  8.90400 45.09400 21.59000
C  9.30000 43.95400 22.44900
N  7.99000 47.45400 26.43000
C  7.04800 47.07100 25.45800
C  5.73600 46.94800 26.12700
C  5.96800 47.18300 27.45500
C  7.32500 47.55400 27.57200
C  4.46500 46.58900 25.42100
C  5.32700 47.27800 28.73700
O  4.12900 47.16200 28.99000
C  6.46700 47.54200 29.77000
C  6.56300 46.29600 30.59100
O  7.03700 45.25400 30.14900
O  5.98600 46.33600 31.83000
C  6.18600 45.15500 32.64000
H  13.01400 49.42600 29.18500
H  12.74900 48.07300 22.86600
H  6.68000 46.41400 23.41500
H  8.73400 49.65200 30.90100
H  11.49000 49.23700 31.08000
H  11.31000 51.57300 31.15900
H  9.73600 51.52800 30.61300
H  11.13800 51.55800 29.43100
H  9.68500 46.67500 31.07300
H  8.37200 47.58000 31.92200
H  9.87700 48.74800 33.21300
H  11.17300 47.54400 32.62400
H  16.11000 48.69300 27.49700
H  14.99700 49.13000 28.67600
H  15.47200 50.33000 27.35600
H  16.34800 50.16600 25.03800
H  17.00100 49.45100 23.65000
H  16.87500 48.35800 25.10500
H  11.12500 46.49200 21.68900
H  8.19800 47.03900 21.55100
H  10.57100 49.56900 21.56400
H  9.75400 48.55800 20.32200
H  11.46800 48.65900 20.59300
H  9.25000 44.96300 20.56500
H  7.81400 45.09600 21.61700
H  10.00100 44.33300 23.19300
H  9.83700 43.16600 21.92200
H  8.42800 43.53100 22.94800
H  4.69800 45.90700 24.60300
H  4.15000 47.51100 24.93300
H  3.78400 46.25600 26.20500
H  6.15900 48.36800 30.41100
H  5.16000 45.02300 32.98300
H  6.84700 45.25100 33.50100
H  6.51200 44.23900 32.14700

