158

Mg 25.35800 1.48300 30.19900
C  27.62500 1.60200 32.80000
C  22.85000 1.47800 32.40700
C  23.36800 1.25700 27.61100
C  28.22500 1.04800 28.04600
N  25.23700 1.56000 32.34900
C  26.30500 1.72200 33.18200
C  25.86900 1.73300 34.64600
C  24.34700 1.30600 34.49200
C  24.13200 1.54400 33.02800
C  23.99600 -0.08000 35.00700
C  26.16200 3.03700 35.36200
C  27.18800 2.90700 36.53700
H  26.96800 3.76500 37.79300
N  23.38600 1.38700 30.04100
C  22.53100 1.36900 31.05900
C  21.19000 1.24600 30.50900
C  21.28500 1.12900 29.08700
C  22.74400 1.24800 28.84000
C  19.88300 1.21900 31.40700
C  20.21700 0.95600 28.06600
O  20.44300 0.72400 26.85700
C  18.81500 1.23500 28.43100
N  25.79500 1.24400 28.14700
C  24.72800 1.22300 27.25700
C  25.23700 1.43200 25.83500
C  26.79700 1.66300 26.00100
C  26.97500 1.27800 27.46600
C  24.85400 0.19100 24.93800
C  27.31300 3.07700 25.52000
C  26.93900 4.33800 26.28500
N  27.47000 1.20600 30.37000
C  28.50600 0.96000 29.42300
C  29.78100 0.71900 30.02900
C  29.43500 0.92700 31.41300
C  28.07900 1.28000 31.52400
C  31.13000 0.52600 29.46300
C  30.04200 0.92100 32.73700
O  31.21300 0.73700 33.08300
C  28.87100 1.33000 33.66200
C  28.71300 0.18800 34.72400
O  28.06500 -0.84100 34.61400
O  29.56200 0.56000 35.78900
C  29.85500 -0.53300 36.66400
H  22.12900 1.36800 33.22000
H  22.76000 1.28200 26.70400
H  29.04600 0.88100 27.34600
H  26.34300 0.97100 35.26400
H  23.66400 1.96300 35.03000
H  24.82600 -0.71600 34.69900
H  23.04400 -0.32900 34.53800
H  23.80700 -0.20400 36.07400
H  25.28800 3.47700 35.84300
H  26.47800 3.77900 34.62900
H  28.08500 3.29600 36.05600
H  27.33900 1.90200 36.93100
H  19.43300 2.18100 31.16100
H  20.10500 1.21900 32.47400
H  19.18100 0.40400 31.22800
H  18.32200 1.45200 27.48400
H  18.87300 2.07300 29.12600
H  18.32200 0.34400 28.82000
H  24.75800 2.35200 25.50000
H  27.39700 0.94400 25.44300
H  25.64900 -0.55500 24.90500
H  24.61600 0.53500 23.93100
H  23.93100 -0.28000 25.27500
H  26.99400 3.07500 24.47800
H  28.39700 2.96100 25.51100
H  26.85600 4.10600 27.34700
H  26.01300 4.74700 25.88100
H  27.72200 5.08500 26.15700
H  31.21600 1.23600 28.64100
H  31.18500 -0.52900 29.19400
H  31.80800 0.81400 30.26700
H  29.20600 2.28100 34.07600
H  29.77100 -1.48000 36.13100
H  29.33500 -0.29900 37.59300
H  30.92100 -0.39200 36.84200
Mg 1.05900 41.39600 25.17600
C  2.93200 41.90000 28.10300
C  -1.60500 40.46200 27.23700
C  -0.64300 40.57800 22.42800
C  4.09600 41.67300 23.28900
N  0.63500 41.32900 27.49200
C  1.61100 41.51400 28.39600
C  1.04600 41.30800 29.80700
C  -0.42200 40.77200 29.54900
C  -0.51100 40.86700 28.04200
C  -0.64200 39.22100 29.92200
C  1.04200 42.62900 30.65400
C  0.28200 42.71100 31.93100
H  0.07400 41.45400 32.76000
N  -0.82700 40.87600 24.87300
C  -1.77200 40.48200 25.86300
C  -3.02200 40.12300 25.15300
C  -2.75000 40.23700 23.76000
C  -1.34300 40.60400 23.58600
C  -4.34500 39.87600 25.91100
C  -3.79500 40.15400 22.60900
O  -3.43900 40.17400 21.42200
C  -5.25100 39.99400 22.80300
N  1.63200 41.06200 23.14600
C  0.74400 40.82500 22.16600
C  1.35500 40.87500 20.73500
C  2.82700 41.32800 21.03300
C  2.87500 41.44200 22.59400
C  1.33000 39.50500 19.99400
C  3.12500 42.69100 20.28800
C  3.06500 43.98500 21.18100
N  3.05200 41.79400 25.52900
C  4.17800 41.91800 24.66600
C  5.29100 42.20600 25.45900
C  4.91900 42.26000 26.78200
C  3.52100 41.96000 26.73600
C  6.63400 42.43900 24.93800
C  5.32200 42.43800 28.16200
O  6.43000 42.66300 28.59700
C  4.02700 42.19000 29.04200
C  4.29600 41.10500 30.03500
O  4.37600 39.88200 29.77500
O  4.75600 41.70600 31.16700
C  5.33800 40.66200 32.09800
H  -2.43400 40.04500 27.81400
H  -1.26200 40.50700 21.53100
H  5.04700 41.74900 22.75700
H  1.68100 40.61700 30.36100
H  -1.19100 41.36900 30.03900
H  0.24400 38.70600 30.29400
H  -1.04600 38.69100 29.06000
H  -1.39200 39.28800 30.71000
H  0.68600 43.41200 29.98500
H  2.06700 42.91600 30.89000
H  -0.65600 43.26200 31.86700
H  0.85700 43.26600 32.67200
H  -4.34900 39.94900 26.99900
H  -4.73600 38.90900 25.59500
H  -5.05500 40.62000 25.54900
H  -5.70600 40.85700 23.29100
H  -5.43900 39.06000 23.33300
H  -5.61100 39.98200 21.77500
H  0.83900 41.54900 20.05100
H  3.50200 40.54000 20.70000
H  2.27300 38.96900 20.10800
H  1.11900 39.68900 18.94100
H  0.55900 38.84800 20.39800
H  2.30300 42.98600 19.63600
H  4.02600 42.66200 19.67400
H  4.05000 44.15900 21.61300
H  2.35500 43.89300 22.00300
H  2.73300 44.80000 20.53800
H  6.52000 43.17600 24.14400
H  7.00200 41.52600 24.47100
H  7.25700 42.77500 25.76700
H  3.87600 43.11000 29.60700
H  5.95800 40.98300 32.93500
H  5.88400 39.92000 31.51500
H  4.43000 40.27800 32.56300

