158

Mg 47.37600 44.66100 42.55200
C  44.00800 43.46000 42.41800
C  48.23800 41.20200 42.36700
C  50.37200 45.63200 42.36600
C  46.15300 47.89500 42.03300
N  46.20700 42.60100 42.50800
C  44.86000 42.33500 42.51100
C  44.51900 40.89000 42.28000
C  45.87000 40.14600 42.55600
C  46.88100 41.39400 42.52200
C  45.74300 39.30800 43.88000
C  43.84000 40.60900 40.83800
C  44.40600 41.24800 39.54500
H  44.15100 40.54700 38.20000
N  49.07500 43.55800 42.42900
C  49.30200 42.16200 42.35500
C  50.74200 41.95700 42.23300
C  51.40400 43.18400 42.20500
C  50.27700 44.19600 42.32600
C  51.33600 40.57000 42.22500
C  52.91500 43.34000 42.16600
O  53.62700 42.34000 42.00700
C  53.47400 44.67300 42.07100
N  48.16700 46.60600 42.23700
C  49.49400 46.70600 42.33200
C  49.88300 48.19800 42.42200
C  48.59400 48.87400 41.83800
C  47.56600 47.78100 42.01100
C  50.15300 48.64200 43.92400
C  48.84300 49.27800 40.38600
C  47.92500 50.23100 39.66700
N  45.54200 45.51700 42.15600
C  45.18500 46.86200 42.06400
C  43.72100 47.02200 42.01000
C  43.21700 45.68800 42.21700
C  44.34200 44.81700 42.25300
C  42.99000 48.38900 41.69600
C  42.00900 44.95100 42.27700
O  40.83400 45.32700 42.17300
C  42.44900 43.44800 42.51800
C  42.02800 42.95000 43.84000
O  41.52500 41.85000 44.11000
O  42.33800 43.89800 44.80100
C  41.80600 43.56200 46.10600
H  48.48800 40.13900 42.38800
H  51.32300 46.16300 42.28300
H  45.82700 48.89200 41.73100
H  43.66700 40.64700 42.91600
H  46.18400 39.42500 41.80200
H  46.17900 39.75100 44.77500
H  46.12400 38.29200 43.77800
H  44.68800 39.18000 44.12300
H  42.80600 40.94600 40.91500
H  43.77000 39.52200 40.79600
H  45.45600 41.53800 39.58200
H  43.88700 42.19600 39.40500
H  50.71800 39.69600 42.43000
H  52.18400 40.48700 42.90500
H  51.71900 40.28000 41.24700
H  53.27300 45.01700 41.05700
H  54.55800 44.59200 42.15200
H  53.02000 45.20200 42.90900
H  50.80500 48.43300 41.89200
H  48.30000 49.83100 42.27100
H  51.13200 49.10100 44.06000
H  50.12700 47.72400 44.51100
H  49.35900 49.28300 44.30500
H  48.86900 48.38700 39.76000
H  49.85700 49.67200 40.32100
H  48.60000 50.93900 39.18500
H  47.15000 50.67700 40.29000
H  47.47100 49.66400 38.85500
H  43.50800 49.05100 42.39000
H  41.96200 48.41800 42.05600
H  43.09300 48.75000 40.67300
H  41.88800 42.76100 41.88400
H  40.72300 43.47100 46.18800
H  42.21800 44.19700 46.89000
H  42.17400 42.61100 46.49100
Mg 47.41800 35.23300 27.68800
C  45.86700 33.48200 30.25900
C  47.64400 37.93600 29.87600
C  48.38100 37.27700 25.12800
C  46.75000 32.60500 25.50200
N  46.97400 35.59500 29.82800
C  46.34900 34.73900 30.74100
C  46.38900 35.26400 32.20600
C  46.38200 36.83300 31.85000
C  47.04300 36.81000 30.44300
C  45.07200 37.56400 31.84300
C  47.71600 34.88700 32.88700
C  47.48700 34.30500 34.30600
H  47.59800 35.38300 35.41900
N  48.09200 37.22800 27.52800
C  48.14300 38.16300 28.53300
C  48.74500 39.40900 28.02700
C  48.96800 39.23000 26.61400
C  48.44000 37.87600 26.35700
C  49.06100 40.51600 29.04400
C  49.56200 40.17000 25.54000
O  49.73700 39.86200 24.38300
C  49.96300 41.55900 26.05900
N  47.62600 34.96100 25.61200
C  48.03100 35.96700 24.72800
C  48.06500 35.37600 23.30200
C  47.63100 33.88500 23.49500
C  47.38500 33.75700 24.99000
C  47.19400 36.22900 22.30400
C  48.64700 32.79000 22.93100
C  50.04600 32.66600 23.61800
N  46.58900 33.35600 27.82500
C  46.40800 32.34900 26.89700
C  45.66700 31.18300 27.46900
C  45.42300 31.70000 28.76900
C  46.04900 32.93500 28.93400
C  45.23300 29.91800 26.80500
C  44.80700 31.37300 30.04000
O  44.18200 30.33100 30.37700
C  44.94700 32.51700 30.94700
C  45.28000 32.02400 32.27500
O  46.34400 31.48300 32.58200
O  44.22100 32.20800 33.16400
C  44.47500 31.51800 34.44800
H  47.65300 38.75100 30.60300
H  48.67900 37.70500 24.16800
H  46.56600 31.75600 24.84100
H  45.58400 35.05600 32.91100
H  46.90500 37.36800 32.64200
H  44.79300 38.09300 32.75500
H  44.27100 36.83100 31.74700
H  45.04900 38.23600 30.98600
H  48.32600 35.78700 32.96000
H  48.33200 34.18200 32.32900
H  48.25500 33.53200 34.27500
H  46.45200 33.96300 34.35000
H  49.90400 41.11200 28.69200
H  49.22200 40.26700 30.09300
H  48.21000 41.19300 28.97500
H  49.11700 42.07700 26.51100
H  50.39900 42.12600 25.23600
H  50.75400 41.42000 26.79600
H  49.11200 35.34700 23.00000
H  46.68900 33.77900 22.95700
H  46.84900 37.18200 22.70600
H  46.26800 35.80500 21.91700
H  47.87900 36.43600 21.48200
H  48.83900 32.89000 21.86200
H  48.22800 31.78500 22.98600
H  50.88100 32.78400 22.92700
H  50.15800 31.72500 24.15600
H  50.10700 33.49500 24.32400
H  45.65600 29.90100 25.80100
H  44.15300 29.77300 26.79000
H  45.61500 29.09100 27.40400
H  43.94300 32.93500 31.01400
H  44.86600 30.53500 34.18800
H  43.59000 31.39100 35.07200
H  45.10600 32.04700 35.16200

