158

Mg -2.10400 17.56400 26.94400
C  -2.69000 15.00200 29.32700
C  -2.25900 19.86200 29.26300
C  -1.79900 19.78100 24.51400
C  -2.75400 14.97200 24.51700
N  -2.49400 17.40500 28.95500
C  -2.50500 16.36600 29.83800
C  -2.38100 16.77500 31.31000
C  -2.72700 18.26600 31.16900
C  -2.54400 18.55900 29.64200
C  -3.96900 18.86500 31.85700
C  -1.10700 16.40200 32.04900
C  -0.95000 17.09200 33.43400
H  -0.89400 16.27200 34.75600
N  -1.89700 19.59100 26.90000
C  -1.89600 20.35100 28.01500
C  -1.48000 21.70600 27.67300
C  -1.22400 21.65100 26.27300
C  -1.64000 20.27400 25.83500
C  -1.35700 22.84800 28.69700
C  -0.68700 22.67800 25.30700
O  -0.49900 22.43600 24.13300
C  -0.12900 23.95000 25.69000
N  -2.28700 17.38700 24.86400
C  -2.07000 18.48600 24.10900
C  -2.35000 18.27700 22.66300
C  -2.57700 16.71300 22.54200
C  -2.60000 16.31600 24.04700
C  -3.56400 19.10800 22.11400
C  -1.47700 15.91500 21.76800
C  -0.16100 15.59900 22.44400
N  -2.47300 15.39500 26.84400
C  -2.72200 14.50200 25.79100
C  -2.97400 13.21500 26.23300
C  -2.91300 13.32900 27.69200
C  -2.65400 14.66300 27.96900
C  -3.44900 12.05700 25.33800
C  -3.07900 12.57200 28.94600
O  -3.44200 11.44800 29.22700
C  -2.93900 13.65400 30.07000
C  -1.91500 13.15300 31.04200
O  -0.71300 13.24800 30.88200
O  -2.53300 12.53500 32.10100
C  -1.68700 12.09900 33.24100
H  -2.27900 20.65600 30.01100
H  -1.64300 20.54800 23.75300
H  -2.84400 14.26000 23.69400
H  -3.08600 16.26200 31.96300
H  -1.86600 18.74100 31.64000
H  -3.59500 19.51400 32.64900
H  -4.67300 18.14700 32.27600
H  -4.49800 19.47400 31.12500
H  -0.38300 16.58200 31.25500
H  -1.13500 15.33300 32.26000
H  -1.69300 17.88100 33.54900
H  -0.01500 17.64400 33.34000
H  -0.47900 23.45800 28.48500
H  -1.53500 22.51600 29.72000
H  -2.32800 23.31700 28.53900
H  -0.41200 24.37500 26.65200
H  -0.46600 24.57100 24.85900
H  0.95800 23.94800 25.76800
H  -1.40300 18.58200 22.21800
H  -3.54900 16.49600 22.09900
H  -4.53800 18.61800 22.09300
H  -3.31000 19.52300 21.13900
H  -3.62300 19.93000 22.82700
H  -1.47800 16.44600 20.81600
H  -1.85300 14.91300 21.56400
H  0.18800 14.64700 22.04400
H  -0.35300 15.43100 23.50400
H  0.45200 16.47800 22.24800
H  -4.39600 12.39900 24.92100
H  -3.60800 11.20600 26.00000
H  -2.81800 11.86500 24.47100
H  -3.81900 13.73800 30.70700
H  -2.12600 11.22800 33.72800
H  -1.48600 13.03200 33.76700
H  -0.76300 11.73700 32.79100
Mg 49.33500 46.75500 43.68000
C  46.07500 47.01500 42.63600
C  49.61100 43.92000 41.81000
C  52.47100 46.90700 44.48500
C  48.94300 50.07500 45.04300
N  47.96700 45.65400 42.30200
C  46.64600 45.84900 42.09900
C  45.98500 44.78200 41.16300
C  47.04300 43.68600 41.23300
C  48.31500 44.51600 41.76500
C  46.67200 42.55500 42.29200
C  45.78900 45.44700 39.73700
C  44.43400 45.10400 39.07600
H  44.31100 44.77900 37.57200
N  50.82600 45.52700 43.14300
C  50.77600 44.38500 42.42100
C  52.11700 43.80500 42.43700
C  52.94500 44.57200 43.22000
C  52.10000 45.78900 43.60500
C  52.41400 42.59400 41.47200
C  54.38000 44.23500 43.65000
O  54.89100 43.20700 43.27700
C  55.15700 44.99200 44.77900
N  50.56200 48.35900 44.54700
C  51.79800 48.05500 44.81500
C  52.51800 49.29700 45.53200
C  51.38700 50.42800 45.58300
C  50.22100 49.63400 44.98600
C  53.33900 49.10000 46.78100
C  51.55900 51.62300 44.63100
C  52.85700 52.45000 44.77800
N  47.84800 48.20300 43.91200
C  47.81900 49.50400 44.51400
C  46.51200 50.11800 44.33000
C  45.80800 49.17300 43.58400
C  46.67800 48.00100 43.41200
C  46.24900 51.47100 44.67800
C  44.54900 48.91700 42.97300
O  43.56600 49.62000 42.94500
C  44.62600 47.44500 42.31100
C  43.56800 46.57700 43.00900
O  43.42400 46.47700 44.23200
O  42.82200 45.92400 42.05500
C  41.82800 45.07200 42.60300
H  49.57700 42.93600 41.33800
H  53.50100 46.93500 44.84500
H  48.73000 51.00200 45.58000
H  44.98400 44.49900 41.48900
H  47.34800 43.27900 40.26900
H  47.34200 42.52200 43.15100
H  46.86800 41.59200 41.82200
H  45.66700 42.72300 42.67900
H  46.56600 45.10700 39.05300
H  45.90200 46.52900 39.80300
H  43.72400 45.92500 39.17600
H  43.97300 44.25700 39.58500
H  51.66300 42.28100 40.74600
H  52.71700 41.77400 42.12300
H  53.36600 42.80500 40.98400
H  55.88700 44.29400 45.18800
H  54.46400 44.98100 45.62100
H  55.50600 46.00000 44.55700
H  53.27100 49.67100 44.83700
H  51.22200 50.81300 46.58900
H  54.39600 49.30600 46.61600
H  53.37100 48.11400 47.24500
H  53.08400 49.80200 47.57500
H  50.79800 52.34100 44.93700
H  51.51100 51.37700 43.57000
H  53.44100 52.35000 43.86200
H  53.53100 52.33700 45.62700
H  52.68900 53.52300 44.85900
H  47.12100 52.08000 44.43800
H  46.11800 51.51600 45.75900
H  45.32900 51.92700 44.31300
H  44.39500 47.49700 41.24700
H  42.13300 44.32700 43.33700
H  41.31300 44.45700 41.86400
H  41.05200 45.74100 42.97600

