158

Mg 5.73300 54.63900 40.93000
C  5.25900 51.22200 41.21900
C  8.81000 54.15600 39.76400
C  5.74200 57.89300 39.93100
C  2.27400 55.06700 41.89700
N  6.78100 52.81600 40.18400
C  6.48100 51.54100 40.55200
C  7.62900 50.66200 40.04900
C  8.81300 51.57600 40.29300
C  8.12500 52.96000 40.16000
C  9.62700 51.40200 41.61400
C  7.49800 50.19400 38.50200
C  6.51600 50.96100 37.50000
H  7.10300 51.88800 36.42900
N  7.11900 55.90600 40.02900
C  8.39600 55.47400 39.59500
C  9.01700 56.58600 38.81500
C  8.00400 57.64000 38.73400
C  6.88800 57.19600 39.62600
C  10.31400 56.57800 38.16900
C  8.15400 58.96300 37.87700
O  9.17700 59.21200 37.28400
C  7.16800 60.06900 37.96500
N  4.26200 56.34400 41.00900
C  4.54100 57.55800 40.59700
C  3.39600 58.49400 40.86800
C  2.40900 57.63700 41.63400
C  2.95000 56.26000 41.51800
C  3.68800 59.91200 41.45900
C  0.91100 57.73900 41.03700
C  0.14000 59.14800 41.08700
N  4.02100 53.42200 41.49800
C  2.76800 53.72800 41.84900
C  2.07100 52.43400 42.08600
C  3.05800 51.46000 41.93900
C  4.21400 52.09000 41.46700
C  0.64400 52.19700 42.57900
C  3.25600 50.07500 42.12100
O  2.50400 49.20800 42.53900
C  4.64000 49.80500 41.47100
C  4.45100 49.15900 40.15200
O  3.57400 49.40700 39.33200
O  5.32500 48.10100 40.13300
C  5.03900 47.07000 39.12300
H  9.87400 54.05000 39.54200
H  5.67800 58.93400 39.60800
H  1.29100 55.31000 42.30800
H  7.69700 49.74900 40.64100
H  9.58900 51.44900 39.53800
H  9.55400 52.22300 42.32700
H  10.67000 51.19900 41.37100
H  9.26300 50.52200 42.14300
H  7.22400 49.13900 38.46700
H  8.52000 50.27000 38.13100
H  5.76900 51.52600 38.05700
H  5.88900 50.20400 37.02900
H  10.92400 57.31900 38.68700
H  10.24900 56.86100 37.11800
H  10.73200 55.57400 38.24700
H  6.29700 59.66700 37.44700
H  7.63200 60.89400 37.42400
H  7.00200 60.52600 38.94100
H  2.83600 58.73400 39.96400
H  2.29400 57.91200 42.68200
H  3.19800 60.00700 42.42700
H  3.19100 60.63800 40.81500
H  4.77500 59.99000 41.49500
H  0.30900 56.97200 41.52500
H  0.93600 57.37900 40.00800
H  -0.93200 59.02900 40.93000
H  0.60600 59.85400 40.39900
H  0.35400 59.46300 42.10800
H  0.75600 51.74300 43.56400
H  0.10200 51.54000 41.89900
H  0.04600 53.09200 42.75100
H  5.31800 49.22200 42.09400
H  5.45800 46.10700 39.41400
H  5.61300 47.34700 38.23800
H  3.96500 46.99200 38.95400
Mg -4.74300 25.68200 25.57400
C  -3.80900 26.91400 28.68500
C  -6.86600 23.46100 27.18100
C  -5.31000 24.20700 22.59300
C  -2.58800 27.92800 24.05000
N  -5.52300 25.47100 27.70400
C  -4.82800 25.90000 28.77100
C  -5.40500 25.32000 30.08400
C  -6.30900 24.12100 29.55600
C  -6.23100 24.35200 28.06700
C  -5.79800 22.72700 29.99000
C  -6.16600 26.38800 30.84000
C  -6.93900 26.00300 32.10700
H  -6.46400 24.76100 32.91500
N  -6.04100 24.11700 24.95200
C  -6.85800 23.33500 25.72100
C  -7.64700 22.44400 24.88400
C  -7.19300 22.70100 23.55700
C  -6.14400 23.70700 23.63000
C  -8.67400 21.55900 25.47300
C  -7.56200 21.91400 22.27700
O  -7.00600 22.14200 21.20300
C  -8.68200 20.96700 22.32600
N  -3.91000 25.91600 23.66400
C  -4.35300 25.19600 22.60200
C  -3.54400 25.59700 21.35300
C  -3.09000 27.00300 21.71100
C  -3.18400 26.95100 23.20500
C  -2.48900 24.55300 20.92500
C  -4.02600 28.12500 21.08100
C  -3.48100 28.71900 19.85800
N  -3.33800 27.06400 26.13700
C  -2.62700 28.03900 25.38600
C  -1.78200 28.77400 26.36900
C  -2.19200 28.36600 27.63700
C  -3.21400 27.36900 27.46600
C  -0.80300 29.84000 26.13100
C  -2.03500 28.51700 29.08300
O  -1.16800 29.19800 29.70200
C  -2.99700 27.65800 29.79500
C  -2.41400 26.80100 30.89200
O  -1.67000 25.87700 30.68700
O  -2.75100 27.28800 32.12000
C  -2.07300 26.83200 33.28600
H  -7.50800 22.78000 27.74400
H  -5.52400 23.90800 21.56500
H  -1.96600 28.66600 23.53900
H  -4.65000 24.98500 30.79500
H  -7.35300 24.27700 29.82600
H  -6.56000 22.11400 30.47100
H  -5.21500 22.75000 30.91000
H  -5.40800 22.19100 29.12500
H  -7.02900 26.52500 30.18800
H  -5.53200 27.27400 30.87500
H  -8.02400 25.97200 32.00800
H  -6.95000 26.83700 32.80800
H  -8.51000 20.50700 25.24000
H  -9.63400 21.84100 25.03800
H  -8.93700 21.68000 26.52400
H  -8.56100 20.16500 23.05400
H  -8.85500 20.58200 21.32100
H  -9.54200 21.51000 22.71700
H  -4.26300 25.65500 20.53500
H  -2.04000 27.11500 21.44200
H  -2.22300 23.94800 21.79200
H  -1.54000 25.00500 20.63800
H  -2.93200 23.93200 20.14600
H  -4.29600 28.93100 21.76300
H  -4.96400 27.62800 20.83500
H  -4.02000 28.45500 18.94800
H  -2.46800 28.35200 19.69300
H  -3.36300 29.79600 19.97800
H  -0.12300 29.48100 25.35800
H  -0.14800 30.10200 26.96200
H  -1.33800 30.72000 25.77400
H  -3.61800 28.33200 30.38400
H  -1.74000 25.79400 33.27200
H  -2.62200 26.99800 34.21400
H  -1.17800 27.45100 33.35500

