158

Mg 47.67000 34.79400 26.81200
C  45.97800 33.15000 29.22100
C  47.93000 37.64000 28.71600
C  49.22300 36.52600 24.12400
C  47.07000 32.12300 24.59700
N  46.89900 35.36400 28.69900
C  46.51300 34.43000 29.63500
C  46.63500 35.02500 31.00300
C  46.74000 36.62200 30.69500
C  47.29300 36.51100 29.30900
C  45.36000 37.34500 30.68300
C  47.74400 34.49100 31.85500
C  47.77900 34.85000 33.37100
H  46.66700 35.57900 34.07200
N  48.21400 36.86700 26.41700
C  48.44800 37.79100 27.36100
C  49.01300 39.02400 26.89300
C  49.48200 38.66500 25.56800
C  48.97600 37.31800 25.25700
C  49.15700 40.31500 27.61900
C  50.29900 39.56300 24.56800
O  50.54900 39.24100 23.39200
C  50.84500 40.95300 25.04500
N  48.02400 34.36600 24.61400
C  48.68200 35.21100 23.77800
C  48.97000 34.50200 22.41900
C  48.42300 33.01500 22.63700
C  47.84600 33.11300 24.07400
C  48.35800 35.21900 21.14400
C  49.57000 31.95300 22.60600
C  49.82800 31.14100 21.28500
N  46.79100 32.89300 26.82600
C  46.47000 31.98200 25.89300
C  45.58400 30.96900 26.45100
C  45.38100 31.32300 27.76200
C  46.14000 32.51000 27.96700
C  45.05200 29.76800 25.85500
C  44.75100 31.01300 29.07100
O  44.10900 30.04200 29.50300
C  44.91500 32.31100 29.90100
C  45.36200 31.96300 31.30300
O  46.45500 31.48700 31.56300
O  44.27100 32.18400 32.17200
C  44.53900 31.53500 33.50500
H  48.14400 38.38000 29.49100
H  50.01000 36.90700 23.46900
H  46.86800 31.28700 23.92400
H  45.72000 34.88400 31.57800
H  47.38900 37.21400 31.34100
H  44.88300 37.25800 29.70700
H  45.56000 38.40600 30.83200
H  44.61700 36.99700 31.40100
H  48.58700 34.96900 31.35600
H  47.98600 33.45200 31.63400
H  48.66400 35.46900 33.52000
H  47.86900 33.95300 33.98300
H  48.43100 40.24500 28.42900
H  48.90700 41.13300 26.94400
H  50.12800 40.46700 28.09100
H  49.95200 41.57500 25.10200
H  51.52000 41.44100 24.34100
H  51.41400 40.76700 25.95600
H  50.05200 34.41900 22.31100
H  47.54400 32.81700 22.02400
H  47.42700 34.70900 20.89800
H  48.94600 34.99100 20.25500
H  48.05000 36.21100 21.47600
H  49.31600 31.17900 23.33000
H  50.45600 32.45900 22.98900
H  49.27400 31.44700 20.39700
H  49.57400 30.10700 21.51900
H  50.89100 31.30900 21.11200
H  44.70200 30.06300 24.86600
H  44.17700 29.42800 26.40700
H  45.77900 28.96100 25.94100
H  43.96300 32.82800 30.02800
H  43.56000 31.35600 33.95000
H  45.17600 32.24500 34.03200
H  45.01900 30.57600 33.31200
Mg 40.78600 40.59700 26.71000
C  40.29000 43.13800 29.12200
C  41.99200 38.63000 28.99500
C  41.24400 38.40100 24.10900
C  40.06600 43.10400 24.28600
N  41.04200 40.89300 28.90800
C  40.80600 41.93800 29.68700
C  41.12700 41.62100 31.14500
C  41.51900 40.05400 31.13700
C  41.55000 39.81000 29.58200
C  42.81800 39.63200 31.92600
C  40.01400 42.04400 32.09200
C  39.62100 41.06200 33.27000
H  39.48400 41.56800 34.68900
N  41.46300 38.71900 26.58300
C  41.93100 38.05300 27.67800
C  42.28600 36.69900 27.24000
C  42.20700 36.67200 25.82200
C  41.65000 37.90900 25.45400
C  42.74600 35.58000 28.24000
C  42.59400 35.60700 24.80100
O  42.47800 35.71700 23.55800
C  43.29800 34.36500 25.33900
N  40.79300 40.83000 24.57000
C  40.87700 39.64700 23.73800
C  40.71700 40.03000 22.18900
C  39.86700 41.29900 22.43000
C  40.27300 41.82600 23.82400
C  42.11400 40.30500 21.50300
C  38.26200 41.03800 22.46700
C  37.70600 39.53600 22.64000
N  40.24900 42.63000 26.64000
C  40.08400 43.51500 25.59400
C  39.75800 44.78100 26.10900
C  39.74500 44.70400 27.51200
C  40.09600 43.33700 27.75500
C  39.48600 45.98600 25.35000
C  39.60500 45.44400 28.75800
O  39.22600 46.57600 28.97800
C  40.04000 44.41500 29.83900
C  41.24500 45.02100 30.46200
O  42.41700 44.87900 30.09400
O  40.94800 45.80000 31.60100
C  42.08600 46.28100 32.37900
H  42.33000 37.99300 29.81400
H  41.45400 37.68200 23.31400
H  39.83700 43.87300 23.54500
H  41.97400 42.25100 31.41600
H  40.72800 39.37500 31.45500
H  42.64600 38.88500 32.70000
H  43.39400 40.48400 32.28800
H  43.53600 39.27700 31.18700
H  39.09200 42.00200 31.51300
H  40.00100 43.07800 32.43700
H  40.43700 40.36900 33.47200
H  38.70900 40.50700 33.05100
H  42.15400 34.71500 27.94300
H  42.37800 35.89700 29.21500
H  43.82100 35.41700 28.32800
H  42.74300 33.72800 26.02800
H  44.22900 34.70300 25.79500
H  43.37200 33.65300 24.51700
H  40.26500 39.19900 21.64800
H  39.99500 42.15500 21.76800
H  42.98000 40.26800 22.16400
H  42.00000 41.28700 21.04300
H  42.34400 39.58900 20.71400
H  37.75200 41.54000 21.64500
H  37.95700 41.58600 23.35900
H  36.76100 39.51700 22.09900
H  37.34800 39.37900 23.65700
H  38.41300 38.76700 22.32900
H  40.24100 46.04200 24.56500
H  39.51100 46.90200 25.93900
H  38.48400 45.90000 24.92900
H  39.17400 44.35800 30.49900
H  42.00600 47.24900 32.87300
H  42.81700 46.61500 31.64300
H  42.47600 45.52700 33.06300

