158

Mg 7.83400 2.97000 28.16400
C  9.62700 1.56200 30.95300
C  6.38100 5.09100 30.18300
C  6.47800 4.24300 25.42000
C  9.93600 0.90600 26.09600
N  7.80000 3.04700 30.40700
C  8.68400 2.51500 31.35000
C  8.47300 3.12400 32.68400
C  7.35200 4.11400 32.49100
C  7.07600 4.10100 30.93800
C  6.06700 3.84400 33.30200
C  9.76400 3.77000 33.40800
C  9.59700 4.91000 34.44400
H  10.36200 4.66800 35.75100
N  6.52400 4.40400 27.85800
C  6.09000 5.25400 28.79000
C  5.35000 6.40000 28.21000
C  5.32300 6.08300 26.77400
C  6.12600 4.85400 26.63500
C  4.60000 7.44100 29.02700
C  4.70900 6.87300 25.61200
O  4.87200 6.66900 24.42300
C  3.77600 7.96800 25.88200
N  8.19300 2.60400 26.07300
C  7.37100 3.14800 25.12900
C  7.78600 2.74700 23.66600
C  9.07700 1.85900 23.91800
C  9.00100 1.71700 25.43000
C  6.64100 2.07100 22.92200
C  10.34400 2.35300 23.24600
C  11.45000 3.01900 24.14400
N  9.35500 1.47000 28.37400
C  10.09300 0.83400 27.42100
C  11.11200 0.04700 28.05900
C  10.96200 0.24200 29.47500
C  9.90500 1.15500 29.59800
C  12.07800 -0.83700 27.32600
C  11.42900 -0.06700 30.79600
O  12.36700 -0.80000 31.10400
C  10.48300 0.70400 31.80200
C  9.68400 -0.11100 32.74800
O  8.82200 -0.94200 32.46200
O  10.14700 0.02800 34.00300
C  9.40900 -0.67300 35.05000
H  6.10000 5.86500 30.90100
H  6.15300 4.68700 24.47700
H  10.63400 0.38800 25.43500
H  8.31300 2.17900 33.20300
H  7.72000 5.11100 32.73400
H  5.37300 4.67600 33.42000
H  6.39000 3.34900 34.21800
H  5.38700 3.20900 32.73500
H  10.47200 4.10200 32.64900
H  10.31600 3.01600 33.97000
H  8.57700 5.18000 34.71700
H  10.06000 5.79500 34.00600
H  5.07200 8.41000 28.86100
H  4.82000 7.17700 30.06100
H  3.55300 7.63500 28.79300
H  3.05100 7.54000 26.57500
H  3.17500 8.25600 25.01900
H  4.34200 8.80600 26.28800
H  8.04000 3.65900 23.12400
H  8.87100 0.81900 23.66300
H  5.74300 2.00200 23.53600
H  6.95300 1.10200 22.53400
H  6.24000 2.61000 22.06300
H  10.16600 2.88900 22.31300
H  10.77400 1.39200 22.96500
H  11.07500 3.28000 25.13400
H  11.92800 3.86600 23.65300
H  12.21200 2.27200 24.36500
H  12.52100 -0.43000 26.41600
H  11.71100 -1.83800 27.10000
H  12.95400 -0.90100 27.97100
H  11.15500 1.40900 32.29200
H  8.46100 -1.16500 34.83400
H  9.21800 0.08900 35.80600
H  10.19400 -1.30000 35.47300
Mg -12.42200 37.75400 41.96200
C  -10.00200 35.22400 41.56600
C  -10.46100 39.88400 40.11500
C  -15.05000 39.95300 41.96200
C  -14.56000 35.50500 43.49900
N  -10.50500 37.44800 40.84000
C  -9.70300 36.36500 40.78500
C  -8.51600 36.55800 39.90400
C  -8.54700 38.16800 39.79000
C  -9.93200 38.52800 40.29200
C  -7.49500 39.03500 40.56900
C  -8.49600 35.70600 38.57000
C  -7.39500 34.64200 38.42800
H  -6.42500 34.85700 37.23400
N  -12.68100 39.70100 41.22600
C  -11.71900 40.41200 40.54000
C  -12.19900 41.81500 40.44000
C  -13.59200 41.81800 40.80900
C  -13.85400 40.47500 41.36300
C  -11.41400 42.92300 39.87700
C  -14.57300 42.97400 40.52500
O  -14.19100 43.96100 39.95500
C  -16.04200 42.81200 40.68100
N  -14.65400 37.60200 42.50500
C  -15.40700 38.67600 42.54100
C  -16.81400 38.29000 42.98100
C  -16.68300 36.77200 43.34100
C  -15.23400 36.61800 43.19000
C  -17.44000 38.97900 44.22100
C  -17.51700 35.87500 42.35900
C  -18.56900 35.02300 43.13200
N  -12.37200 35.70500 42.27500
C  -13.13100 35.01400 43.19400
C  -12.50100 33.77800 43.54000
C  -11.24500 33.86100 42.97600
C  -11.22900 35.10100 42.21400
C  -13.10900 32.68400 44.32300
C  -10.02400 33.09200 42.80400
O  -9.55600 32.01600 43.29000
C  -9.11500 33.95900 41.80500
C  -7.83900 34.21700 42.50500
O  -6.92200 33.33700 42.62500
O  -7.79500 35.54500 42.97000
C  -6.54600 35.92600 43.55900
H  -9.80800 40.59500 39.60400
H  -15.87400 40.66500 41.88100
H  -15.09300 34.73500 44.06300
H  -7.63900 36.31700 40.50400
H  -8.41500 38.47300 38.75200
H  -6.70800 38.32900 40.83300
H  -7.94100 39.48500 41.45600
H  -7.16600 39.83600 39.90800
H  -8.55800 36.38200 37.71700
H  -9.42900 35.14600 38.61900
H  -7.91600 33.69100 38.31800
H  -6.78900 34.56300 39.33100
H  -11.29000 43.70800 40.62200
H  -11.89400 43.33600 38.99000
H  -10.38400 42.62900 39.67100
H  -16.32800 42.70400 41.72800
H  -16.28700 41.91400 40.11400
H  -16.56500 43.68000 40.28000
H  -17.48800 38.45600 42.14000
H  -16.87200 36.53500 44.38800
H  -16.70100 39.67400 44.61800
H  -17.63000 38.29900 45.05100
H  -18.26900 39.62000 43.92100
H  -16.84400 35.13500 41.92700
H  -18.05700 36.38400 41.56000
H  -18.32200 35.04900 44.19400
H  -18.48800 33.99000 42.79600
H  -19.56500 35.39200 42.88700
H  -12.50600 31.80100 44.11500
H  -14.15200 32.60000 44.01700
H  -13.10200 32.82600 45.40400
H  -8.97200 33.29800 40.95100
H  -6.41700 35.33600 44.46600
H  -6.65300 36.98300 43.80500
H  -5.59800 35.69700 43.07400

