158

Mg 24.94300 -8.49600 47.79200
C  27.04400 -5.99000 46.63200
C  22.51800 -7.61000 45.43500
C  23.13300 -11.17800 48.66800
C  27.70500 -9.92700 49.46800
N  24.91500 -7.19800 46.04700
C  25.89500 -6.19300 45.80300
C  25.44700 -5.20600 44.70600
C  23.98000 -5.66300 44.33800
C  23.81100 -6.91400 45.32000
C  22.90700 -4.48500 44.54700
C  26.45500 -5.15400 43.52900
C  26.79400 -3.81200 42.92200
H  26.98100 -3.85200 41.41300
N  23.02900 -9.20600 47.17900
C  22.21100 -8.65000 46.26800
C  21.05400 -9.43100 46.14200
C  21.16300 -10.59200 46.97000
C  22.51000 -10.43000 47.65700
C  19.89000 -9.05100 45.26400
C  20.26700 -11.82000 47.07200
O  19.16700 -11.83800 46.53700
C  20.59400 -12.98800 47.88800
N  25.46400 -10.32500 48.87200
C  24.42900 -11.11400 49.28400
C  24.95400 -12.12800 50.37300
C  26.49800 -11.85700 50.44200
C  26.52600 -10.59000 49.63900
C  24.32200 -11.95000 51.73800
C  27.39200 -13.03200 49.84200
C  27.86500 -14.07800 50.89900
N  26.89800 -8.03000 48.15900
C  27.95700 -8.74300 48.79900
C  29.16000 -7.82200 48.87300
C  28.82200 -6.73900 48.06100
C  27.46200 -6.93100 47.61300
C  30.41800 -8.14500 49.60200
C  29.24800 -5.48300 47.53700
O  30.30100 -4.84900 47.64600
C  28.09300 -4.98800 46.56100
C  27.79200 -3.60600 46.97400
O  27.51800 -3.28500 48.07800
O  27.86100 -2.80200 45.83500
C  27.78200 -1.37800 46.14000
H  21.73000 -7.18300 44.81200
H  22.66400 -11.99600 49.22000
H  28.57400 -10.42200 49.90600
H  25.51300 -4.18900 45.09400
H  23.96700 -6.05100 43.32000
H  22.70200 -4.04700 43.57000
H  23.27000 -3.77100 45.28700
H  21.88400 -4.62200 44.90000
H  26.00100 -5.65100 42.67100
H  27.34800 -5.56600 43.99900
H  27.73500 -3.44300 43.32900
H  26.00100 -3.09500 43.13000
H  20.05200 -9.67400 44.38400
H  19.94900 -8.01900 44.91900
H  18.93000 -9.18000 45.76300
H  21.67200 -13.11300 47.78400
H  20.05800 -13.81400 47.41900
H  20.34600 -12.81100 48.93400
H  24.92700 -13.16200 50.03000
H  26.90700 -11.55000 51.40400
H  23.29900 -11.61300 51.57400
H  24.77400 -11.17200 52.35300
H  24.42700 -12.88500 52.29000
H  28.23200 -12.66900 49.24900
H  26.83200 -13.47200 49.01700
H  28.81900 -14.50900 50.59800
H  27.04000 -14.78700 50.83100
H  27.90200 -13.61500 51.88600
H  31.16400 -7.44000 49.23500
H  30.85800 -9.12700 49.42400
H  30.13600 -7.92100 50.63100
H  28.55600 -4.95900 45.57500
H  28.07100 -1.04100 47.13500
H  26.75300 -1.09800 45.91800
H  28.27700 -0.78300 45.37200
Mg 6.90700 57.45000 41.70200
C  5.52000 54.26000 41.65100
C  9.79300 56.14100 40.53800
C  7.97100 60.56100 41.22200
C  3.64900 58.63400 42.36400
N  7.54700 55.51200 41.08400
C  6.79600 54.39200 41.08600
C  7.71800 53.19000 40.59300
C  9.12300 53.79100 40.81500
C  8.84500 55.28000 40.79800
C  9.88600 53.27300 42.11600
C  7.45500 52.90200 39.10000
C  7.64000 51.40200 38.79500
H  6.65000 50.67300 37.83200
N  8.71100 58.20900 40.95600
C  9.76000 57.53200 40.50900
C  10.87400 58.40800 40.25100
C  10.37900 59.76400 40.36200
C  8.96500 59.58000 40.94500
C  12.26000 57.90200 39.86200
C  11.18600 61.03700 40.17200
O  12.38300 60.98600 39.95700
C  10.58100 62.39000 40.49000
N  5.84700 59.31600 41.47200
C  6.63500 60.41100 41.50800
C  5.71000 61.69500 41.74800
C  4.28900 61.10500 41.94700
C  4.56300 59.59500 41.92000
C  6.21400 62.75600 42.77300
C  3.09800 61.45900 40.96900
C  1.90800 62.27600 41.55200
N  4.96700 56.64100 42.09800
C  3.75600 57.20700 42.45600
C  2.74900 56.24600 42.79000
C  3.44300 55.00300 42.55400
C  4.76000 55.37400 42.09200
C  1.32900 56.47200 43.18500
C  3.37900 53.54700 42.63400
O  2.43900 52.85600 43.07100
C  4.72800 53.02300 42.07100
C  4.48400 51.98900 41.08400
O  3.87500 52.16000 40.03700
O  4.77400 50.75700 41.66800
C  4.37200 49.58100 40.86800
H  10.73500 55.77900 40.12300
H  8.29800 61.59800 41.32200
H  2.71300 59.16800 42.54100
H  7.49800 52.30600 41.19200
H  9.73000 53.44400 39.97800
H  10.68300 52.69700 41.64600
H  9.35200 52.56500 42.74900
H  10.15400 54.10000 42.77300
H  8.18100 53.46800 38.51600
H  6.46300 53.27100 38.84100
H  7.65800 50.77500 39.68600
H  8.61800 51.22700 38.34800
H  12.26800 57.85800 38.77300
H  12.50500 56.87500 40.13000
H  13.01600 58.58200 40.25400
H  10.17100 62.69100 41.45500
H  9.76000 62.52300 39.78500
H  11.24500 63.18500 40.15100
H  5.70800 62.17500 40.76900
H  4.02000 61.28300 42.98800
H  5.53100 62.94000 43.60300
H  6.31400 63.75100 42.34100
H  7.12700 62.50200 43.31200
H  2.60300 60.69000 40.37600
H  3.50600 62.13400 40.21700
H  2.02000 62.21000 42.63500
H  0.92400 61.83800 41.39000
H  1.83600 63.32900 41.27800
H  1.07800 57.43600 42.74300
H  1.10200 56.57100 44.24600
H  0.56700 55.76900 42.84700
H  5.28600 52.60200 42.90700
H  3.87800 48.94800 41.60600
H  5.09300 48.97100 40.32300
H  3.67700 49.86500 40.07800

