158

Mg 0.38300 8.06100 27.24800
C  0.97700 10.14500 30.01800
C  0.67600 5.36400 29.37100
C  0.02400 6.12000 24.62300
C  0.77000 10.89600 25.28200
N  0.86600 7.81900 29.42800
C  0.91700 8.79300 30.38300
C  0.74300 8.25600 31.86000
C  0.83500 6.72800 31.59500
C  0.76600 6.56600 30.05700
C  1.95500 6.01700 32.30100
C  -0.60500 8.80300 32.51600
C  -1.00800 8.15600 33.85900
H  -0.01100 7.87600 35.04600
N  0.29300 5.97600 27.03800
C  0.47200 4.98000 27.97800
C  0.27000 3.68300 27.38100
C  -0.13500 3.97900 26.03100
C  0.03800 5.40100 25.86000
C  0.38700 2.48600 28.26800
C  -0.60400 3.00100 24.99900
O  -0.90400 3.28800 23.87700
C  -0.85800 1.51800 25.35800
N  0.43200 8.46400 25.24000
C  0.29500 7.45300 24.29500
C  0.43300 8.07200 22.87500
C  0.28700 9.57000 23.14200
C  0.53900 9.69700 24.66700
C  1.72400 7.63800 22.05800
C  -1.11800 10.05700 22.83800
C  -1.38000 11.09300 21.77600
N  0.99000 10.04000 27.52800
C  1.06900 11.09200 26.60800
C  1.29100 12.41500 27.34000
C  1.24200 12.04600 28.65000
C  1.05000 10.59700 28.73900
C  1.48100 13.76400 26.64800
C  1.36300 12.61200 29.95900
O  1.60300 13.74200 30.25500
C  1.05100 11.42000 30.95600
C  1.99700 11.30900 32.07300
O  3.06000 10.67400 31.98000
O  1.52500 11.99500 33.20200
C  2.44700 11.93700 34.33800
H  0.59700 4.45100 29.96500
H  -0.07900 5.50000 23.72900
H  0.89000 11.69600 24.54800
H  1.55700 8.58200 32.50700
H  -0.10800 6.25900 31.87800
H  2.65500 5.72800 31.51700
H  1.52100 5.08300 32.65700
H  2.52300 6.63900 32.99300
H  -1.32700 8.38700 31.81400
H  -0.66400 9.89100 32.54000
H  -1.58000 7.26500 33.60200
H  -1.60000 8.95600 34.30200
H  1.38400 2.05100 28.20500
H  -0.42100 1.81200 27.98400
H  0.05400 2.66900 29.29000
H  0.20900 1.32700 25.46600
H  -1.21600 0.86200 24.56400
H  -1.41300 1.43200 26.29200
H  -0.46600 7.67300 22.40500
H  0.99600 10.19000 22.59400
H  2.24000 6.74300 22.40400
H  2.40100 8.45800 21.81600
H  1.41100 7.36200 21.05100
H  -1.50600 10.57500 23.71500
H  -1.76300 9.19100 22.68500
H  -0.69500 10.72900 21.01100
H  -1.14300 12.07500 22.18400
H  -2.43300 11.06200 21.49500
H  0.60700 14.36900 26.89000
H  1.61700 13.59000 25.58100
H  2.39900 14.16500 27.07600
H  0.10800 11.69600 31.42800
H  2.65900 10.89400 34.57200
H  2.00200 12.47900 35.17400
H  3.45700 12.29800 34.14600
Mg 47.14400 34.59900 27.19300
C  45.54000 32.84100 29.87000
C  47.75300 37.09000 29.27600
C  47.87100 36.45500 24.52300
C  46.23500 31.84200 25.03300
N  46.71200 34.85300 29.35400
C  46.19800 34.01100 30.31900
C  46.51600 34.53100 31.72000
C  46.88100 36.04600 31.46500
C  47.12200 36.01400 29.92900
C  45.80700 37.05700 31.91700
C  47.67000 33.73000 32.40300
C  47.81700 33.90600 34.00300
H  46.82700 34.91000 34.63100
N  47.75200 36.56400 26.93700
C  48.04600 37.39700 27.94500
C  48.57600 38.60100 27.45800
C  48.67100 38.47200 26.04100
C  48.10800 37.13900 25.74700
C  48.83300 39.87600 28.31100
C  49.25300 39.43600 25.01700
O  49.33300 39.12800 23.83800
C  49.97800 40.76600 25.36200
N  47.10800 34.10400 25.13300
C  47.40200 35.12700 24.22800
C  47.18400 34.67700 22.85300
C  47.05100 33.18600 22.98000
C  46.70800 33.01600 24.47900
C  45.91000 35.30700 22.28500
C  48.36800 32.35900 22.72200
C  48.32700 30.97400 22.02900
N  46.16300 32.64000 27.36400
C  45.84700 31.69000 26.42300
C  45.21600 30.55000 27.03800
C  45.00800 31.00900 28.41100
C  45.61600 32.27800 28.53800
C  44.79100 29.29600 26.40200
C  44.49200 30.62100 29.67600
O  43.86800 29.62300 29.96000
C  44.68800 31.89700 30.60900
C  45.00100 31.55600 31.98300
O  45.89700 30.75500 32.34900
O  44.00500 32.16000 32.76900
C  44.16400 31.86600 34.22200
H  48.08400 37.84200 29.99600
H  48.10300 37.10000 23.67300
H  45.85400 31.00900 24.43800
H  45.56700 34.40100 32.24100
H  47.79500 36.40500 31.93800
H  44.82900 36.62700 32.13400
H  45.58300 37.69500 31.06100
H  46.18500 37.71000 32.70300
H  48.61100 33.96400 31.90600
H  47.60900 32.67900 32.12200
H  48.82800 34.13500 34.34100
H  47.42400 32.95000 34.34900
H  49.89100 39.97400 28.55000
H  48.36100 39.82900 29.29200
H  48.56400 40.82900 27.85400
H  49.38300 41.56600 25.80200
H  50.44200 41.08100 24.42700
H  50.83300 40.51500 25.99000
H  48.06800 34.89600 22.25300
H  46.19300 32.72600 22.49000
H  45.03600 34.65900 22.35900
H  46.12400 35.55500 21.24600
H  45.75200 36.21600 22.86600
H  48.92700 32.16000 23.63700
H  49.02900 32.88800 22.03600
H  48.88900 30.23600 22.60200
H  48.73200 31.07100 21.02200
H  47.27800 30.69400 21.92600
H  44.82900 29.34500 25.31300
H  43.73700 29.16900 26.64700
H  45.49700 28.59400 26.84700
H  43.66700 32.27800 30.58000
H  44.19300 30.80200 34.45900
H  43.26000 32.16400 34.75400
H  45.08400 32.15200 34.73100

