158

Mg 47.29900 35.95700 28.98600
C  45.78800 34.06700 31.41900
C  47.72400 38.54100 31.43900
C  48.11000 38.13500 26.56300
C  46.37800 33.50800 26.58300
N  46.91600 36.24300 31.15000
C  46.32300 35.26100 31.92200
C  46.46800 35.60200 33.42900
C  46.49000 37.19800 33.29200
C  47.04500 37.42600 31.86300
C  45.07900 37.77800 33.56400
C  47.78700 35.08400 34.01100
C  47.82300 34.67000 35.47400
H  47.00400 35.39200 36.47900
N  48.05000 37.98400 28.97400
C  48.14500 38.86500 30.05800
C  48.76100 40.08700 29.68100
C  48.91500 39.98200 28.25500
C  48.44200 38.64800 27.87400
C  48.94100 41.25500 30.64700
C  49.54000 40.93600 27.24100
O  49.97600 40.55600 26.19200
C  49.84000 42.36600 27.62900
N  47.22000 35.88200 26.94900
C  47.65600 36.89000 26.13700
C  47.48100 36.57200 24.64800
C  46.94400 35.06400 24.68400
C  46.93900 34.73100 26.18400
C  46.42500 37.50500 24.01100
C  47.84100 34.12900 23.83700
C  47.10900 33.01600 23.17300
N  46.25500 34.18000 28.95500
C  46.05700 33.23000 27.96300
C  45.43500 32.04800 28.51600
C  45.24200 32.35200 29.89300
C  45.86200 33.62200 30.06400
C  45.12300 30.75400 27.76800
C  44.72200 31.84200 31.12600
O  44.20100 30.78800 31.50500
C  44.94600 33.01000 32.10500
C  45.46500 32.45900 33.43700
O  46.58100 32.07400 33.61900
O  44.45300 32.30300 34.27700
C  44.68000 31.50000 35.46000
H  47.69600 39.35900 32.16200
H  48.15300 38.89400 25.77900
H  46.07400 32.73500 25.87400
H  45.61000 35.24800 34.00100
H  47.15500 37.66100 34.02100
H  45.18200 38.31000 34.50900
H  44.31500 37.00400 33.63700
H  44.82700 38.48000 32.76900
H  48.62900 35.74100 33.79400
H  47.99200 34.21800 33.38100
H  48.87100 34.64300 35.77200
H  47.33900 33.69700 35.55600
H  48.25200 41.34400 31.48600
H  48.84100 42.20500 30.12200
H  49.93000 41.22500 31.10300
H  50.71300 42.27400 28.27500
H  48.91100 42.69800 28.09100
H  49.91700 43.08000 26.80900
H  48.43300 36.61100 24.11900
H  45.89400 35.10200 24.39400
H  45.98800 38.09100 24.82000
H  45.68100 37.00800 23.38700
H  46.96100 38.18600 23.35000
H  48.52800 33.60500 24.50100
H  48.28400 34.69400 23.01700
H  47.11000 33.17500 22.09400
H  46.04400 32.94400 23.39200
H  47.57300 32.04600 23.35500
H  44.99700 29.86600 28.38800
H  45.90500 30.42800 27.08200
H  44.20700 30.92900 27.20400
H  44.00500 33.53200 32.28100
H  45.45900 30.75000 35.31800
H  43.72600 31.02400 35.68800
H  44.99500 32.07900 36.32800
Mg 16.54600 51.31300 24.72500
C  18.20600 50.30100 27.69500
C  14.06900 52.54100 26.68000
C  14.93400 52.19400 21.81500
C  19.06400 49.98100 23.00400
N  16.17000 51.46200 26.95800
C  17.03400 51.03800 27.97000
C  16.52300 51.43900 29.34900
C  15.06400 51.82900 28.91600
C  15.05600 51.93900 27.43300
C  13.83500 50.92700 29.44300
C  17.33200 52.58500 29.99900
C  17.42400 52.60000 31.55300
H  16.31100 51.84900 32.23300
N  14.79300 52.32000 24.27200
C  13.90100 52.73800 25.21400
C  12.80400 53.32100 24.59400
C  13.03100 53.25600 23.17500
C  14.26200 52.61300 23.00700
C  11.60500 53.92800 25.29400
C  12.26600 53.81700 21.99100
O  12.70100 53.78000 20.90300
C  10.97700 54.47300 22.14700
N  16.87300 51.02200 22.73100
C  16.12300 51.45300 21.71800
C  16.73900 51.07300 20.36300
C  18.17000 50.65700 20.69200
C  18.02100 50.53800 22.23200
C  16.08600 50.04800 19.41000
C  19.29700 51.63100 20.31200
C  20.35500 51.05100 19.31900
N  18.22000 50.22000 25.18200
C  19.21000 49.76500 24.34700
C  20.27700 49.11400 25.02500
C  19.91000 49.34000 26.35500
C  18.66400 49.96600 26.39700
C  21.61100 48.61400 24.57500
C  20.32200 49.16200 27.75600
O  21.33600 48.59100 28.18500
C  19.16100 49.69800 28.67200
C  18.61100 48.56800 29.46600
O  18.15200 47.48200 29.10200
O  18.74300 48.95400 30.77000
C  18.42400 47.91700 31.83900
H  13.29400 52.95600 27.32800
H  14.51100 52.43500 20.83700
H  19.92400 49.59800 22.45000
H  16.54600 50.59600 30.03900
H  14.92300 52.83200 29.32000
H  13.30700 51.56500 30.15200
H  14.26500 50.16400 30.09100
H  13.33200 50.51500 28.56900
H  16.96000 53.57100 29.71900
H  18.36700 52.68100 29.67300
H  17.42700 53.63900 31.88400
H  18.38800 52.22500 31.89700
H  10.76600 53.23500 25.22700
H  11.37600 54.90100 24.86000
H  11.91300 54.16600 26.31200
H  10.36000 53.93800 22.86900
H  10.32500 54.34000 21.28400
H  11.04900 55.54800 22.31000
H  16.71800 51.96700 19.73900
H  18.38900 49.66000 20.31000
H  15.01600 50.04300 19.61900
H  16.44900 49.02900 19.54400
H  16.10000 50.40300 18.37900
H  19.85800 51.83800 21.22300
H  18.95000 52.58200 19.90700
H  21.32700 50.94500 19.80100
H  20.38100 51.67000 18.42200
H  19.95000 50.07500 19.04900
H  22.25100 49.42200 24.22000
H  21.50300 47.96200 23.70900
H  22.02900 47.93500 25.31800
H  19.51800 50.48000 29.34200
H  19.15400 47.10800 31.80700
H  17.40500 47.54900 31.72000
H  18.59800 48.43200 32.78400

