158

Mg 49.36400 47.29400 42.28900
C  46.03600 47.32900 41.46800
C  49.84100 44.32400 40.63800
C  52.61800 47.79500 42.59600
C  48.99300 50.84000 43.25300
N  48.00900 46.05200 41.07400
C  46.65600 46.22100 40.99100
C  46.12300 45.03100 40.11200
C  47.31200 43.95100 40.09100
C  48.46100 44.81700 40.64800
C  47.02000 42.57600 40.92600
C  45.71900 45.58400 38.68900
C  44.48800 44.91900 38.04300
H  44.98100 43.91700 36.92500
N  50.94500 46.16500 41.82100
C  50.94100 44.94800 41.16600
C  52.27000 44.44200 41.14000
C  53.10600 45.46000 41.70000
C  52.20600 46.53600 42.12300
C  52.72300 43.17700 40.58300
C  54.63000 45.30200 41.87400
O  55.29200 44.30300 41.47800
C  55.42600 46.26600 42.87100
N  50.67400 49.05200 42.91400
C  51.98200 48.92200 42.95800
C  52.66600 50.24800 43.22900
C  51.50700 51.27700 43.28100
C  50.29400 50.37400 43.15900
C  53.70900 50.36200 44.37700
C  51.46000 52.48300 42.38200
C  51.30600 53.79900 43.22100
N  47.83500 48.78200 42.51800
C  47.79500 50.14900 42.87500
C  46.45600 50.64200 42.68200
C  45.72100 49.56600 42.21000
C  46.61300 48.43100 42.09300
C  45.97000 51.96300 43.05100
C  44.40600 49.17500 41.84200
O  43.37200 49.88000 41.84200
C  44.58000 47.65000 41.51400
C  43.81800 46.87000 42.58000
O  44.03900 47.08400 43.77300
O  43.11500 45.87400 41.98300
C  42.44900 44.81700 42.78700
H  49.93200 43.30200 40.26400
H  53.69800 47.93900 42.52500
H  48.77000 51.88600 43.47200
H  45.23000 44.72700 40.65800
H  47.43300 43.69200 39.03900
H  46.80000 41.71400 40.29700
H  46.08600 42.70500 41.47400
H  47.88600 42.30700 41.53000
H  46.62100 45.48200 38.08500
H  45.60900 46.65800 38.83800
H  43.88100 45.74400 37.66900
H  43.79100 44.32500 38.63400
H  51.95500 42.61800 40.04800
H  53.10300 42.52600 41.37000
H  53.48000 43.39000 39.82800
H  55.73800 47.17600 42.35900
H  56.31800 45.73100 43.19800
H  54.86500 46.49200 43.77800
H  53.15900 50.28300 42.25800
H  51.41800 51.61200 44.31400
H  54.62600 50.88700 44.10900
H  54.02800 49.36600 44.68300
H  53.25700 50.83500 45.24800
H  50.58300 52.37100 41.74400
H  52.35200 52.28800 41.78600
H  51.34800 53.69100 44.30400
H  50.26100 54.07600 43.08200
H  51.97300 54.53800 42.77800
H  46.39500 52.25500 44.01200
H  44.89900 51.92900 43.25200
H  46.39500 52.77000 42.45400
H  44.02000 47.29700 40.64800
H  43.23500 44.22300 43.25400
H  42.01600 44.09700 42.09300
H  41.77700 45.19800 43.55600
Mg 9.48500 47.59800 26.40100
C  7.70400 47.74100 29.37400
C  12.19600 48.79300 27.91000
C  11.17600 47.86300 23.35800
C  6.45500 47.12300 24.66200
N  9.81800 48.37100 28.40900
C  9.03700 48.14900 29.51200
C  9.90800 48.33100 30.76900
C  11.17800 49.14500 30.21200
C  11.08300 48.79100 28.70400
C  11.33300 50.64400 30.58400
C  10.35100 46.98300 31.41500
C  10.99500 47.11000 32.86400
H  10.29900 46.36300 34.01100
N  11.51200 48.05100 25.76300
C  12.45400 48.48400 26.57900
C  13.69100 48.63500 25.82400
C  13.41400 48.29100 24.49500
C  11.97200 47.99300 24.52100
C  15.03100 48.92600 26.50500
C  14.36500 48.29400 23.24200
O  13.97700 48.11500 22.04800
C  15.78400 48.31800 23.46800
N  8.87400 47.66500 24.37100
C  9.74800 47.65600 23.35100
C  9.04000 47.30900 22.01400
C  7.63100 46.91600 22.34800
C  7.66200 47.25800 23.90800
C  9.04700 48.60600 21.14500
C  7.38800 45.38100 22.09200
C  7.88800 44.34900 23.12700
N  7.45600 47.41900 26.89200
C  6.37200 47.17900 26.08700
C  5.17800 47.18800 26.86700
C  5.61200 47.35400 28.19200
C  7.01700 47.49100 28.16100
C  3.75400 47.04400 26.41000
C  5.22100 47.49100 29.58200
O  4.13800 47.56400 30.21900
C  6.58900 47.60200 30.35800
C  6.63400 46.43600 31.21400
O  7.02600 45.31800 30.98700
O  6.13200 46.79000 32.45100
C  6.17600 45.75300 33.47100
H  13.03700 49.21800 28.46300
H  11.60700 47.70100 22.36800
H  5.56400 46.61400 24.28900
H  9.47600 48.93500 31.56700
H  12.06500 48.65200 30.60900
H  12.19200 50.77500 31.24100
H  10.41000 50.92000 31.09500
H  11.39100 51.16000 29.62600
H  11.05200 46.41200 30.80600
H  9.44400 46.38200 31.49100
H  11.09600 48.17200 33.09000
H  12.01800 46.73500 32.89900
H  15.39100 49.95000 26.40300
H  15.82900 48.34800 26.03900
H  14.92700 48.71300 27.56900
H  16.27300 48.14100 22.51000
H  15.94400 47.35100 23.94400
H  16.09700 49.19100 24.04100
H  9.56900 46.54100 21.44900
H  6.90800 47.51100 21.78900
H  9.42400 49.41600 21.77000
H  8.10600 48.84500 20.64800
H  9.67600 48.52700 20.25800
H  7.81900 45.06900 21.14000
H  6.30300 45.36200 21.98900
H  8.48800 44.71700 23.96000
H  8.39900 43.60900 22.51200
H  7.04800 43.79600 23.54700
H  3.16500 47.01900 27.32700
H  3.72400 46.14300 25.79700
H  3.45300 47.91000 25.82100
H  6.49600 48.56000 30.87000
H  5.51500 45.93000 34.32000
H  7.22000 45.65700 33.77100
H  5.87600 44.75600 33.14900

