158

Mg 48.06300 16.10000 28.30900
C  46.12600 15.78000 31.04300
C  50.34300 17.93200 29.92100
C  49.78300 16.21000 25.36300
C  45.42300 14.55300 26.46000
N  48.08500 16.90600 30.31700
C  47.28700 16.49500 31.27200
C  47.98800 16.75900 32.65200
C  49.17600 17.77100 32.32200
C  49.23600 17.54600 30.74800
C  48.89000 19.24100 32.64100
C  48.32300 15.62400 33.56300
C  48.01200 15.84100 35.10400
H  47.90400 17.31500 35.59000
N  49.86800 16.93700 27.71700
C  50.68900 17.68900 28.51600
C  51.93100 17.98100 27.83500
C  51.84200 17.36800 26.53900
C  50.41100 16.83900 26.46000
C  53.14100 18.65400 28.44900
C  52.91800 17.18200 25.44600
O  52.76500 16.38300 24.46100
C  54.31800 17.83000 25.56300
N  47.61100 15.56000 26.23900
C  48.50900 15.65500 25.23500
C  48.01100 15.07400 23.89800
C  46.63900 14.49900 24.33500
C  46.51600 14.91000 25.75000
C  48.12600 16.15200 22.80000
C  46.53800 12.94000 24.06900
C  45.56500 12.49500 22.96200
N  46.13200 15.40200 28.65700
C  45.18800 14.82900 27.79100
C  44.00500 14.38500 28.62200
C  44.41500 14.66600 29.87500
C  45.61800 15.38800 29.83200
C  42.76900 13.85300 28.09700
C  44.00300 14.62700 31.33300
O  43.05900 14.09400 31.88000
C  45.12000 15.29100 32.09900
C  44.43400 16.34400 32.92700
O  44.14800 17.45300 32.56400
O  44.24600 15.91300 34.21500
C  43.37600 16.65400 35.15800
H  51.13600 18.37200 30.52900
H  50.25000 16.32700 24.38300
H  44.59400 14.09400 25.91700
H  47.24200 17.44100 33.06000
H  50.09700 17.29400 32.65900
H  47.96600 19.26100 33.21900
H  48.69200 19.85100 31.75900
H  49.78600 19.61100 33.14000
H  49.38500 15.38200 33.51400
H  47.77300 14.77700 33.15400
H  48.76900 15.39200 35.74700
H  47.08500 15.34200 35.38800
H  52.92300 19.30200 29.29800
H  53.58700 19.26900 27.66800
H  53.93400 17.95400 28.71200
H  54.69800 17.78100 26.58400
H  54.14600 18.88900 25.36800
H  55.00400 17.41100 24.82700
H  48.77400 14.31000 23.74400
H  45.89100 15.04600 23.76100
H  47.34400 15.91400 22.08000
H  49.05200 16.07000 22.23100
H  47.97500 17.14200 23.23200
H  46.35100 12.38200 24.98600
H  47.49700 12.58300 23.69300
H  46.13000 12.46100 22.03000
H  44.77800 13.20900 22.72100
H  45.14500 11.50400 23.13500
H  42.18600 14.26100 27.27100
H  42.04700 13.76900 28.90900
H  43.00300 12.81000 27.88600
H  45.58700 14.51500 32.70600
H  43.00900 15.81900 35.75500
H  42.54700 17.04500 34.56700
H  43.95300 17.37900 35.73200
Mg 26.72400 51.16300 26.43900
C  24.96700 52.33200 29.17300
C  29.16700 50.08600 28.67700
C  28.57100 50.17200 23.75400
C  24.63500 52.98900 24.35600
N  26.94200 51.23900 28.70600
C  26.05900 51.60200 29.65500
C  26.42200 51.18500 31.05200
C  27.86800 50.63000 30.85200
C  27.98100 50.66100 29.30700
C  29.00800 51.40100 31.51900
C  25.35500 50.23400 31.72300
C  24.81400 50.71700 33.08000
H  25.86800 51.19000 34.10800
N  28.41800 50.02100 26.24100
C  29.29300 49.66500 27.31000
C  30.38800 48.87900 26.66600
C  30.08500 48.69400 25.31400
C  28.97000 49.66700 25.02400
C  31.40800 48.12800 27.50800
C  30.71400 47.87600 24.22300
O  30.22900 47.76800 23.07500
C  31.95500 47.16500 24.49900
N  26.67800 51.58200 24.33500
C  27.55900 51.03400 23.42700
C  27.15600 51.43100 21.98000
C  25.75200 52.22500 22.21300
C  25.68100 52.24600 23.75000
C  28.28300 52.28900 21.29800
C  24.39700 51.66100 21.59200
C  24.18400 51.97300 20.15100
N  25.14200 52.41100 26.69300
C  24.36500 53.06700 25.75900
C  23.21200 53.64300 26.36700
C  23.46300 53.45700 27.72400
C  24.64200 52.68500 27.89300
C  22.22500 54.42400 25.65500
C  22.94300 53.77800 29.01900
O  21.96600 54.45700 29.37400
C  23.88100 53.03700 30.00000
C  24.40600 54.14600 30.97500
O  25.22100 55.04300 30.74100
O  23.68100 54.03500 32.15900
C  23.83800 55.03900 33.20600
H  29.83300 49.70000 29.45200
H  29.29400 50.00500 22.95400
H  23.94900 53.40800 23.61700
H  26.41200 52.06300 31.69700
H  27.92300 49.64900 31.32400
H  29.81700 50.73800 31.82700
H  28.65500 51.80400 32.46800
H  29.37400 52.07400 30.74400
H  25.77600 49.23500 31.84200
H  24.56600 50.14200 30.97600
H  24.22200 49.96400 33.59800
H  24.20900 51.57600 32.78800
H  31.24300 47.05900 27.37300
H  31.43700 48.52200 28.52400
H  32.30300 48.43100 26.96500
H  32.76500 47.77000 24.90700
H  32.32700 46.66600 23.60400
H  31.74300 46.40100 25.24700
H  27.02700 50.54600 21.35700
H  25.98200 53.22800 21.85300
H  28.72000 53.04200 21.95500
H  27.88400 52.86000 20.46000
H  28.95600 51.63000 20.74900
H  23.49900 51.93900 22.14300
H  24.48000 50.57400 21.62600
H  24.29900 51.08900 19.52400
H  24.82400 52.81100 19.87500
H  23.17500 52.33200 19.94900
H  22.73800 55.38100 25.55900
H  21.24400 54.45400 26.13000
H  22.02700 54.08000 24.64000
H  23.29000 52.29600 30.53800
H  24.04700 56.05500 32.87300
H  24.50400 54.63500 33.96800
H  22.87100 55.18000 33.68800

