158

Mg 24.88800 -4.68500 46.61600
C  26.67700 -2.18100 44.83900
C  22.23500 -4.14000 44.38100
C  23.37700 -7.62900 47.52200
C  27.68700 -5.29300 48.38000
N  24.51300 -3.45900 44.78400
C  25.36100 -2.44700 44.33900
C  24.81100 -1.86500 43.02100
C  23.27200 -2.24500 43.10200
C  23.32000 -3.31100 44.16900
C  22.26100 -1.04200 43.32000
C  25.53600 -2.43300 41.71400
C  26.37900 -1.43700 40.92000
H  26.28900 -1.60700 39.34100
N  22.97400 -5.72500 46.10900
C  22.04800 -5.33900 45.16900
C  20.96900 -6.29000 45.10000
C  21.39400 -7.35100 45.96800
C  22.58300 -6.94900 46.62900
C  19.76600 -6.16600 44.24900
C  20.61400 -8.59200 46.20800
O  19.45100 -8.67100 45.82900
C  21.20200 -9.86500 46.81500
N  25.43200 -6.24700 47.72400
C  24.66900 -7.32900 48.02400
C  25.47000 -8.32600 48.91300
C  26.77600 -7.51100 49.22200
C  26.62600 -6.24700 48.39700
C  24.83400 -8.77200 50.21200
C  28.09300 -8.34100 48.98400
C  28.99800 -8.63900 50.21500
N  26.78000 -3.89800 46.71200
C  27.81800 -4.17500 47.52300
C  28.91000 -3.30100 47.29300
C  28.51400 -2.49800 46.22200
C  27.21500 -2.90600 45.97200
C  30.25500 -3.50300 47.96400
C  29.05400 -1.56600 45.26000
O  30.20200 -1.18000 44.96600
C  27.78700 -1.15700 44.44300
C  27.43300 0.30600 44.55400
O  27.98800 1.18000 43.91000
O  26.40000 0.37600 45.41000
C  25.74000 1.67900 45.60700
H  21.32600 -3.89000 43.83000
H  22.92100 -8.52200 47.95300
H  28.55500 -5.34600 49.04000
H  24.90700 -0.77900 43.03000
H  22.95900 -2.79700 42.21600
H  21.65900 -1.14400 44.22300
H  21.59500 -0.85400 42.47800
H  22.86500 -0.14000 43.42000
H  24.79500 -2.73900 40.97500
H  26.15900 -3.29400 41.95500
H  27.40900 -1.60500 41.23300
H  26.09300 -0.46000 41.31000
H  19.98800 -6.76400 43.36600
H  19.57300 -5.16100 43.87300
H  18.81700 -6.55300 44.62100
H  22.16000 -10.06400 46.33400
H  20.51000 -10.70200 46.71700
H  21.34600 -9.74500 47.88900
H  25.66400 -9.24500 48.36000
H  26.76200 -7.16900 50.25700
H  24.02400 -8.07400 50.42500
H  25.51100 -8.72400 51.06500
H  24.35800 -9.74800 50.30500
H  28.74700 -7.76600 48.32900
H  27.72700 -9.24100 48.49000
H  28.96200 -9.72400 50.32200
H  28.60000 -8.29100 51.16900
H  30.02400 -8.35300 49.98200
H  30.83300 -2.58300 47.88200
H  30.89500 -4.25000 47.49400
H  30.20000 -3.90500 48.97600
H  28.07500 -1.30200 43.40200
H  24.95700 1.69200 44.84800
H  26.40000 2.50100 45.33100
H  25.20100 1.71800 46.55400
Mg 44.45800 4.02700 46.45800
C  42.46400 6.83800 46.50300
C  41.52400 2.01200 46.45100
C  46.36100 1.36100 45.98900
C  47.23500 6.13300 46.05400
N  42.27400 4.38000 46.23200
C  41.77100 5.66200 46.22300
C  40.19800 5.53400 46.21200
C  39.92200 4.00200 46.49700
C  41.28900 3.39400 46.31600
C  39.17900 3.68000 47.90400
C  39.45000 6.03800 44.86200
C  39.85400 5.43400 43.47800
H  39.84400 6.33100 42.26100
N  44.03600 1.92100 46.10100
C  42.75600 1.35000 46.21100
C  42.97100 -0.11000 46.21900
C  44.37700 -0.30100 45.89700
C  44.98900 1.03500 46.02400
C  41.95700 -1.15900 46.52700
C  45.05000 -1.60100 45.56000
O  44.29600 -2.60400 45.62300
C  46.51400 -1.78100 45.34500
N  46.46000 3.81300 45.83300
C  47.02400 2.58100 45.86500
C  48.55800 2.71100 45.86200
C  48.83300 4.29000 45.87000
C  47.43000 4.82100 45.87000
C  49.28800 1.91000 47.03200
C  49.64800 4.83800 44.62200
C  50.89300 3.99800 44.35800
N  44.83700 6.05900 46.35000
C  46.01800 6.79500 46.19900
C  45.68400 8.23200 46.39200
C  44.28700 8.26200 46.49400
C  43.82300 6.93600 46.44000
C  46.74900 9.34000 46.37500
C  43.12800 9.15000 46.59200
O  43.13200 10.36100 46.53100
C  41.87500 8.24700 46.61000
C  41.18500 8.48600 47.87800
O  41.41800 7.88900 48.93000
O  40.42700 9.57900 47.79800
C  39.72600 10.16200 48.97300
H  40.72600 1.29000 46.63700
H  47.07900 0.53900 45.97100
H  48.08200 6.82200 46.08600
H  39.77000 6.16300 46.99200
H  39.30900 3.58000 45.70100
H  39.00300 4.65800 48.35300
H  39.85700 2.95600 48.35600
H  38.22600 3.16200 47.79300
H  39.50900 7.11400 44.70000
H  38.41000 5.78900 45.06900
H  39.09100 4.68000 43.28600
H  40.84300 4.97600 43.46800
H  41.45500 -1.46700 45.61000
H  41.25000 -0.72500 47.23300
H  42.44000 -2.05800 46.91100
H  47.17900 -1.52700 46.17000
H  46.68500 -1.03500 44.56900
H  46.70900 -2.79500 44.99700
H  48.90800 2.25000 44.93800
H  49.29900 4.61500 46.80000
H  48.52200 1.59000 47.73900
H  49.90500 2.56900 47.64200
H  49.83700 1.05900 46.62900
H  49.86300 5.87800 44.86500
H  49.00700 4.89400 43.74200
H  51.04200 3.25500 45.14100
H  51.75200 4.66200 44.45000
H  51.00700 3.62900 43.33900
H  47.66600 9.04500 46.88500
H  46.31900 10.15900 46.95100
H  47.08500 9.58900 45.36800
H  41.20500 8.47600 45.78200
H  38.67600 10.10800 48.68600
H  40.02400 11.19300 49.16400
H  39.85300 9.59700 49.89600

