158

Mg 8.05100 3.42000 27.81200
C  9.53000 2.06900 30.60500
C  5.93000 5.33900 29.97800
C  6.26200 4.57800 25.05600
C  9.57000 1.12100 25.82100
N  7.78400 3.67600 30.07600
C  8.64000 3.07900 30.97100
C  8.44200 3.73100 32.34100
C  7.26300 4.73100 32.07100
C  6.93800 4.57300 30.62100
C  5.94000 4.47700 32.92300
C  9.73100 4.35200 32.89400
C  9.49800 5.18300 34.14700
H  10.36500 4.92600 35.35100
N  6.34500 4.73600 27.56000
C  5.69300 5.46200 28.58500
C  4.64400 6.20900 27.96600
C  4.68300 5.93400 26.56300
C  5.78100 5.04600 26.32600
C  3.71400 7.02900 28.74300
C  3.86500 6.52800 25.42400
O  3.87100 6.16400 24.25500
C  2.89400 7.66400 25.74200
N  7.96300 2.90900 25.72700
C  7.20300 3.58100 24.77200
C  7.58400 3.20000 23.34400
C  8.57600 2.04800 23.61800
C  8.77300 2.05500 25.12000
C  6.27000 2.82700 22.47600
C  9.80500 1.85800 22.80700
C  9.91300 0.57000 21.93900
N  9.21900 1.95800 28.03400
C  9.81400 1.10000 27.20400
C  10.65900 0.17700 27.86000
C  10.63500 0.58000 29.18000
C  9.70300 1.61600 29.26300
C  11.30600 -0.99800 27.15400
C  11.21200 0.33000 30.55300
O  12.00000 -0.52000 30.94400
C  10.59300 1.43300 31.51700
C  9.88400 0.83300 32.71100
O  8.86100 0.19500 32.75300
O  10.48400 1.24000 33.83900
C  9.84400 0.89800 35.09800
H  5.38900 5.94400 30.70900
H  5.78200 5.03200 24.18600
H  10.16200 0.48600 25.15900
H  8.12900 2.93900 33.02200
H  7.64000 5.75100 32.00700
H  5.58900 5.39600 33.39200
H  6.23100 3.80100 33.72700
H  5.17500 3.95000 32.35300
H  10.19100 5.03800 32.18200
H  10.53100 3.64500 33.11200
H  8.46400 5.04800 34.46300
H  9.57300 6.24300 33.90500
H  3.95700 8.07300 28.54600
H  3.83300 7.03400 29.82600
H  2.66100 6.85800 28.52200
H  2.06100 7.20200 26.27200
H  2.66700 8.19900 24.82000
H  3.43300 8.32800 26.41700
H  8.19000 3.95900 22.85000
H  7.95200 1.18600 23.38500
H  6.32600 1.90400 21.90000
H  6.12300 3.62800 21.75200
H  5.44800 2.90800 23.18800
H  10.68100 1.93300 23.45100
H  10.02200 2.68400 22.13000
H  10.77100 0.03600 22.34700
H  10.09600 0.89300 20.91400
H  9.01300 -0.04200 21.89800
H  12.06900 -0.53400 26.52900
H  10.54600 -1.56100 26.61200
H  11.80600 -1.58500 27.92500
H  11.43400 2.09600 31.72000
H  10.44200 1.42800 35.83900
H  9.96300 -0.18500 35.06000
H  8.80100 1.21000 35.04800
Mg 16.91400 51.83500 25.42500
C  19.02800 50.12900 27.80000
C  15.13200 53.00100 28.07700
C  15.21300 53.66300 23.26000
C  18.83900 50.56800 22.92000
N  16.96500 51.32200 27.69400
C  18.03100 50.82600 28.48500
C  17.84000 51.10700 29.99000
C  16.38500 51.86000 30.01700
C  16.09900 52.04300 28.48600
C  15.16700 51.12800 30.64000
C  18.96200 51.90600 30.71000
C  18.96800 51.82900 32.19800
H  18.00400 50.90100 33.02400
N  15.27300 53.09900 25.60700
C  14.64000 53.48900 26.80100
C  13.62500 54.42300 26.55700
C  13.66600 54.73000 25.10200
C  14.74800 53.80000 24.55800
C  12.59900 54.97600 27.57100
C  12.72000 55.51200 24.21500
O  12.85600 55.43700 23.06300
C  11.60300 56.33700 24.83000
N  16.83800 51.82200 23.35600
C  16.16100 52.83400 22.67200
C  16.52400 52.72100 21.11100
C  17.89800 52.05600 21.14400
C  17.84900 51.42200 22.57400
C  15.50900 52.02500 20.27100
C  19.14900 53.00300 20.90300
C  20.13700 52.45200 19.84200
N  18.59700 50.45100 25.32000
C  19.20700 50.03100 24.16700
C  20.21800 49.09100 24.50600
C  20.23200 49.06500 25.93400
C  19.19700 49.97500 26.38600
C  21.28800 48.51200 23.58000
C  20.80900 48.53100 27.13400
O  21.72000 47.72100 27.28700
C  20.15100 49.38600 28.31600
C  19.91300 48.43300 29.46900
O  19.18300 47.48600 29.47900
O  20.78300 48.66800 30.50200
C  20.78700 47.69400 31.59400
H  14.68900 53.56600 28.90000
H  14.71600 54.27600 22.50500
H  19.55600 50.23800 22.16500
H  17.65100 50.12800 30.42900
H  16.45000 52.88800 30.37400
H  15.32300 50.06400 30.81600
H  14.35200 51.15700 29.91700
H  14.94700 51.61900 31.58800
H  18.75800 52.93700 30.42000
H  19.89700 51.56700 30.26400
H  18.88100 52.75900 32.76000
H  19.93700 51.40100 32.45600
H  12.80600 54.44700 28.50200
H  11.57100 54.67900 27.36500
H  12.68800 56.04100 27.78800
H  11.96300 56.86500 25.71200
H  10.68400 55.79700 25.06000
H  11.39000 57.13800 24.12200
H  16.56100 53.71000 20.65500
H  17.90600 51.25400 20.40500
H  15.93400 51.62300 19.35200
H  14.68800 52.62000 19.87000
H  15.12800 51.11200 20.72900
H  19.82800 53.15600 21.74200
H  18.82700 54.00800 20.63100
H  19.96300 52.88200 18.85500
H  20.06200 51.39200 19.60100
H  21.17400 52.68900 20.08200
H  21.05300 49.00900 22.63800
H  21.05900 47.45000 23.49300
H  22.33100 48.78600 23.74200
H  20.94800 50.00600 28.72500
H  20.41100 48.36500 32.36700
H  21.80300 47.35000 31.78600
H  20.15500 46.81100 31.67900

