158

Mg 16.94800 -1.74400 27.76500
C  15.70900 0.64300 30.29000
C  18.74100 -3.21800 30.12200
C  18.60800 -3.31200 25.24700
C  15.47300 0.48000 25.38100
N  17.24400 -1.22700 29.91300
C  16.59500 -0.36200 30.79600
C  17.07600 -0.57400 32.26400
C  18.03800 -1.83000 32.19000
C  18.07100 -2.07300 30.61900
C  19.49000 -1.74700 32.86400
C  15.86500 -0.64200 33.16200
C  15.97900 -0.07600 34.56700
H  17.35700 0.31600 35.17500
N  18.44700 -3.12900 27.71400
C  19.04000 -3.65600 28.84500
C  19.88800 -4.74800 28.45200
C  19.82700 -4.83800 27.04100
C  18.90400 -3.75800 26.60600
C  20.59400 -5.64000 29.43900
C  20.31500 -5.89500 26.15500
O  20.18000 -5.83600 24.90600
C  21.04300 -7.13300 26.74100
N  16.93600 -1.54700 25.66200
C  17.70900 -2.32200 24.87000
C  17.70800 -1.82100 23.44600
C  16.53300 -0.71800 23.39300
C  16.30400 -0.56900 24.91300
C  19.16900 -1.35900 23.00800
C  15.29400 -1.14000 22.46000
C  14.09700 -1.78100 23.18200
N  15.67000 -0.00100 27.77400
C  15.17000 0.71200 26.74800
C  14.34300 1.85100 27.22500
C  14.58200 1.80800 28.63100
C  15.32800 0.68400 28.91000
C  13.47100 2.81600 26.43100
C  14.38400 2.49300 29.83500
O  13.79100 3.58600 29.99500
C  15.02600 1.77600 30.98400
C  16.07400 2.59300 31.68200
O  17.17800 2.78600 31.24400
O  15.49700 3.09800 32.87000
C  16.50000 3.93500 33.56600
H  19.02200 -3.79800 31.00400
H  19.26000 -3.66000 24.44300
H  15.06400 1.23200 24.70300
H  17.63600 0.35100 32.40300
H  17.59200 -2.71400 32.64400
H  19.48600 -0.81700 33.43100
H  20.25200 -1.59400 32.10000
H  19.64300 -2.53800 33.59900
H  15.53600 -1.65800 33.37800
H  15.00500 -0.18800 32.66900
H  15.57900 -0.80200 35.27500
H  15.32800 0.79700 34.61900
H  20.20800 -6.65900 29.39500
H  20.36300 -5.19300 30.40600
H  21.66200 -5.64000 29.22300
H  21.21200 -7.76600 25.87000
H  20.29400 -7.59500 27.38500
H  21.99800 -6.79100 27.13900
H  17.51300 -2.62800 22.73900
H  16.78400 0.21800 22.89400
H  19.90100 -1.44900 23.81000
H  19.14500 -0.30500 22.73000
H  19.59600 -2.00200 22.23900
H  15.56500 -1.76600 21.60900
H  14.86100 -0.21800 22.06900
H  13.28200 -1.07000 23.31400
H  14.48800 -2.08400 24.15300
H  13.79500 -2.70500 22.69000
H  13.03100 3.53000 27.12800
H  12.61400 2.28700 26.01500
H  14.03700 3.27200 25.61900
H  14.16100 1.46900 31.57200
H  16.73400 4.81300 32.96400
H  17.43200 3.42100 33.80500
H  16.06500 4.27000 34.50800
Mg 6.43400 54.35700 41.44700
C  5.91600 50.85300 41.26900
C  9.55200 53.80200 40.11400
C  6.86700 57.65200 41.56200
C  3.01100 54.85500 42.14600
N  7.56500 52.44000 40.61800
C  7.16800 51.16300 40.64800
C  8.26900 50.29400 40.23200
C  9.47100 51.28800 40.03600
C  8.81700 52.61900 40.27200
C  10.84900 51.03800 40.85400
C  8.04900 49.41800 38.95200
C  7.14100 49.87900 37.84400
H  7.73400 50.09100 36.44100
N  7.97400 55.58600 40.86200
C  9.17200 55.14700 40.38900
C  9.98800 56.27000 40.30000
C  9.32200 57.43600 40.75700
C  7.98400 56.94600 41.08800
C  11.42100 56.10100 39.98800
C  9.98600 58.88800 40.82500
O  11.12600 59.12800 40.54300
C  9.27400 60.02700 41.49300
N  5.04900 56.07100 41.71000
C  5.55800 57.32700 41.76300
C  4.47100 58.27900 42.18400
C  3.16600 57.39200 42.25400
C  3.71700 56.00800 42.05700
C  4.76600 59.09800 43.52400
C  1.96500 57.75200 41.35500
C  0.85700 58.47900 42.06100
N  4.83100 53.16500 41.63100
C  3.49400 53.51700 41.90900
C  2.77200 52.26900 42.14000
C  3.76900 51.26500 42.00500
C  4.94200 51.80100 41.54500
C  1.31400 52.12400 42.26200
C  3.91000 49.83600 42.10800
O  3.09600 49.03200 42.51700
C  5.35200 49.49700 41.61300
C  5.20500 48.46900 40.57100
O  4.46400 48.59100 39.57800
O  5.92400 47.35500 40.77000
C  5.62700 46.21000 39.77700
H  10.55700 53.64900 39.71500
H  7.07500 58.70900 41.73800
H  1.97100 54.86500 42.47900
H  8.44500 49.65100 41.09400
H  9.74100 51.35500 38.98200
H  10.77100 50.43600 41.75900
H  11.16200 51.96200 41.34000
H  11.60200 50.61100 40.19100
H  7.78500 48.37500 39.12700
H  9.08800 49.38600 38.62400
H  6.76200 50.85700 38.14000
H  6.29400 49.21400 37.67200
H  12.15800 56.81200 40.36000
H  11.59200 55.98200 38.91800
H  11.67800 55.12300 40.39600
H  8.45300 60.29500 40.82700
H  10.07100 60.75300 41.65700
H  8.95500 59.68300 42.47700
H  4.37100 59.04200 41.41200
H  2.83800 57.45800 43.29100
H  4.72800 60.17700 43.37300
H  5.75400 58.76400 43.84100
H  3.97400 58.83300 44.22500
H  1.54600 56.84300 40.92400
H  2.41400 58.38700 40.59100
H  0.07600 57.74300 42.25500
H  0.43500 59.27400 41.44700
H  1.21500 58.99300 42.95300
H  0.89400 51.78400 41.31500
H  0.71900 52.96500 42.61700
H  1.09500 51.36000 43.00800
H  5.90000 49.09300 42.46500
H  6.14800 45.30500 40.09100
H  5.90500 46.40700 38.74100
H  4.58700 45.89300 39.86000

