158

Mg 2.20800 -1.18800 43.93800
C  5.35300 -0.19000 43.44300
C  0.98000 1.43200 42.02700
C  -1.02000 -2.64000 44.14300
C  3.49500 -4.42900 44.93300
N  3.12300 0.26900 42.68600
C  4.42300 0.62100 42.76100
C  4.77900 1.81600 41.82800
C  3.32200 2.50400 41.85700
C  2.36100 1.35800 42.22500
C  3.18800 3.69100 42.81800
C  5.27500 1.36200 40.40100
C  6.42800 2.15800 39.80100
H  6.25400 2.87400 38.47300
N  0.26600 -0.66600 43.23400
C  -0.01300 0.46700 42.47500
C  -1.43900 0.53100 42.21700
C  -1.99600 -0.65600 42.78300
C  -0.89700 -1.41800 43.47200
C  -2.13300 1.57200 41.42500
C  -3.50000 -0.94800 42.68100
O  -4.33800 -0.10000 42.29700
C  -4.04200 -2.21300 43.20400
N  1.40800 -3.18100 44.22300
C  0.04800 -3.41600 44.49100
C  -0.12100 -4.80400 45.30100
C  1.23100 -5.49300 45.03600
C  2.10400 -4.28200 44.63200
C  -0.58600 -4.48900 46.76100
C  1.20500 -6.66100 43.91900
C  1.49500 -8.04900 44.50500
N  4.08800 -2.17400 44.24600
C  4.46300 -3.40600 44.76400
C  5.89400 -3.41500 44.96300
C  6.28000 -2.08600 44.48300
C  5.13800 -1.42600 44.07000
C  6.79400 -4.41500 45.54700
C  7.45900 -1.26100 44.29200
O  8.63400 -1.47700 44.64000
C  6.86800 0.02300 43.60500
C  7.07800 1.23600 44.46400
O  6.21700 1.79500 45.15000
O  8.43900 1.56700 44.41000
C  8.80300 2.71900 45.22500
H  0.66600 2.33000 41.49100
H  -1.98900 -3.09900 44.35400
H  3.86500 -5.41300 45.23000
H  5.39900 2.40100 42.50600
H  3.07900 2.83900 40.84800
H  3.96800 3.63400 43.57700
H  2.18900 3.73100 43.25400
H  3.39600 4.62400 42.29600
H  4.43900 1.24100 39.71100
H  5.63000 0.33200 40.42000
H  7.32000 1.53400 39.74500
H  6.67300 2.93200 40.52800
H  -3.07600 1.17200 41.05200
H  -1.47300 1.66000 40.56300
H  -2.27900 2.54700 41.89100
H  -3.38900 -3.04000 42.92600
H  -5.03500 -2.36200 42.77800
H  -4.16300 -2.15300 44.28500
H  -0.93500 -5.21600 44.70500
H  1.68900 -5.88500 45.94400
H  -1.63800 -4.74300 46.89300
H  -0.57000 -3.42100 46.97400
H  0.08500 -5.03600 47.42300
H  1.90900 -6.48100 43.10700
H  0.21800 -6.70000 43.45800
H  1.30200 -8.13400 45.57400
H  2.47400 -8.42900 44.21400
H  0.84000 -8.67600 43.90100
H  6.98900 -5.35500 45.03100
H  6.44900 -4.67300 46.54900
H  7.71900 -3.86600 45.72600
H  7.46600 0.03600 42.69300
H  8.40200 3.61200 44.74700
H  9.87900 2.89000 45.26600
H  8.44700 2.55100 46.24100
Mg 48.43400 14.81800 28.38000
C  46.29700 14.34300 31.05700
C  50.10000 17.24900 30.30000
C  50.59900 15.16600 25.92200
C  46.22800 13.22700 26.30900
N  48.30100 15.67300 30.50600
C  47.39000 15.20400 31.46200
C  47.66700 15.75800 32.81800
C  48.63900 16.97900 32.41000
C  49.01900 16.62900 30.95400
C  47.87500 18.27400 32.52900
C  48.17500 14.64500 33.87100
C  47.98100 15.13500 35.28400
H  49.19900 15.02900 36.22900
N  50.30300 15.81700 28.23400
C  50.76500 16.85100 29.08200
C  51.99500 17.32300 28.55400
C  52.13600 16.73500 27.26000
C  51.00600 15.83300 27.07600
C  52.89700 18.39800 29.27900
C  53.28000 16.86800 26.33300
O  53.41100 16.17900 25.33000
C  54.51400 17.68700 26.67700
N  48.48600 14.02100 26.41100
C  49.47200 14.39400 25.58300
C  49.20700 14.00900 24.08900
C  47.77600 13.37900 24.19600
C  47.46500 13.56600 25.72900
C  49.15500 15.31400 23.18600
C  47.57600 11.86800 23.81500
C  46.29400 11.51400 23.07600
N  46.63600 14.00500 28.53500
C  45.85000 13.33800 27.59600
C  44.58400 12.97900 28.16300
C  44.75300 13.31300 29.56300
C  45.96400 13.94800 29.69000
C  43.27000 12.47900 27.50300
C  44.14000 13.29100 30.85500
O  43.05200 12.88100 31.22200
C  45.09800 13.92900 31.80000
C  44.31000 15.10700 32.34500
O  44.28300 16.17700 31.76500
O  44.00300 14.89300 33.65800
C  43.64600 16.05600 34.44600
H  50.56400 18.09400 30.81300
H  51.21700 15.40100 25.05300
H  45.57500 12.82200 25.53300
H  46.74000 16.12000 33.26400
H  49.51800 16.88900 33.04800
H  47.12900 18.16100 33.31600
H  47.40400 18.41500 31.55600
H  48.56600 19.07200 32.80100
H  49.17200 14.29500 33.60300
H  47.63700 13.70900 33.72300
H  47.19300 14.47300 35.64000
H  47.65800 16.17600 35.24900
H  52.87700 19.30900 28.68100
H  53.90500 18.12100 29.58600
H  52.44100 18.75900 30.20100
H  54.33000 18.76100 26.71900
H  55.30500 17.56900 25.93700
H  55.02600 17.49700 27.62000
H  49.94900 13.35100 23.63700
H  47.08500 13.95000 23.57600
H  49.40400 16.16500 23.82100
H  48.15900 15.36200 22.74600
H  49.97200 15.27600 22.46600
H  47.74100 11.23900 24.68900
H  48.34800 11.54200 23.11800
H  46.46700 10.97800 22.14200
H  45.65500 12.35700 22.81600
H  45.71000 10.92900 23.78700
H  42.40900 13.00300 27.91600
H  43.25700 11.41900 27.75800
H  43.45400 12.67600 26.44700
H  45.40500 13.26900 32.61200
H  44.29400 16.37900 35.26100
H  42.67700 15.94600 34.93400
H  43.42100 16.93100 33.83800

