158

Mg 8.67400 4.61900 27.44600
C  9.46000 2.56200 30.23400
C  6.28500 6.11100 29.36300
C  7.56300 6.07400 24.64200
C  10.12200 2.00100 25.43400
N  7.88300 4.24300 29.49900
C  8.54500 3.52700 30.57000
C  8.02400 4.08300 31.88300
C  6.84100 5.00600 31.55300
C  6.97800 5.10500 30.02500
C  5.43000 4.47700 31.91100
C  9.07400 4.87500 32.67600
C  9.18100 4.74700 34.20000
H  10.49200 4.73800 35.00700
N  7.17700 5.92700 27.06300
C  6.35500 6.51600 28.02900
C  5.48000 7.46800 27.41600
C  5.86500 7.51100 26.00700
C  6.95500 6.50700 25.86800
C  4.27100 8.23800 28.07400
C  5.30700 8.41100 24.88400
O  5.70500 8.39000 23.73900
C  4.18000 9.38500 25.17800
N  8.82200 4.06000 25.30100
C  8.30000 4.95300 24.38500
C  8.70100 4.45600 22.99600
C  9.46100 3.09800 23.19900
C  9.45900 3.02000 24.73500
C  7.63700 4.35500 21.96500
C  10.90100 3.14600 22.52800
C  11.20400 2.14700 21.34300
N  9.84800 2.77100 27.66200
C  10.28300 1.81100 26.83100
C  10.91500 0.74300 27.55500
C  10.71300 1.13100 28.93300
C  9.91400 2.25600 28.94800
C  11.58100 -0.48800 26.90400
C  11.04500 0.71800 30.25600
O  11.85300 -0.15200 30.66600
C  10.24300 1.67100 31.20100
C  9.26100 0.89700 32.06400
O  8.21000 0.38900 31.69700
O  9.68400 0.97500 33.36800
C  8.67700 0.39400 34.32500
H  5.63300 6.82900 29.86500
H  7.39000 6.69200 23.75900
H  10.44000 1.21700 24.74300
H  7.75500 3.20000 32.46100
H  6.91200 6.01400 31.96200
H  5.71900 3.59200 32.47800
H  4.81300 4.12100 31.08500
H  4.89700 5.19700 32.53100
H  9.01500 5.91500 32.35300
H  10.08000 4.60100 32.35700
H  8.47700 4.00800 34.58200
H  8.68300 5.64100 34.57600
H  4.08300 7.99900 29.12000
H  3.33200 7.96900 27.59000
H  4.13600 9.28200 27.79300
H  4.51700 10.10600 25.92300
H  3.24200 8.91000 25.46600
H  3.88400 9.93300 24.28300
H  9.45200 5.18100 22.68100
H  8.99400 2.20700 22.77700
H  6.62200 4.45700 22.34900
H  7.63700 3.39300 21.45200
H  7.86600 5.00900 21.12400
H  11.62300 2.98600 23.32800
H  11.24500 4.10800 22.14700
H  10.32000 1.53200 21.17700
H  11.95700 1.45100 21.71300
H  11.57700 2.60700 20.42800
H  11.14600 -0.57000 25.90800
H  11.37800 -1.34800 27.54200
H  12.64400 -0.27000 26.80000
H  10.91800 2.29200 31.79000
H  9.09600 0.66300 35.29500
H  8.68900 -0.69600 34.34300
H  7.67300 0.79400 34.18100
Mg 41.61500 40.97200 27.03900
C  40.76500 43.22000 29.46100
C  42.12200 38.53000 29.34600
C  42.24100 38.72200 24.54000
C  41.19200 43.37400 24.61700
N  41.48800 40.89900 29.09000
C  41.09200 41.96100 29.90300
C  41.13000 41.57900 31.39100
C  41.58300 40.08900 31.35500
C  41.75700 39.82500 29.82000
C  42.97900 39.70800 32.11900
C  39.75300 41.84200 32.08800
C  39.63900 42.88700 33.27300
H  39.06800 42.40900 34.63100
N  42.15800 38.94500 26.95300
C  42.37400 38.08500 28.00200
C  42.74400 36.73600 27.56100
C  42.71500 36.75800 26.17800
C  42.31900 38.17900 25.79500
C  43.19800 35.60100 28.53000
C  43.06600 35.70800 25.18200
O  42.93500 35.88400 23.96400
C  43.61200 34.37500 25.65900
N  41.84400 41.08500 24.89600
C  42.07100 40.07500 24.11500
C  42.17700 40.48700 22.59100
C  41.75600 41.97300 22.70600
C  41.55200 42.13300 24.16700
C  43.59700 40.36100 21.90700
C  40.44200 42.21600 21.88900
C  39.01700 41.94900 22.54200
N  41.06800 42.98200 26.99700
C  40.96000 43.85700 25.92700
C  40.58800 45.16200 26.38400
C  40.44700 44.96700 27.79900
C  40.78800 43.64600 28.08700
C  40.44000 46.36100 25.60700
C  40.18400 45.57000 29.05700
O  39.88300 46.78200 29.29900
C  40.40800 44.50500 30.15400
C  41.38400 44.96800 31.10700
O  42.57100 44.65100 31.10100
O  40.72500 45.84400 31.98000
C  41.49500 46.26200 33.13800
H  42.21400 37.70800 30.05800
H  42.24600 38.06500 23.66800
H  41.10000 44.16600 23.87000
H  41.94800 42.13000 31.85400
H  40.76300 39.45800 31.69800
H  42.72900 38.82300 32.70400
H  43.27000 40.50200 32.80600
H  43.82200 39.34400 31.53300
H  39.32700 40.91500 32.47400
H  38.95100 42.03100 31.37500
H  39.09800 43.70300 32.79300
H  40.65500 43.27600 33.34900
H  44.28500 35.66300 28.57900
H  42.80600 34.64000 28.19700
H  42.71000 35.62600 29.50400
H  42.80700 33.72100 25.99300
H  44.41300 34.46200 26.39300
H  43.99500 33.85900 24.77800
H  41.44500 39.86200 22.08000
H  42.50100 42.67500 22.33300
H  44.36100 39.89900 22.53200
H  43.96900 41.33900 21.60200
H  43.46400 39.70400 21.04700
H  40.55200 41.59700 20.99900
H  40.40100 43.27500 21.63400
H  38.33600 41.51700 21.80800
H  38.64600 42.89100 22.94600
H  39.22600 41.14500 23.24800
H  39.43200 46.77000 25.68200
H  40.90400 46.32400 24.62200
H  41.15100 47.06800 26.03500
H  39.46400 44.41300 30.69100
H  42.46900 46.69300 32.90400
H  41.54100 45.40900 33.81600
H  40.94400 47.05200 33.64700

