158

Mg -2.31000 17.79000 27.68000
C  -2.94300 15.65300 30.24900
C  -2.91900 20.51500 29.91000
C  -2.61100 19.89000 25.05700
C  -2.36200 15.05500 25.50300
N  -2.88400 18.07600 29.85700
C  -2.94800 16.96300 30.71800
C  -2.99200 17.45900 32.23600
C  -3.28300 19.00900 32.00800
C  -2.92900 19.24900 30.49200
C  -4.71200 19.37700 32.44600
C  -1.66700 17.17000 32.92800
C  -1.43900 17.87500 34.26800
H  -1.06200 17.10700 35.55200
N  -2.49200 19.89300 27.50500
C  -2.71400 20.83800 28.49800
C  -2.69000 22.12700 27.91200
C  -2.65600 21.96300 26.52300
C  -2.53700 20.54300 26.31700
C  -2.94400 23.40300 28.61300
C  -2.60300 23.03300 25.46000
O  -2.41200 22.80900 24.24500
C  -2.62100 24.51300 25.83300
N  -2.61000 17.51600 25.59900
C  -2.54000 18.51100 24.70400
C  -2.63800 18.05900 23.20700
C  -2.21800 16.60200 23.41900
C  -2.27800 16.35800 24.94800
C  -4.05800 18.22900 22.68200
C  -0.82800 16.32900 22.82700
C  0.41600 16.99200 23.49700
N  -2.45600 15.78600 27.80400
C  -2.54100 14.78600 26.80200
C  -2.92400 13.46800 27.42300
C  -2.95100 13.78400 28.78300
C  -2.76100 15.16200 28.94700
C  -3.15400 12.07700 26.82100
C  -3.26900 13.21400 30.05700
O  -3.58500 12.13200 30.34400
C  -2.98900 14.41100 31.09700
C  -1.73000 14.03800 31.65400
O  -0.70100 14.03800 31.09400
O  -1.97100 13.77500 32.98100
C  -0.84500 13.56400 33.83100
H  -3.18400 21.41500 30.46800
H  -2.83900 20.50500 24.18400
H  -2.39700 14.18800 24.84100
H  -3.77200 16.91600 32.77000
H  -2.67800 19.73600 32.55100
H  -5.29000 19.90300 31.68600
H  -4.63000 20.05400 33.29700
H  -5.31400 18.50100 32.68700
H  -0.89600 17.61100 32.29600
H  -1.40100 16.12000 33.04500
H  -2.41900 18.27400 34.52900
H  -0.76300 18.70100 34.04800
H  -2.23100 24.17600 28.32600
H  -3.12600 23.29700 29.68300
H  -3.89600 23.76100 28.22000
H  -1.81100 24.83400 26.48800
H  -3.61900 24.63700 26.25200
H  -2.55000 25.08600 24.90900
H  -1.87700 18.56000 22.60800
H  -2.91700 15.95800 22.88600
H  -4.26100 19.22000 22.27500
H  -4.75600 18.14500 23.51500
H  -4.40200 17.53000 21.91900
H  -0.84000 16.78300 21.83600
H  -0.63500 15.25900 22.90600
H  1.03300 17.44500 22.72200
H  1.00800 16.15500 23.86700
H  0.15000 17.59400 24.36600
H  -2.25400 11.46400 26.78100
H  -3.41800 12.12100 25.76400
H  -3.84500 11.57200 27.49600
H  -3.76200 14.37300 31.86500
H  -0.94200 14.07600 34.78800
H  0.06700 13.88500 33.32800
H  -0.73100 12.52800 34.15100
Mg -5.95100 25.54300 26.18800
C  -5.06600 27.05800 29.13800
C  -7.59100 23.08600 28.03400
C  -6.33500 23.72900 23.39500
C  -3.96300 27.89400 24.42000
N  -6.20200 25.09400 28.33700
C  -5.81900 25.90600 29.34600
C  -6.37300 25.38900 30.72000
C  -6.94600 23.98100 30.31800
C  -6.91400 24.08600 28.78700
C  -6.19500 22.61100 30.85700
C  -7.47800 26.28100 31.30800
C  -7.54700 26.35300 32.85600
H  -6.84300 25.28000 33.65500
N  -6.98100 23.73200 25.74700
C  -7.66400 22.95800 26.58400
C  -8.29900 21.93100 25.87900
C  -7.82200 22.03200 24.51600
C  -6.99000 23.18600 24.50900
C  -9.19600 20.93400 26.51300
C  -8.06800 21.08600 23.34900
O  -7.66100 21.25300 22.17500
C  -8.97900 19.90700 23.47200
N  -5.45100 25.90000 24.15300
C  -5.61000 24.89400 23.20100
C  -4.88300 25.27900 21.86700
C  -4.19200 26.68700 22.17800
C  -4.50700 26.79800 23.70100
C  -3.91000 24.22500 21.19400
C  -4.78900 27.85400 21.26200
C  -3.66500 28.57400 20.40500
N  -4.76500 27.18400 26.65500
C  -4.05000 28.09300 25.79700
C  -3.29400 28.97000 26.71200
C  -3.72300 28.67600 27.99400
C  -4.57400 27.57500 27.92400
C  -2.21400 29.96000 26.20000
C  -3.69900 29.07300 29.36900
O  -3.12500 30.04300 29.89100
C  -4.48600 27.97800 30.21200
C  -3.50700 27.32800 31.18000
O  -2.70600 26.44200 30.76600
O  -3.68300 27.77400 32.46400
C  -2.69600 27.20400 33.37300
H  -8.26200 22.50100 28.66700
H  -6.38400 23.18400 22.44900
H  -3.23500 28.56200 23.95500
H  -5.51200 25.27700 31.38000
H  -7.98800 23.85100 30.60800
H  -5.74400 22.16400 29.97000
H  -6.83000 21.78900 31.18600
H  -5.45500 22.71800 31.65000
H  -8.45300 26.06500 30.87200
H  -7.32900 27.24300 30.81900
H  -8.60500 26.41700 33.11100
H  -7.11500 27.33000 33.07100
H  -8.94300 20.81500 27.56700
H  -9.15800 20.00400 25.94500
H  -10.22600 21.28100 26.43900
H  -9.30700 19.62600 22.47100
H  -9.92500 20.10700 23.97700
H  -8.46100 19.11800 24.01900
H  -5.74400 25.29200 21.19900
H  -3.11800 26.50900 22.11800
H  -2.88400 24.55700 21.03300
H  -4.23500 24.08600 20.16400
H  -4.02600 23.25900 21.68400
H  -5.25300 28.67900 21.80300
H  -5.42000 27.39500 20.50100
H  -2.67200 28.25200 20.71700
H  -3.74500 29.63800 20.62700
H  -3.86400 28.49200 19.33600
H  -1.51900 29.46600 25.52100
H  -1.64200 30.25600 27.08000
H  -2.73100 30.71500 25.60700
H  -5.14700 28.47300 30.92400
H  -1.74300 27.71200 33.22200
H  -2.46200 26.15200 33.21100
H  -3.01000 27.33700 34.40800

