158

Mg -0.28000 6.86700 25.42900
C  0.58300 9.10600 28.03200
C  0.21900 4.19000 27.70000
C  -0.76400 4.66500 22.93800
C  0.42500 9.39600 23.20700
N  0.38100 6.64400 27.59400
C  0.47300 7.74100 28.47000
C  0.38100 7.25000 29.89800
C  0.71800 5.71500 29.79400
C  0.40200 5.47700 28.31000
C  2.19200 5.32300 30.18600
C  -1.01000 7.59400 30.65500
C  -1.01100 7.41400 32.20300
H  0.24400 7.13300 33.06400
N  -0.41600 4.75000 25.32400
C  -0.22200 3.87200 26.34100
C  -0.42200 2.47600 25.88800
C  -0.76000 2.61800 24.51300
C  -0.66200 4.04400 24.24300
C  -0.43700 1.32000 26.87000
C  -0.92300 1.58800 23.47500
O  -1.00800 1.88300 22.29000
C  -0.84500 0.15600 23.88300
N  -0.01100 7.04500 23.38000
C  -0.46100 6.05100 22.52200
C  -0.78800 6.53200 21.08100
C  -0.21800 7.96100 21.20900
C  0.11500 8.16200 22.70000
C  -0.12800 5.60700 19.99300
C  -1.05600 9.06400 20.48900
C  -2.10300 9.74900 21.35700
N  0.16300 8.94600 25.54500
C  0.43100 9.84700 24.53100
C  0.91200 11.09200 25.13900
C  0.79800 10.87400 26.55300
C  0.40800 9.56100 26.70200
C  1.30000 12.38400 24.42800
C  0.97800 11.50300 27.81400
O  1.35500 12.67300 28.11400
C  0.80100 10.40500 28.87800
C  2.06900 10.23300 29.64200
O  3.02300 9.53000 29.33700
O  1.95300 11.04100 30.71600
C  2.99200 10.92000 31.77500
H  0.41500 3.25900 28.23600
H  -1.18000 4.11300 22.09200
H  0.57300 10.18400 22.46600
H  1.22000 7.66100 30.46000
H  0.05200 5.25600 30.52400
H  2.18000 4.93800 31.20600
H  2.84900 6.14600 29.90300
H  2.49300 4.57800 29.45000
H  -1.85400 7.02300 30.26700
H  -1.31900 8.57100 30.28200
H  -1.64900 6.54600 32.36500
H  -1.51900 8.26200 32.66400
H  0.32300 0.57900 26.62300
H  -1.38200 0.82900 26.63600
H  -0.53800 1.57100 27.92600
H  -1.61900 -0.15400 24.58500
H  0.14400 -0.27900 24.02600
H  -1.10700 -0.30700 22.93100
H  -1.87600 6.47200 21.05000
H  0.72900 7.91700 20.67000
H  0.55400 4.87100 20.41900
H  0.38500 6.27100 19.29700
H  -0.85200 5.01000 19.43800
H  -1.54900 8.60900 19.63000
H  -0.29900 9.82200 20.28500
H  -1.90000 10.78400 21.63200
H  -2.14000 9.21400 22.30600
H  -3.15300 9.72200 21.06800
H  1.45800 12.17800 23.37000
H  2.23200 12.82200 24.78500
H  0.52300 13.11000 24.67100
H  0.07700 10.55400 29.67900
H  3.74000 11.68400 31.56000
H  3.48900 9.95200 31.71400
H  2.54700 11.26600 32.70800
Mg 10.66600 46.55800 25.64700
C  8.64400 46.68500 28.47200
C  13.24000 47.76400 27.48700
C  12.54400 46.14600 22.90500
C  7.75700 46.11700 23.68300
N  10.86800 47.18000 27.70500
C  9.97400 47.06200 28.74100
C  10.52900 47.65900 30.03500
C  11.82600 48.40100 29.54000
C  11.99300 47.74900 28.19300
C  11.62700 49.94300 29.45300
C  10.81600 46.47000 31.05700
C  10.35200 46.59000 32.57800
H  10.44100 45.36900 33.40800
N  12.63800 46.73400 25.24900
C  13.53400 47.21200 26.17900
C  14.88500 47.15800 25.59800
C  14.73300 46.60400 24.27200
C  13.26400 46.41300 24.08200
C  16.14700 47.54800 26.30900
C  15.75400 46.29400 23.22000
O  15.47800 45.88100 22.13600
C  17.22000 46.56100 23.57100
N  10.20800 46.21400 23.57400
C  11.16800 46.09500 22.66600
C  10.62000 45.91000 21.24500
C  9.09000 45.63500 21.57800
C  8.99900 46.07800 22.99200
C  10.90300 47.17400 20.40500
C  8.75300 44.11800 21.29300
C  9.13800 43.06900 22.41600
N  8.68300 46.30300 25.95900
C  7.61400 46.19600 25.06700
C  6.36600 46.19900 25.81800
C  6.71200 46.29900 27.13300
C  8.15100 46.44400 27.20700
C  5.00500 45.98600 25.23700
C  6.13400 46.40500 28.46100
O  4.95700 46.45200 28.79900
C  7.37800 46.84600 29.34100
C  7.28800 45.95800 30.58200
O  7.79100 44.83800 30.67500
O  6.42800 46.56100 31.45800
C  5.99600 45.77800 32.64800
H  14.07700 48.18800 28.04500
H  12.94000 45.81200 21.94400
H  6.91900 46.03000 22.98900
H  9.78800 48.14000 30.67300
H  12.61800 48.18900 30.25800
H  12.27500 50.47000 30.15300
H  10.65400 50.11800 29.91300
H  11.43800 50.31900 28.44700
H  11.89400 46.33200 30.97700
H  10.33200 45.58500 30.64300
H  9.31800 46.91300 32.69900
H  10.91800 47.41600 33.00900
H  16.03800 47.71600 27.38100
H  16.41100 48.47500 25.80000
H  16.88200 46.76000 26.14500
H  17.56500 45.97000 24.42000
H  17.56300 47.59100 23.67300
H  17.81900 46.17000 22.74900
H  11.04000 44.99400 20.82800
H  8.42100 46.22600 20.95200
H  11.65900 47.77300 20.91300
H  9.96300 47.68500 20.20000
H  11.45800 46.78800 19.54900
H  9.41400 43.84500 20.47000
H  7.75600 44.02500 20.86200
H  9.58400 43.51600 23.30500
H  9.92500 42.39100 22.08800
H  8.25400 42.48800 22.68000
H  4.50700 45.08000 25.58400
H  4.87300 46.11900 24.16400
H  4.37100 46.80100 25.58400
H  7.21300 47.89400 29.59200
H  5.15400 45.09700 32.52200
H  5.72200 46.55000 33.36700
H  6.85400 45.41100 33.21000

