158

Mg 8.20300 2.56100 28.32400
C  9.54900 1.05300 31.22400
C  6.31500 4.61100 30.37800
C  7.19500 4.03400 25.60900
C  9.76200 -0.04700 26.45300
N  7.89900 2.64800 30.52800
C  8.65200 2.13800 31.51300
C  8.36800 2.72400 32.87800
C  7.23400 3.72100 32.63800
C  7.11000 3.66200 31.06100
C  5.89800 3.39500 33.37200
C  9.63500 3.41400 33.50200
C  10.12600 3.01600 34.85500
H  9.09000 2.75800 36.03500
N  7.07100 4.21600 27.99400
C  6.29600 4.87200 29.00300
C  5.54600 5.95700 28.29200
C  5.79500 5.85000 26.94600
C  6.69700 4.67100 26.75200
C  4.61900 6.83500 29.02900
C  5.27700 6.72400 25.79000
O  5.69200 6.60100 24.60000
C  4.42000 7.86700 26.03200
N  8.43600 2.10100 26.37200
C  7.96000 2.86600 25.43500
C  8.22000 2.32400 23.96700
C  9.25000 1.14400 24.24200
C  9.15100 1.05200 25.79900
C  6.94300 1.87100 23.14700
C  10.75900 1.37900 23.82200
C  11.33400 2.64000 24.40900
N  9.33400 0.76300 28.72600
C  9.87500 -0.18900 27.87100
C  10.57300 -1.23600 28.62300
C  10.50300 -0.77300 29.92900
C  9.72000 0.44700 29.95200
C  11.28000 -2.47700 28.14100
C  10.92800 -1.01100 31.27200
O  11.58200 -1.95500 31.75300
C  10.32900 0.13100 32.21100
C  9.43600 -0.49800 33.17600
O  8.30600 -0.81900 32.94200
O  9.94500 -0.59900 34.41700
C  9.40800 -1.59200 35.36300
H  5.83200 5.28600 31.08700
H  6.84900 4.43800 24.65600
H  10.24600 -0.77700 25.80000
H  8.16000 1.92000 33.58400
H  7.43200 4.78600 32.75600
H  5.86400 2.42900 33.87500
H  5.10600 3.38200 32.62400
H  5.67200 4.21800 34.05100
H  9.36800 4.44800 33.72200
H  10.48900 3.33700 32.82900
H  10.83400 3.80100 35.12300
H  10.72100 2.11600 34.69900
H  4.84800 7.87100 28.77800
H  4.65300 6.75900 30.11600
H  3.56100 6.66700 28.83200
H  3.54200 7.37000 26.44300
H  4.10700 8.37000 25.11700
H  4.90400 8.66500 26.59500
H  8.63800 3.15000 23.39100
H  8.96300 0.20300 23.77200
H  6.92900 0.82900 22.82900
H  6.95800 2.55400 22.29700
H  6.09900 2.18600 23.76000
H  10.82800 1.53900 22.74600
H  11.38500 0.50500 24.00300
H  12.39400 2.61600 24.66300
H  11.01300 2.86800 25.42500
H  11.19700 3.46500 23.70900
H  11.76000 -2.34500 27.17100
H  10.57400 -3.30000 28.02500
H  12.15900 -2.66400 28.75800
H  11.16300 0.58100 32.75000
H  10.21100 -2.09200 35.90500
H  8.65200 -2.29600 35.01600
H  8.95400 -1.07000 36.20600
Mg 35.29900 48.48900 24.80200
C  35.53100 46.86400 27.88700
C  33.57700 50.95100 26.33500
C  34.82800 49.82000 21.78300
C  36.34500 45.52300 23.19800
N  34.54700 48.83000 26.89600
C  34.96400 48.11500 28.00500
C  34.71600 48.94900 29.34200
C  33.92000 50.13800 28.83400
C  33.95600 49.98700 27.26000
C  32.48000 50.06600 29.32400
C  35.98400 49.38600 30.05400
C  36.02400 49.66600 31.55000
H  34.72600 49.47800 32.39700
N  34.43000 50.24300 24.13900
C  33.80000 51.11400 24.93300
C  33.35200 52.22000 24.11300
C  33.61200 51.84700 22.76400
C  34.38200 50.62500 22.84500
C  32.63800 53.46900 24.66200
C  33.03000 52.41600 21.45100
O  33.23200 51.85200 20.36700
C  32.25600 53.73700 21.47100
N  35.46700 47.70600 22.85000
C  35.28300 48.50800 21.74100
C  35.70200 47.85100 20.41800
C  36.57600 46.65400 20.98800
C  36.07900 46.55400 22.44000
C  34.56300 47.31500 19.54100
C  38.15700 46.78800 20.82200
C  38.76500 46.53100 19.42700
N  35.80400 46.51900 25.41100
C  36.27600 45.46200 24.68900
C  36.61500 44.41600 25.58700
C  36.38500 44.92100 26.85200
C  35.81600 46.17100 26.71800
C  37.12800 43.07400 25.23800
C  36.49700 44.59100 28.28600
O  36.85700 43.57500 28.80500
C  35.92100 45.93200 29.00400
C  34.70500 45.40500 29.81300
O  33.74800 44.88300 29.28800
O  34.89400 45.54500 31.21300
C  34.04100 44.96500 32.13500
H  32.89400 51.72300 26.69600
H  34.83600 50.37000 20.83900
H  36.83500 44.67900 22.70900
H  34.16400 48.50400 30.16900
H  34.36300 51.09300 29.11500
H  32.34200 50.69400 30.20400
H  32.09300 49.11800 29.69900
H  31.81400 50.43200 28.54300
H  36.41600 50.19000 29.45800
H  36.58800 48.49400 29.88200
H  36.32600 50.70900 31.64300
H  36.73500 48.92800 31.92200
H  31.55400 53.35300 24.63300
H  32.98100 54.39400 24.19700
H  32.93700 53.59000 25.70300
H  32.90500 54.53400 21.83700
H  31.33100 53.78200 22.04600
H  32.16800 54.01300 20.42000
H  36.30900 48.60700 19.91900
H  36.17400 45.79400 20.45100
H  34.44400 47.96700 18.67500
H  33.59800 47.46800 20.02500
H  34.73700 46.30700 19.16300
H  38.50100 45.93000 21.40000
H  38.55100 47.67400 21.31900
H  37.99300 46.40600 18.66700
H  39.38300 45.63300 19.44300
H  39.49000 47.32200 19.23500
H  37.94200 42.91200 25.94400
H  37.50600 42.96500 24.22100
H  36.43100 42.27600 25.49300
H  36.71900 46.30100 29.64900
H  33.17500 44.49600 31.66800
H  33.70000 45.77500 32.78000
H  34.56500 44.25300 32.77200

