158

Mg 43.31400 42.26400 26.78400
C  42.15500 44.46300 29.30500
C  44.31200 40.18900 29.39100
C  44.76600 40.40000 24.49800
C  43.06900 44.96200 24.54800
N  43.23500 42.24000 29.05300
C  42.55200 43.22400 29.82400
C  42.52400 42.96800 31.38100
C  43.49600 41.73600 31.43900
C  43.75400 41.36600 29.87200
C  44.84000 41.90700 32.28500
C  41.07200 42.82100 31.86100
C  40.65700 43.38100 33.19900
H  41.58900 43.37300 34.35600
N  44.33900 40.46300 26.92100
C  44.65000 39.77300 28.05700
C  45.26200 38.51700 27.60800
C  45.15100 38.45600 26.22600
C  44.76500 39.79200 25.77500
C  45.67900 37.39300 28.48600
C  45.44200 37.29200 25.17300
O  45.25300 37.53500 23.95400
C  45.64800 35.90000 25.58400
N  43.84800 42.59700 24.73200
C  44.35400 41.63400 24.05000
C  44.45100 41.97200 22.60200
C  43.77200 43.45000 22.61800
C  43.52900 43.73700 23.99800
C  45.81900 41.84700 21.91400
C  42.47300 43.56000 21.65900
C  41.16200 42.82500 22.13600
N  42.73900 44.26500 26.88200
C  42.57400 45.22000 25.87700
C  42.05000 46.49200 26.43400
C  41.76300 46.18200 27.73400
C  42.28500 44.89900 27.99200
C  41.73000 47.71900 25.67500
C  41.09500 46.68200 28.95300
O  40.44000 47.72400 29.08800
C  41.41900 45.62700 30.01000
C  42.20300 46.39200 31.00100
O  43.39700 46.62900 30.87500
O  41.43500 46.74200 32.14000
C  42.14400 47.41200 33.18400
H  44.72100 39.57500 30.19600
H  45.26000 39.75600 23.76800
H  42.95900 45.82000 23.88300
H  43.08300 43.78800 31.83200
H  42.95600 40.93400 31.94200
H  45.02600 42.92100 32.63900
H  45.60900 41.60200 31.57500
H  45.01100 41.27100 33.15300
H  40.95200 41.73900 31.90200
H  40.42200 43.09700 31.03100
H  39.74100 42.93600 33.58800
H  40.48000 44.43400 32.98400
H  45.67200 37.87900 29.46200
H  46.67700 37.02000 28.26000
H  44.92700 36.60500 28.49900
H  46.32000 35.66000 26.40700
H  45.85100 35.35000 24.66500
H  44.65000 35.63300 25.93200
H  43.81900 41.25800 22.07400
H  44.44000 44.25400 22.30800
H  46.55900 41.50300 22.63600
H  45.98700 42.89800 21.67900
H  45.93200 41.35600 20.94800
H  42.81600 43.19200 20.69200
H  42.28500 44.62000 21.48900
H  41.17700 42.67700 23.21600
H  40.88900 41.90500 21.61900
H  40.33700 43.51200 21.95000
H  42.51900 47.73600 24.92400
H  41.75700 48.53000 26.40300
H  40.76200 47.65700 25.17600
H  40.47600 45.25200 30.41000
H  42.42100 48.41000 32.84400
H  43.03600 46.83500 33.42500
H  41.45800 47.48000 34.02800
Mg -11.23100 37.91900 41.88800
C  -9.67400 35.03800 40.85100
C  -8.64700 39.88600 40.63500
C  -13.08600 40.86900 42.36500
C  -14.02800 36.07300 43.02300
N  -9.35800 37.47400 40.91300
C  -8.93900 36.26400 40.48700
C  -7.53600 36.39100 39.80300
C  -7.10900 37.82400 40.20200
C  -8.44600 38.44900 40.61900
C  -5.96700 37.90500 41.35700
C  -7.53600 35.94400 38.26900
C  -6.45100 34.89100 37.91500
H  -5.47500 35.29400 36.80100
N  -10.90500 40.07000 41.53400
C  -9.79300 40.66200 41.03500
C  -9.95300 42.09200 40.87600
C  -11.19300 42.41800 41.48300
C  -11.80300 41.09700 41.84800
C  -8.83900 42.98300 40.35900
C  -11.67600 43.83300 41.76400
O  -11.06500 44.83600 41.39400
C  -12.95000 44.20400 42.40600
N  -13.36400 38.35700 42.46600
C  -13.75700 39.66500 42.65600
C  -15.00600 39.74200 43.45300
C  -15.42600 38.19900 43.71600
C  -14.29100 37.47500 42.97500
C  -14.91400 40.56000 44.81700
C  -16.83600 37.83900 43.17000
C  -17.62400 37.06200 44.21500
N  -11.78700 35.94700 42.06100
C  -12.95000 35.31000 42.45500
C  -12.65700 33.87600 42.34700
C  -11.40500 33.70600 41.77800
C  -10.95900 35.04000 41.61000
C  -13.64100 32.81200 42.70300
C  -10.46900 32.76600 41.26900
O  -10.45500 31.56800 41.36300
C  -9.36700 33.56900 40.58300
C  -8.04000 33.11100 41.08000
O  -7.12500 32.82500 40.32600
O  -7.98100 33.09800 42.45800
C  -6.67100 32.83200 43.02500
H  -7.73800 40.36300 40.26300
H  -13.73400 41.74400 42.45300
H  -14.71700 35.52200 43.66600
H  -6.91800 35.64600 40.30500
H  -6.73600 38.25000 39.27100
H  -6.38500 38.50400 42.16500
H  -5.05400 38.43600 41.08900
H  -5.76700 36.86900 41.63300
H  -7.46400 36.77400 37.56600
H  -8.53700 35.54000 38.11800
H  -6.97800 33.95800 37.71600
H  -5.84700 34.73600 38.80900
H  -8.67200 43.85600 40.99100
H  -8.95000 43.26000 39.31100
H  -7.86300 42.50400 40.44300
H  -12.97500 45.26800 42.64600
H  -13.06100 43.86700 43.43700
H  -13.81600 43.95700 41.79200
H  -15.67800 40.25700 42.76700
H  -15.37900 37.87800 44.75700
H  -15.38400 41.53300 44.67600
H  -13.88500 40.88000 44.97500
H  -15.41600 40.01700 45.61900
H  -16.62200 37.32200 42.23400
H  -17.36500 38.70600 42.77600
H  -17.30000 37.23500 45.24100
H  -17.27500 36.04400 44.04500
H  -18.69400 37.16900 44.03200
H  -13.25200 31.82000 42.47200
H  -14.58100 32.98800 42.17900
H  -13.72900 32.89300 43.78600
H  -9.44200 33.31800 39.52500
H  -5.99500 33.68700 42.99600
H  -6.24100 32.05200 42.39600
H  -6.77100 32.53600 44.06900

