158

Mg 1.53200 41.99100 25.01500
C  2.90300 42.09100 28.21400
C  -1.44500 41.34700 26.55500
C  0.29600 41.56400 21.99200
C  4.74300 42.62600 23.68200
N  0.83900 41.70000 27.18300
C  1.52800 41.85200 28.31400
C  0.66800 41.93100 29.51600
C  -0.67100 41.35300 28.92800
C  -0.43300 41.50100 27.44200
C  -1.21500 39.96900 29.34700
C  0.44200 43.29300 30.15500
C  1.20800 43.54700 31.44700
H  0.29700 43.62200 32.72400
N  -0.24300 41.57400 24.35900
C  -1.42100 41.37600 25.17100
C  -2.52600 41.07000 24.30500
C  -2.11800 41.29900 22.99000
C  -0.60200 41.47000 23.06000
C  -3.92900 40.77700 24.78000
C  -2.95600 41.30200 21.70600
O  -2.53200 41.47500 20.58700
C  -4.43000 41.21400 21.72700
N  2.44800 41.96500 23.11900
C  1.67600 41.83200 22.00700
C  2.36600 42.20100 20.76700
C  3.72300 42.82100 21.34500
C  3.66700 42.40500 22.78600
C  2.62900 40.99600 19.85200
C  3.80200 44.33200 21.15100
C  4.56600 44.79900 19.84900
N  3.51100 42.29700 25.76600
C  4.67000 42.58400 25.09000
C  5.77600 42.75500 26.06400
C  5.08100 42.52400 27.28100
C  3.72200 42.22100 27.05900
C  7.18700 43.04100 25.52400
C  5.35100 42.57700 28.71400
O  6.33600 42.76600 29.43000
C  3.94900 42.27100 29.31200
C  4.08500 40.96400 30.05500
O  4.64700 39.96700 29.56800
O  3.49900 41.01400 31.26700
C  3.14200 39.76900 31.94400
H  -2.45900 41.28800 26.95500
H  -0.18300 41.55200 21.01000
H  5.68100 42.83800 23.16400
H  1.08200 41.22200 30.23400
H  -1.48900 42.02700 29.18400
H  -1.07600 39.16100 28.62900
H  -2.27200 39.99400 29.61300
H  -0.75400 39.58700 30.25800
H  -0.58400 43.53700 30.43300
H  0.67000 44.10900 29.46900
H  1.87000 44.40000 31.30000
H  1.84800 42.70600 31.71400
H  -4.16500 39.85300 24.25300
H  -4.67000 41.54200 24.54700
H  -4.04900 40.74200 25.86200
H  -4.91400 41.41800 20.77200
H  -4.77600 41.99900 22.40000
H  -4.65300 40.24000 22.16200
H  1.84100 43.04800 20.32600
H  4.63200 42.37000 20.94900
H  1.87100 40.23100 20.02000
H  3.63700 40.60100 19.97800
H  2.46500 41.20100 18.79400
H  4.60800 44.58200 21.84100
H  2.88000 44.84300 21.42900
H  5.36900 45.45600 20.18300
H  3.88200 45.35700 19.21000
H  4.97000 43.97700 19.25900
H  7.64900 43.93200 25.94900
H  7.12200 43.16000 24.44200
H  7.84500 42.17700 25.62400
H  3.63100 43.02900 30.02700
H  3.57400 39.65100 32.93800
H  3.20900 38.87700 31.32100
H  2.09400 40.01300 32.11800
Mg -6.40700 24.71200 26.19000
C  -4.85100 25.80000 29.24500
C  -8.50800 22.78500 28.03000
C  -7.45500 23.35500 23.25800
C  -4.16900 26.70700 24.48800
N  -6.74200 24.44100 28.37500
C  -6.00000 24.93700 29.45500
C  -6.66500 24.57900 30.79600
C  -7.74900 23.51200 30.41200
C  -7.76300 23.66700 28.85500
C  -7.48800 22.08600 30.99000
C  -7.06200 25.84300 31.65800
C  -6.53000 26.01300 33.04700
H  -5.87000 24.85500 33.85100
N  -7.82100 23.22600 25.73400
C  -8.58300 22.55700 26.63900
C  -9.44800 21.66100 25.90500
C  -9.18700 21.83900 24.48800
C  -8.09300 22.79500 24.45000
C  -10.45500 20.80000 26.59100
C  -9.94000 21.29000 23.28700
O  -9.51700 21.37600 22.13400
C  -11.13400 20.37500 23.56600
N  -5.82600 24.90400 24.23200
C  -6.38800 24.25300 23.17200
C  -5.78200 24.65800 21.81800
C  -4.71100 25.71700 22.26900
C  -4.86800 25.82300 23.74500
C  -5.17000 23.43400 21.01700
C  -4.81300 27.00200 21.51900
C  -4.11900 27.00900 20.12900
N  -4.86400 25.94400 26.70800
C  -4.06100 26.76000 25.85300
C  -3.10800 27.51600 26.66100
C  -3.42500 27.17000 27.94700
C  -4.45000 26.23700 27.95800
C  -2.06000 28.38700 26.10200
C  -3.02000 27.41700 29.31900
O  -2.15200 28.09200 29.74700
C  -3.92000 26.48800 30.20700
C  -3.06500 25.55900 30.93500
O  -2.67100 24.45000 30.52000
O  -2.65900 26.10500 32.12400
C  -1.58800 25.49100 32.83300
H  -9.04300 22.05900 28.64500
H  -7.88400 22.95900 22.33500
H  -3.40200 27.29800 23.98300
H  -5.93800 24.12400 31.46900
H  -8.75500 23.79400 30.72500
H  -7.31300 21.26900 30.29100
H  -8.30800 21.79400 31.64700
H  -6.58000 22.15300 31.58800
H  -8.15100 25.84700 31.71200
H  -6.76700 26.73000 31.09800
H  -7.32600 26.44200 33.65500
H  -5.73500 26.74400 32.90000
H  -11.44500 21.23900 26.46900
H  -10.30500 20.77400 27.67000
H  -10.49700 19.75900 26.27200
H  -11.45400 19.97100 22.60500
H  -11.92400 21.01500 23.96000
H  -11.01900 19.50300 24.21000
H  -6.60600 25.12600 21.28000
H  -3.69900 25.31300 22.23000
H  -5.19900 22.47600 21.53700
H  -4.09000 23.53300 20.91000
H  -5.58700 23.36000 20.01300
H  -4.51300 27.85100 22.13300
H  -5.88300 27.17300 21.39800
H  -3.54700 27.92900 20.00700
H  -4.89600 26.85400 19.38000
H  -3.45200 26.15700 20.00100
H  -1.57100 29.01300 26.84700
H  -2.35100 29.08000 25.31200
H  -1.24900 27.80100 25.67000
H  -4.44200 27.21100 30.83400
H  -1.33100 24.49500 32.47100
H  -1.95700 25.40200 33.85500
H  -0.59300 25.93500 32.84400

