158

Mg 47.07100 44.47500 43.52000
C  43.52000 44.13800 43.14400
C  47.19500 41.06900 42.58900
C  50.41400 44.76700 43.25200
C  46.70100 47.92100 43.58600
N  45.53200 42.84600 42.92000
C  44.22000 42.95200 42.88200
C  43.60800 41.60300 42.68200
C  44.72600 40.54000 42.77800
C  45.92500 41.54900 42.75700
C  44.68200 39.44400 43.88400
C  42.61400 41.34500 41.45500
C  42.86600 42.14800 40.15700
H  42.89700 41.44700 38.85100
N  48.66400 43.14400 43.00200
C  48.43300 41.84700 42.54900
C  49.73700 41.25500 42.27600
C  50.71000 42.25200 42.52600
C  49.97000 43.45000 42.96400
C  49.89600 39.75800 42.01300
C  52.16500 42.04000 42.49700
O  52.62200 41.04900 41.92500
C  53.15600 43.05300 43.05500
N  48.44900 46.12800 43.58800
C  49.76000 46.02200 43.51000
C  50.46300 47.34600 43.45600
C  49.26700 48.30200 43.15400
C  48.06200 47.41900 43.44800
C  51.18000 47.62900 44.74000
C  49.26600 48.97600 41.78600
C  49.66700 50.45000 41.77600
N  45.49300 45.83200 43.47900
C  45.44300 47.19100 43.61800
C  44.07300 47.59900 43.94600
C  43.31700 46.43800 43.70100
C  44.16600 45.36000 43.44800
C  43.64300 49.09600 44.25300
C  41.98600 45.93100 43.65100
O  40.94100 46.52000 43.78500
C  42.01300 44.43300 43.26700
C  41.35300 43.58900 44.22600
O  40.71300 42.63200 43.95600
O  41.43100 44.00900 45.49500
C  41.16000 42.99600 46.47100
H  47.12500 40.01400 42.31500
H  51.49800 44.89300 43.21600
H  46.77600 49.00900 43.64300
H  43.06400 41.56400 43.62600
H  44.76500 40.04200 41.80800
H  43.66400 39.40700 44.27300
H  45.33400 39.60100 44.74300
H  44.91000 38.60500 43.22600
H  41.59100 41.47900 41.80700
H  42.74200 40.26700 41.36000
H  43.76800 42.75900 40.16400
H  42.09700 42.91900 40.10900
H  50.00600 39.52800 40.95300
H  49.11400 39.17300 42.49800
H  50.81700 39.48900 42.53000
H  53.33000 43.87000 42.35400
H  54.09000 42.52400 43.24200
H  52.78200 43.38700 44.02300
H  51.16800 47.31600 42.62600
H  49.33500 49.15000 43.83500
H  51.44200 46.73500 45.30500
H  50.72100 48.37100 45.39400
H  52.17500 48.02900 44.55000
H  48.28900 48.88700 41.31000
H  49.91000 48.42400 41.10100
H  50.11400 50.75800 42.72200
H  48.75900 51.04500 41.67000
H  50.35900 50.70200 40.97300
H  43.29100 49.59300 43.34900
H  44.42400 49.73300 44.66800
H  42.78100 49.01900 44.91500
H  41.56300 44.36600 42.27600
H  41.41300 41.97700 46.17900
H  40.08300 42.98800 46.63400
H  41.66700 43.24900 47.40200
Mg -11.31200 38.89500 42.04700
C  -9.78500 36.04600 40.56800
C  -8.92200 40.75700 40.42200
C  -13.18700 41.68100 42.62200
C  -13.94300 36.88200 42.91600
N  -9.69300 38.42900 40.40400
C  -9.12100 37.20400 40.16800
C  -7.80500 37.36300 39.44200
C  -7.50700 38.86900 39.46200
C  -8.79000 39.42000 40.06700
C  -6.21800 39.19800 40.29500
C  -7.91700 36.85000 37.95500
C  -6.73600 36.05800 37.35600
H  -6.07900 36.70500 36.17300
N  -11.10500 40.89700 41.56600
C  -10.01900 41.48500 40.95500
C  -10.28100 42.91400 40.80100
C  -11.42600 43.22300 41.53000
C  -12.02400 41.93600 41.83800
C  -9.27000 43.78700 40.09900
C  -11.90000 44.62400 41.74800
O  -11.18900 45.58100 41.44200
C  -13.17200 44.96300 42.53300
N  -13.24800 39.22400 42.62100
C  -13.71800 40.42100 42.97700
C  -15.11200 40.39200 43.68300
C  -15.38400 38.80600 43.69000
C  -14.11200 38.24800 43.09600
C  -15.22200 41.06700 45.08100
C  -16.57900 38.34000 42.74900
C  -17.83800 38.02300 43.55200
N  -11.73600 36.87100 42.03800
C  -12.90400 36.15200 42.33700
C  -12.76300 34.77100 42.10600
C  -11.55200 34.69000 41.42000
C  -10.96100 35.94500 41.36300
C  -13.79900 33.74500 42.35700
C  -10.67400 33.78500 40.70900
O  -10.78400 32.57100 40.55900
C  -9.41000 34.59100 40.25600
C  -8.27400 34.15700 41.09700
O  -8.17300 34.02500 42.29300
O  -7.15100 33.98800 40.33000
C  -5.81800 33.93500 40.88700
H  -8.12600 41.46700 40.18700
H  -13.76100 42.52800 43.00300
H  -14.64500 36.15800 43.33500
H  -7.06500 36.78200 39.99100
H  -7.53300 39.33200 38.47600
H  -5.65500 39.87500 39.65200
H  -5.68900 38.27400 40.53100
H  -6.44400 39.75300 41.20500
H  -8.04600 37.74600 37.34900
H  -8.83600 36.29800 37.76100
H  -7.11300 35.07900 37.05900
H  -6.03600 35.96700 38.18700
H  -8.56000 44.21200 40.80900
H  -9.78400 44.63200 39.64100
H  -8.73200 43.26400 39.30800
H  -12.98200 44.55200 43.52500
H  -13.99600 44.52400 41.97200
H  -13.33100 46.03900 42.60300
H  -15.77800 40.95600 43.03100
H  -15.33200 38.42800 44.71100
H  -16.12300 41.68000 45.10900
H  -14.32800 41.68700 45.15500
H  -15.34300 40.29100 45.83700
H  -16.30400 37.45500 42.17500
H  -16.75900 39.19400 42.09700
H  -18.64400 38.42300 42.93800
H  -17.77700 38.54300 44.50800
H  -18.04200 36.96900 43.74600
H  -14.79800 34.17200 42.27300
H  -13.64200 33.37800 43.37100
H  -13.65100 32.88300 41.70700
H  -9.17500 34.30600 39.23000
H  -5.22000 34.65300 40.32700
H  -5.38400 32.95100 40.70900
H  -5.67200 34.17600 41.94000

