158

Mg -2.15600 17.04600 26.64000
C  -2.60000 14.83800 29.36300
C  -2.56500 19.63000 28.83800
C  -2.39100 19.14800 23.98600
C  -2.56500 14.42200 24.45500
N  -2.41300 17.12800 28.88400
C  -2.58800 16.17800 29.75200
C  -2.81700 16.68800 31.08900
C  -3.03700 18.21700 30.98200
C  -2.69100 18.35500 29.44300
C  -4.49100 18.80900 31.27100
C  -1.75700 16.24100 32.18300
C  -1.05600 17.17700 33.09400
H  -0.38300 16.59700 34.26500
N  -2.33700 19.12800 26.46800
C  -2.41600 20.02800 27.48100
C  -2.50000 21.40900 26.94600
C  -2.33000 21.33100 25.49200
C  -2.31600 19.85900 25.25300
C  -2.73700 22.57300 27.91200
C  -2.13500 22.45200 24.47100
O  -1.90100 22.12800 23.28000
C  -2.19800 23.88500 24.80300
N  -2.45000 16.83300 24.45900
C  -2.51000 17.84100 23.59500
C  -2.96700 17.35700 22.19600
C  -2.77200 15.83100 22.29200
C  -2.59700 15.64200 23.78000
C  -4.40900 17.87000 21.89700
C  -1.54300 15.28600 21.50900
C  -1.72500 13.99600 20.71700
N  -2.43700 15.02100 26.85200
C  -2.54500 14.06900 25.84900
C  -2.73600 12.78700 26.36400
C  -2.73500 13.08000 27.82300
C  -2.53800 14.43500 28.02000
C  -3.01300 11.44900 25.62100
C  -3.01400 12.41100 29.05200
O  -3.32900 11.25100 29.34700
C  -2.86000 13.54200 30.14000
C  -1.97600 13.28800 31.27200
O  -0.77900 13.25000 31.14400
O  -2.72800 12.99700 32.43900
C  -1.98500 12.62900 33.63700
H  -2.86200 20.47100 29.46700
H  -2.45600 19.79900 23.11200
H  -2.77700 13.52200 23.87500
H  -3.75300 16.27500 31.46500
H  -2.41800 18.78000 31.68100
H  -5.14000 18.15300 31.85000
H  -5.07000 18.97200 30.36200
H  -4.30100 19.73300 31.81800
H  -0.99900 15.70100 31.61600
H  -2.22900 15.55600 32.88800
H  -1.76000 17.97800 33.32000
H  -0.22900 17.58500 32.51300
H  -2.52900 23.52700 27.42700
H  -2.25000 22.53200 28.88700
H  -3.82100 22.46900 27.96300
H  -2.44800 24.37800 23.86300
H  -1.31700 24.23900 25.33900
H  -3.16000 23.97500 25.30800
H  -2.23400 17.77400 21.50500
H  -3.71000 15.41500 21.92400
H  -4.72400 18.63400 22.60700
H  -5.09700 17.02800 21.97500
H  -4.52800 18.32500 20.91300
H  -0.67100 15.19000 22.15700
H  -1.19300 15.99100 20.75600
H  -0.80800 13.43500 20.89800
H  -1.84700 14.22900 19.65900
H  -2.59200 13.39500 20.99300
H  -2.08300 10.89000 25.73200
H  -3.18500 11.66000 24.56500
H  -3.80600 10.90100 26.13000
H  -3.86200 13.48200 30.56500
H  -2.70500 12.86900 34.42000
H  -1.04500 13.16300 33.77800
H  -1.86600 11.55200 33.51900
Mg 31.39200 59.14100 40.55400
C  28.63900 57.18300 39.78700
C  33.43400 56.57300 39.49600
C  33.98800 61.12700 40.88900
C  29.23800 61.90700 41.07000
N  31.04500 57.15300 39.72800
C  29.82600 56.50000 39.54700
C  30.01700 55.10400 38.97200
C  31.50500 54.83300 39.25500
C  32.04000 56.24800 39.53100
C  31.73900 53.78400 40.39400
C  29.61600 55.12400 37.44600
C  28.48300 54.16700 36.97800
H  27.52500 54.74800 35.89600
N  33.44800 58.92400 40.29900
C  34.07900 57.80700 39.82600
C  35.43500 58.11100 39.65800
C  35.65000 59.37500 40.16200
C  34.34200 59.89100 40.44500
C  36.30800 57.15700 38.74500
C  37.04600 60.04800 40.22900
O  38.03700 59.35200 39.98200
C  37.38200 61.46900 40.53500
N  31.53300 61.40100 40.77000
C  32.80200 61.77300 41.17200
C  32.69500 63.20700 41.85800
C  31.11600 63.47700 41.72900
C  30.56000 62.17300 41.19000
C  33.27900 63.22800 43.28500
C  30.67500 64.59000 40.65000
C  29.45500 65.41500 40.96600
N  29.35400 59.49900 40.48600
C  28.63900 60.65300 40.73700
C  27.21500 60.31200 40.68200
C  27.11300 58.97800 40.36100
C  28.44800 58.52300 40.21800
C  26.08200 61.20900 40.86100
C  26.20600 57.86600 40.12600
O  24.98500 57.72800 40.20600
C  27.17600 56.58900 39.68400
C  27.09900 55.45600 40.59400
O  27.69200 55.33900 41.62400
O  26.29800 54.46100 40.05000
C  26.23100 53.24000 40.90900
H  34.05700 55.69400 39.31700
H  34.85600 61.70400 41.21600
H  28.59800 62.64400 41.55900
H  29.43500 54.46500 39.63600
H  31.85200 54.40600 38.31400
H  31.21500 54.30800 41.19300
H  32.82500 53.85600 40.46100
H  31.32400 52.78100 40.29600
H  30.55100 55.02200 36.89600
H  29.26800 56.13100 37.21900
H  27.97800 53.87100 37.89800
H  28.88600 53.26000 36.52800
H  35.61800 56.63000 38.08700
H  36.89700 56.49000 39.37600
H  37.01600 57.69100 38.11200
H  37.30500 61.56600 41.61800
H  36.68600 62.11900 40.00600
H  38.34900 61.69700 40.08600
H  33.11200 63.98000 41.21200
H  30.73300 63.83100 42.68600
H  33.81100 62.27700 43.32900
H  32.55700 63.25800 44.10100
H  33.94400 64.08500 43.38600
H  30.19000 63.99100 39.88000
H  31.47800 65.21900 40.26500
H  29.12500 65.27300 41.99600
H  28.55800 65.19000 40.39100
H  29.72700 66.45200 40.77200
H  25.30000 60.82700 40.20400
H  26.28400 62.26200 40.66800
H  25.76100 61.21500 41.90300
H  27.16500 56.24900 38.64900
H  25.20200 52.88300 40.96100
H  26.55600 53.37600 41.94000
H  26.87000 52.54800 40.36000

