158

Mg 45.40900 2.88500 47.99500
C  43.20000 5.67700 47.10800
C  42.58900 0.87600 48.09600
C  47.39500 0.37500 48.04800
C  48.01000 5.22200 47.37500
N  43.15400 3.22800 47.44600
C  42.50300 4.40700 47.22500
C  40.95300 4.24700 47.21300
C  40.86000 2.68400 47.59800
C  42.28900 2.23000 47.79100
C  40.04700 2.49000 48.91600
C  40.29300 4.47400 45.80800
C  39.33100 5.60400 45.55900
H  39.62300 6.56300 44.34300
N  45.03100 0.85800 48.09800
C  43.82400 0.14600 48.19400
C  44.01400 -1.18600 48.36900
C  45.41700 -1.37400 48.24000
C  46.05100 -0.07000 48.10300
C  42.91600 -2.24400 48.30200
C  46.09200 -2.78900 48.31900
O  45.41500 -3.83900 48.57300
C  47.50400 -2.88700 48.12100
N  47.38700 2.72300 47.40500
C  48.00100 1.60400 47.75000
C  49.57700 1.86300 47.55600
C  49.65900 3.35500 47.35600
C  48.25600 3.84100 47.36800
C  50.47800 1.24100 48.70300
C  50.47600 3.85100 46.13600
C  51.85500 4.54900 46.52100
N  45.65200 5.05400 47.40800
C  46.75200 5.80400 47.34400
C  46.35800 7.19700 47.26200
C  44.99200 7.22300 47.14300
C  44.57100 5.86600 47.19500
C  47.24000 8.38900 47.31000
C  43.80500 8.05800 46.89300
O  43.67100 9.24100 46.70100
C  42.59000 7.07400 47.07300
C  41.80300 7.44500 48.34000
O  41.89100 6.96200 49.47200
O  40.99400 8.53500 47.98600
C  40.05200 8.94600 49.00500
H  41.67800 0.27500 48.08200
H  48.17300 -0.39100 48.05900
H  48.84100 5.93000 47.37700
H  40.41500 4.89100 47.90800
H  40.39600 2.07400 46.82200
H  39.48900 3.40900 49.09600
H  40.66100 2.30700 49.79800
H  39.30400 1.70400 48.78300
H  39.81300 3.54800 45.49000
H  41.07000 4.60900 45.05600
H  39.21500 6.31700 46.37500
H  38.40000 5.05300 45.42700
H  43.23500 -3.01100 49.00800
H  43.06500 -2.69300 47.32000
H  41.89300 -1.95600 48.54000
H  47.78200 -3.94100 48.13400
H  48.04900 -2.38600 48.92100
H  47.94300 -2.52900 47.19000
H  49.89700 1.35800 46.64400
H  50.20000 3.77000 48.20600
H  51.00800 0.37300 48.31100
H  49.89100 1.01500 49.59200
H  51.21900 1.98800 48.98900
H  49.81400 4.42200 45.48500
H  50.82500 2.98100 45.57900
H  51.78400 5.56700 46.13700
H  52.67800 3.92100 46.18100
H  51.99000 4.60000 47.60200
H  48.25700 8.07000 47.08000
H  47.17200 8.84000 48.30000
H  46.89900 9.15200 46.61000
H  41.94000 7.25700 46.21700
H  40.29400 10.00900 49.02700
H  40.22300 8.45900 49.96500
H  39.00700 8.87100 48.70200
Mg 47.48800 16.22400 28.05300
C  45.64600 15.76700 30.93000
C  50.01500 17.78400 29.80400
C  49.30000 16.50900 25.10200
C  44.78100 15.00600 26.21000
N  47.74700 16.81000 30.10600
C  46.90900 16.37100 31.11600
C  47.45900 16.80800 32.45500
C  48.64700 17.73900 32.10200
C  48.81800 17.51200 30.56900
C  48.59700 19.29400 32.41900
C  47.91700 15.69100 33.42900
C  48.40600 16.13200 34.83900
H  48.14900 17.59700 35.30200
N  49.37500 16.90700 27.55600
C  50.29400 17.43800 28.44700
C  51.55400 17.67700 27.79000
C  51.32600 17.39600 26.43800
C  49.92700 16.89200 26.27700
C  52.83800 18.11000 28.51500
C  52.30800 17.52600 25.27100
O  52.00900 17.36400 24.14500
C  53.75800 17.97300 25.59600
N  47.08200 15.79400 25.98400
C  47.98400 16.01800 24.93500
C  47.37400 15.68900 23.57200
C  46.03100 14.96300 24.02200
C  45.92900 15.23400 25.47600
C  47.09300 16.94100 22.65900
C  46.07300 13.40600 23.77600
C  44.93700 12.92100 22.88000
N  45.44700 15.81500 28.47500
C  44.51700 15.24100 27.61300
C  43.35300 14.83400 28.44200
C  43.72500 15.14100 29.71700
C  45.05200 15.66600 29.67300
C  42.08800 14.19500 27.93900
C  43.31000 15.02100 31.05500
O  42.29800 14.61600 31.54900
C  44.59300 15.37800 31.92400
C  44.30200 16.46100 32.93300
O  44.09900 17.66100 32.64100
O  44.44400 15.92200 34.20600
C  44.03200 16.74200 35.37300
H  50.79800 18.15400 30.46900
H  49.80800 16.75000 24.16600
H  43.97000 14.51900 25.66500
H  46.70900 17.43900 32.93200
H  49.59100 17.31800 32.44900
H  48.98800 19.82900 31.55300
H  49.15300 19.51900 33.32900
H  47.56800 19.60200 32.60600
H  48.64900 15.02900 32.96600
H  47.08700 14.98700 33.50000
H  49.45600 15.84900 34.90500
H  47.88100 15.54400 35.59200
H  53.53100 17.31200 28.25000
H  52.72800 18.24600 29.59100
H  53.23000 19.04700 28.12000
H  53.92200 19.03000 25.80500
H  54.27900 17.77600 24.65900
H  54.33100 17.28100 26.21400
H  48.04900 15.02900 23.02800
H  45.26600 15.50800 23.47000
H  47.83800 17.73600 22.66700
H  46.14900 17.43000 22.90000
H  46.99300 16.61400 21.62400
H  45.95300 12.92800 24.74800
H  47.01700 13.07100 23.34600
H  44.14400 12.35500 23.37000
H  45.33900 12.22000 22.15000
H  44.43700 13.73500 22.35400
H  42.10700 13.10600 27.98500
H  41.94200 14.55800 26.92200
H  41.21600 14.34200 28.57700
H  44.98200 14.50000 32.43900
H  43.17200 17.37700 35.16300
H  44.84200 17.31600 35.82300
H  43.74000 16.03800 36.15200

