158

Mg 43.97800 4.27600 46.79800
C  41.61600 6.75000 46.09400
C  41.57400 1.98400 46.35900
C  46.45200 1.98100 46.54000
C  46.25400 6.79600 47.49100
N  41.96000 4.35500 46.10300
C  41.16200 5.44200 45.81400
C  39.72300 4.99900 45.47900
C  39.66200 3.67000 46.22700
C  41.14000 3.28200 46.23900
C  39.17600 3.81100 47.71800
C  39.36500 4.94500 43.93700
C  38.35100 5.87000 43.44100
H  38.80300 6.54000 42.14100
N  44.00200 2.18200 46.53200
C  42.89400 1.46700 46.45100
C  43.30800 0.04200 46.31300
C  44.74400 -0.00600 46.26700
C  45.14900 1.43200 46.43400
C  42.41700 -1.13900 46.44700
C  45.58300 -1.32500 46.28800
O  45.06300 -2.37400 46.47000
C  47.06900 -1.34200 45.97200
N  46.00800 4.37800 46.88800
C  46.86600 3.28400 46.87600
C  48.31800 3.73000 47.15500
C  48.14700 5.12200 47.70500
C  46.67800 5.47300 47.29400
C  49.17900 2.68800 48.04200
C  49.24700 6.08600 47.18700
C  49.90200 6.93800 48.26000
N  43.97700 6.41500 46.76000
C  44.89300 7.30400 47.19900
C  44.45000 8.65700 47.02300
C  43.10300 8.48000 46.66300
C  42.89500 7.08700 46.51400
C  45.24500 9.92300 47.30100
C  41.89500 9.13600 46.30500
O  41.65000 10.31900 46.33300
C  40.80200 8.09100 46.00900
C  39.84800 8.16700 47.08100
O  39.97800 7.77200 48.28800
O  38.65800 8.77200 46.60200
C  37.44900 8.85100 47.37800
H  40.71400 1.32200 46.23700
H  47.30500 1.30600 46.44300
H  46.94500 7.51600 47.93500
H  38.95300 5.58300 45.98200
H  39.14000 2.88600 45.67900
H  39.88300 3.25300 48.33200
H  38.16900 3.39300 47.72600
H  39.22200 4.77300 48.22900
H  38.93700 3.97000 43.70200
H  40.29200 5.19600 43.42100
H  38.25600 6.61000 44.23600
H  37.43900 5.32600 43.19700
H  42.81600 -1.82900 45.70300
H  41.38100 -0.86100 46.25500
H  42.34000 -1.53300 47.46000
H  47.27000 -0.37600 45.51000
H  47.31800 -2.09900 45.22800
H  47.69800 -1.36400 46.86300
H  48.90400 3.86200 46.24500
H  48.22200 5.17000 48.79100
H  49.54500 3.24000 48.90800
H  49.98600 2.38700 47.37500
H  48.56200 1.86000 48.39100
H  48.89800 6.86500 46.50900
H  50.03100 5.59800 46.60800
H  49.66000 7.98900 48.10400
H  50.96400 6.69600 48.21400
H  49.53500 6.64700 49.24400
H  45.69600 10.27700 46.37400
H  46.12200 9.80600 47.93600
H  44.51100 10.66300 47.62100
H  40.39900 8.19000 45.00100
H  37.49300 8.45800 48.39400
H  36.70000 8.22200 46.89800
H  37.01300 9.84900 47.43400
Mg -9.60700 39.87800 42.62000
C  -8.44900 36.69100 41.60600
C  -6.76200 41.12800 41.22800
C  -10.84500 42.84100 43.12100
C  -12.59400 38.34700 43.57200
N  -7.82100 38.99400 41.46300
C  -7.53800 37.66700 41.20600
C  -6.23000 37.47100 40.41000
C  -5.73100 38.96400 40.36000
C  -6.78900 39.75500 41.09200
C  -4.30500 39.08600 40.89100
C  -6.39300 36.84000 39.05100
C  -5.27500 35.77900 38.62800
H  -4.31500 36.20500 37.48400
N  -8.86000 41.80000 42.30200
C  -7.62000 42.11500 41.79100
C  -7.40000 43.49900 41.84100
C  -8.60900 44.11000 42.37800
C  -9.50100 42.92800 42.62800
C  -6.14700 44.13300 41.20100
C  -8.86200 45.60600 42.53400
O  -8.00900 46.47500 42.41300
C  -10.21600 46.13500 42.91300
N  -11.42500 40.51300 43.08200
C  -11.65900 41.75400 43.32300
C  -13.07600 41.98800 43.87100
C  -13.73300 40.54500 44.00700
C  -12.54400 39.72300 43.50600
C  -13.12100 42.86100 45.22900
C  -15.07800 40.28600 43.21200
C  -16.30000 40.64100 43.96200
N  -10.35500 37.91100 42.70600
C  -11.58800 37.45000 43.13500
C  -11.58100 36.01900 43.20000
C  -10.37300 35.66600 42.54800
C  -9.71100 36.90900 42.22000
C  -12.59600 35.15700 43.71200
C  -9.47300 34.50700 42.22300
O  -9.57900 33.31800 42.37600
C  -8.22400 35.21000 41.59300
C  -7.06400 34.85600 42.51000
O  -6.70800 35.49300 43.51700
O  -6.45800 33.73100 42.00400
C  -5.30300 33.14700 42.74000
H  -5.83400 41.62800 40.94100
H  -11.23500 43.81700 43.41700
H  -13.43800 37.77400 43.96000
H  -5.60300 36.74300 40.92600
H  -5.77300 39.28100 39.31800
H  -3.67700 39.42400 40.06700
H  -3.92000 38.10500 41.17000
H  -4.17800 39.86400 41.64400
H  -6.29600 37.60000 38.27600
H  -7.28200 36.29800 38.72900
H  -5.67000 34.79700 38.36700
H  -4.55000 35.60200 39.42300
H  -5.93200 43.62200 40.26200
H  -5.37700 44.13000 41.97100
H  -6.29200 45.20000 41.03100
H  -11.00900 45.67700 42.32100
H  -10.21300 47.20600 42.71400
H  -10.31500 45.93700 43.98000
H  -13.58100 42.59600 43.12200
H  -13.92200 40.22900 45.03300
H  -12.42800 43.70000 45.29200
H  -13.14600 42.14100 46.04800
H  -14.07200 43.38700 45.15400
H  -15.08900 39.25000 42.87200
H  -15.12000 40.86400 42.28900
H  -16.03900 40.96900 44.96900
H  -16.78900 39.66800 44.00600
H  -16.93700 41.38500 43.48400
H  -12.90900 35.68000 44.61500
H  -12.18300 34.17600 43.94700
H  -13.46400 35.19900 43.05400
H  -8.00900 34.75200 40.62700
H  -4.37500 33.67000 42.50700
H  -5.17800 32.09000 42.50400
H  -5.30100 33.17000 43.82900

