158

Mg 6.13400 53.30900 41.99000
C  6.07500 49.86600 41.24900
C  9.39300 53.45400 40.72500
C  6.11400 56.66800 42.35600
C  2.65100 53.12500 42.73000
N  7.42900 51.87000 40.87000
C  7.23400 50.49500 40.81500
C  8.47400 49.78300 40.14400
C  9.52600 50.96200 40.04600
C  8.77700 52.22100 40.64600
C  10.91500 50.91200 40.77700
C  8.38200 49.04600 38.84500
C  7.47900 49.70600 37.70200
H  6.79500 48.86800 36.59700
N  7.55600 54.88500 41.63800
C  8.83000 54.72100 41.14300
C  9.42100 56.03300 40.98500
C  8.58000 57.00000 41.54700
C  7.37400 56.25300 41.94800
C  10.79800 56.20000 40.39300
C  8.99300 58.45000 41.76500
O  10.10200 58.86000 41.40100
C  8.16300 59.36300 42.55100
N  4.58200 54.62700 42.43700
C  4.86700 55.99600 42.61300
C  3.59800 56.76800 42.91700
C  2.49800 55.70000 43.00300
C  3.27700 54.34400 42.76000
C  3.72400 57.60000 44.16500
C  1.24200 55.97200 42.15600
C  1.26500 55.39900 40.70500
N  4.64300 51.83700 42.10200
C  3.26600 51.84700 42.50400
C  2.81700 50.52600 42.58700
C  3.86400 49.66500 42.22300
C  4.95900 50.57100 41.89400
C  1.44200 50.12600 42.84800
C  4.24800 48.28000 41.96900
O  3.64200 47.21400 42.09500
C  5.65400 48.38300 41.19900
C  5.43300 47.82500 39.84800
O  4.84500 48.38500 38.95400
O  5.99800 46.56800 39.77700
C  5.60600 45.57500 38.75700
H  10.39900 53.49700 40.30200
H  5.98800 57.73500 42.54700
H  1.64200 53.10500 43.14600
H  8.83900 49.08100 40.89400
H  9.71600 51.06500 38.97800
H  11.73000 51.14400 40.09200
H  11.17900 49.92400 41.15500
H  11.04900 51.69200 41.52600
H  7.99600 48.04500 39.03700
H  9.36700 49.02400 38.37900
H  8.11100 50.51600 37.33800
H  6.63800 50.18300 38.20500
H  10.69500 57.00000 39.66000
H  11.23900 55.28700 39.99300
H  11.52100 56.60200 41.10300
H  8.69100 60.28500 42.79600
H  7.82400 58.77600 43.40400
H  7.26100 59.58400 41.98000
H  3.40700 57.53800 42.17000
H  2.06400 55.50300 43.98200
H  3.27000 57.02300 44.97100
H  3.22600 58.54900 43.96900
H  4.78800 57.82700 44.24000
H  1.20600 57.05900 42.08500
H  0.37000 55.66200 42.73000
H  0.27500 54.96200 40.57300
H  2.02700 54.64400 40.50900
H  1.34000 56.26400 40.04600
H  1.35700 49.97100 43.92300
H  1.32600 49.21000 42.26800
H  0.66200 50.84500 42.59700
H  6.45000 47.78100 41.63800
H  6.04300 44.59900 38.96700
H  5.68600 45.87500 37.71200
H  4.53900 45.41700 38.91600
Mg -4.24400 25.45300 26.31800
C  -3.01900 26.29600 29.35800
C  -6.46400 23.14200 27.93800
C  -5.03500 23.92400 23.34400
C  -1.90900 27.46000 24.82400
N  -4.58800 24.77700 28.45300
C  -3.98100 25.32500 29.48800
C  -4.51900 24.68900 30.83400
C  -5.44300 23.53800 30.25900
C  -5.52400 23.81200 28.76900
C  -4.87800 22.14900 30.68100
C  -5.34700 25.82900 31.57200
C  -5.37200 25.90700 33.10800
H  -4.64600 24.76300 33.83300
N  -5.67700 23.87300 25.75100
C  -6.55400 23.16100 26.52400
C  -7.39300 22.30800 25.67700
C  -6.94800 22.42300 24.34400
C  -5.82500 23.38500 24.44400
C  -8.37700 21.39900 26.34900
C  -7.33600 21.69100 23.10600
O  -6.75400 21.90100 21.99500
C  -8.38000 20.60300 23.18800
N  -3.70000 25.71300 24.40100
C  -4.10600 24.96600 23.31000
C  -3.37500 25.33700 22.05500
C  -2.61100 26.71700 22.54100
C  -2.68900 26.59400 24.02400
C  -2.52800 24.19400 21.43200
C  -3.10700 28.12000 21.97800
C  -1.98400 29.28300 21.69000
N  -2.72200 26.66500 26.85600
C  -1.90800 27.44200 26.20100
C  -1.07600 28.23000 27.11000
C  -1.48300 27.82300 28.33900
C  -2.49500 26.92500 28.18500
C  0.02200 29.19900 26.85600
C  -1.21900 27.98300 29.73000
O  -0.39300 28.64000 30.38700
C  -2.21600 26.99200 30.46300
C  -1.35100 26.19600 31.35900
O  -0.87300 25.13500 30.99500
O  -1.12700 26.77800 32.55900
C  -0.33300 25.83600 33.43100
H  -7.05200 22.37800 28.45100
H  -5.15000 23.69700 22.28200
H  -1.21000 28.20300 24.43400
H  -3.69200 24.28600 31.42000
H  -6.42700 23.73800 30.68400
H  -3.96600 22.13300 31.27800
H  -4.83500 21.58900 29.74700
H  -5.65500 21.72300 31.31500
H  -6.37600 25.76200 31.21900
H  -5.11800 26.83300 31.21700
H  -6.44400 25.95200 33.29700
H  -4.90200 26.86800 33.31800
H  -9.21100 21.38600 25.64800
H  -8.73300 21.66600 27.34400
H  -7.78300 20.49800 26.50200
H  -9.31600 20.92100 23.64800
H  -8.01700 19.74300 23.75100
H  -8.52100 20.18100 22.19300
H  -4.16800 25.37400 21.30800
H  -1.55400 26.55500 22.33200
H  -1.56400 24.68800 21.31900
H  -3.00300 24.00500 20.46900
H  -2.47500 23.23400 21.94600
H  -3.78500 28.54600 22.71800
H  -3.58300 27.85400 21.03300
H  -0.99300 28.84200 21.79800
H  -2.24700 30.07800 22.38800
H  -2.06500 29.77000 20.71800
H  -0.18400 29.68200 25.90000
H  0.96100 28.64600 26.84900
H  0.01100 29.86700 27.71700
H  -2.85300 27.58600 31.11900
H  0.63700 25.64000 32.97300
H  -0.96600 24.95500 33.53900
H  -0.09200 26.26800 34.40200

