158

Mg 42.88200 42.43800 26.33800
C  42.10900 44.65400 28.87000
C  44.17000 40.25500 28.78300
C  44.19300 40.36900 23.94300
C  42.20100 44.85800 23.93800
N  42.97600 42.40500 28.58400
C  42.52800 43.40800 29.39900
C  42.56700 43.02200 30.90600
C  43.51900 41.77500 30.82300
C  43.50900 41.38600 29.32500
C  44.96100 42.04900 31.31400
C  41.15200 42.86900 31.57100
C  41.07400 42.42900 33.07900
H  40.95300 43.47300 34.22300
N  43.83400 40.45900 26.39600
C  44.24000 39.74200 27.48300
C  44.83900 38.54900 27.02800
C  44.71100 38.50300 25.63400
C  44.20100 39.81100 25.26400
C  45.30300 37.44000 28.06100
C  44.98200 37.40700 24.60500
O  44.58500 37.46900 23.42800
C  45.70500 36.17500 25.17000
N  43.34500 42.59200 24.27900
C  43.68700 41.55400 23.46900
C  43.49900 41.92600 21.94000
C  42.73200 43.23800 22.02000
C  42.80400 43.60900 23.53200
C  44.81700 41.89100 21.13200
C  41.27000 43.17900 21.55100
C  40.24000 42.23300 22.19300
N  42.38700 44.39100 26.29500
C  42.09700 45.28300 25.29800
C  41.58600 46.49600 25.94200
C  41.64200 46.34000 27.33800
C  42.09700 45.02200 27.48600
C  41.03900 47.71400 25.24200
C  41.32100 46.91000 28.61300
O  40.96000 48.01400 28.92900
C  41.71300 45.87900 29.68100
C  42.73900 46.49100 30.51500
O  43.90500 46.68700 30.27100
O  42.10700 46.67800 31.72500
C  42.97200 47.21100 32.82500
H  44.61300 39.64800 29.57500
H  44.48000 39.87400 23.01300
H  41.90900 45.49500 23.10000
H  43.05500 43.74900 31.55500
H  43.09000 41.01500 31.47600
H  45.18300 41.33300 32.10500
H  45.03900 43.05600 31.72400
H  45.69400 41.92100 30.51700
H  40.57200 42.07200 31.10500
H  40.54600 43.76500 31.43700
H  41.99600 41.92200 33.36600
H  40.31300 41.65700 33.19100
H  44.65100 36.57200 27.96300
H  45.31100 37.73000 29.11200
H  46.31300 37.19700 27.73000
H  46.55200 36.42400 25.81000
H  46.14300 35.55100 24.39200
H  44.90400 35.61000 25.64800
H  42.95400 41.08700 21.51000
H  43.24200 44.04100 21.48800
H  44.50100 41.90300 20.08900
H  45.40600 41.03600 21.46300
H  45.41000 42.78100 21.34300
H  41.18300 43.11500 20.46600
H  40.87200 44.19300 21.57900
H  40.69200 41.45900 22.81300
H  39.68000 41.65900 21.45600
H  39.53000 42.82300 22.77300
H  40.38000 48.23200 25.93900
H  40.49200 47.33200 24.37900
H  41.79300 48.38100 24.82400
H  40.78400 45.90900 30.25000
H  43.72500 47.92800 32.49700
H  43.34800 46.31000 33.31000
H  42.31100 47.71900 33.52700
Mg 6.78200 54.15500 41.45400
C  5.85200 50.94900 40.50100
C  9.84300 53.63400 39.96300
C  7.32400 57.37500 41.83700
C  3.27500 54.79800 42.14400
N  7.69800 52.47100 40.18200
C  7.18000 51.27400 39.96900
C  8.17500 50.29600 39.25200
C  9.48400 51.14700 39.26800
C  9.00100 52.53000 39.75300
C  10.62400 50.58700 40.17000
C  7.61200 49.87000 37.86000
C  8.47900 50.03300 36.62500
H  7.91300 49.60200 35.22200
N  8.38100 55.36400 41.00200
C  9.52100 54.92300 40.47400
C  10.42700 56.11400 40.38300
C  9.70100 57.18600 40.76900
C  8.40100 56.68200 41.21400
C  11.80600 56.05000 39.68300
C  10.30500 58.55400 40.94400
O  11.45400 58.78400 40.65100
C  9.55300 59.75700 41.50700
N  5.45800 55.87700 41.89900
C  6.02900 57.12400 42.18300
C  4.98100 58.11700 42.72800
C  3.75100 57.18300 42.89800
C  4.14800 55.89200 42.19500
C  5.18400 58.90200 44.07600
C  2.48100 57.73200 42.29800
C  1.19900 57.77700 43.16600
N  4.96900 53.14800 41.41000
C  3.66900 53.55000 41.66200
C  2.80400 52.37800 41.55600
C  3.59600 51.32900 41.17900
C  4.91400 51.85700 41.02800
C  1.30000 52.37800 41.84200
C  3.60200 49.92000 40.87700
O  2.74400 49.04400 40.90600
C  5.17300 49.61800 40.66900
C  5.26800 48.74000 39.52900
O  4.69200 48.86600 38.43300
O  5.91800 47.59800 39.92000
C  5.70900 46.48700 38.94900
H  10.80400 53.49500 39.46500
H  7.51200 58.41700 42.10700
H  2.25300 54.92500 42.50800
H  8.33300 49.44400 39.91400
H  9.92800 51.46300 38.32400
H  10.71400 50.99800 41.17600
H  11.53700 50.92100 39.67900
H  10.56600 49.50200 40.07800
H  6.65800 50.38600 37.75200
H  7.37500 48.80600 37.85400
H  9.42800 49.55300 36.86400
H  8.62700 51.09500 36.42500
H  12.04800 55.03300 39.37300
H  12.68900 56.24100 40.29300
H  11.82200 56.62200 38.75500
H  9.34000 59.60800 42.56500
H  8.59900 59.82500 40.98300
H  10.10400 60.63300 41.16600
H  4.64600 58.74700 41.90500
H  3.73700 56.85300 43.93700
H  6.13200 58.62800 44.53900
H  4.49700 58.60300 44.86800
H  5.15800 59.97800 43.90400
H  2.27600 57.15300 41.39800
H  2.65300 58.75600 41.96800
H  1.46800 57.70600 44.22000
H  0.52500 56.98700 42.83400
H  0.71800 58.74200 43.01100
H  0.97900 51.33800 41.79200
H  0.80400 52.91700 41.03500
H  1.10000 52.81700 42.82000
H  5.68400 49.21800 41.54400
H  6.06400 45.64600 39.54400
H  6.30700 46.73500 38.07200
H  4.66900 46.28100 38.69700

