158

Mg 1.03000 -2.01600 43.52100
C  4.39500 -1.29100 42.38900
C  0.00200 0.69000 41.39900
C  -2.14000 -2.99700 43.87500
C  2.27800 -5.18200 44.48000
N  2.15600 -0.57000 41.86200
C  3.51200 -0.36000 41.83000
C  3.78400 0.95700 41.08200
C  2.31500 1.65000 40.97500
C  1.43500 0.50600 41.37000
C  2.23300 3.02400 41.65300
C  4.40600 0.52700 39.71700
C  5.83000 1.09400 39.39300
H  6.04900 1.96100 38.16300
N  -0.79100 -1.14300 42.92800
C  -0.92800 -0.05600 42.19500
C  -2.36600 0.40600 42.29300
C  -3.06700 -0.71000 42.88900
C  -2.01300 -1.66500 43.27500
C  -2.86100 1.80400 41.86900
C  -4.49900 -0.72900 43.04500
O  -5.17300 0.25700 42.72700
C  -5.18800 -1.84800 43.70800
N  0.17200 -3.85900 44.14200
C  -1.19500 -4.02200 44.17400
C  -1.62100 -5.41100 44.65600
C  -0.16100 -6.01300 44.90900
C  0.87000 -4.97700 44.52100
C  -2.50000 -5.55100 45.88600
C  0.16100 -7.48500 44.39700
C  0.41600 -8.56700 45.52200
N  2.93200 -3.01600 43.58800
C  3.27000 -4.30500 44.04600
C  4.67500 -4.50400 43.90600
C  5.17000 -3.26900 43.43000
C  4.06500 -2.45600 43.11700
C  5.51800 -5.74400 44.21200
C  6.37200 -2.61400 43.06400
O  7.57200 -2.97300 43.04500
C  5.89800 -1.24700 42.38300
C  6.36200 -0.13200 43.29600
O  5.82200 0.18200 44.35100
O  7.48200 0.47600 42.76000
C  8.13900 1.43700 43.70200
H  -0.37900 1.62600 40.98400
H  -3.16100 -3.32500 44.08500
H  2.65900 -6.17100 44.74400
H  4.48000 1.59200 41.63000
H  2.10800 1.69700 39.90600
H  1.42800 3.12400 42.38100
H  1.92500 3.71800 40.87100
H  3.15900 3.30900 42.15300
H  3.69000 0.77000 38.93300
H  4.69700 -0.51600 39.58900
H  6.58000 0.30500 39.33200
H  6.08000 1.61300 40.31900
H  -3.87300 2.11200 42.13200
H  -2.74300 1.99200 40.80200
H  -2.18700 2.40400 42.48200
H  -6.22500 -1.60300 43.94100
H  -4.70100 -2.10700 44.64700
H  -5.14800 -2.75700 43.10700
H  -2.16000 -5.75500 43.77400
H  0.10400 -6.07400 45.96500
H  -3.44500 -5.94600 45.51400
H  -2.69100 -4.61900 46.41800
H  -1.99700 -6.24100 46.56300
H  1.00400 -7.51200 43.70700
H  -0.70200 -7.81900 43.82200
H  1.36500 -9.08500 45.38000
H  -0.37200 -9.32000 45.55500
H  0.44900 -8.00800 46.45700
H  6.15900 -5.74300 45.09200
H  6.10400 -5.92600 43.31100
H  4.91100 -6.64800 44.26600
H  6.34400 -1.16700 41.39100
H  7.49500 2.30900 43.82100
H  8.96300 1.92100 43.17900
H  8.55100 0.93100 44.57600
Mg -11.57700 16.18000 42.44200
C  -8.17700 17.16600 42.30700
C  -12.40500 19.50600 42.22700
C  -14.85100 15.24400 42.07900
C  -10.59900 12.84900 42.29200
N  -10.38300 18.12500 42.37300
C  -9.05700 18.27400 42.28600
C  -8.65600 19.71100 41.98400
C  -10.06600 20.46500 42.34800
C  -11.05600 19.33000 42.30100
C  -9.94400 21.21900 43.73300
C  -8.19100 19.84300 40.42000
C  -7.04500 20.79300 40.10600
H  -6.02400 20.18900 39.09100
N  -13.39400 17.18600 42.33800
C  -13.48700 18.62700 42.22500
C  -14.87700 18.93200 42.12900
C  -15.61500 17.71000 42.15900
C  -14.64800 16.63000 42.21300
C  -15.32900 20.25700 41.99500
C  -17.17700 17.63900 42.22600
O  -17.83200 18.66200 42.29800
C  -17.97000 16.28600 42.36100
N  -12.56900 14.34300 42.31900
C  -13.91200 14.21100 42.18400
C  -14.29400 12.75800 42.28000
C  -12.99000 11.97400 42.00600
C  -11.96300 13.09600 42.27300
C  -14.78900 12.52200 43.62600
C  -12.86000 11.47900 40.52100
C  -13.60200 10.20400 40.35100
N  -9.75900 15.20300 42.15600
C  -9.49100 13.79900 42.22200
C  -8.07100 13.52600 42.24800
C  -7.52900 14.84400 42.24500
C  -8.61200 15.81200 42.24600
C  -7.40500 12.18700 42.45000
C  -6.28900 15.62500 42.36300
O  -5.11800 15.28800 42.41400
C  -6.68000 17.12600 42.42300
C  -6.22800 17.59400 43.81900
O  -6.01100 16.88300 44.82200
O  -5.91700 18.96000 43.87300
C  -5.36300 19.56000 45.11400
H  -12.62400 20.56700 42.09300
H  -15.88600 14.92000 41.95400
H  -10.17900 11.84600 42.18800
H  -7.82800 19.96600 42.64400
H  -10.26400 21.23400 41.60200
H  -10.63300 20.79800 44.46500
H  -10.23500 22.25800 43.57700
H  -8.93100 21.08000 44.11100
H  -9.03400 20.13100 39.79100
H  -7.85600 18.86100 40.08800
H  -6.49200 21.01500 41.01800
H  -7.48900 21.76100 39.87200
H  -14.56900 21.03800 42.02000
H  -15.95500 20.52500 42.84600
H  -15.83800 20.35400 41.03600
H  -18.95200 16.51100 42.77700
H  -17.42000 15.71900 43.11200
H  -18.08400 15.80400 41.39000
H  -15.05500 12.36700 41.60500
H  -12.87500 11.18800 42.75300
H  -15.22000 13.41100 44.08500
H  -14.12600 12.12800 44.39700
H  -15.56200 11.75600 43.57200
H  -11.83800 11.26200 40.20800
H  -13.26000 12.31400 39.94500
H  -14.47800 10.43100 39.74300
H  -13.84100 9.80300 41.33600
H  -12.99700 9.40100 39.92900
H  -7.31700 11.94200 43.50800
H  -6.46200 12.07500 41.91500
H  -7.99500 11.33500 42.11100
H  -6.13200 17.52200 41.56800
H  -5.56700 20.63000 45.11100
H  -4.27600 19.63800 45.13400
H  -5.72300 19.16200 46.06400

