158

Mg -2.36500 16.96600 26.15800
C  -2.28000 14.63300 28.75400
C  -2.93500 19.27200 28.50700
C  -2.63500 19.17500 23.70500
C  -2.16900 14.55100 23.80000
N  -2.97300 16.88000 28.42600
C  -2.59600 15.84700 29.26900
C  -2.83200 16.31000 30.71700
C  -3.00700 17.89100 30.63900
C  -2.83100 18.06400 29.10000
C  -4.41700 18.40100 31.15000
C  -1.61700 16.06700 31.65000
C  -1.47400 16.76100 33.03200
H  -1.71000 16.07300 34.36700
N  -2.70600 18.92100 26.06600
C  -2.89900 19.77200 27.18100
C  -3.10700 21.12300 26.73000
C  -3.07200 21.08900 25.28000
C  -2.84300 19.66900 24.96000
C  -3.33100 22.22000 27.78900
C  -3.13700 22.20500 24.25400
O  -3.14700 22.09700 23.03700
C  -3.26100 23.57300 24.84500
N  -2.46800 16.85400 23.98700
C  -2.56000 17.88800 23.20200
C  -2.40400 17.55500 21.67400
C  -2.27700 15.95600 21.73700
C  -2.32700 15.72100 23.26700
C  -3.55700 18.02400 20.85800
C  -0.93200 15.44700 21.06500
C  0.36900 15.85100 21.78100
N  -2.26000 15.08600 26.26800
C  -2.09700 14.19600 25.14200
C  -1.90200 12.89900 25.67400
C  -2.01200 13.07700 27.07400
C  -2.26200 14.34800 27.40300
C  -1.83400 11.64700 25.01700
C  -1.80700 12.25800 28.27600
O  -1.40200 11.09200 28.43800
C  -2.10700 13.26600 29.49100
C  -0.97400 13.04400 30.40300
O  0.08100 13.62300 30.19700
O  -1.31700 12.26800 31.43500
C  -0.23200 11.83200 32.27900
H  -3.01400 20.06700 29.25200
H  -2.72900 19.93800 22.93000
H  -1.88400 13.74200 23.12400
H  -3.72800 15.80900 31.08300
H  -2.18200 18.35800 31.17500
H  -4.33900 18.96000 32.08300
H  -5.01900 17.51600 31.35600
H  -4.95300 19.03900 30.44700
H  -0.70700 15.96500 31.05900
H  -1.86300 15.06500 32.00200
H  -1.99000 17.71000 33.17500
H  -0.42000 17.03100 33.09700
H  -3.77900 23.08100 27.29300
H  -2.34600 22.52300 28.14500
H  -3.96200 21.94700 28.63500
H  -4.32200 23.71500 25.05200
H  -2.95900 24.31700 24.10800
H  -2.65300 23.58700 25.74900
H  -1.51000 18.06300 21.31400
H  -3.15000 15.60000 21.19000
H  -3.32300 18.99400 20.42100
H  -4.44800 18.06000 21.48500
H  -3.64900 17.37100 19.99000
H  -0.79600 15.99200 20.13000
H  -0.96000 14.35900 21.00300
H  0.16900 16.53600 22.60400
H  1.02900 16.38900 21.10100
H  0.83800 14.97900 22.23900
H  -1.40000 11.84500 24.03700
H  -2.84000 11.23000 25.05500
H  -1.15300 11.11900 25.68600
H  -2.98800 12.83700 29.97000
H  -0.05800 12.67300 32.95000
H  0.64100 11.54700 31.69000
H  -0.59000 11.02000 32.91200
Mg 26.18600 -0.56700 29.82800
C  27.80700 -0.69700 32.98400
C  23.13400 -0.30900 31.57700
C  24.58300 -0.55900 26.87400
C  29.31000 -1.11400 28.29000
N  25.54000 -0.48700 32.05100
C  26.41000 -0.46300 33.18200
C  25.58000 -0.21400 34.46200
C  24.08700 -0.13900 33.95500
C  24.25400 -0.28800 32.45800
C  23.13100 -1.15500 34.63600
C  26.01500 0.98600 35.41800
C  26.00600 0.36300 36.83100
H  26.48700 1.19400 37.96900
N  24.14400 -0.24300 29.30900
C  23.01600 -0.23200 30.13400
C  21.83200 -0.08900 29.36800
C  22.30700 0.02700 28.00000
C  23.72400 -0.27300 27.98400
C  20.43000 0.19100 29.89800
C  21.53400 0.53700 26.80000
O  22.04400 0.50700 25.64600
C  20.08900 1.05600 26.83800
N  26.80000 -0.79900 27.94800
C  25.98000 -0.75500 26.85800
C  26.80000 -1.05800 25.58800
C  28.18200 -0.72100 26.09000
C  28.14400 -0.91900 27.57900
C  26.63700 -2.54300 25.03000
C  28.66300 0.75600 25.78900
C  29.66400 0.80500 24.63100
N  28.12000 -1.19900 30.52000
C  29.32000 -1.29100 29.76000
C  30.41800 -1.53600 30.63700
C  29.89300 -1.19300 31.92700
C  28.48700 -1.02500 31.77700
C  31.76500 -1.89100 30.18800
C  30.23500 -1.18200 33.32300
O  31.31000 -1.35800 33.92900
C  28.92200 -0.81400 34.04100
C  28.51600 -1.84500 34.99500
O  27.72800 -2.75500 34.80000
O  29.11300 -1.59200 36.18600
C  29.06700 -2.74000 37.09100
H  22.17400 -0.32800 32.09800
H  24.17100 -0.64000 25.86600
H  30.25800 -1.08800 27.74700
H  25.76800 -1.11100 35.05200
H  23.65000 0.82600 34.21000
H  22.41900 -0.56800 35.21600
H  23.64900 -1.81700 35.33000
H  22.56800 -1.72800 33.90000
H  25.24900 1.76100 35.42000
H  26.97800 1.45300 35.21200
H  26.67400 -0.49100 36.93800
H  25.02700 0.00600 37.14900
H  20.42800 1.19300 30.32700
H  20.16600 -0.52600 30.67600
H  19.76500 -0.05900 29.07200
H  19.64400 1.33000 25.88100
H  19.95100 1.86500 27.55500
H  19.43100 0.23500 27.12500
H  26.30700 -0.50900 24.78600
H  28.87100 -1.47200 25.70500
H  26.09300 -3.16400 25.74100
H  27.61100 -3.01900 24.91700
H  26.12700 -2.56300 24.06700
H  29.16900 1.10900 26.68800
H  27.85900 1.47600 25.63900
H  29.99500 -0.20500 24.39100
H  30.47300 1.50300 24.84500
H  29.23300 1.21600 23.71800
H  32.17200 -2.41900 31.05100
H  32.45200 -1.12800 29.82300
H  31.68800 -2.59400 29.35800
H  29.01700 0.13700 34.56500
H  29.78600 -3.47200 36.72400
H  28.09900 -3.23700 37.16100
H  29.35100 -2.53000 38.12200

