158

Mg 6.10700 53.21800 40.46000
C  5.94000 49.61100 40.33600
C  9.47700 52.95900 39.63300
C  6.08700 56.56000 39.56200
C  2.65800 53.30000 40.65600
N  7.50000 51.44800 40.04400
C  7.26000 50.07400 40.06800
C  8.51900 49.28700 39.87600
C  9.58900 50.45500 39.97200
C  8.80700 51.72100 39.82000
C  10.51600 50.42200 41.30100
C  8.63900 48.39300 38.62000
C  8.75200 49.16700 37.29500
H  7.64200 48.84900 36.35600
N  7.61400 54.56900 39.93700
C  8.96300 54.27700 39.68700
C  9.63300 55.51600 39.18300
C  8.75400 56.54500 39.35800
C  7.38800 55.95300 39.72400
C  11.09000 55.57300 38.78400
C  9.09300 58.07800 39.27100
O  10.22300 58.49400 38.90800
C  8.03000 59.05200 39.61200
N  4.49400 54.72200 39.92900
C  4.81800 56.04000 39.74900
C  3.57700 56.86300 39.90300
C  2.45000 55.78500 40.11700
C  3.23400 54.52600 40.35700
C  3.71400 57.86500 41.06100
C  1.40900 55.68500 38.94900
C  -0.05800 56.10100 39.28800
N  4.60700 51.76700 40.53500
C  3.26900 52.00200 40.67400
C  2.58600 50.74000 40.80000
C  3.56900 49.75500 40.70600
C  4.78400 50.42600 40.41700
C  1.21100 50.49600 41.24700
C  3.88700 48.41300 40.85500
O  3.21600 47.43800 41.14600
C  5.41800 48.19800 40.49100
C  5.42800 47.28400 39.30500
O  5.13200 47.65000 38.22500
O  5.78600 46.00300 39.57600
C  5.76300 45.17300 38.36200
H  10.53300 52.88400 39.36400
H  6.15200 57.57500 39.16400
H  1.58800 53.41100 40.84100
H  8.52000 48.73800 40.81700
H  10.26600 50.28000 39.13600
H  11.55900 50.41200 40.98200
H  10.21500 49.54400 41.87200
H  10.22600 51.27400 41.91600
H  7.75100 47.76600 38.69000
H  9.50300 47.73000 38.57000
H  9.70300 48.92700 36.81900
H  8.99700 50.22600 37.37000
H  11.21800 56.47500 38.18500
H  11.50200 54.77600 38.16500
H  11.70900 55.69400 39.67300
H  8.39200 60.05300 39.84600
H  7.56000 58.64100 40.50500
H  7.35700 59.08500 38.75500
H  3.40300 57.43700 38.99300
H  1.79700 55.87000 40.98600
H  4.07800 58.78900 40.61100
H  4.46000 57.39500 41.70200
H  2.76700 57.88800 41.60000
H  1.49500 54.68100 38.53100
H  1.83300 56.26300 38.12800
H  -0.74100 55.57000 38.62400
H  -0.13700 57.18200 39.39900
H  -0.12100 55.55100 40.22700
H  0.83600 51.42900 41.66800
H  1.23900 49.63700 41.91800
H  0.57400 50.26400 40.39400
H  5.73800 47.73500 41.42400
H  4.88900 45.36400 37.73800
H  5.78600 44.10500 38.57900
H  6.66400 45.36200 37.77900
Mg 9.77900 46.94400 26.20700
C  7.73400 47.36200 28.98400
C  12.27400 48.58600 27.90600
C  11.56400 47.08500 23.33900
C  6.79700 46.31800 24.33100
N  9.95100 47.66300 28.22400
C  9.06700 47.68200 29.22000
C  9.69400 48.00600 30.57400
C  10.89600 48.87500 30.06100
C  11.09700 48.37300 28.62900
C  10.66000 50.46000 30.16900
C  10.21700 46.78500 31.41300
C  9.77000 46.65400 32.88100
H  9.99900 45.32500 33.66800
N  11.74700 47.55600 25.75000
C  12.65400 48.20000 26.58800
C  13.84100 48.55100 25.80100
C  13.63900 48.08300 24.49700
C  12.26600 47.57200 24.50100
C  15.03800 49.37600 26.43100
C  14.57400 48.14500 23.20000
O  14.21400 47.96400 22.05000
C  15.96600 48.61700 23.35600
N  9.26600 46.94800 24.11300
C  10.19200 46.77400 23.14000
C  9.56900 46.25700 21.83900
C  8.13900 45.83300 22.27800
C  8.05000 46.41200 23.66100
C  9.74700 47.35100 20.75000
C  7.76600 44.28100 22.13700
C  8.64900 43.31300 22.82300
N  7.75800 46.82700 26.48800
C  6.68700 46.49900 25.70800
C  5.48800 46.50500 26.49900
C  5.90900 46.75000 27.74200
C  7.22500 47.01900 27.72600
C  4.05000 46.20400 26.04200
C  5.41400 46.84200 29.10400
O  4.28600 46.75100 29.53000
C  6.64200 47.19100 30.00300
C  6.96500 45.98700 30.80700
O  7.69900 45.04700 30.54900
O  6.21500 46.02400 31.98100
C  6.42600 44.96600 32.95300
H  13.07700 49.04000 28.49000
H  12.11700 46.80100 22.44100
H  5.91300 45.84500 23.89700
H  8.94900 48.49100 31.20500
H  11.78300 48.71000 30.67300
H  10.78200 50.90500 29.18100
H  11.39400 50.94600 30.81200
H  9.69400 50.76800 30.56800
H  11.30600 46.77300 31.43900
H  10.02100 45.82900 30.92800
H  8.77200 47.07500 33.00200
H  10.45300 47.38600 33.31200
H  15.87300 48.68200 26.33300
H  14.79900 49.69300 27.44600
H  15.36400 50.30300 25.95900
H  16.62700 48.05900 22.69300
H  16.43000 48.34100 24.30300
H  16.00100 49.70500 23.28900
H  10.06800 45.33800 21.53200
H  7.36700 46.43900 21.80400
H  10.70300 47.82600 20.97000
H  8.92700 48.03700 20.96200
H  9.82700 46.83500 19.79300
H  7.77900 44.04900 21.07200
H  6.75600 44.13200 22.52100
H  8.17900 42.68000 23.57500
H  9.43400 43.90100 23.29800
H  9.12000 42.65200 22.09500
H  3.55400 47.13800 25.77600
H  3.46700 45.76200 26.85100
H  4.12400 45.46900 25.24100
H  6.50500 48.17900 30.44300
H  7.19100 44.24900 32.65500
H  5.42800 44.55700 33.11400
H  6.68800 45.34400 33.94100

