158

Mg -10.95300 15.61700 41.63400
C  -7.85700 14.07900 41.21800
C  -9.52100 18.51700 40.28700
C  -13.92800 16.82800 41.04700
C  -12.24900 12.48800 42.44400
N  -8.85000 16.27300 41.06100
C  -7.88500 15.39300 40.86000
C  -6.68000 16.14400 40.14600
C  -7.13500 17.63100 40.13000
C  -8.58000 17.49300 40.56200
C  -6.34100 18.71500 40.94100
C  -6.34400 15.58500 38.69000
C  -4.85700 15.42600 38.36600
H  -4.38000 16.26400 37.12200
N  -11.63900 17.43800 40.82700
C  -10.91200 18.44600 40.34000
C  -11.78100 19.57400 40.02200
C  -13.14100 19.13000 40.14100
C  -12.96500 17.74800 40.66800
C  -11.28600 21.00000 39.73000
C  -14.37200 19.95800 39.99000
O  -14.36900 21.14000 39.73000
C  -15.73200 19.31200 40.17100
N  -12.82800 14.73200 41.70000
C  -13.93700 15.45000 41.44300
C  -15.24300 14.68100 41.69100
C  -14.74900 13.37000 42.32400
C  -13.21400 13.43700 42.07700
C  -16.20000 15.51600 42.62000
C  -15.40300 12.03600 41.86600
C  -16.00400 11.06700 42.94300
N  -10.23100 13.75100 42.07400
C  -10.85900 12.62700 42.46900
C  -9.86500 11.62500 42.59200
C  -8.62700 12.14600 42.10800
C  -8.97200 13.40200 41.69900
C  -10.15900 10.22600 42.98200
C  -7.25100 11.77400 41.68100
O  -6.73000 10.65300 41.61400
C  -6.66900 13.06500 41.09200
C  -5.57700 13.42800 41.98700
O  -5.63200 13.65000 43.16600
O  -4.38000 13.25500 41.36300
C  -3.13800 13.57800 42.13300
H  -8.99500 19.32300 39.77100
H  -14.91900 17.27600 40.94800
H  -12.71200 11.50300 42.53600
H  -5.74300 15.93500 40.66400
H  -7.18400 17.96100 39.09200
H  -5.25900 18.59900 41.00000
H  -6.83400 18.81400 41.90800
H  -6.42600 19.70900 40.49900
H  -6.79700 16.21400 37.92400
H  -6.79400 14.60000 38.56100
H  -4.66800 14.41100 38.01600
H  -4.27200 15.70300 39.24300
H  -11.07000 21.26900 38.69600
H  -10.26400 21.01600 40.10800
H  -11.89000 21.81100 40.13700
H  -15.80600 18.46000 39.49500
H  -16.59600 19.89700 39.85600
H  -15.90500 19.05900 41.21700
H  -15.68700 14.51200 40.71000
H  -14.84400 13.40800 43.40900
H  -15.67600 16.40900 42.96300
H  -16.36400 14.89200 43.49800
H  -17.15400 15.71900 42.13300
H  -14.73000 11.49400 41.20100
H  -16.24100 12.38600 41.26300
H  -15.92400 11.54000 43.92100
H  -15.43400 10.14100 42.86800
H  -17.06500 10.87000 42.78900
H  -11.07400 9.85000 42.52500
H  -10.33300 10.28000 44.05700
H  -9.28900 9.69700 42.59200
H  -6.22300 12.76800 40.14300
H  -2.44300 13.61700 41.29400
H  -2.91200 12.82400 42.88800
H  -3.36900 14.49000 42.68200
Mg -4.81500 25.34200 26.03300
C  -3.62900 26.72000 28.87800
C  -6.53300 22.99700 27.90200
C  -5.47900 23.64300 23.18600
C  -2.90000 27.57500 24.14600
N  -4.98600 24.90100 28.13800
C  -4.48300 25.64800 29.16500
C  -5.12800 25.39800 30.46500
C  -5.90300 24.05000 30.17900
C  -5.75500 23.86000 28.68000
C  -5.28200 22.92200 31.02000
C  -6.08300 26.51000 30.93300
C  -6.06100 26.66400 32.47000
H  -5.33200 25.70000 33.44600
N  -5.96600 23.63700 25.61100
C  -6.65100 22.82800 26.49900
C  -7.35300 21.74700 25.74600
C  -6.96700 21.89700 24.35400
C  -6.04100 23.09800 24.39900
C  -8.33100 20.83500 26.54200
C  -7.42600 21.03700 23.16000
O  -6.99700 21.19000 22.04000
C  -8.18100 19.79500 23.47000
N  -4.26700 25.58400 23.98500
C  -4.70400 24.78200 22.95000
C  -4.33100 25.28300 21.48200
C  -3.54000 26.64200 21.85800
C  -3.59500 26.66400 23.38600
C  -3.46700 24.26600 20.72500
C  -3.95300 27.93400 21.07400
C  -3.06100 28.54200 20.03000
N  -3.36900 26.70200 26.39400
C  -2.74000 27.59000 25.55300
C  -1.97600 28.58100 26.30100
C  -2.18000 28.19600 27.66400
C  -3.13700 27.08700 27.62700
C  -1.19300 29.83900 25.80400
C  -1.82700 28.52700 29.08300
O  -1.03400 29.27900 29.56700
C  -2.82000 27.56700 29.87600
C  -1.92800 26.82900 30.75700
O  -1.19500 25.92500 30.37500
O  -1.88900 27.38000 32.09000
C  -1.08900 26.58500 32.95600
H  -6.97300 22.18600 28.48700
H  -5.73800 23.05400 22.30300
H  -2.26600 28.38100 23.77000
H  -4.27400 25.39600 31.14300
H  -6.93900 24.23700 30.46100
H  -4.68600 22.23100 30.42400
H  -6.08000 22.24800 31.33000
H  -4.69000 23.20900 31.89000
H  -7.07400 26.43200 30.48400
H  -5.66700 27.45400 30.58100
H  -7.07500 26.77800 32.85400
H  -5.59700 27.64500 32.56800
H  -7.65100 20.06400 26.90500
H  -9.16500 20.35700 26.02900
H  -8.68700 21.40900 27.39700
H  -9.18000 19.97200 23.86900
H  -7.65900 19.12700 24.15500
H  -8.35300 19.28200 22.52400
H  -5.22900 25.41200 20.87800
H  -2.47500 26.43300 21.75600
H  -3.79600 23.89200 19.75500
H  -3.53200 23.28800 21.20300
H  -2.48700 24.72300 20.59100
H  -4.28100 28.75400 21.71200
H  -4.91400 27.73900 20.59900
H  -3.78800 28.74900 19.24600
H  -2.16900 28.01900 19.68500
H  -2.77600 29.51700 20.42500
H  -0.11100 29.70700 25.78400
H  -1.42600 30.66800 26.47200
H  -1.53400 30.10100 24.80200
H  -3.51800 28.14600 30.48100
H  -1.25800 25.51000 32.88400
H  -1.04000 26.96700 33.97500
H  -0.09900 26.65800 32.50700

