158

Mg 2.09500 -1.64400 43.71400
C  5.50400 -1.41200 43.18500
C  1.68100 1.18000 41.75500
C  -1.19500 -2.53300 43.30600
C  2.67600 -4.76700 45.13300
N  3.45600 -0.41400 42.39200
C  4.77400 -0.42700 42.49300
C  5.34300 0.72000 41.59100
C  4.13600 1.76200 41.55700
C  3.05200 0.76500 41.82700
C  4.24800 3.04700 42.44400
C  5.77800 0.15400 40.17300
C  6.44600 1.07300 39.14700
H  5.83600 1.22700 37.72000
N  0.42300 -0.70800 42.81300
C  0.48500 0.46300 42.06800
C  -0.88900 0.90600 41.87700
C  -1.77200 -0.14200 42.26900
C  -0.86900 -1.19000 42.88500
C  -1.18500 2.17600 41.20500
C  -3.36600 -0.21900 42.23200
O  -3.97000 0.71800 41.74300
C  -4.15300 -1.24200 42.75800
N  0.98200 -3.38500 44.08200
C  -0.28900 -3.53800 43.82200
C  -0.84500 -4.92100 44.22400
C  0.26300 -5.42200 45.17500
C  1.41600 -4.50000 44.74400
C  -2.28500 -4.82700 45.00300
C  0.57900 -6.94600 45.14200
C  1.02300 -7.64900 46.48700
N  3.76900 -2.97000 44.16300
C  3.80700 -4.08500 44.83900
C  5.25000 -4.48500 44.94900
C  5.96500 -3.36500 44.34400
C  4.97700 -2.51500 43.89700
C  5.82800 -5.78800 45.56500
C  7.26000 -2.68900 44.16100
O  8.35300 -2.99000 44.59600
C  6.97100 -1.42900 43.31600
C  7.72600 -0.31800 43.86600
O  8.91700 -0.36400 44.02400
O  6.96900 0.61300 44.41900
C  7.63900 1.45600 45.47600
H  1.52700 2.20900 41.42400
H  -2.22600 -2.88600 43.24800
H  2.95600 -5.68100 45.66100
H  6.26000 1.21900 41.90200
H  3.97600 2.07000 40.52400
H  5.29200 3.11000 42.74900
H  3.52900 2.94800 43.25700
H  3.86300 3.94000 41.95100
H  4.94600 -0.44500 39.80300
H  6.52700 -0.61200 40.37700
H  7.40000 0.57000 38.99200
H  6.47200 2.08800 39.54200
H  -2.23400 2.42900 41.35900
H  -1.05700 2.06300 40.12900
H  -0.61100 2.91300 41.76600
H  -5.23500 -1.13300 42.68200
H  -3.90400 -1.43800 43.80100
H  -4.08100 -2.19000 42.22400
H  -1.04600 -5.45200 43.29400
H  0.05700 -5.11500 46.20000
H  -2.60600 -3.81300 45.24200
H  -2.25000 -5.41900 45.91700
H  -3.04000 -5.26300 44.34800
H  1.38400 -7.02500 44.41300
H  -0.34600 -7.45500 44.87000
H  0.17500 -8.11700 46.98800
H  1.38700 -6.95900 47.24900
H  1.82800 -8.32300 46.19600
H  6.90300 -5.61000 45.58200
H  5.58300 -6.60700 44.88900
H  5.46200 -6.01600 46.56600
H  7.33000 -1.67600 42.31700
H  7.00800 1.83900 46.27800
H  8.00900 2.38100 45.03400
H  8.50000 1.04000 45.99900
Mg 26.02600 0.55700 29.36100
C  28.08000 0.12900 32.15500
C  23.41200 1.12800 31.32600
C  24.28900 0.82200 26.56800
C  28.83000 -0.47700 27.39100
N  25.77600 0.52000 31.50900
C  26.71600 0.43800 32.47200
C  26.16600 0.79000 33.83600
C  24.65100 0.95600 33.55200
C  24.62800 0.88300 32.00400
C  23.59500 -0.02000 34.20900
C  26.79700 2.05500 34.55600
C  27.35400 1.73400 36.03000
H  27.18200 2.84400 37.07200
N  24.04900 1.01600 28.98900
C  23.13900 1.21100 30.01400
C  21.86900 1.57800 29.25700
C  22.10900 1.39600 27.84600
C  23.54800 1.01500 27.70700
C  20.60800 1.96800 29.97500
C  21.13900 1.57200 26.76600
O  21.48400 1.46400 25.58700
C  19.71300 1.76600 27.04000
N  26.43000 0.09300 27.23800
C  25.57100 0.44200 26.28200
C  26.19700 0.41800 24.87300
C  27.68200 0.20900 25.18300
C  27.64200 -0.16600 26.67600
C  25.70100 -0.76700 23.97200
C  28.43600 1.58800 24.94800
C  29.92500 1.31600 24.37100
N  28.07200 -0.04900 29.63600
C  29.02100 -0.45300 28.78600
C  30.25800 -0.65300 29.47600
C  29.96000 -0.45000 30.80200
C  28.63200 -0.07800 30.87100
C  31.66700 -0.95900 28.81800
C  30.50500 -0.41900 32.13900
O  31.61200 -0.80400 32.55000
C  29.29900 0.05100 33.07700
C  29.11000 -0.96000 34.18100
O  28.59700 -2.06200 33.99800
O  29.73900 -0.59300 35.34700
C  29.56200 -1.50900 36.46100
H  22.52800 1.30900 31.94100
H  23.72900 1.10900 25.67600
H  29.74300 -0.64700 26.81600
H  26.21200 -0.15500 34.37700
H  24.32100 1.98100 33.72300
H  24.11600 -0.29400 35.12700
H  23.52500 -0.84200 33.49700
H  22.60300 0.29400 34.53300
H  26.09700 2.89000 34.56600
H  27.72000 2.27500 34.01900
H  28.42200 1.57600 35.88000
H  26.82000 0.81900 36.28600
H  19.98000 2.74800 29.54500
H  20.93300 2.49900 30.87000
H  19.87500 1.17200 30.10800
H  19.10800 1.68600 26.13800
H  19.59200 2.80500 27.34900
H  19.29600 1.15800 27.84300
H  25.97500 1.33600 24.32800
H  28.09200 -0.59400 24.57100
H  25.70300 -0.48800 22.91800
H  24.68600 -1.00900 24.28900
H  26.24700 -1.69500 24.14100
H  28.51400 2.00400 25.95200
H  27.88500 2.32000 24.35700
H  30.05100 1.57500 23.32000
H  30.27300 0.30200 24.57000
H  30.54900 2.07300 24.84700
H  32.36500 -0.99300 29.65400
H  31.80100 -0.10500 28.15400
H  31.68400 -1.79100 28.11400
H  29.50800 1.02100 33.52900
H  30.19500 -1.10100 37.24900
H  29.87600 -2.53900 36.28900
H  28.54500 -1.58300 36.84700

