158

Mg 53.53400 24.20200 44.22800
C  50.82900 26.01000 43.31000
C  52.14500 21.31700 42.97900
C  56.57500 22.54100 44.65600
C  55.17500 27.16300 45.22100
N  51.85300 23.81100 43.04600
C  50.79500 24.66700 42.82300
C  49.66000 23.97000 42.04400
C  49.91900 22.48100 42.29300
C  51.37600 22.53800 42.85100
C  48.83900 21.77100 43.05900
C  49.77600 24.22000 40.46600
C  48.41300 24.23600 39.68600
H  47.86800 22.88600 39.19000
N  54.28900 22.21100 43.83700
C  53.48700 21.17700 43.37000
C  54.32100 20.00800 43.29800
C  55.57600 20.28800 43.84800
C  55.56200 21.72300 44.21300
C  53.71400 18.74500 42.78900
C  56.72100 19.32800 44.10900
O  56.64800 18.15800 43.77600
C  57.97500 19.75900 44.88000
N  55.60500 24.75600 44.87900
C  56.58000 23.91800 44.94800
C  57.81300 24.65300 45.43200
C  57.46300 26.17500 45.31400
C  56.00400 26.03600 45.14500
C  58.37900 24.03800 46.76900
C  58.24700 26.94300 44.21600
C  57.52900 27.66700 43.09100
N  52.99900 26.19500 44.42700
C  53.79800 27.27900 44.91400
C  52.84800 28.38300 45.04100
C  51.65300 27.97600 44.45400
C  51.83700 26.67300 43.98800
C  53.24900 29.70400 45.66100
C  50.27700 28.29000 44.10600
O  49.64000 29.28200 44.29400
C  49.71800 27.06600 43.32300
C  49.16400 27.71400 42.09200
O  49.86500 28.31200 41.27300
O  47.84900 27.44500 41.94300
C  47.22500 27.76700 40.67900
H  51.53800 20.45600 42.69300
H  57.57700 22.12200 44.76300
H  55.73100 28.08300 45.41800
H  48.71300 24.31000 42.46300
H  50.07000 21.87700 41.39800
H  48.72300 20.77400 42.63500
H  47.88600 22.27000 42.88500
H  49.08400 21.58900 44.10600
H  50.32900 23.42100 39.97200
H  50.39100 25.07500 40.18800
H  48.55000 24.95900 38.88100
H  47.62300 24.72400 40.25600
H  52.73400 18.50000 43.19700
H  54.25300 17.80100 42.88000
H  53.33700 18.93800 41.78500
H  58.39500 20.53800 44.24300
H  58.71200 18.96400 45.00200
H  57.68400 20.11400 45.86800
H  58.56800 24.52000 44.65700
H  57.80800 26.53100 46.28500
H  57.66500 23.25200 47.01800
H  58.48400 24.77700 47.56200
H  59.33900 23.56800 46.55300
H  59.13500 26.44900 43.82200
H  58.60200 27.75500 44.85100
H  58.18600 27.56000 42.22800
H  57.52200 28.72200 43.36600
H  56.53000 27.28100 42.88800
H  52.41500 30.10200 46.24000
H  53.38400 30.32800 44.77800
H  54.16000 29.51600 46.22800
H  48.78800 26.80000 43.82500
H  47.84600 27.53500 39.81300
H  47.12700 28.85000 40.61300
H  46.28600 27.23000 40.54300
Mg 46.28300 24.27300 28.58400
C  46.68200 26.89200 30.93200
C  45.46600 22.11800 31.10300
C  46.19000 21.91600 26.39300
C  47.95700 26.42100 26.19000
N  46.23100 24.53400 30.68300
C  46.32700 25.69200 31.45600
C  46.03600 25.41700 32.91500
C  46.00400 23.82900 33.01200
C  45.84000 23.44000 31.52100
C  47.09700 23.15200 33.87300
C  44.74000 26.10800 33.41400
C  44.92400 26.86200 34.85700
H  44.09300 26.60000 36.07700
N  45.75100 22.29600 28.69500
C  45.43500 21.57500 29.82600
C  45.09000 20.23200 29.43800
C  45.26400 20.20300 28.07700
C  45.74900 21.48800 27.62100
C  44.68200 19.11000 30.39900
C  44.95100 19.09400 27.15100
O  45.23400 19.10000 25.92400
C  44.12200 17.88900 27.62900
N  47.10700 24.19900 26.61300
C  46.83900 23.05800 25.90300
C  47.39800 23.10700 24.50300
C  47.80600 24.54500 24.33700
C  47.67700 25.11600 25.80900
C  48.45800 22.01700 24.14000
C  47.00200 25.34300 23.28100
C  45.60700 25.94600 23.54500
N  47.00400 26.34300 28.43400
C  47.69800 27.03300 27.42900
C  47.80200 28.41700 27.90600
C  47.59200 28.40300 29.30500
C  47.12000 27.11000 29.59500
C  48.27300 29.61300 27.07100
C  47.68700 29.10700 30.59700
O  47.94900 30.25800 30.69200
C  47.22400 28.08700 31.72100
C  48.43900 27.81600 32.49000
O  49.52400 27.40400 32.00200
O  48.25400 28.02700 33.84600
C  49.39800 27.79300 34.71000
H  45.32600 21.48100 31.97900
H  46.29200 21.10300 25.67100
H  48.48200 27.11800 25.53300
H  46.97500 25.72200 33.37800
H  45.09800 23.51700 33.53200
H  47.37700 22.21200 33.39700
H  46.57800 22.90900 34.80100
H  47.90700 23.85200 34.07600
H  43.92800 25.41900 33.64700
H  44.32600 26.83900 32.71900
H  44.80300 27.90700 34.57200
H  45.89900 26.60300 35.26800
H  43.66900 18.80400 30.13700
H  44.82500 19.34800 31.45400
H  45.24900 18.22800 30.10100
H  44.57300 17.41900 28.50300
H  44.04900 17.19100 26.79500
H  43.06300 18.12600 27.73400
H  46.52200 22.91800 23.88200
H  48.86300 24.58800 24.07400
H  48.69900 21.39700 25.00300
H  49.45500 22.39800 23.92300
H  48.06000 21.41700 23.32200
H  46.82400 24.61000 22.49400
H  47.62400 26.14200 22.87800
H  45.02600 25.33100 24.23200
H  44.98200 25.90200 22.65300
H  45.55000 26.99600 23.83400
H  48.03000 30.59500 27.47700
H  48.00600 29.54600 26.01600
H  49.35200 29.53400 27.20500
H  46.47300 28.59200 32.32800
H  50.25400 27.32000 34.23000
H  49.04100 27.25100 35.58600
H  49.70200 28.76800 35.09300

