158

Mg 17.03400 51.42500 26.28700
C  19.11400 49.93200 28.84200
C  14.77500 52.14600 28.69300
C  15.17600 52.33100 23.78300
C  19.40900 50.07000 24.07200
N  16.97600 51.07400 28.43900
C  17.95400 50.51200 29.35400
C  17.58200 50.71000 30.81300
C  16.09900 51.10500 30.65600
C  15.95500 51.52400 29.15400
C  15.04800 50.05400 31.09000
C  18.52600 51.81800 31.51500
C  18.69500 51.64000 33.05800
H  17.77000 50.62300 33.78200
N  15.29300 52.44700 26.27000
C  14.46700 52.58700 27.36500
C  13.21100 53.15700 26.89100
C  13.31800 53.20500 25.47300
C  14.63500 52.64500 25.12900
C  12.11000 53.76300 27.83800
C  12.38900 53.76100 24.38700
O  12.74600 53.84900 23.23800
C  10.99400 54.22700 24.80800
N  17.23000 51.18300 24.23400
C  16.35300 51.70800 23.41500
C  16.73700 51.49900 21.93600
C  18.21500 50.90700 22.06700
C  18.34100 50.79200 23.54600
C  15.69100 50.66500 21.11200
C  19.32500 51.69100 21.33400
C  20.34800 50.75600 20.52300
N  18.85300 50.14200 26.35900
C  19.66400 49.68400 25.40800
C  20.84900 49.00700 25.96000
C  20.73900 49.10300 27.31900
C  19.48000 49.76700 27.52900
C  21.92700 48.40600 25.15300
C  21.26600 48.74300 28.62400
O  22.24800 48.13400 28.93700
C  20.25200 49.34800 29.69500
C  19.86800 48.34300 30.66300
O  18.90200 47.59500 30.58100
O  20.61500 48.37200 31.80900
C  20.41900 47.25600 32.76000
H  13.96900 52.26400 29.42100
H  14.45800 52.55500 22.99100
H  20.21200 49.78600 23.38800
H  17.60700 49.77000 31.36500
H  15.91400 52.06300 31.14400
H  15.56200 49.27000 31.64700
H  14.55300 49.55000 30.25900
H  14.20300 50.43800 31.66100
H  18.00900 52.77100 31.40100
H  19.52300 51.75200 31.08100
H  18.65500 52.55700 33.64600
H  19.66500 51.14900 33.14400
H  12.53800 53.82100 28.83900
H  11.31500 53.01700 27.85500
H  11.68500 54.70200 27.48500
H  11.02400 55.13900 25.40500
H  10.59200 53.35200 25.31900
H  10.42800 54.40200 23.89300
H  16.75000 52.48300 21.46800
H  18.21800 49.85800 21.77100
H  16.06800 49.77000 20.61600
H  15.39200 51.30100 20.27800
H  14.82000 50.33600 21.67800
H  19.72100 52.48200 21.97100
H  18.84000 52.34100 20.60600
H  21.31500 51.07500 20.91300
H  20.25100 50.92800 19.45200
H  20.21800 49.68600 20.68600
H  22.81100 49.03700 25.05000
H  21.48400 48.33900 24.16000
H  22.19800 47.38800 25.43100
H  20.88300 50.10100 30.16800
H  21.24800 47.16000 33.46100
H  20.15000 46.29300 32.32500
H  19.64500 47.63300 33.42700
Mg 9.88000 47.68800 25.51700
C  7.84700 47.93000 28.49700
C  12.44300 48.77300 27.23600
C  11.63400 47.35900 22.71100
C  6.83400 47.28300 23.73800
N  9.99600 48.31500 27.60200
C  9.22200 48.27000 28.68600
C  9.83500 48.69100 30.05400
C  11.20800 49.21000 29.49900
C  11.23500 48.72600 28.02400
C  11.57900 50.70200 29.67600
C  9.96900 47.49200 31.08600
C  9.53300 47.81100 32.46900
H  9.62600 46.60500 33.45600
N  11.85800 47.98300 25.02600
C  12.77500 48.35900 25.95000
C  14.07600 48.20500 25.34700
C  13.88000 47.87800 23.95100
C  12.39700 47.74800 23.81800
C  15.32600 48.51500 26.07300
C  14.89500 47.59600 22.83600
O  14.59000 47.34600 21.69500
C  16.37000 47.52600 23.10900
N  9.28300 47.42900 23.56200
C  10.24000 47.18000 22.54100
C  9.64000 46.49500 21.24700
C  8.15500 46.51600 21.73500
C  8.09800 47.15700 23.11600
C  9.82700 47.37900 19.90100
C  7.41600 45.11100 21.67300
C  7.79200 44.20500 22.80400
N  7.74400 47.41400 26.03000
C  6.64400 47.37400 25.16400
C  5.40400 47.35600 25.94800
C  5.86200 47.52000 27.32400
C  7.26800 47.62600 27.26600
C  4.07500 47.18300 25.30000
C  5.45500 47.59500 28.74100
O  4.33800 47.40700 29.22400
C  6.73600 47.85300 29.49800
C  6.77200 46.62700 30.24900
O  7.29700 45.55900 29.95400
O  6.25100 46.90500 31.49200
C  6.18700 45.85600 32.54600
H  13.18800 49.17000 27.92900
H  12.22100 47.23700 21.79800
H  5.96100 47.13200 23.09900
H  9.16100 49.49100 30.35800
H  12.03600 48.62200 29.89500
H  12.40800 50.74700 30.38300
H  10.75600 51.33600 30.00500
H  12.02400 50.99600 28.72600
H  11.03500 47.27100 31.13800
H  9.45100 46.62300 30.68200
H  8.45100 47.94500 32.49700
H  10.04200 48.71700 32.79800
H  15.20400 48.35400 27.14400
H  15.68200 49.53600 25.93600
H  16.12000 47.84600 25.74100
H  16.46100 46.70900 23.82400
H  16.66400 48.50200 23.49500
H  16.86000 47.28800 22.16500
H  10.11700 45.53600 21.04400
H  7.53200 47.15800 21.11200
H  8.93000 47.84300 19.49000
H  10.29300 46.89600 19.04200
H  10.42600 48.25400 20.14800
H  7.84500 44.57000 20.83000
H  6.36200 45.20400 21.41400
H  8.50100 44.59700 23.53400
H  8.32800 43.35000 22.39200
H  6.89800 43.87400 23.33200
H  3.91000 46.32900 24.64300
H  3.82100 48.08200 24.73800
H  3.30900 46.97100 26.04600
H  6.62900 48.82300 29.98300
H  5.48700 45.12400 32.14200
H  5.69400 46.31900 33.40100
H  7.14300 45.41400 32.82700

