158

Mg -1.87900 17.35600 26.63800
C  -2.30400 15.01600 29.47000
C  -2.23400 19.94000 28.93900
C  -1.84400 19.53800 24.21100
C  -2.51400 14.64800 24.52300
N  -2.29000 17.43900 28.93600
C  -2.26200 16.32700 29.84800
C  -2.48500 16.87100 31.23000
C  -2.53800 18.43800 31.01700
C  -2.33400 18.63200 29.55600
C  -3.77200 19.16200 31.51000
C  -1.42400 16.37300 32.26600
C  -0.85600 17.33800 33.30400
H  -0.22200 16.83400 34.62400
N  -2.04200 19.46500 26.58800
C  -2.10500 20.37600 27.61500
C  -1.89400 21.71800 27.13700
C  -1.70900 21.63100 25.73900
C  -1.81900 20.19300 25.48700
C  -1.86600 22.87800 27.97900
C  -1.29400 22.69400 24.75300
O  -1.06600 22.37600 23.58700
C  -0.94800 24.15000 25.23500
N  -2.29500 17.11200 24.70200
C  -2.12200 18.22300 23.83400
C  -2.30400 17.75800 22.34500
C  -2.49800 16.22300 22.52100
C  -2.44600 15.94200 24.01400
C  -3.28400 18.55900 21.50400
C  -1.45100 15.41400 21.60200
C  -0.02200 15.32500 22.24900
N  -2.22200 15.26400 26.87900
C  -2.39800 14.29600 25.88600
C  -2.52700 12.96300 26.49500
C  -2.42800 13.25200 27.89400
C  -2.24100 14.64100 28.07900
C  -2.86900 11.61600 25.81500
C  -2.54600 12.63000 29.24300
O  -2.61000 11.45800 29.53800
C  -2.40500 13.78100 30.35000
C  -1.11100 13.59900 31.14600
O  0.03300 13.79500 30.65900
O  -1.42300 13.14700 32.33800
C  -0.37900 13.10700 33.32500
H  -2.22100 20.77500 29.64300
H  -1.88400 20.23500 23.37100
H  -2.65200 13.91600 23.72400
H  -3.45200 16.57400 31.63700
H  -1.68300 18.95500 31.45200
H  -3.50800 19.95000 32.21600
H  -4.37100 18.46000 32.09000
H  -4.40800 19.49400 30.69000
H  -0.56300 16.09900 31.65700
H  -1.95700 15.56300 32.76400
H  -1.67000 17.97800 33.64300
H  -0.12900 17.94900 32.76900
H  -2.10300 22.65300 29.01900
H  -2.58400 23.64300 27.68200
H  -0.88100 23.33400 27.88300
H  -0.25700 24.21500 26.07500
H  -1.99000 24.46500 25.29200
H  -0.44100 24.69100 24.43600
H  -1.32200 17.93200 21.90600
H  -3.53400 16.11400 22.20200
H  -3.89200 17.85700 20.93300
H  -2.63500 19.06500 20.78900
H  -3.87700 19.29500 22.04600
H  -1.34800 15.77800 20.58000
H  -1.83200 14.42200 21.35900
H  0.68600 15.78900 21.56100
H  0.28800 14.29200 22.40400
H  -0.00800 15.79800 23.23000
H  -3.43900 11.77700 24.90100
H  -3.38900 10.96000 26.51300
H  -1.94400 11.11800 25.52400
H  -3.24800 13.71700 31.03800
H  -0.42400 14.06700 33.83800
H  0.62800 12.90600 32.96000
H  -0.58500 12.27600 34.00000
Mg 44.19800 5.23900 47.92000
C  42.08300 7.94400 46.97800
C  41.79300 3.13700 47.26100
C  46.53900 2.85000 48.04000
C  46.73300 7.64500 48.30200
N  42.14600 5.59600 47.26800
C  41.49000 6.73900 46.85400
C  40.08400 6.34500 46.33800
C  39.89700 4.86200 46.84500
C  41.38500 4.52000 47.13700
C  38.97000 4.70000 48.08000
C  40.02100 6.36700 44.78500
C  39.15900 7.48600 44.14500
H  39.92200 8.48200 43.24600
N  44.14900 3.30800 47.73000
C  43.04700 2.59900 47.56100
C  43.40200 1.20100 47.56500
C  44.85300 1.10400 47.68800
C  45.25900 2.48600 47.73600
C  42.37500 0.09000 47.47000
C  45.60700 -0.19300 47.65000
O  44.98300 -1.24600 47.81100
C  47.10300 -0.31800 47.38400
N  46.36800 5.29900 47.90200
C  47.07800 4.17900 48.16400
C  48.57000 4.41600 48.38800
C  48.66200 6.00400 48.28200
C  47.16800 6.34800 48.19600
C  49.07300 3.83500 49.79600
C  49.57300 6.58100 47.17300
C  50.65400 7.57300 47.61700
N  44.41600 7.35600 47.76500
C  45.50900 8.16700 47.96500
C  45.12800 9.57800 47.81600
C  43.77300 9.51400 47.42200
C  43.44000 8.15300 47.37900
C  45.96300 10.83600 47.90800
C  42.68400 10.33300 47.08800
O  42.56000 11.53900 46.97500
C  41.50700 9.34700 46.79000
C  40.58100 9.71400 47.87800
O  40.58000 9.20700 49.04300
O  39.68900 10.67000 47.54400
C  38.66500 11.03900 48.54100
H  40.87000 2.55400 47.30200
H  47.33300 2.12400 48.22600
H  47.48600 8.41100 48.49800
H  39.35200 7.00600 46.80200
H  39.39500 4.28800 46.06600
H  38.42800 5.62800 48.26100
H  39.51200 4.35100 48.95900
H  38.22800 3.94700 47.81400
H  39.70800 5.40800 44.37300
H  41.02500 6.53000 44.39200
H  38.63600 8.03300 44.92900
H  38.31400 7.16600 43.53500
H  42.40600 -0.72200 48.19500
H  42.42400 -0.34100 46.47000
H  41.44300 0.65000 47.54800
H  47.44600 0.28300 46.54200
H  47.40400 -1.35600 47.24000
H  47.66700 -0.01500 48.26700
H  49.20300 3.94400 47.63700
H  48.86200 6.48600 49.23900
H  48.34400 3.09800 50.13300
H  49.33500 4.65900 50.45900
H  50.00000 3.26200 49.76800
H  48.86100 7.07400 46.51000
H  49.99500 5.80000 46.54100
H  50.14500 8.50900 47.84800
H  51.51300 7.68700 46.95700
H  51.08500 7.29700 48.57900
H  45.38000 11.73700 48.09600
H  46.59900 10.90200 47.02500
H  46.50100 10.78600 48.85500
H  41.05600 9.47900 45.80700
H  37.75000 10.53100 48.23500
H  38.67000 12.12900 48.52800
H  38.80800 10.72600 49.57600

