158

Mg 8.97100 48.19900 26.45400
C  6.46600 48.88400 28.85200
C  11.34500 49.10100 28.72100
C  11.29700 47.58100 24.11700
C  6.47600 47.56000 24.09600
N  8.86500 49.03600 28.51800
C  7.71600 49.13000 29.29200
C  8.12600 49.34300 30.77500
C  9.64900 49.60900 30.64600
C  9.96800 49.20000 29.21100
C  9.97100 51.07300 30.97600
C  7.84700 48.15600 31.71500
C  8.67900 47.99600 32.98700
H  8.13800 47.10900 34.18800
N  11.04800 48.23600 26.41900
C  11.79600 48.72400 27.43600
C  13.19800 48.70700 26.98900
C  13.24100 48.21100 25.69100
C  11.83100 48.00400 25.33900
C  14.36500 49.08500 27.94800
C  14.40200 47.92000 24.69900
O  14.24700 47.51000 23.54800
C  15.79300 48.10500 25.16500
N  8.89500 47.73900 24.39300
C  10.01200 47.40000 23.69700
C  9.66600 46.93400 22.28400
C  8.17200 46.97200 22.23100
C  7.76600 47.39300 23.68500
C  10.31800 47.63300 21.09600
C  7.56200 45.54800 21.79800
C  7.27500 45.56000 20.22500
N  6.82100 48.39500 26.37200
C  5.92300 48.02100 25.34800
C  4.56200 48.26300 25.89500
C  4.74900 48.48200 27.23700
C  6.09700 48.62900 27.44100
C  3.30400 47.97500 25.26800
C  4.10200 48.71500 28.45100
O  2.89900 48.74400 28.69500
C  5.12800 48.89300 29.63600
C  5.09200 47.74400 30.50000
O  5.50100 46.60600 30.21900
O  4.62800 48.13900 31.68300
C  4.10400 47.16800 32.57900
H  12.10700 49.30300 29.47600
H  12.01800 47.19300 23.39500
H  5.79100 47.34500 23.27400
H  7.55400 50.21900 31.08000
H  10.32700 49.03600 31.27700
H  9.12300 51.70300 31.24300
H  10.22700 51.47500 29.99600
H  10.79900 51.12900 31.68300
H  7.65900 47.22800 31.17500
H  6.89800 48.45100 32.16300
H  9.03700 48.93900 33.40000
H  9.63200 47.54400 32.71200
H  15.05500 49.73100 27.40500
H  15.03600 48.26600 28.20800
H  13.96700 49.62100 28.81000
H  16.52300 47.75800 24.43400
H  15.97900 47.58700 26.10600
H  15.90300 49.18900 25.19800
H  10.03500 45.91200 22.20000
H  7.65400 47.64200 21.54400
H  9.54000 48.01400 20.43400
H  10.96600 47.02500 20.46400
H  10.93300 48.48600 21.38300
H  6.69800 45.38800 22.44300
H  8.19400 44.66200 21.85300
H  7.76800 46.36200 19.67500
H  6.20600 45.73400 20.09600
H  7.49200 44.57700 19.80800
H  3.53400 47.40700 24.36700
H  2.71800 48.85700 25.01000
H  2.69000 47.33000 25.89700
H  5.05500 49.83700 30.17500
H  3.89400 47.61400 33.55100
H  4.79400 46.32700 32.52400
H  3.14000 46.98700 32.10200
Mg -6.43900 26.04700 25.68700
C  -4.80700 27.33000 28.44600
C  -8.00600 23.80600 27.84300
C  -7.19100 24.08800 23.00300
C  -4.54900 28.18800 23.55600
N  -6.24400 25.48100 27.87100
C  -5.58700 26.28800 28.76600
C  -6.12800 25.91800 30.21500
C  -6.91800 24.64200 29.94700
C  -7.11500 24.64400 28.47900
C  -6.41000 23.30900 30.59000
C  -6.99100 27.00100 30.95900
C  -7.08300 27.07800 32.52900
H  -6.34400 26.07300 33.43200
N  -7.62700 24.30900 25.35400
C  -8.23100 23.61100 26.38600
C  -9.01600 22.57800 25.84900
C  -8.73400 22.56200 24.42800
C  -7.81000 23.68300 24.16500
C  -9.89900 21.72700 26.70300
C  -9.16300 21.53500 23.35700
O  -8.66900 21.54600 22.22200
C  -10.20300 20.57400 23.68500
N  -5.83500 26.03800 23.62100
C  -6.32500 25.15200 22.72600
C  -6.07900 25.64200 21.27800
C  -5.33000 27.03200 21.40300
C  -5.25000 27.13300 22.96500
C  -5.30800 24.64800 20.41500
C  -6.06100 28.31600 20.70000
C  -7.00200 29.16100 21.59000
N  -5.05400 27.57900 25.94800
C  -4.38600 28.37600 24.97800
C  -3.48200 29.22700 25.68100
C  -3.58200 28.87300 27.03300
C  -4.54300 27.83600 27.12900
C  -2.61700 30.30800 25.14300
C  -3.09400 29.13200 28.41700
O  -2.33300 30.05600 28.82500
C  -3.92700 28.18500 29.35700
C  -2.92700 27.46500 30.24800
O  -2.44900 26.37800 29.99000
O  -2.85900 28.16900 31.34500
C  -2.49300 27.35000 32.51400
H  -8.48800 23.08500 28.50800
H  -7.54000 23.59400 22.09400
H  -4.05500 28.89100 22.88100
H  -5.29800 25.68700 30.88200
H  -7.87400 24.65100 30.47100
H  -6.34400 22.59900 29.76600
H  -7.10500 23.02900 31.38200
H  -5.43300 23.53000 31.02000
H  -8.04000 26.87300 30.69400
H  -6.83400 27.96700 30.47800
H  -8.12200 26.87500 32.79200
H  -6.94100 28.08300 32.92800
H  -9.58200 20.68600 26.63600
H  -10.93000 21.92300 26.40800
H  -10.04200 21.98700 27.75100
H  -10.55000 19.90800 22.89600
H  -11.10600 21.05100 24.06700
H  -9.73800 19.81000 24.30900
H  -7.09100 25.82100 20.91300
H  -4.34000 26.94400 20.95500
H  -5.79000 24.68500 19.43800
H  -5.46500 23.67300 20.87600
H  -4.22800 24.78500 20.47000
H  -6.69000 27.94000 19.89200
H  -5.32000 28.97500 20.24800
H  -6.58900 30.16600 21.67500
H  -7.28700 28.69100 22.53100
H  -7.93400 29.24200 21.03100
H  -1.64400 30.45000 25.61400
H  -3.18200 31.23500 25.23900
H  -2.53700 30.25600 24.05700
H  -4.59000 28.87300 29.88100
H  -2.79400 27.86600 33.42600
H  -1.40300 27.36700 32.53800
H  -3.00700 26.38800 32.50500

