158

Mg 31.11900 58.27300 39.65500
C  28.02400 56.41800 39.09300
C  32.80800 55.35400 38.83200
C  33.80900 60.06000 39.22100
C  29.13400 61.18400 39.80200
N  30.41400 56.15000 38.91400
C  29.15000 55.67500 38.85200
C  29.26300 54.28700 38.27000
C  30.70500 53.79900 38.81300
C  31.40400 55.20700 38.70300
C  30.70300 53.30800 40.33600
C  29.22100 54.44900 36.67100
C  28.11000 53.66200 35.92900
H  27.37200 54.28600 34.73900
N  33.13200 57.76400 39.16600
C  33.63100 56.53700 38.85900
C  34.94400 56.68500 38.44000
C  35.31200 58.04800 38.57900
C  34.05900 58.70300 39.04900
C  35.78700 55.56700 37.92200
C  36.69200 58.70100 38.27100
O  37.70100 58.02800 38.13800
C  36.86300 60.21600 38.13700
N  31.41700 60.28200 39.57700
C  32.67100 60.73800 39.55500
C  32.66000 62.21000 39.78100
C  31.11300 62.61200 40.09800
C  30.53100 61.22600 39.80800
C  33.63600 62.69700 40.83400
C  30.60000 63.77500 39.19800
C  29.73900 64.78800 39.89600
N  29.01800 58.69300 39.52700
C  28.38200 59.92800 39.72400
C  26.92300 59.67300 39.85700
C  26.77100 58.31000 39.59300
C  28.02300 57.83000 39.32800
C  25.84400 60.73800 39.97900
C  25.71700 57.29700 39.53600
O  24.51400 57.40700 39.74800
C  26.46100 56.07200 39.06800
C  26.10100 54.91200 39.93400
O  26.57600 54.69800 41.06900
O  25.20400 54.08700 39.30300
C  24.88600 52.87400 40.06000
H  33.32300 54.40100 38.69700
H  34.67600 60.72000 39.29500
H  28.53200 62.07700 39.98300
H  28.50900 53.61500 38.67900
H  31.13300 53.06700 38.12800
H  31.20000 53.92700 41.08300
H  31.17900 52.32800 40.30000
H  29.63500 53.25500 40.55000
H  30.16900 54.31500 36.15000
H  29.00700 55.50100 36.48700
H  27.33500 53.44100 36.66200
H  28.64300 52.78000 35.57400
H  35.17400 54.67800 37.77800
H  36.49500 55.47100 38.74500
H  36.17700 56.02300 37.01100
H  36.85700 60.53400 39.18000
H  36.11000 60.61500 37.45800
H  37.80800 60.49100 37.66900
H  32.86600 62.62000 38.79200
H  31.11600 62.93500 41.13900
H  34.55800 63.08600 40.40100
H  33.91600 61.84200 41.45000
H  33.20300 63.49400 41.43800
H  30.10500 63.37900 38.31200
H  31.35500 64.41100 38.73600
H  30.31500 65.62400 40.29500
H  29.14800 64.22900 40.62200
H  28.99600 65.23100 39.23300
H  26.13700 61.52600 39.28500
H  25.91000 61.12600 40.99500
H  24.82800 60.41300 39.75700
H  26.11800 55.78300 38.07500
H  24.48600 53.10600 41.04700
H  25.79800 52.27900 40.11800
H  24.26800 52.23500 39.42900
Mg 36.93700 49.88400 24.54800
C  37.16400 48.11800 27.57100
C  35.27700 52.36400 26.15400
C  36.27700 51.25800 21.46600
C  37.88300 46.85900 22.82700
N  36.47900 50.21100 26.68400
C  36.68100 49.39300 27.75300
C  36.34200 50.14500 29.02300
C  35.76400 51.51800 28.50600
C  35.84900 51.44300 27.01900
C  34.28500 51.82000 29.02000
C  37.67900 50.28800 29.80400
C  37.68700 50.00000 31.35000
H  36.32100 49.81000 32.01300
N  36.04400 51.65700 23.89500
C  35.48600 52.55200 24.70300
C  35.11800 53.75700 23.90600
C  35.38900 53.44600 22.55500
C  35.89800 52.02400 22.54900
C  34.48200 54.94600 24.61800
C  35.24200 54.29800 21.33700
O  35.46900 53.91700 20.16700
C  34.85000 55.83000 21.53700
N  37.04400 49.08700 22.44200
C  36.80400 49.93400 21.39200
C  37.21400 49.21800 20.10300
C  37.78500 47.87200 20.53200
C  37.63400 47.90100 22.01500
C  36.11300 49.12600 19.00900
C  39.33100 47.64900 20.15600
C  40.32600 48.82400 20.57600
N  37.58200 47.94600 25.02100
C  37.82400 46.82000 24.21400
C  38.04100 45.67000 25.03500
C  37.81800 46.16200 26.32200
C  37.44400 47.50700 26.29100
C  38.44300 44.35100 24.55100
C  37.79000 45.72800 27.75100
O  37.97900 44.62500 28.24500
C  37.41500 47.02700 28.56800
C  36.24800 46.62700 29.39200
O  35.09700 46.74800 29.01500
O  36.68200 46.10000 30.58900
C  35.65600 45.47900 31.42100
H  34.99700 53.23400 26.75200
H  36.06600 51.77800 20.53000
H  38.14200 45.94600 22.28800
H  35.65200 49.52200 29.59100
H  36.42900 52.31100 28.84900
H  33.61600 51.63900 28.17900
H  34.20900 52.88400 29.24300
H  33.82300 51.17400 29.76700
H  37.91800 51.34800 29.72000
H  38.53400 49.70500 29.46300
H  38.26700 50.76800 31.86100
H  38.23800 49.06500 31.44500
H  33.45600 55.24000 24.39900
H  34.98400 55.83100 24.22800
H  34.59600 54.95500 25.70200
H  33.82100 55.91800 21.88500
H  34.65600 56.30600 20.57600
H  35.72800 56.22000 22.05300
H  37.99400 49.81300 19.62700
H  37.23400 47.01600 20.14200
H  35.16700 49.39300 19.48200
H  36.10300 48.25000 18.36200
H  36.28300 49.99100 18.36700
H  39.43100 47.64100 19.07000
H  39.55900 46.71100 20.66300
H  39.89100 49.52500 21.28700
H  40.65100 49.44100 19.73800
H  41.19300 48.29800 20.97600
H  39.47900 44.18200 24.84300
H  38.19200 44.28700 23.49200
H  37.86100 43.55700 25.02000
H  38.28200 47.36300 29.13700
H  34.91700 46.20000 31.77000
H  36.14400 44.98900 32.26400
H  35.15000 44.68800 30.86700

