158

Mg 43.69200 4.38600 46.46600
C  41.96400 7.46000 46.83500
C  40.80900 2.60800 46.34900
C  45.57100 1.70000 45.86600
C  46.65500 6.46400 46.28500
N  41.64300 5.03300 46.56200
C  41.14400 6.27400 46.78100
C  39.61600 6.17800 46.83900
C  39.29200 4.63100 46.86300
C  40.66300 4.01500 46.64600
C  38.60200 4.12300 48.18800
C  38.85300 7.06300 45.78100
C  39.42000 7.40000 44.40600
H  38.76600 6.58000 43.17000
N  43.25700 2.43700 46.14000
C  42.01300 1.87300 46.08400
C  42.05700 0.43200 45.84300
C  43.43800 0.12700 45.81400
C  44.16600 1.44800 45.89200
C  40.79500 -0.35900 45.66300
C  44.03000 -1.31700 45.66200
O  43.22500 -2.27100 45.64300
C  45.46500 -1.52000 45.46300
N  45.81700 4.17600 45.99100
C  46.32000 2.83000 46.00300
C  47.87900 2.83200 46.07300
C  48.17500 4.37700 46.01100
C  46.82100 5.10700 46.11400
C  48.39300 1.91000 47.22900
C  48.88900 4.88000 44.74100
C  50.42000 4.83500 44.95300
N  44.30000 6.53900 46.52300
C  45.46900 7.18400 46.48500
C  45.27200 8.63700 46.67800
C  43.87200 8.68000 46.83100
C  43.33500 7.44400 46.73800
C  46.21800 9.72900 46.75300
C  42.78400 9.58200 47.07700
O  42.82800 10.80500 47.38400
C  41.49100 8.82300 47.06000
C  40.93500 8.93600 48.47600
O  41.24300 8.26800 49.45500
O  40.01700 9.93500 48.38100
C  39.34300 10.37700 49.60900
H  39.78700 2.22200 46.31800
H  46.10800 0.75300 45.77100
H  47.51000 7.13000 46.42100
H  39.40000 6.53300 47.84700
H  38.51800 4.38200 46.13600
H  38.43400 5.00100 48.81100
H  39.30900 3.50800 48.74400
H  37.65800 3.60400 48.02400
H  38.61000 8.04400 46.18900
H  37.89300 6.63800 45.48700
H  40.49700 7.50400 44.27500
H  39.08900 8.41400 44.18300
H  40.56000 -0.66800 46.68100
H  41.05600 -1.17200 44.98500
H  40.00900 0.32300 45.34000
H  45.45200 -2.60500 45.35800
H  46.04100 -1.29900 46.36200
H  45.84200 -1.07400 44.54200
H  48.29100 2.31900 45.20400
H  48.67500 4.73100 46.91300
H  48.96100 1.04400 46.89000
H  47.53200 1.51700 47.77000
H  49.07400 2.45100 47.88700
H  48.50000 5.88300 44.56600
H  48.70600 4.39700 43.78100
H  51.00100 4.60000 44.06000
H  50.61800 4.07000 45.70300
H  50.85900 5.81000 45.16700
H  46.70300 9.78100 47.72800
H  45.57600 10.59100 46.57300
H  46.95000 9.75600 45.94700
H  40.79300 9.25800 46.34400
H  39.73400 10.01500 50.56000
H  38.31100 10.04900 49.48500
H  39.45900 11.45400 49.73200
Mg 42.79000 42.06700 27.10100
C  41.67400 44.36000 29.48200
C  43.93700 40.07100 29.72500
C  44.14400 40.04900 24.79000
C  42.60800 44.56400 24.59900
N  42.73100 42.20400 29.36800
C  42.12400 43.20300 30.07400
C  42.08900 42.87600 31.53300
C  43.05200 41.61100 31.62400
C  43.34300 41.30100 30.15200
C  44.37400 41.81800 32.45400
C  40.64700 42.67100 32.06900
C  40.27200 43.43200 33.36200
H  41.20100 43.51700 34.57000
N  43.68500 40.21300 27.31600
C  44.09200 39.58200 28.39200
C  44.58700 38.24700 28.00000
C  44.42400 38.12500 26.60300
C  44.03500 39.48700 26.14200
C  45.10600 37.15200 28.94200
C  44.62500 36.95200 25.70800
O  44.36000 36.99900 24.52500
C  44.93300 35.56400 26.28100
N  43.60400 42.45300 25.11900
C  44.00900 41.37000 24.36700
C  44.16700 41.72000 22.83300
C  43.76000 43.20200 22.79000
C  43.35300 43.45400 24.25300
C  45.47300 41.40400 22.15100
C  42.58400 43.45900 21.81700
C  41.28300 42.66500 22.24700
N  42.15800 44.07800 26.97600
C  42.03500 44.92900 25.88300
C  41.28400 46.10600 26.30200
C  41.17400 45.96700 27.71300
C  41.78000 44.75600 28.11000
C  40.86200 47.26800 25.45400
C  40.59900 46.57800 28.91400
O  40.20500 47.68700 29.13000
C  40.89200 45.52100 30.08000
C  41.70400 46.34700 31.11000
O  42.90600 46.62300 31.02200
O  40.83900 46.79100 32.08700
C  41.45500 47.66500 33.06800
H  44.17600 39.27300 30.43100
H  44.37000 39.39900 23.94200
H  42.50500 45.30300 23.80100
H  42.63400 43.73500 31.92400
H  42.44600 40.86000 32.13200
H  45.15900 41.62600 31.72200
H  44.43300 41.08000 33.25400
H  44.41800 42.85100 32.79900
H  40.43000 41.60800 32.17400
H  39.91400 42.99200 31.32900
H  39.26400 43.13100 33.64900
H  40.12900 44.45700 33.02100
H  46.15100 37.02100 28.66300
H  44.57600 36.23700 28.67600
H  44.96900 37.38100 29.99900
H  44.14600 35.30100 26.98800
H  45.87500 35.59300 26.82700
H  45.07600 34.88500 25.44000
H  43.46200 41.07500 22.30900
H  44.61700 43.84400 22.58600
H  46.05800 40.80500 22.84900
H  46.05100 42.31200 21.97600
H  45.35300 40.81100 21.24400
H  42.83800 43.17900 20.79500
H  42.37500 44.52600 21.75300
H  40.51500 43.38100 22.53900
H  41.41000 41.94200 23.05200
H  40.80900 42.08000 21.45800
H  40.39400 46.79700 24.59100
H  41.79000 47.81500 25.28600
H  40.20100 47.93600 26.00700
H  39.90700 45.17400 30.39400
H  42.39400 48.06900 32.69000
H  41.54800 47.23200 34.06400
H  40.72700 48.45500 33.25500

