158

Mg 5.16500 53.64600 41.89400
C  4.66800 50.24400 41.12300
C  7.99500 53.64500 40.16300
C  5.38900 57.09100 42.51000
C  1.94300 53.64300 43.30900
N  6.12900 52.11300 40.59500
C  5.77800 50.88000 40.49300
C  6.71800 50.18100 39.50400
C  7.98200 51.04700 39.69500
C  7.35900 52.39900 40.11000
C  9.07200 50.60000 40.67800
C  6.16100 50.05600 38.03200
C  6.74700 48.95700 37.16100
H  5.97000 48.34900 36.04700
N  6.51600 55.12900 41.46700
C  7.60900 54.90100 40.68200
C  8.46000 56.06000 40.61600
C  7.74300 57.08100 41.38500
C  6.46800 56.44200 41.83100
C  9.79200 56.18300 39.88200
C  8.27300 58.43000 41.74500
O  9.43500 58.76100 41.45300
C  7.45400 59.50200 42.56300
N  3.73800 55.33100 42.55700
C  4.12900 56.55000 42.86800
C  2.98100 57.26400 43.60600
C  1.93200 56.18000 43.80300
C  2.52000 54.96000 43.20600
C  3.56400 57.83400 44.89700
C  0.50600 56.62500 43.25700
C  -0.69500 56.64500 44.27100
N  3.55000 52.32800 42.03400
C  2.43400 52.41300 42.77600
C  1.79600 51.16700 42.81900
C  2.68200 50.26300 42.28900
C  3.69500 51.03500 41.74200
C  0.37400 50.82600 43.12100
C  2.95000 48.84900 42.02800
O  2.43100 47.80900 42.22600
C  4.33500 48.79600 41.24800
C  4.20400 48.09600 39.96900
O  3.43000 48.42800 39.08300
O  4.90100 46.98300 39.94300
C  4.47400 45.94000 38.98400
H  9.02000 53.66100 39.78400
H  5.50000 58.14200 42.78500
H  0.96000 53.77900 43.76400
H  6.91800 49.15700 39.82100
H  8.50000 51.16400 38.74300
H  8.88500 49.59100 41.04300
H  9.15700 51.29900 41.51000
H  10.00200 50.48500 40.12100
H  6.60600 50.97500 37.64900
H  5.08600 50.23200 37.99100
H  6.88900 48.10700 37.82800
H  7.67000 49.34500 36.73100
H  9.83800 57.15500 39.39300
H  9.90100 55.37200 39.16200
H  10.54600 56.16100 40.66900
H  8.13700 60.33700 42.71500
H  7.26200 59.22300 43.59900
H  6.55700 59.82900 42.03600
H  2.52300 58.11500 43.10100
H  1.79200 55.83800 44.82900
H  4.46700 57.25200 45.08200
H  2.98400 57.61000 45.79200
H  3.79800 58.89300 44.79000
H  0.20800 55.80900 42.59900
H  0.61700 57.47800 42.58700
H  -0.30700 56.29400 45.22700
H  -1.39400 55.87000 43.95500
H  -1.06100 57.63600 44.53700
H  -0.14400 51.28600 43.96300
H  0.12600 49.77800 43.28900
H  -0.17500 51.22500 42.26700
H  4.97600 48.25600 41.94500
H  5.34700 45.43100 38.57600
H  3.96100 46.32900 38.10500
H  3.95600 45.26100 39.66200
Mg -2.28200 34.36000 27.61300
C  -3.88900 32.54800 30.11900
C  -0.80200 36.27100 30.12300
C  -0.84800 36.26700 25.15300
C  -4.17300 32.60200 25.19500
N  -2.38000 34.37800 29.82200
C  -3.16800 33.63700 30.65000
C  -2.91700 33.91600 32.22900
C  -2.04900 35.21900 32.10400
C  -1.61800 35.27500 30.60700
C  -2.58700 36.63800 32.50100
C  -2.34500 32.67700 33.00000
C  -3.08800 32.14600 34.27600
H  -2.33200 32.14700 35.63500
N  -1.04600 36.07000 27.66700
C  -0.51600 36.66700 28.75900
C  0.38700 37.69800 28.34100
C  0.48500 37.67400 26.89500
C  -0.52200 36.66400 26.49900
C  1.15500 38.54800 29.29400
C  1.34900 38.54900 25.98900
O  1.34700 38.40600 24.75700
C  2.00400 39.74800 26.47600
N  -2.51800 34.48800 25.46900
C  -1.75700 35.28700 24.71000
C  -2.15000 35.12600 23.25400
C  -2.93000 33.78600 23.25800
C  -3.23100 33.60800 24.73700
C  -3.00700 36.36000 22.81600
C  -2.05600 32.68600 22.77500
C  -2.22400 32.27800 21.31600
N  -3.62000 32.84000 27.57500
C  -4.36800 32.26000 26.51200
C  -5.24400 31.26600 27.03500
C  -5.08100 31.31700 28.45300
C  -4.08900 32.29200 28.75100
C  -6.14000 30.39000 26.18700
C  -5.60500 30.79600 29.71800
O  -6.36600 29.89500 29.98500
C  -4.82000 31.58600 30.83800
C  -5.87400 32.19000 31.73500
O  -6.76600 32.95400 31.36800
O  -5.67100 31.73000 33.02800
C  -6.82600 31.76400 33.90900
H  -0.38900 36.90200 30.91200
H  -0.45100 36.83800 24.31000
H  -4.81200 32.21700 24.39700
H  -3.89700 34.23100 32.58600
H  -1.25900 35.08400 32.84300
H  -1.79400 37.14200 33.05400
H  -3.46000 36.61900 33.15300
H  -2.79000 37.12000 31.54400
H  -1.36600 32.91000 33.41800
H  -2.20200 31.79800 32.37100
H  -3.31000 31.10500 34.04400
H  -3.99300 32.73400 34.43200
H  0.53400 38.75800 30.16500
H  1.56700 39.50000 28.95800
H  1.97700 37.94600 29.68000
H  1.35400 40.38200 27.07900
H  2.38200 40.31200 25.62400
H  2.81100 39.34300 27.08700
H  -1.29700 35.11300 22.57600
H  -3.93100 33.87600 22.83700
H  -2.59100 36.93600 21.99000
H  -3.06500 37.01700 23.68500
H  -3.98800 35.99200 22.51500
H  -2.09200 31.87600 23.50400
H  -1.00400 32.96900 22.81800
H  -1.26700 32.56200 20.87900
H  -3.07800 32.81800 20.90700
H  -2.47500 31.22500 21.19000
H  -5.42400 29.75100 25.67100
H  -6.56700 30.94600 25.35200
H  -6.80600 29.86100 26.86900
H  -4.24200 30.78800 31.30400
H  -7.07800 30.85300 34.45200
H  -7.66900 31.98700 33.25500
H  -6.74300 32.60600 34.59600

