158

Mg 35.68200 2.38600 30.45700
C  33.36200 3.30800 32.86100
C  38.13900 2.45900 33.01700
C  37.95900 1.49300 28.19400
C  33.15600 2.65900 27.95300
N  35.66400 2.73200 32.66700
C  34.64000 3.12300 33.40700
C  34.97500 3.03900 34.86900
C  36.51200 3.13300 34.88300
C  36.84100 2.70600 33.45100
C  36.96000 4.65400 35.19100
C  34.40100 1.77500 35.57700
C  34.04900 1.96300 37.12200
H  34.80900 3.01200 37.99300
N  37.73200 1.98500 30.62900
C  38.53200 2.02500 31.72900
C  39.90100 1.51100 31.38400
C  39.77600 1.20400 29.98300
C  38.44800 1.61500 29.55300
C  41.02400 1.32400 32.40300
C  40.84800 0.53400 29.14800
O  40.67800 0.28700 27.95100
C  42.16400 0.20200 29.73100
N  35.56500 2.20300 28.38500
C  36.68800 1.76300 27.65100
C  36.41500 1.55500 26.14700
C  34.83000 1.69100 26.16000
C  34.47900 2.23100 27.51700
C  37.26400 2.49000 25.22500
C  34.10600 0.38800 25.83600
C  34.34200 -0.23700 24.45300
N  33.68600 2.97500 30.37700
C  32.83300 3.01300 29.24900
C  31.51800 3.47800 29.78300
C  31.64400 3.51100 31.19900
C  33.03600 3.28200 31.48600
C  30.31900 3.74700 28.98400
C  30.94400 3.77200 32.40500
O  29.73500 4.06400 32.57500
C  32.06500 3.66900 33.54100
C  32.25500 5.01100 34.23900
O  32.63300 5.98900 33.71000
O  31.87500 4.97900 35.58300
C  32.08700 6.20800 36.33100
H  38.86700 2.61700 33.81600
H  38.76300 1.22800 27.50500
H  32.34600 2.70800 27.22300
H  34.54600 3.94200 35.30300
H  36.99500 2.54600 35.66400
H  37.60700 4.58300 36.06500
H  36.18700 5.39500 35.39300
H  37.46400 5.00600 34.29100
H  34.93100 0.83100 35.45600
H  33.43000 1.50300 35.16500
H  34.15900 1.00800 37.63400
H  32.97300 2.13900 37.09200
H  41.13500 0.26600 32.64000
H  40.85200 1.89700 33.31400
H  41.94000 1.72300 31.96600
H  42.17100 -0.55500 30.51500
H  42.57400 1.18700 29.95300
H  42.79200 -0.23400 28.95400
H  36.65600 0.50300 25.99200
H  34.67600 2.46200 25.40500
H  38.24100 2.03200 25.07200
H  37.34300 3.51400 25.59100
H  36.77000 2.34400 24.26400
H  33.02600 0.53500 25.84500
H  34.39300 -0.34600 26.58900
H  34.99700 0.44100 23.90500
H  33.37400 -0.28600 23.95500
H  34.76900 -1.22700 24.29300
H  30.50200 4.06500 27.95800
H  29.74100 4.45700 29.57600
H  29.73300 2.83700 28.85900
H  31.78200 2.92100 34.28100
H  31.39200 6.93000 35.90100
H  33.07700 6.59200 36.08300
H  32.06100 6.02100 37.40400
Mg 16.16800 51.80200 26.43300
C  18.22600 50.94100 29.11000
C  13.72200 52.77200 28.53100
C  14.50200 52.82600 23.72500
C  18.78400 50.68700 24.25000
N  15.99500 51.93200 28.65200
C  16.96500 51.45300 29.51000
C  16.49800 51.70800 30.97600
C  14.92900 51.98400 30.73300
C  14.81000 52.19800 29.21200
C  14.08600 50.80100 31.16700
C  17.30800 52.87200 31.58900
C  17.67800 52.69300 33.08800
H  16.80400 51.99800 34.11900
N  14.35500 52.73500 26.21400
C  13.48600 53.06300 27.17500
C  12.29500 53.61500 26.54800
C  12.50500 53.67600 25.07900
C  13.81100 53.02900 24.96400
C  11.07000 54.07100 27.41900
C  11.61500 54.31500 24.08200
O  11.84400 54.35000 22.86900
C  10.38000 54.93700 24.45300
N  16.65900 51.86600 24.38800
C  15.75200 52.33200 23.47100
C  16.30200 52.33800 22.02500
C  17.79500 51.84700 22.19300
C  17.80700 51.45500 23.71300
C  15.44400 51.43900 21.05700
C  18.79800 52.82300 21.58800
C  19.85000 53.51100 22.52900
N  17.96400 50.68200 26.62900
C  18.88900 50.29100 25.60400
C  20.01900 49.69700 26.27600
C  19.80700 49.93300 27.64600
C  18.56400 50.58700 27.81200
C  21.23300 48.99400 25.55800
C  20.32200 49.85000 28.94300
O  21.40900 49.42700 29.24700
C  19.32100 50.47200 29.96100
C  18.97400 49.40800 30.89900
O  18.37600 48.41400 30.61400
O  19.47200 49.64400 32.07500
C  19.28800 48.55600 33.09100
H  12.97000 53.04500 29.27500
H  13.87600 53.05200 22.85900
H  19.52200 50.25500 23.57100
H  16.53000 50.81400 31.59800
H  14.61700 52.88100 31.26900
H  14.59100 50.06800 31.79700
H  13.53600 50.28100 30.38300
H  13.33700 51.29600 31.78400
H  16.61700 53.71500 31.60200
H  18.18700 52.96800 30.95200
H  17.80100 53.74100 33.36100
H  18.61600 52.13900 33.13000
H  10.19000 53.56200 27.02600
H  10.84800 55.12300 27.23700
H  11.14000 53.94300 28.49900
H  9.78900 55.28700 23.60700
H  10.58200 55.85000 25.01300
H  9.81600 54.15000 24.95400
H  16.32300 53.37500 21.69100
H  17.85600 50.86000 21.73300
H  16.06300 50.82300 20.40500
H  14.81900 52.01100 20.37200
H  14.86600 50.80000 21.72500
H  18.30500 53.56100 20.95600
H  19.33200 52.26400 20.81900
H  20.23000 52.85100 23.30800
H  19.60700 54.47700 22.97000
H  20.67300 53.70700 21.84200
H  21.50100 49.58900 24.68500
H  20.78100 48.04900 25.25600
H  22.11300 48.93500 26.19800
H  19.83700 51.34500 30.36000
H  19.83900 47.62400 32.96500
H  18.36600 47.97600 33.12900
H  19.47600 49.07000 34.03400

