158

Mg -1.91300 16.91200 26.93900
C  -2.57500 14.50200 29.45900
C  -2.49600 19.37500 29.29000
C  -2.12700 19.24800 24.44100
C  -1.90500 14.38600 24.65500
N  -2.50500 16.89000 29.07000
C  -2.55800 15.80300 29.94700
C  -2.53000 16.25200 31.42000
C  -2.62900 17.82300 31.34100
C  -2.54900 18.08100 29.80400
C  -3.89500 18.41800 32.08400
C  -1.32400 15.58500 32.23600
C  -0.66000 16.28400 33.45400
H  -0.36200 15.46400 34.70100
N  -2.13600 18.98500 26.85700
C  -2.35200 19.79900 27.95300
C  -2.26600 21.23300 27.61400
C  -2.20300 21.26900 26.19700
C  -2.23300 19.78200 25.74900
C  -2.38900 22.34800 28.59600
C  -2.06300 22.38700 25.26200
O  -1.92700 22.19000 24.03100
C  -2.21800 23.80400 25.69100
N  -2.09500 16.83200 24.82300
C  -2.00700 17.93900 24.00200
C  -1.82100 17.50200 22.53100
C  -1.69200 15.93500 22.75200
C  -1.85900 15.67200 24.17300
C  -3.01000 17.93200 21.63200
C  -0.34200 15.37200 22.26200
C  0.97100 15.88500 22.96400
N  -2.12800 14.81200 26.97200
C  -2.10200 13.89300 25.98200
C  -2.30900 12.60300 26.50100
C  -2.41700 12.78500 27.86100
C  -2.30500 14.15200 28.13100
C  -2.42000 11.28100 25.70600
C  -2.60300 12.06700 29.00800
O  -2.80500 10.89600 29.17300
C  -2.66300 13.14700 30.14800
C  -1.67100 12.71600 31.14100
O  -0.44100 12.63300 30.99100
O  -2.28800 12.41800 32.28100
C  -1.63300 11.54100 33.27800
H  -2.24700 20.14100 30.02800
H  -2.14900 19.96100 23.61500
H  -2.02700 13.65600 23.85300
H  -3.42800 15.87900 31.91300
H  -1.72500 18.22000 31.80200
H  -4.41100 17.61600 32.61100
H  -4.66600 18.66400 31.35300
H  -3.52900 19.18700 32.76500
H  -0.46300 15.37000 31.60400
H  -1.81400 14.72100 32.68500
H  -1.25900 17.11000 33.83700
H  0.26300 16.78000 33.15500
H  -1.43300 22.86200 28.69100
H  -2.67500 22.04600 29.60400
H  -3.12500 23.02900 28.17100
H  -3.25400 23.89200 26.01800
H  -2.13000 24.39200 24.77700
H  -1.44800 24.12700 26.39200
H  -0.81700 17.84800 22.28400
H  -2.44100 15.43300 22.13800
H  -3.62900 18.58800 22.24300
H  -3.64700 17.11400 21.29600
H  -2.76000 18.61800 20.82200
H  -0.22800 15.70500 21.23100
H  -0.47100 14.29000 22.24400
H  0.73600 16.60000 23.75200
H  1.58700 16.29000 22.16000
H  1.49100 14.99300 23.31400
H  -1.78200 10.43400 25.95900
H  -2.23000 11.51400 24.65800
H  -3.47800 11.02500 25.75900
H  -3.66200 13.05000 30.57400
H  -2.30100 11.34300 34.11600
H  -0.70200 11.96000 33.66100
H  -1.42100 10.60100 32.76700
Mg 36.01100 49.90900 24.72400
C  36.18100 48.11200 27.74500
C  34.63000 52.52500 26.40700
C  35.39700 51.44200 21.67500
C  36.71900 46.89400 23.06800
N  35.68800 50.37400 26.87800
C  35.70900 49.47400 27.88400
C  35.40700 50.19500 29.23700
C  34.73800 51.57700 28.77400
C  35.01500 51.49500 27.24200
C  33.25100 51.77000 29.22700
C  36.60200 50.33800 30.13500
C  36.50900 49.90700 31.62200
H  35.07600 49.63100 32.17200
N  35.20200 51.76500 24.15500
C  34.75400 52.69500 24.98500
C  34.43400 53.96600 24.31300
C  34.73800 53.69900 22.96000
C  35.07500 52.25900 22.85300
C  33.82500 55.21300 24.96700
C  34.68300 54.70300 21.84100
O  34.94700 54.42800 20.65600
C  34.40800 56.16200 21.95100
N  36.03900 49.26100 22.74000
C  35.85600 50.11900 21.68500
C  36.19400 49.36900 20.36400
C  36.66700 48.01100 20.84100
C  36.45000 48.00000 22.33500
C  34.96200 49.24400 19.43700
C  38.11000 47.78500 20.46200
C  39.19000 48.76800 20.96200
N  36.43000 47.96100 25.23600
C  36.68800 46.84500 24.50000
C  37.11400 45.70200 25.32900
C  36.94300 46.20700 26.56400
C  36.41600 47.48500 26.45700
C  37.61400 44.29200 25.01000
C  37.04600 45.86800 27.97400
O  37.42200 44.85300 28.52600
C  36.46500 47.09200 28.83200
C  35.36600 46.63400 29.66300
O  34.18800 46.87600 29.42700
O  35.84800 45.84500 30.72800
C  34.92800 45.16100 31.63200
H  34.32900 53.43100 26.93600
H  35.39000 51.99800 20.73600
H  37.00500 45.97800 22.54700
H  34.64200 49.57300 29.70000
H  35.35200 52.39500 29.15100
H  32.74800 51.00900 29.82400
H  32.73700 51.95300 28.28300
H  33.20400 52.70900 29.77800
H  37.00600 51.35100 30.14300
H  37.31800 49.65500 29.67700
H  36.94800 50.62900 32.31000
H  37.11300 49.00100 31.67700
H  34.61700 55.71700 25.52100
H  33.09000 54.88900 25.70400
H  33.28200 55.83700 24.25700
H  34.83400 56.77600 21.15800
H  34.92000 56.56900 22.82300
H  33.35100 56.42500 21.99800
H  36.87900 50.07200 19.88900
H  36.13900 47.14900 20.43100
H  34.32900 50.13100 19.40400
H  34.32000 48.39900 19.68800
H  35.35100 49.13900 18.42400
H  38.04800 47.93700 19.38500
H  38.53200 46.80300 20.67600
H  39.89300 48.25500 21.61900
H  38.78600 49.64400 21.46900
H  39.69900 49.19600 20.09900
H  36.97400 43.61100 25.57100
H  38.65700 44.00700 25.15300
H  37.53100 44.11900 23.93700
H  37.32000 47.43600 29.41400
H  33.99200 44.88100 31.15000
H  34.74900 45.79600 32.49900
H  35.41500 44.24000 31.95400

