158

Mg 15.92800 51.88800 25.96500
C  17.68300 50.68800 28.84800
C  13.55000 53.09500 28.12500
C  14.39400 53.26000 23.37700
C  18.46600 50.58100 24.11000
N  15.55600 51.68200 28.18200
C  16.39600 51.22600 29.09300
C  15.89500 51.60100 30.58800
C  14.43300 51.99800 30.24900
C  14.49100 52.27400 28.76200
C  13.27600 51.00200 30.55700
C  16.70600 52.61100 31.36600
C  16.78800 52.23500 32.88200
H  15.62400 52.82000 33.79100
N  14.14300 53.04000 25.78200
C  13.32500 53.44000 26.84000
C  12.34300 54.37000 26.22600
C  12.50800 54.32600 24.78600
C  13.72700 53.51600 24.56500
C  11.18000 54.96000 27.06800
C  11.64900 54.96700 23.64900
O  11.89900 54.80400 22.44000
C  10.44100 55.81900 23.98900
N  16.24700 51.74000 24.02100
C  15.55700 52.48100 23.13700
C  16.31600 52.60400 21.79400
C  17.64000 51.79400 22.07300
C  17.43100 51.29000 23.49600
C  15.49000 52.19600 20.54600
C  18.97800 52.55100 21.90500
C  20.22800 51.91300 21.28600
N  17.63300 50.55800 26.37800
C  18.60800 50.18700 25.50300
C  19.67900 49.51700 26.26800
C  19.36900 49.76400 27.57500
C  18.11100 50.37500 27.56600
C  20.95500 48.90100 25.77500
C  19.76900 49.42700 28.87800
O  20.74100 48.77100 29.24000
C  18.69200 50.15400 29.77000
C  18.14000 49.23000 30.78400
O  17.35200 48.31200 30.56900
O  18.68500 49.43100 32.05500
C  18.24500 48.45100 33.08500
H  12.77400 53.34400 28.85200
H  14.07200 53.77700 22.47100
H  19.23200 50.30000 23.38400
H  15.80400 50.72800 31.23500
H  14.03800 52.90200 30.71200
H  12.44900 51.11500 29.85700
H  12.98800 50.89700 31.60300
H  13.60900 49.97500 30.41000
H  16.03800 53.47000 31.42500
H  17.67600 52.84700 30.92800
H  17.71400 52.64200 33.28700
H  16.85300 51.17800 33.14100
H  11.22800 54.55600 28.08000
H  10.18800 54.72000 26.68500
H  11.25700 56.04700 27.09100
H  9.99900 56.31000 23.12200
H  10.70700 56.49900 24.79900
H  9.74500 55.06300 24.35300
H  16.55800 53.66300 21.70800
H  17.66200 50.89000 21.46600
H  16.08500 51.48100 19.97700
H  15.21100 53.06200 19.94600
H  14.59400 51.65200 20.84200
H  19.29000 52.83600 22.91000
H  18.73500 53.53700 21.50900
H  20.50700 52.60800 20.49400
H  20.05400 50.90700 20.90300
H  21.11600 51.73700 21.89200
H  21.16500 49.37900 24.81800
H  20.81100 47.83100 25.62900
H  21.79200 49.13300 26.43400
H  19.12100 50.97600 30.34300
H  17.22300 48.12600 32.89000
H  18.24300 49.01100 34.02000
H  18.93800 47.61500 33.18000
Mg -5.10100 25.73000 26.98900
C  -4.00300 27.52800 29.64700
C  -6.80300 23.58100 28.94900
C  -5.90300 23.86400 24.18100
C  -3.24000 27.91800 24.87500
N  -5.28300 25.54200 29.04600
C  -4.73500 26.37900 29.99700
C  -5.21300 25.99400 31.36800
C  -5.82700 24.62100 31.15100
C  -6.07200 24.58200 29.60700
C  -4.99400 23.42100 31.64700
C  -6.29500 27.00200 31.87200
C  -6.59100 27.05000 33.33300
H  -6.10000 25.99000 34.33900
N  -6.12400 23.90800 26.61000
C  -6.91900 23.31800 27.53400
C  -7.74500 22.18600 26.92900
C  -7.39800 22.26000 25.54100
C  -6.45800 23.36000 25.38100
C  -8.77300 21.28000 27.66700
C  -7.83800 21.35800 24.47000
O  -7.44500 21.54700 23.31300
C  -8.78200 20.12900 24.76000
N  -4.43000 25.75900 24.89900
C  -4.96900 24.89900 23.92700
C  -4.45000 25.23600 22.53000
C  -3.78900 26.67300 22.73900
C  -3.77600 26.78100 24.27800
C  -3.42100 24.11300 22.05800
C  -4.59200 27.83000 22.02800
C  -3.71900 28.72700 21.13700
N  -3.87900 27.38600 27.24600
C  -3.22700 28.22100 26.26800
C  -2.60100 29.30600 26.94500
C  -2.87100 29.06900 28.29100
C  -3.67000 27.94000 28.39600
C  -1.78000 30.34200 26.29600
C  -2.71700 29.58700 29.60000
O  -2.08500 30.54600 30.03300
C  -3.43200 28.60800 30.58000
C  -2.47500 28.17600 31.65200
O  -1.41900 27.59300 31.44600
O  -3.03700 28.44300 32.85700
C  -2.12800 27.95700 33.90300
H  -7.40600 22.95600 29.61100
H  -6.11300 23.41200 23.20900
H  -2.56400 28.56000 24.30600
H  -4.38200 25.99000 32.07300
H  -6.74900 24.70400 31.72700
H  -3.99800 23.75600 31.93600
H  -4.92600 22.58200 30.95400
H  -5.53800 23.01600 32.50100
H  -7.21600 26.87400 31.30300
H  -5.94800 28.01000 31.64600
H  -7.67000 26.91800 33.24800
H  -6.34900 28.06200 33.65600
H  -9.69300 21.26400 27.08300
H  -8.93000 21.81200 28.60500
H  -8.47200 20.26000 27.90700
H  -8.53700 19.55200 25.65200
H  -8.68100 19.43300 23.92700
H  -9.79700 20.51900 24.68200
H  -5.25600 25.23000 21.79500
H  -2.76400 26.71000 22.37000
H  -3.73900 23.62800 21.13400
H  -3.23000 23.39900 22.85900
H  -2.40800 24.50800 21.98200
H  -5.12000 28.39200 22.79800
H  -5.38500 27.45900 21.37900
H  -2.68800 28.68200 21.48800
H  -4.13900 29.70900 20.91800
H  -3.70600 28.19700 20.18500
H  -2.23100 30.92600 25.49400
H  -0.90100 29.94700 25.78600
H  -1.52900 31.12200 27.01500
H  -4.23100 29.23300 30.97700
H  -2.28600 26.88100 33.97400
H  -2.38300 28.34700 34.88900
H  -1.08400 28.19900 33.70000

