158

Mg 24.66700 1.23600 29.86500
C  26.89600 1.33400 32.58900
C  22.10800 1.63100 32.03600
C  22.77500 1.01500 27.20500
C  27.46500 0.74600 27.82100
N  24.55600 1.50600 32.06300
C  25.53700 1.49000 32.98800
C  24.99600 1.66200 34.39900
C  23.45500 1.58000 34.22500
C  23.30100 1.65400 32.68300
C  22.71600 0.33500 34.85500
C  25.36000 2.96200 35.11000
C  26.01200 2.84400 36.53400
H  25.57300 3.79200 37.58900
N  22.73100 1.41400 29.64000
C  21.81500 1.61300 30.64900
C  20.50000 1.71900 30.05000
C  20.68200 1.38700 28.66900
C  22.13600 1.22600 28.48200
C  19.17900 2.02900 30.80800
C  19.60200 1.32200 27.58300
O  19.80800 0.95000 26.45300
C  18.18200 1.68800 27.86000
N  25.12000 0.87000 27.73100
C  24.09400 0.89500 26.90400
C  24.57700 0.84000 25.49900
C  26.14800 0.91700 25.58500
C  26.29700 0.91400 27.10300
C  23.94300 -0.35700 24.62600
C  26.77600 2.18200 24.98800
C  26.58300 3.50400 25.80000
N  26.74300 1.00000 30.07600
C  27.72900 0.80300 29.19300
C  29.04100 0.64200 29.83500
C  28.74500 0.97600 31.14400
C  27.37500 1.09700 31.29100
C  30.38700 0.39500 29.18800
C  29.29800 1.11600 32.50100
O  30.49200 0.98100 32.90300
C  28.06600 1.28500 33.49000
C  27.93900 0.18600 34.49100
O  27.48500 -0.95200 34.37200
O  28.62200 0.51500 35.66100
C  28.73800 -0.41200 36.80200
H  21.17100 1.77600 32.57900
H  22.24300 1.20300 26.27100
H  28.30900 0.69900 27.13000
H  25.29300 0.78200 34.97000
H  22.82700 2.38200 34.61200
H  21.82200 0.57300 35.43300
H  23.39500 -0.06300 35.60900
H  22.51100 -0.43800 34.11500
H  24.52900 3.66600 35.13700
H  26.11400 3.38500 34.44500
H  27.06400 2.96300 36.27400
H  25.78000 1.83000 36.85900
H  18.59400 1.11300 30.72600
H  18.63900 2.80300 30.26200
H  19.24500 2.32000 31.85600
H  17.64600 1.63600 26.91300
H  18.24300 2.71800 28.21000
H  17.71300 0.94700 28.50700
H  24.26300 1.79100 25.07000
H  26.54500 0.03100 25.08900
H  23.23300 -0.90500 25.24600
H  24.65000 -1.17600 24.49200
H  23.58400 -0.08500 23.63400
H  26.31300 2.22500 24.00200
H  27.85000 2.12800 24.80900
H  25.59200 3.80900 25.46300
H  27.30900 4.21700 25.40800
H  26.58400 3.46000 26.88900
H  31.10300 0.60000 29.98300
H  30.52500 1.10700 28.37400
H  30.42500 -0.68200 29.02400
H  28.23900 2.15000 34.13000
H  29.63600 -0.26600 37.40300
H  28.69000 -1.48300 36.60500
H  27.87600 -0.19300 37.43300
Mg 36.98200 49.31200 24.77900
C  37.06800 47.40000 27.69200
C  35.34600 51.80900 26.60100
C  36.41300 50.91100 21.90800
C  38.28800 46.52900 22.90700
N  36.18700 49.51200 26.94600
C  36.58800 48.64200 27.98300
C  36.22700 49.22700 29.36300
C  35.50700 50.55300 28.91800
C  35.71200 50.69200 27.37300
C  34.08800 50.74900 29.42800
C  37.54500 49.35300 30.13900
C  37.47300 48.84400 31.58600
H  37.05500 49.94900 32.57000
N  36.14300 51.16500 24.38200
C  35.66000 52.09200 25.26300
C  35.25400 53.30100 24.58300
C  35.45200 53.01800 23.15400
C  36.09800 51.70600 23.05400
C  34.81200 54.63800 25.25400
C  35.27600 53.90000 21.93300
O  35.50900 53.59400 20.76900
C  34.77700 55.30700 22.17600
N  37.37600 48.85200 22.73000
C  36.97200 49.65600 21.75500
C  37.29100 49.14400 20.36200
C  38.22000 47.97500 20.76300
C  37.91600 47.70700 22.24800
C  35.98700 48.65700 19.55400
C  39.67500 48.08500 20.63800
C  40.46900 46.77200 20.17100
N  37.48800 47.31000 25.08500
C  38.10600 46.37800 24.29100
C  38.38300 45.21700 25.13400
C  38.04600 45.56500 26.43900
C  37.48000 46.85700 26.38700
C  39.07700 43.99200 24.68500
C  38.04800 45.11100 27.82900
O  38.41400 44.02800 28.29100
C  37.45000 46.32300 28.61900
C  36.23800 45.70100 29.20800
O  35.23300 45.32300 28.61300
O  36.36300 45.78700 30.58600
C  35.05400 45.36300 31.30100
H  34.88000 52.56900 27.23100
H  36.21000 51.44900 20.98000
H  38.85300 45.74100 22.40500
H  35.57300 48.55100 29.91300
H  35.99900 51.44700 29.30200
H  33.35100 50.49000 28.66800
H  33.86500 51.81400 29.47700
H  33.93800 50.17500 30.34300
H  37.73900 50.41200 30.30900
H  38.50000 49.03800 29.72000
H  38.46800 48.56500 31.93200
H  36.78900 47.99600 31.57000
H  33.76900 54.92200 25.11400
H  35.46100 55.42000 24.86000
H  35.05600 54.67300 26.31600
H  33.95500 55.40800 22.88500
H  34.30600 55.67200 21.26300
H  35.58100 55.97800 22.47900
H  37.85300 49.97000 19.92600
H  37.91200 47.10700 20.17900
H  35.10400 48.82900 20.16900
H  36.06700 47.62200 19.22000
H  35.99900 49.18400 18.60000
H  40.07500 48.29900 21.62900
H  39.94400 48.91800 19.98800
H  41.17900 46.99600 19.37600
H  39.83000 45.92600 19.91800
H  41.10900 46.47300 21.00100
H  40.08000 43.89400 25.10200
H  39.25300 43.93700 23.61100
H  38.37400 43.21100 24.97400
H  38.18000 46.55500 29.39500
H  34.26500 45.88400 30.75900
H  34.98400 45.62800 32.35600
H  34.79800 44.32100 31.10800

