158

Mg 2.45800 -1.68300 44.17600
C  4.90500 0.75400 43.33000
C  0.03800 0.52500 42.80400
C  0.36200 -4.16200 44.25600
C  5.10100 -3.78600 45.21200
N  2.47900 0.34100 43.20300
C  3.64200 1.14400 42.96800
C  3.24600 2.45600 42.26200
C  1.67000 2.40400 42.22500
C  1.38400 0.95600 42.75300
C  1.04900 3.53400 43.14500
C  3.95100 2.55800 40.87500
C  4.66000 3.87200 40.58000
H  4.45900 4.34900 39.07800
N  0.42600 -1.78400 43.83000
C  -0.39700 -0.77400 43.34100
C  -1.77300 -1.28300 43.35700
C  -1.69800 -2.71900 43.64800
C  -0.25700 -2.94500 43.94500
C  -2.97400 -0.48000 43.17300
C  -2.94100 -3.62900 43.87400
O  -4.09500 -3.23600 43.64600
C  -2.77000 -5.08600 44.34900
N  2.70700 -3.72200 44.60600
C  1.65100 -4.57500 44.57600
C  2.07500 -5.97800 45.11600
C  3.64100 -5.81400 45.34500
C  3.89600 -4.38700 45.06800
C  1.20500 -6.56600 46.23900
C  4.54600 -6.76800 44.39300
C  5.36800 -7.91000 45.01200
N  4.67500 -1.59600 44.21800
C  5.55800 -2.51600 44.72400
C  6.83200 -1.89200 44.70800
C  6.62200 -0.56800 44.21500
C  5.26000 -0.40900 43.90900
C  8.10200 -2.54900 45.04100
C  7.25900 0.68900 43.90900
O  8.41700 1.04100 43.97100
C  6.15300 1.66400 43.37600
C  6.04400 2.76600 44.32200
O  5.54000 2.62400 45.45200
O  6.69100 3.89000 43.94400
C  6.64400 4.95700 44.96400
H  -0.79400 1.11600 42.41400
H  -0.29400 -5.03500 44.24800
H  5.81700 -4.53300 45.56200
H  3.69800 3.24200 42.86800
H  1.29100 2.52700 41.21000
H  1.73900 4.27500 43.54900
H  0.53100 3.09400 43.99700
H  0.36000 4.08700 42.50700
H  3.25300 2.42100 40.04900
H  4.74700 1.81600 40.80600
H  5.72600 3.75700 40.77100
H  4.25900 4.55500 41.32900
H  -3.30600 -0.81200 42.19000
H  -2.74800 0.57800 43.04100
H  -3.80800 -0.69600 43.84100
H  -3.69600 -5.62300 44.55200
H  -2.10900 -5.19000 45.21000
H  -2.29900 -5.68500 43.57000
H  2.02700 -6.66100 44.26800
H  3.80900 -5.95100 46.41300
H  0.54500 -5.82500 46.68900
H  1.71500 -6.85500 47.15700
H  0.66500 -7.37700 45.75000
H  5.23600 -6.22200 43.75100
H  3.90900 -7.24900 43.65100
H  5.36900 -8.10200 46.08500
H  6.39700 -7.63900 44.77800
H  5.18600 -8.87900 44.54900
H  8.47200 -3.09000 44.17000
H  7.84900 -3.34700 45.73900
H  8.79400 -1.84500 45.50300
H  6.43900 2.10300 42.42000
H  7.40500 4.71600 45.70700
H  5.68100 5.14300 45.43800
H  6.90500 5.85300 44.40100
Mg -2.84900 35.09300 27.05900
C  -4.67000 33.24200 29.47300
C  -1.42200 36.70200 29.57600
C  -1.64200 37.18500 24.76500
C  -4.62400 33.29700 24.54900
N  -2.98200 34.85700 29.23200
C  -3.72100 34.09700 30.05500
C  -3.44100 34.30700 31.56700
C  -2.41800 35.44100 31.58900
C  -2.23800 35.71100 30.04800
C  -2.78800 36.71500 32.49600
C  -3.01500 33.01900 32.25900
C  -3.76600 32.65700 33.61900
H  -2.94600 31.83200 34.59900
N  -1.70000 36.68100 27.12200
C  -1.07900 37.08600 28.26100
C  -0.07700 38.10400 27.91400
C  -0.19400 38.35000 26.52600
C  -1.23300 37.41400 26.07400
C  0.79500 38.85300 28.97300
C  0.63300 39.30000 25.65600
O  0.39200 39.34200 24.42200
C  1.80700 40.07300 26.28400
N  -3.22800 35.28500 25.00300
C  -2.45000 36.15700 24.27400
C  -2.63800 35.96600 22.78000
C  -3.38400 34.63500 22.77000
C  -3.77500 34.39800 24.17200
C  -3.49200 37.10700 22.09400
C  -2.53500 33.38700 22.31200
C  -2.34900 33.18300 20.83200
N  -4.43200 33.61900 26.98300
C  -4.94500 32.90400 25.90100
C  -5.78800 31.89200 26.32700
C  -5.76500 32.05000 27.73500
C  -4.88900 33.08400 28.09200
C  -6.58000 30.83700 25.59500
C  -6.30100 31.52800 28.93400
O  -7.12900 30.59600 29.07700
C  -5.63100 32.28500 30.14100
C  -6.74800 33.03700 30.85200
O  -7.53900 33.86500 30.31000
O  -6.81700 32.68600 32.18000
C  -7.84300 33.42900 32.96900
H  -0.91400 37.20900 30.39900
H  -1.17600 37.74200 23.94900
H  -4.89800 32.62700 23.73200
H  -4.32800 34.72100 32.04700
H  -1.52600 35.01800 32.05000
H  -3.36300 37.47300 31.96500
H  -1.85400 37.11500 32.89100
H  -3.30200 36.31600 33.37100
H  -1.96900 32.82900 32.50000
H  -3.41200 32.24800 31.59900
H  -4.61600 32.06800 33.27700
H  -4.02000 33.51600 34.23900
H  0.68200 39.93700 29.00700
H  1.78300 38.51400 28.66100
H  0.75700 38.44600 29.98300
H  1.37700 40.83000 26.93900
H  2.45900 40.53900 25.54400
H  2.44000 39.41700 26.88100
H  -1.64800 35.90600 22.33000
H  -4.33300 34.61600 22.23300
H  -2.80300 37.78500 21.59100
H  -3.86700 37.67300 22.94700
H  -4.37600 36.83700 21.51600
H  -3.15300 32.51500 22.52500
H  -1.61200 33.20400 22.86200
H  -3.02800 33.86400 20.32000
H  -2.53100 32.15600 20.51500
H  -1.32400 33.38800 20.52300
H  -6.28200 30.76400 24.55000
H  -7.64300 31.07800 25.57300
H  -6.41900 29.86000 26.05000
H  -5.31500 31.45500 30.77300
H  -7.64100 33.40200 34.04000
H  -8.59900 32.67600 32.74400
H  -8.06500 34.42900 32.59700

