158

Mg 41.06100 9.24200 29.82500
C  42.93100 10.35400 32.56700
C  38.81300 7.88500 31.86100
C  39.71400 7.96100 27.10700
C  44.05400 9.91800 27.88900
N  40.83500 9.18600 31.96000
C  41.70300 9.80800 32.93900
C  41.00000 9.68100 34.33300
C  39.84900 8.64700 34.02000
C  39.80200 8.55300 32.54000
C  39.93200 7.25800 34.74500
C  40.56700 11.09500 34.84700
C  39.78800 11.10500 36.19600
H  40.31400 11.79700 37.42000
N  39.37800 8.16500 29.50600
C  38.50900 7.67700 30.44300
C  37.39200 7.12200 29.82100
C  37.57900 7.21300 28.36400
C  38.95600 7.75300 28.28400
C  36.21000 6.47700 30.63200
C  36.61500 6.90700 27.25200
O  36.91800 6.85300 26.04500
C  35.11200 6.54500 27.56900
N  41.80500 9.05800 27.72900
C  40.95400 8.50600 26.77600
C  41.66700 8.52800 25.41700
C  43.00700 9.39800 25.71100
C  42.98200 9.39500 27.21400
C  41.86500 7.04700 24.74800
C  43.09400 10.86500 25.15600
C  41.86500 11.81200 25.41300
N  43.00400 10.04200 30.09700
C  44.09200 10.26000 29.21600
C  45.13900 10.91900 29.85000
C  44.73100 10.98900 31.17900
C  43.43200 10.45100 31.26900
C  46.36300 11.42400 29.22600
C  45.04700 11.45000 32.56800
O  46.02900 12.13200 32.89900
C  43.93800 11.04100 33.53000
C  44.50900 10.16200 34.50100
O  45.13300 9.17900 34.22300
O  44.14700 10.52300 35.78300
C  44.22900 9.59100 36.90500
H  38.07100 7.55100 32.59000
H  39.26800 7.57300 26.18900
H  44.87800 10.13700 27.20700
H  41.71000 9.17200 34.98400
H  38.86300 8.99700 34.32500
H  39.50100 7.35800 35.74200
H  40.97700 6.97700 34.87200
H  39.41400 6.48400 34.17900
H  39.95700 11.57500 34.08200
H  41.49000 11.65700 34.98800
H  39.55900 10.05400 36.36600
H  38.84300 11.53500 35.86400
H  35.98300 5.48500 30.24300
H  35.33200 7.12300 30.65500
H  36.51200 6.32000 31.66800
H  34.62300 6.42800 26.60300
H  34.59000 7.40000 27.99900
H  35.05600 5.55600 28.02200
H  41.09500 9.01800 24.62900
H  43.94100 8.90200 25.44500
H  41.32000 7.04500 23.80500
H  41.55200 6.27500 25.45100
H  42.94100 6.91800 24.63700
H  43.05600 10.78000 24.07000
H  43.98900 11.41800 25.43900
H  42.10600 12.56700 26.16100
H  41.09200 11.15600 25.81400
H  41.65900 12.23700 24.43100
H  46.13200 11.99600 28.32800
H  47.06700 10.66200 28.89300
H  46.96800 12.01600 29.91200
H  43.58800 11.96100 33.99700
H  45.30200 9.50100 37.07400
H  43.69300 8.67000 36.67600
H  43.77700 9.96600 37.82400
Mg -10.08800 38.68100 40.88200
C  -8.53200 35.58900 40.07300
C  -7.41700 40.24300 39.09500
C  -11.94200 41.42600 40.58500
C  -12.94100 36.84300 41.80200
N  -8.14400 38.01900 39.82900
C  -7.76000 36.69200 39.64400
C  -6.39400 36.58400 38.82600
C  -6.00200 38.10100 38.64100
C  -7.29100 38.85400 39.16100
C  -4.69600 38.62400 39.42600
C  -6.45000 35.87500 37.49800
C  -7.73900 35.97600 36.55000
H  -7.48300 36.37500 35.15100
N  -9.62400 40.65100 40.25000
C  -8.52700 41.06600 39.52900
C  -8.69100 42.41900 39.22000
C  -10.07200 42.77600 39.55900
C  -10.61300 41.58000 40.12900
C  -7.58900 43.16700 38.54700
C  -10.70600 44.13500 39.26100
O  -10.05200 44.94000 38.73200
C  -12.22000 44.38300 39.53900
N  -12.28200 39.04000 41.04300
C  -12.66100 40.31100 41.04100
C  -14.18000 40.52900 41.31600
C  -14.58900 39.02600 41.81200
C  -13.17500 38.25900 41.58000
C  -14.48800 41.57200 42.44700
C  -15.73200 38.47400 40.86300
C  -16.87200 37.74800 41.54400
N  -10.59300 36.73200 41.11300
C  -11.81200 36.13100 41.48900
C  -11.62100 34.68200 41.54300
C  -10.39800 34.45400 40.90700
C  -9.77700 35.71400 40.75300
C  -12.63100 33.53300 42.00100
C  -9.51700 33.36800 40.36500
O  -9.74900 32.14800 40.32400
C  -8.30200 34.11300 39.76700
C  -7.02600 33.68800 40.45800
O  -6.82400 33.85300 41.64300
O  -6.28500 32.98000 39.63300
C  -5.05000 32.27200 40.08900
H  -6.59900 40.83400 38.68000
H  -12.48800 42.36600 40.68400
H  -13.82500 36.22000 41.95400
H  -5.68100 36.14400 39.52300
H  -5.93100 38.33300 37.57800
H  -4.42300 37.87800 40.17200
H  -4.96800 39.52000 39.98400
H  -3.85600 38.84700 38.76700
H  -6.43200 34.80000 37.67500
H  -5.47900 36.10500 37.05700
H  -8.34000 36.77500 36.98300
H  -8.27000 35.02400 36.52500
H  -7.58700 44.23800 38.74900
H  -7.46300 42.92500 37.49200
H  -6.61900 42.93900 38.98900
H  -12.48500 44.60400 40.57300
H  -12.80100 43.55500 39.13300
H  -12.53600 45.24500 38.95000
H  -14.71400 40.73200 40.38800
H  -14.88300 38.92400 42.85700
H  -14.63200 42.51100 41.91300
H  -13.53800 41.79300 42.93300
H  -15.21000 41.39000 43.24300
H  -15.35300 37.71500 40.17800
H  -16.25600 39.24500 40.29800
H  -17.55700 37.50200 40.73200
H  -17.30500 38.34200 42.35000
H  -16.52100 36.80100 41.95400
H  -12.79000 33.57400 43.07800
H  -12.34900 32.50600 41.76600
H  -13.65800 33.66600 41.66200
H  -8.20000 33.93100 38.69800
H  -5.10200 31.67700 41.00000
H  -4.26300 32.99000 40.32100
H  -4.71000 31.64100 39.26800

