158

Mg 24.46600 -4.75700 45.92100
C  26.89700 -2.68900 44.45200
C  22.26500 -3.73700 43.36100
C  22.54800 -7.56000 46.33700
C  27.06600 -6.31600 47.55700
N  24.61500 -3.37600 44.03600
C  25.66400 -2.57400 43.78500
C  25.25500 -1.52800 42.71100
C  23.77100 -1.82200 42.43600
C  23.48700 -3.04300 43.30600
C  22.86400 -0.68600 42.85200
C  26.08600 -1.60500 41.40000
C  25.94600 -0.73800 40.14600
H  25.50100 -1.23600 38.78500
N  22.66800 -5.45900 45.04800
C  21.89800 -4.90900 44.05600
C  20.65400 -5.67400 43.88300
C  20.65700 -6.70600 44.80500
C  21.99800 -6.57300 45.48000
C  19.65200 -5.31000 42.74400
C  19.62700 -7.81100 44.93700
O  18.75700 -7.81200 44.10700
C  19.60200 -8.72600 46.16900
N  24.71200 -6.61100 46.77000
C  23.76500 -7.69300 46.89800
C  24.33800 -8.87800 47.57300
C  25.70600 -8.40700 48.06000
C  25.86700 -6.98100 47.47100
C  23.45900 -9.47000 48.74300
C  26.87100 -9.41200 47.68500
C  27.92900 -9.75900 48.77000
N  26.44400 -4.42600 46.26300
C  27.39200 -5.11800 46.95900
C  28.64400 -4.46000 46.97700
C  28.47500 -3.45600 46.03000
C  27.18900 -3.51900 45.52000
C  29.87700 -4.88100 47.72100
C  29.18000 -2.36800 45.34100
O  30.32700 -1.93300 45.50300
C  28.17500 -1.85200 44.29000
C  27.86300 -0.38900 44.44100
O  27.22600 0.13400 45.36600
O  28.30800 0.17300 43.29100
C  28.09800 1.67800 43.18900
H  21.52300 -3.40300 42.63200
H  22.02900 -8.50800 46.49200
H  27.80000 -6.83000 48.18100
H  25.53300 -0.52100 43.02400
H  23.63800 -1.93000 41.36000
H  22.08700 -0.45500 42.12200
H  23.53800 0.14500 43.05800
H  22.39700 -1.03100 43.77400
H  25.70700 -2.51000 40.92700
H  27.14400 -1.72700 41.63200
H  26.86700 -0.16000 40.06800
H  25.14600 -0.09300 40.50700
H  19.96200 -5.92400 41.89900
H  19.55400 -4.24700 42.52500
H  18.68100 -5.57500 43.16200
H  18.60500 -9.15800 46.24900
H  19.78100 -8.14200 47.07200
H  20.35700 -9.49600 46.01200
H  24.44600 -9.59800 46.76200
H  25.68700 -8.28600 49.14300
H  23.83200 -9.54700 49.76500
H  23.51100 -10.53900 48.54000
H  22.43100 -9.11200 48.68900
H  27.46200 -8.92600 46.90900
H  26.43500 -10.31500 47.25600
H  27.83600 -10.81600 49.02000
H  27.66900 -9.07600 49.57900
H  28.95000 -9.58500 48.43300
H  30.57400 -5.38400 47.05000
H  29.65600 -5.43100 48.63600
H  30.42000 -3.96900 47.96500
H  28.70400 -2.04900 43.35800
H  28.47900 2.16900 44.08400
H  27.04400 1.88100 43.00000
H  28.62900 2.04800 42.31100
Mg 42.50500 40.89400 26.04400
C  41.44600 43.28300 28.33500
C  43.49400 39.02000 28.73100
C  43.88600 38.83300 23.91700
C  41.59300 43.04900 23.51100
N  42.52400 41.13500 28.22400
C  41.95200 42.15800 28.93100
C  42.04600 41.96900 30.43500
C  42.81700 40.59300 30.52900
C  42.87300 40.22700 29.04100
C  44.13200 40.65900 31.32200
C  40.69300 41.86800 31.13200
C  40.63100 42.67100 32.47000
H  40.13700 41.85700 33.72500
N  43.60300 39.18600 26.29200
C  43.83000 38.52400 27.46000
C  44.51400 37.31200 27.18500
C  44.69600 37.22700 25.76600
C  44.07700 38.48700 25.24000
C  45.08100 36.44100 28.38200
C  45.29500 36.13100 24.99700
O  45.53300 36.18700 23.74200
C  45.80400 34.90500 25.77200
N  42.69100 40.91900 24.00300
C  43.19300 39.85900 23.35200
C  42.72700 39.94900 21.85400
C  42.18400 41.36100 21.77600
C  42.15200 41.83100 23.18500
C  43.77000 39.57400 20.80100
C  40.78000 41.54100 21.04700
C  40.95800 42.52300 19.82000
N  41.76300 42.82500 25.91400
C  41.49900 43.61500 24.80900
C  41.05000 44.92200 25.26400
C  40.97000 44.79900 26.63600
C  41.42900 43.53900 26.98800
C  40.65400 46.09200 24.41900
C  40.51500 45.42800 27.86500
O  39.93900 46.52600 27.93500
C  40.71800 44.43500 28.99800
C  41.43800 45.16800 30.00300
O  42.61300 45.52700 29.98200
O  40.67700 45.54200 31.06700
C  41.37400 46.25000 32.12500
H  43.61400 38.23800 29.48300
H  44.29800 38.14100 23.17900
H  41.33100 43.67100 22.65300
H  42.67700 42.72400 30.90400
H  42.17300 39.80100 30.91000
H  44.41900 41.67300 31.59800
H  44.84400 40.17600 30.65300
H  44.17500 40.12000 32.26800
H  40.55400 40.86700 31.54200
H  39.83300 42.15600 30.52800
H  40.00100 43.55400 32.36500
H  41.53200 43.23000 32.72200
H  45.11500 37.02300 29.30400
H  46.12400 36.15900 28.23400
H  44.50900 35.51600 28.45500
H  46.20900 34.24900 25.00200
H  45.16700 34.38400 26.48800
H  46.70000 35.33600 26.21800
H  42.00700 39.13400 21.92700
H  42.86200 41.99800 21.20700
H  43.85900 40.38200 20.07500
H  43.43700 38.66200 20.30500
H  44.78000 39.48800 21.20200
H  39.96400 42.02900 21.58000
H  40.40200 40.57900 20.70200
H  40.95900 41.88200 18.93900
H  41.85600 43.13200 19.92300
H  40.04900 43.11500 19.93200
H  40.55800 45.88200 23.35400
H  41.31600 46.93000 24.63600
H  39.63700 46.36900 24.69900
H  39.75700 44.27900 29.48700
H  42.03700 45.51900 32.58700
H  40.59300 46.53400 32.83100
H  41.84800 47.14300 31.71700

