158

Mg 47.76200 24.50500 29.15000
C  48.85400 26.91400 31.41500
C  46.81000 22.47600 31.66900
C  46.90700 22.22600 26.84800
C  49.14700 26.56200 26.56500
N  47.69300 24.77500 31.24300
C  48.16900 25.80900 31.96700
C  47.68300 25.66700 33.44400
C  47.22200 24.19700 33.58100
C  47.24800 23.79700 32.07800
C  47.99000 23.16800 34.45700
C  46.55600 26.70800 33.81600
C  46.85500 27.78200 34.86500
H  45.79800 28.04000 35.99000
N  46.87200 22.66300 29.23700
C  46.58600 21.92400 30.39300
C  46.06800 20.62200 30.11300
C  46.00100 20.56000 28.67400
C  46.57600 21.85300 28.16700
C  45.55700 19.67100 31.15500
C  45.47400 19.49400 27.83900
O  45.33400 19.70700 26.63900
C  45.03000 18.18700 28.42000
N  48.03100 24.40700 26.97800
C  47.53200 23.38200 26.26000
C  47.84200 23.52800 24.73100
C  48.19500 24.99000 24.66900
C  48.39600 25.38900 26.11400
C  49.05500 22.61700 24.32000
C  47.05700 25.78800 24.03400
C  46.91300 25.72000 22.50800
N  48.84100 26.32800 28.99900
C  49.38100 27.00900 27.84800
C  50.10500 28.14300 28.34600
C  49.96500 28.14100 29.75300
C  49.17100 27.07700 30.07100
C  50.89100 29.17700 27.61900
C  50.27400 28.76100 30.98300
O  50.97800 29.76600 31.25600
C  49.47400 28.06100 32.13500
C  50.44600 27.67900 33.17900
O  51.20300 26.73700 33.20600
O  50.20800 28.58200 34.21100
C  51.13800 28.32800 35.33100
H  46.53400 21.96000 32.59100
H  46.68700 21.53300 26.03300
H  49.55100 27.08900 25.69800
H  48.58700 25.71500 34.05000
H  46.18900 24.24500 33.92600
H  48.94000 23.56000 34.82200
H  48.27100 22.31100 33.84500
H  47.40400 22.78600 35.29200
H  45.63400 26.23000 34.14700
H  46.22900 27.07600 32.84400
H  47.05700 28.73700 34.38000
H  47.76500 27.43500 35.35500
H  45.85800 18.68100 30.81200
H  44.46700 19.64200 31.13800
H  45.94500 19.94800 32.13500
H  45.83900 17.51500 28.71000
H  44.47300 17.57700 27.70900
H  44.29700 18.37700 29.20400
H  47.01700 23.26200 24.07100
H  49.07500 25.27900 24.09500
H  49.62500 22.09500 25.08900
H  49.82400 23.19000 23.80100
H  48.54700 21.78700 23.83000
H  47.19400 26.83000 24.32500
H  46.20000 25.49300 24.64000
H  47.62100 25.03200 22.04600
H  47.12700 26.73200 22.16300
H  45.85400 25.47300 22.43500
H  50.52700 29.21400 26.59200
H  51.96800 29.01200 27.59300
H  50.68400 30.13000 28.10500
H  48.59200 28.59200 32.49400
H  52.17300 28.09500 35.08200
H  50.73000 27.49000 35.89700
H  51.22900 29.19900 35.98000
Mg 42.50500 40.89400 26.04400
C  41.44600 43.28300 28.33500
C  43.49400 39.02000 28.73100
C  43.88600 38.83300 23.91700
C  41.59300 43.04900 23.51100
N  42.52400 41.13500 28.22400
C  41.95200 42.15800 28.93100
C  42.04600 41.96900 30.43500
C  42.81700 40.59300 30.52900
C  42.87300 40.22700 29.04100
C  44.13200 40.65900 31.32200
C  40.69300 41.86800 31.13200
C  40.63100 42.67100 32.47000
H  40.13700 41.85700 33.72500
N  43.60300 39.18600 26.29200
C  43.83000 38.52400 27.46000
C  44.51400 37.31200 27.18500
C  44.69600 37.22700 25.76600
C  44.07700 38.48700 25.24000
C  45.08100 36.44100 28.38200
C  45.29500 36.13100 24.99700
O  45.53300 36.18700 23.74200
C  45.80400 34.90500 25.77200
N  42.69100 40.91900 24.00300
C  43.19300 39.85900 23.35200
C  42.72700 39.94900 21.85400
C  42.18400 41.36100 21.77600
C  42.15200 41.83100 23.18500
C  43.77000 39.57400 20.80100
C  40.78000 41.54100 21.04700
C  40.95800 42.52300 19.82000
N  41.76300 42.82500 25.91400
C  41.49900 43.61500 24.80900
C  41.05000 44.92200 25.26400
C  40.97000 44.79900 26.63600
C  41.42900 43.53900 26.98800
C  40.65400 46.09200 24.41900
C  40.51500 45.42800 27.86500
O  39.93900 46.52600 27.93500
C  40.71800 44.43500 28.99800
C  41.43800 45.16800 30.00300
O  42.61300 45.52700 29.98200
O  40.67700 45.54200 31.06700
C  41.37400 46.25000 32.12500
H  43.61400 38.23800 29.48300
H  44.29800 38.14100 23.17900
H  41.33100 43.67100 22.65300
H  42.67700 42.72400 30.90400
H  42.17300 39.80100 30.91000
H  44.41900 41.67300 31.59800
H  44.84400 40.17600 30.65300
H  44.17500 40.12000 32.26800
H  40.55400 40.86700 31.54200
H  39.83300 42.15600 30.52800
H  40.00100 43.55400 32.36500
H  41.53200 43.23000 32.72200
H  45.11500 37.02300 29.30400
H  46.12400 36.15900 28.23400
H  44.50900 35.51600 28.45500
H  46.20900 34.24900 25.00200
H  45.16700 34.38400 26.48800
H  46.70000 35.33600 26.21800
H  42.00700 39.13400 21.92700
H  42.86200 41.99800 21.20700
H  43.85900 40.38200 20.07500
H  43.43700 38.66200 20.30500
H  44.78000 39.48800 21.20200
H  39.96400 42.02900 21.58000
H  40.40200 40.57900 20.70200
H  40.95900 41.88200 18.93900
H  41.85600 43.13200 19.92300
H  40.04900 43.11500 19.93200
H  40.55800 45.88200 23.35400
H  41.31600 46.93000 24.63600
H  39.63700 46.36900 24.69900
H  39.75700 44.27900 29.48700
H  42.03700 45.51900 32.58700
H  40.59300 46.53400 32.83100
H  41.84800 47.14300 31.71700

