158

Mg 7.46400 2.82400 28.58200
C  8.73900 1.50400 31.34700
C  5.25600 4.71100 30.29000
C  6.32200 4.11500 25.65200
C  9.24700 0.46500 26.76800
N  7.01700 2.99300 30.61100
C  7.81900 2.50100 31.60200
C  7.33100 3.02600 33.00800
C  5.93400 3.75700 32.60900
C  6.04600 3.83500 31.07700
C  4.71400 2.92400 33.01000
C  8.29700 4.03200 33.65600
C  8.07000 4.33600 35.12900
H  9.02600 3.72100 36.14500
N  6.00100 4.22200 28.03000
C  5.21000 4.95500 28.89200
C  4.51600 5.95300 28.12200
C  4.83400 5.76400 26.75500
C  5.80900 4.66400 26.74100
C  3.55700 6.96100 28.71200
C  4.47500 6.60900 25.59400
O  4.90800 6.42400 24.47500
C  3.48100 7.70100 25.79400
N  7.70400 2.32300 26.55600
C  7.18500 3.03500 25.46700
C  7.51600 2.53200 24.10600
C  8.65600 1.55000 24.44800
C  8.56100 1.40500 26.03300
C  6.33200 1.75800 23.34100
C  10.10400 2.10500 24.00400
C  10.52000 3.42200 24.76700
N  8.69400 1.14100 28.89100
C  9.43300 0.35700 28.10700
C  10.19700 -0.57200 28.89900
C  10.01800 -0.08600 30.19400
C  9.06500 0.90800 30.09500
C  10.80500 -1.73400 28.37600
C  10.44100 -0.21900 31.57500
O  11.31600 -0.94700 32.05600
C  9.53800 0.82800 32.37100
C  8.84000 0.03500 33.47500
O  7.72100 -0.48800 33.42400
O  9.63900 -0.08300 34.60700
C  9.03400 -0.74400 35.82400
H  4.66800 5.34400 30.95900
H  6.00600 4.55200 24.70300
H  9.78000 -0.27200 26.16300
H  7.12800 2.18200 33.66800
H  5.99800 4.76500 33.01800
H  4.77700 1.83800 33.07300
H  3.92900 3.17400 32.29600
H  4.20200 3.36000 33.86800
H  8.11500 4.99100 33.17000
H  9.32100 3.67300 33.55200
H  7.07500 3.97000 35.38000
H  8.05600 5.41500 35.28600
H  3.56300 6.96000 29.80200
H  2.53500 6.73000 28.41000
H  3.81300 7.97700 28.41200
H  3.92400 8.50700 26.37800
H  2.49100 7.30100 26.01600
H  3.49400 8.24400 24.84900
H  7.76500 3.35700 23.43900
H  8.56400 0.62200 23.88500
H  5.45100 2.09800 23.88700
H  6.28400 0.67100 23.28900
H  6.33400 2.17500 22.33400
H  10.08500 2.26000 22.92500
H  10.72600 1.23400 24.21000
H  9.72900 3.79800 25.41600
H  10.74400 4.20500 24.04300
H  11.48300 3.25800 25.25100
H  11.70800 -1.49900 27.81200
H  10.10200 -2.15800 27.65900
H  11.04700 -2.41000 29.19600
H  10.17300 1.48400 32.96600
H  8.18100 -1.30200 35.43800
H  8.76000 0.01800 36.55400
H  9.76800 -1.40800 36.28000
Mg 10.19100 47.51400 25.83000
C  8.30600 47.33600 28.63900
C  12.75500 48.96800 27.53700
C  11.94900 47.58700 22.93100
C  7.29400 46.69400 23.88900
N  10.61600 47.76200 27.93900
C  9.62400 47.68300 28.90800
C  10.20300 48.23400 30.24900
C  11.42300 49.10300 29.71500
C  11.62100 48.65800 28.30500
C  11.31600 50.66300 29.68100
C  10.64800 47.14800 31.26800
C  9.96900 47.44100 32.63900
H  9.78600 46.21200 33.55700
N  12.10500 48.16700 25.26500
C  13.03800 48.66700 26.12700
C  14.27300 48.89100 25.48300
C  14.05200 48.46700 24.09900
C  12.66400 48.04600 24.01900
C  15.60800 49.22100 26.22800
C  14.99400 48.34900 22.96200
O  14.67800 48.01000 21.84500
C  16.41500 48.74800 23.18200
N  9.70800 47.29500 23.80000
C  10.65000 47.23100 22.84500
C  10.09000 46.73900 21.53300
C  8.68500 46.32800 21.88100
C  8.52200 46.81200 23.29100
C  10.09800 47.71200 20.37700
C  8.37800 44.76300 21.68200
C  8.77400 43.76100 22.80200
N  8.15800 47.02500 26.14900
C  7.11200 46.86400 25.25400
C  5.89000 46.94000 26.05200
C  6.34600 47.00300 27.37400
C  7.69800 47.07400 27.36100
C  4.52600 46.69000 25.47300
C  5.86600 46.88700 28.71400
O  4.77200 46.62500 29.11000
C  7.14800 47.09500 29.63600
C  7.18700 45.82400 30.48300
O  7.70600 44.75300 30.23600
O  6.42400 46.02200 31.64100
C  6.14200 44.84700 32.54100
H  13.52400 49.53500 28.06400
H  12.55400 47.35600 22.05200
H  6.48300 46.42600 23.20900
H  9.43700 48.93200 30.58700
H  12.33800 48.75000 30.19200
H  10.44000 51.04900 30.20300
H  11.31200 51.04500 28.66000
H  12.19900 51.10200 30.14500
H  11.72200 47.32800 31.29200
H  10.47100 46.14600 30.87700
H  8.94300 47.78800 32.51300
H  10.54100 48.18800 33.19000
H  15.49500 49.11400 27.30700
H  16.20600 50.09400 25.96600
H  16.32100 48.40400 26.11200
H  16.95700 48.04300 23.81200
H  16.42400 49.69800 23.71800
H  16.92800 48.82200 22.22300
H  10.71400 45.86800 21.33300
H  7.94200 46.88100 21.30500
H  10.41700 48.74300 20.52700
H  9.24500 47.52200 19.72600
H  10.85700 47.34900 19.68500
H  9.02400 44.35800 20.90300
H  7.35900 44.73600 21.29400
H  8.73600 44.17800 23.80800
H  9.78000 43.38600 22.61300
H  8.24400 42.80800 22.78600
H  4.49900 47.44700 24.69000
H  3.69700 46.72700 26.17900
H  4.55900 45.68600 25.05200
H  6.90000 47.89600 30.33200
H  7.03600 44.72400 33.15200
H  5.94900 43.94200 31.96500
H  5.22500 45.04900 33.09600

