158

Mg 45.51200 4.23600 47.66400
C  43.52000 6.97100 47.05800
C  42.90100 2.14400 47.01900
C  47.78500 1.69000 47.23800
C  48.25600 6.41900 47.74100
N  43.44700 4.55200 47.17200
C  42.83600 5.76900 46.92400
C  41.33200 5.62600 46.59900
C  41.05600 4.06400 46.88700
C  42.51900 3.51900 47.06200
C  40.09700 3.67800 48.00100
C  40.84400 6.38700 45.23400
C  40.71100 5.51300 43.97900
H  40.48100 6.24100 42.64800
N  45.35300 2.16700 47.26900
C  44.17000 1.50700 47.05500
C  44.47000 0.11100 46.93400
C  45.85400 -0.08300 46.97000
C  46.40400 1.27700 47.17800
C  43.37000 -0.96000 46.80700
C  46.57300 -1.35200 46.83000
O  45.84300 -2.37100 46.68400
C  48.04300 -1.53800 46.91200
N  47.69100 4.11800 47.80200
C  48.34000 2.98300 47.47100
C  49.89300 3.17500 47.65600
C  50.00800 4.64100 47.91500
C  48.58800 5.10300 47.88800
C  50.56300 2.20500 48.60700
C  51.02900 5.39900 46.94800
C  51.85800 6.56500 47.67700
N  45.87800 6.29800 47.64400
C  47.01700 7.07700 47.66400
C  46.70900 8.45800 47.54800
C  45.35200 8.50400 47.44200
C  44.88400 7.13700 47.47400
C  47.67900 9.55400 47.56900
C  44.16400 9.37800 47.32800
O  44.07100 10.60600 47.39000
C  42.96400 8.36100 47.10400
C  42.08800 8.55800 48.29500
O  42.28200 7.99400 49.41700
O  41.05700 9.50100 48.07700
C  40.20800 9.63600 49.26800
H  42.04900 1.46400 47.09400
H  48.40600 0.84000 46.95000
H  49.11600 7.08400 47.84800
H  40.80700 6.14800 47.39800
H  40.73500 3.67300 45.92100
H  40.13700 4.36100 48.84900
H  40.40500 2.73900 48.46200
H  39.09400 3.59200 47.58300
H  41.66000 7.03700 44.91900
H  39.83300 6.77000 45.37300
H  39.82600 4.88900 44.10000
H  41.50400 4.78300 43.81700
H  43.40100 -1.66300 47.64000
H  43.56900 -1.60900 45.95500
H  42.36100 -0.54900 46.76400
H  48.44300 -1.07400 47.81400
H  48.39500 -1.05900 45.99900
H  48.52100 -2.51800 46.92800
H  50.37900 3.06000 46.68700
H  50.33400 4.61000 48.95400
H  49.79600 1.70500 49.19900
H  51.28800 2.75400 49.20700
H  51.10000 1.40300 48.10100
H  50.49000 5.89100 46.13800
H  51.74300 4.81600 46.36500
H  52.52100 6.06900 48.38600
H  51.28200 7.26700 48.28000
H  52.33200 7.13100 46.87600
H  47.19500 10.50000 47.32700
H  48.57500 9.36400 46.97800
H  47.94600 9.67000 48.62000
H  42.50200 8.68800 46.17300
H  40.82300 9.69200 50.16600
H  39.40300 8.92100 49.43700
H  39.67700 10.58800 49.24200
Mg -1.29100 34.40900 26.62300
C  -3.54100 32.78500 28.96600
C  -0.32000 36.53800 29.19400
C  0.61300 36.01200 24.46700
C  -2.61700 32.34900 24.06700
N  -1.89700 34.65200 28.81500
C  -2.69700 33.77700 29.51800
C  -2.72400 34.14400 31.01400
C  -1.76900 35.44800 31.08400
C  -1.33900 35.61100 29.61300
C  -2.46700 36.69000 31.68500
C  -2.36800 32.96200 31.95200
C  -1.62500 33.25300 33.26500
H  -2.20500 32.80700 34.62500
N  0.12900 36.00300 26.80400
C  0.39700 36.71300 27.93500
C  1.25900 37.85000 27.58200
C  1.40300 37.80000 26.19800
C  0.76500 36.54300 25.75500
C  1.58300 38.91500 28.60400
C  2.04200 38.79000 25.34100
O  2.14500 38.60400 24.11200
C  2.64200 40.02700 25.89000
N  -1.01600 34.20000 24.61300
C  -0.12200 34.96000 23.95000
C  -0.13400 34.49600 22.44200
C  -0.96000 33.12900 22.47900
C  -1.58100 33.23800 23.80600
C  -0.77800 35.61400 21.45100
C  -0.14600 31.84900 22.30100
C  -0.85800 30.63300 21.80900
N  -2.82100 32.90100 26.46300
C  -3.28800 32.22500 25.35000
C  -4.29700 31.27500 25.73200
C  -4.45700 31.51600 27.09700
C  -3.54000 32.49200 27.50400
C  -5.10900 30.27800 24.80500
C  -5.23100 31.15300 28.21000
O  -6.22400 30.46900 28.33100
C  -4.65600 31.89200 29.48400
C  -5.67800 32.75600 30.19400
O  -6.32000 33.74700 29.76200
O  -6.00100 32.27000 31.42300
C  -7.21100 32.65300 32.17200
H  -0.08200 37.32200 29.91600
H  1.09100 36.42100 23.57400
H  -2.91400 31.61900 23.31100
H  -3.77000 34.38600 31.20400
H  -0.80900 35.23300 31.55400
H  -3.55000 36.58200 31.75000
H  -2.38500 37.47000 30.92800
H  -2.15900 37.01700 32.67800
H  -1.91700 32.12500 31.41900
H  -3.35100 32.64200 32.29800
H  -1.60300 34.33900 33.35600
H  -0.62400 32.82900 33.19600
H  1.53600 38.55900 29.63300
H  0.92400 39.76900 28.45100
H  2.65600 39.09400 28.52700
H  1.96300 40.58500 26.53500
H  2.90500 40.68200 25.05900
H  3.57200 39.80800 26.41400
H  0.86500 34.33200 22.03800
H  -1.69100 33.11600 21.67000
H  -1.33100 36.46200 21.85500
H  -1.37800 35.20700 20.63700
H  0.11500 36.09400 21.05200
H  0.44500 31.69700 23.20400
H  0.66200 32.07100 21.60400
H  -0.20300 30.36900 20.97800
H  -1.78300 30.87800 21.28800
H  -0.98400 29.88500 22.59100
H  -4.57400 30.09100 23.87400
H  -6.14200 30.58800 24.64600
H  -5.16800 29.36200 25.39200
H  -4.26700 31.15400 30.18500
H  -7.98900 33.05700 31.52400
H  -6.89400 33.33000 32.96600
H  -7.55800 31.72600 32.62800

