158

Mg 26.90100 50.66300 27.01500
C  24.80000 51.77400 29.60100
C  29.23300 49.78200 29.36400
C  29.09400 49.85000 24.51600
C  24.56300 51.78100 24.68900
N  27.07100 50.89000 29.26000
C  25.97700 51.24100 30.09600
C  26.32800 50.86700 31.55600
C  27.86000 50.48800 31.51300
C  28.11400 50.36900 29.98400
C  28.80800 51.43200 32.16600
C  25.34200 49.77100 32.21400
C  24.05700 50.42700 33.02600
H  23.69500 49.80600 34.42600
N  28.93600 49.84900 26.96900
C  29.68300 49.46800 28.07200
C  30.87300 48.81700 27.58600
C  30.84100 48.88400 26.15100
C  29.58600 49.59900 25.82000
C  31.98900 48.32800 28.55600
C  31.83900 48.46100 25.08500
O  31.65600 48.57800 23.88000
C  33.17000 48.01800 25.46400
N  26.86000 50.86600 24.88600
C  27.83300 50.44300 24.06700
C  27.42500 50.38800 22.57100
C  25.90000 50.95500 22.65500
C  25.73000 51.25600 24.13500
C  28.37800 51.25100 21.69800
C  24.82900 49.98600 22.18600
C  24.20300 48.95000 23.09200
N  25.15000 51.78200 27.05900
C  24.32500 52.12200 26.04200
C  23.16400 52.88700 26.53700
C  23.33600 52.73000 27.93900
C  24.51600 52.02300 28.20700
C  22.12200 53.63400 25.74600
C  22.74200 52.99100 29.18200
O  21.68400 53.59700 29.40600
C  23.68200 52.44200 30.34400
C  24.21400 53.65300 31.12500
O  25.04800 54.48300 30.79900
O  23.47600 53.75400 32.30100
C  23.90700 54.70500 33.26800
H  29.85900 49.31500 30.12700
H  29.70400 49.55900 23.65900
H  23.79700 52.00900 23.94500
H  26.25300 51.80600 32.10500
H  28.05300 49.52400 31.98500
H  28.64900 51.19400 33.21800
H  28.53300 52.45900 31.92500
H  29.84000 51.37700 31.82100
H  25.87400 49.09400 32.88100
H  24.93500 49.17000 31.40100
H  23.20800 49.97900 32.51000
H  24.10100 51.51700 33.03700
H  32.14400 47.25300 28.64900
H  31.89500 48.72500 29.56700
H  32.94000 48.67500 28.15200
H  33.70500 48.94600 25.66500
H  33.58600 47.59200 24.55100
H  33.12800 47.26900 26.25400
H  27.60700 49.33700 22.34400
H  25.79200 51.95500 22.23600
H  29.10600 50.65500 21.14700
H  28.92800 51.96300 22.31300
H  27.91800 51.82900 20.89700
H  25.14200 49.45100 21.28900
H  23.96200 50.54300 21.82800
H  24.60200 48.97900 24.10600
H  24.46100 47.95900 22.71900
H  23.12200 49.07900 23.13700
H  22.25500 53.52100 24.67000
H  22.11700 54.69100 26.01200
H  21.16700 53.18500 26.01700
H  23.18600 51.69300 30.96100
H  24.60700 54.26700 33.97900
H  23.05600 54.98700 33.88700
H  24.32500 55.62400 32.85600
Mg 0.86800 43.53800 25.38000
C  3.11300 43.43600 28.22900
C  -1.78900 43.18000 27.39100
C  -0.91700 42.79800 22.61400
C  3.83300 43.50600 23.40600
N  0.66100 43.46600 27.55600
C  1.70200 43.34900 28.50300
C  1.04200 43.30900 29.85000
C  -0.52300 43.09600 29.60000
C  -0.57200 43.25200 28.09400
C  -1.09000 41.81600 30.10800
C  1.38100 44.54800 30.75900
C  0.78300 44.65400 32.21300
H  0.32500 43.36500 32.76900
N  -1.08300 43.09500 25.07000
C  -2.05000 43.07300 26.00400
C  -3.32500 42.84600 25.34900
C  -3.09500 42.55600 24.03700
C  -1.59200 42.90300 23.85400
C  -4.63700 42.74500 26.09200
C  -4.02900 41.88300 22.98700
O  -3.71200 41.77400 21.79700
C  -5.35300 41.36700 23.42800
N  1.47400 43.02100 23.32900
C  0.47600 42.90700 22.39900
C  1.04200 42.74800 21.04000
C  2.54000 43.25600 21.18300
C  2.65000 43.30800 22.74200
C  0.94400 41.29300 20.57100
C  2.87400 44.57000 20.39800
C  2.36200 45.87300 20.91300
N  3.07400 43.59900 25.70600
C  4.13700 43.56700 24.80000
C  5.35100 43.57500 25.47500
C  5.06600 43.46800 26.77600
C  3.66600 43.55100 26.92800
C  6.75100 43.68300 24.82200
C  5.55700 43.33500 28.15200
O  6.72100 43.26200 28.53300
C  4.30700 43.35600 29.19500
C  4.31300 42.03000 29.97400
O  3.92700 40.93700 29.51000
O  4.84600 42.25700 31.24200
C  4.66000 41.22800 32.34100
H  -2.64000 42.94800 28.03400
H  -1.46400 42.66000 21.67900
H  4.72100 43.49800 22.77100
H  1.54900 42.51300 30.39600
H  -1.02800 43.97300 30.00500
H  -1.69700 42.08100 30.97300
H  -0.37600 41.10100 30.51700
H  -1.67700 41.36300 29.30900
H  1.22300 45.45300 30.17300
H  2.45100 44.43800 30.93400
H  -0.06000 45.34200 32.14900
H  1.55800 45.15100 32.79600
H  -4.83600 41.69200 26.29100
H  -5.48300 43.26800 25.64600
H  -4.41100 43.24700 27.03300
H  -5.33100 40.62700 24.22800
H  -5.79800 40.84800 22.57900
H  -5.94500 42.24300 23.69400
H  0.40500 43.35200 20.39300
H  3.20500 42.45200 20.86900
H  0.42800 40.68900 21.31700
H  1.89100 40.76100 20.48300
H  0.38400 41.24600 19.63700
H  2.39400 44.48200 19.42300
H  3.95300 44.59100 20.24200
H  1.65100 46.36000 20.24600
H  3.27100 46.41500 21.17100
H  1.92600 45.70600 21.89700
H  7.54700 43.48700 25.53900
H  6.77200 44.73400 24.53400
H  6.71600 43.04800 23.93600
H  4.45200 44.22500 29.83600
H  3.74400 41.43700 32.89400
H  5.49700 41.33200 33.03200
H  4.55700 40.28900 31.79800

