158

Mg 0.08400 7.88200 26.02000
C  0.50900 9.99100 28.88400
C  0.14600 5.24500 28.11700
C  -0.65600 5.95200 23.34700
C  0.31800 10.68400 24.03200
N  0.30800 7.75000 28.26000
C  0.27500 8.67000 29.21100
C  0.36100 8.00100 30.66200
C  0.63600 6.50300 30.32200
C  0.38200 6.47600 28.79300
C  1.98700 5.98800 30.70900
C  -0.97400 8.35600 31.40000
C  -1.12200 7.93900 32.87900
H  0.04300 7.11600 33.47200
N  -0.32300 5.86600 25.73500
C  -0.24900 4.92500 26.72700
C  -0.41600 3.57900 26.20700
C  -0.64600 3.76200 24.85700
C  -0.54700 5.23100 24.56200
C  -0.34400 2.33300 26.94300
C  -0.94800 2.80100 23.75800
O  -1.19200 3.14500 22.63700
C  -0.75800 1.34200 24.05400
N  -0.07800 8.25200 24.03000
C  -0.51900 7.31200 23.10100
C  -0.77100 7.91000 21.71200
C  -0.67000 9.48800 21.98800
C  -0.09900 9.48900 23.41900
C  0.16700 7.29900 20.66200
C  -2.04900 10.16800 21.96400
C  -2.13400 11.57700 21.60100
N  0.47800 9.94900 26.29500
C  0.56900 10.93000 25.39000
C  0.77400 12.21500 26.01200
C  0.84300 11.83100 27.40000
C  0.54000 10.53600 27.52300
C  0.94600 13.60800 25.37200
C  1.02400 12.34900 28.75400
O  1.23500 13.48800 29.12300
C  0.67700 11.14300 29.75900
C  1.91200 11.02300 30.59800
O  3.07200 10.98800 30.23100
O  1.63800 10.86600 31.89700
C  2.70900 10.77800 32.85000
H  0.21500 4.40600 28.81300
H  -0.95700 5.35200 22.48600
H  0.21500 11.59100 23.43200
H  1.21000 8.48500 31.14600
H  -0.11400 5.99000 30.92400
H  2.28100 5.16600 30.05600
H  2.05300 5.35200 31.59300
H  2.80200 6.70100 30.58700
H  -1.80600 7.93100 30.83700
H  -1.09100 9.43900 31.39000
H  -2.04700 7.36900 32.96000
H  -1.23100 8.85600 33.45900
H  -1.27000 1.78100 26.77900
H  -0.22500 2.32500 28.02700
H  0.48300 1.69900 26.62200
H  -0.74500 0.74800 23.14000
H  -1.56400 1.01400 24.71100
H  0.25700 1.22700 24.43500
H  -1.79100 7.61300 21.47000
H  0.01400 9.98900 21.30300
H  -0.32500 6.45700 20.17400
H  1.16900 7.09900 21.04000
H  0.34800 8.04200 19.88500
H  -2.53200 10.01200 22.92900
H  -2.73600 9.68200 21.27100
H  -2.53800 11.73200 20.60100
H  -1.16300 12.07200 21.62400
H  -2.80800 12.07400 22.29800
H  2.01500 13.77600 25.23700
H  0.67200 14.27300 26.19100
H  0.38100 13.88700 24.48300
H  -0.25200 11.24800 30.31900
H  2.60800 11.58500 33.57500
H  3.69900 10.79200 32.39500
H  2.67600 9.90400 33.50100
Mg 36.30100 49.63400 24.47800
C  36.35900 47.99400 27.57300
C  34.88900 52.32500 26.01500
C  35.84200 50.93000 21.39600
C  37.41300 46.65000 22.96600
N  35.54300 49.97000 26.57900
C  35.82200 49.22900 27.68800
C  35.15400 49.93700 28.89400
C  34.71100 51.38600 28.37100
C  35.13200 51.21200 26.88700
C  33.24500 52.01100 28.71200
C  36.05100 49.89500 30.20100
C  35.39000 49.11300 31.25400
H  35.10300 49.83800 32.59800
N  35.55400 51.44200 23.80700
C  35.06500 52.44100 24.65300
C  34.76000 53.58200 23.76500
C  34.96300 53.21800 22.40200
C  35.44900 51.79800 22.47800
C  34.11200 54.85300 24.29900
C  34.84400 54.08300 21.13900
O  35.11300 53.73100 19.98400
C  34.63000 55.55100 21.34500
N  36.66300 48.86100 22.45200
C  36.34800 49.60500 21.37000
C  36.51500 48.76000 20.12900
C  37.18400 47.44800 20.64300
C  37.09200 47.62000 22.10400
C  35.15900 48.54700 19.39200
C  38.61500 47.20300 20.18800
C  38.63100 46.33900 18.91000
N  36.78500 47.66100 25.05300
C  37.23400 46.64400 24.37500
C  37.59300 45.52600 25.27300
C  37.35500 46.11100 26.55300
C  36.77900 47.39300 26.33500
C  38.29100 44.21300 24.87300
C  37.44500 45.79600 27.96300
O  37.72500 44.74800 28.50700
C  36.56400 46.88000 28.61100
C  35.31400 46.30100 29.05000
O  34.41900 45.99500 28.27000
O  35.41700 45.94700 30.35600
C  34.33400 45.14000 30.90700
H  34.47500 53.15200 26.59500
H  35.69700 51.38000 20.41200
H  37.81800 45.75500 22.48800
H  34.26600 49.32600 29.05600
H  35.39700 52.18300 28.65600
H  33.45200 52.84000 29.38900
H  32.76800 51.23500 29.31000
H  32.55800 52.21000 27.88900
H  36.28800 50.86200 30.64400
H  36.99700 49.49700 29.83400
H  36.13000 48.34100 31.46400
H  34.52000 48.54200 30.93000
H  34.10000 54.89000 25.38800
H  33.14100 54.90400 23.80700
H  34.71200 55.71900 24.01800
H  33.61400 55.73100 21.69800
H  34.77000 56.05300 20.38700
H  35.40300 55.92600 22.01500
H  37.25000 49.19700 19.45300
H  36.55400 46.57300 20.48800
H  34.45300 49.33500 19.65200
H  34.65700 47.58000 19.43300
H  35.29000 48.76100 18.33100
H  39.08300 46.57100 20.94200
H  39.22100 48.06200 19.89800
H  37.71800 46.26700 18.32000
H  38.74100 45.35600 19.36800
H  39.56900 46.43800 18.36300
H  39.21300 44.29400 24.29600
H  37.62600 43.48900 24.40300
H  38.74500 43.94300 25.82700
H  37.04100 47.39200 29.44700
H  34.35500 44.13600 30.48200
H  33.31800 45.53100 30.85800
H  34.54800 45.08700 31.97500

