158

Mg 40.86500 9.24800 30.51300
C  42.53700 10.56200 33.16800
C  38.63900 7.66600 32.74800
C  39.17400 7.96100 27.93500
C  43.38300 10.12100 28.40200
N  40.56800 9.30400 32.70000
C  41.40300 9.88700 33.58300
C  40.88900 9.75200 35.03100
C  39.71800 8.73600 34.91300
C  39.66100 8.48400 33.35700
C  39.85800 7.30800 35.64100
C  40.50100 11.18800 35.65200
C  41.24200 11.63400 36.90800
H  40.37700 12.18800 38.02500
N  39.09700 8.03700 30.37500
C  38.33700 7.55800 31.39900
C  37.19100 6.88500 30.83400
C  37.31600 6.94900 29.39900
C  38.56900 7.57500 29.16900
C  36.08300 6.26100 31.71400
C  36.29800 6.50400 28.36200
O  36.47800 6.56600 27.17000
C  34.92300 6.10400 28.81100
N  41.18600 9.14700 28.47800
C  40.33100 8.56400 27.59500
C  40.88900 8.67000 26.16100
C  42.17800 9.53400 26.36200
C  42.30500 9.49300 27.86100
C  41.24100 7.28700 25.45700
C  41.97400 11.11400 25.90500
C  41.79400 11.48300 24.43600
N  42.53300 10.28500 30.64000
C  43.54700 10.44700 29.74900
C  44.58000 11.29800 30.36500
C  44.20200 11.35000 31.70300
C  43.00900 10.70200 31.86900
C  45.72100 11.83900 29.56100
C  44.67600 11.78600 32.92400
O  45.73900 12.40100 33.07300
C  43.65300 11.31100 34.06600
C  44.28500 10.43800 35.06000
O  44.37600 9.18800 35.06400
O  44.62800 11.20800 36.14200
C  44.83900 10.47600 37.35100
H  37.99900 7.19100 33.49500
H  38.74600 7.52400 27.03000
H  44.05600 10.56800 27.66700
H  41.67300 9.14300 35.48000
H  38.79700 9.20300 35.26300
H  40.00400 6.52500 34.89700
H  38.90800 6.97000 36.05500
H  40.65200 7.33200 36.38700
H  39.42500 11.23000 35.81800
H  40.82800 11.90200 34.89700
H  41.91500 12.43800 36.61000
H  41.83500 10.83000 37.34300
H  36.00600 5.17600 31.64300
H  35.16700 6.79400 31.45900
H  36.28400 6.49000 32.76100
H  34.97400 5.26000 29.49900
H  34.37600 5.70600 27.95500
H  34.39300 6.93200 29.28200
H  40.22600 9.21400 25.48800
H  43.06200 9.04900 25.94700
H  40.89400 6.46300 26.08100
H  42.27600 7.14100 25.14900
H  40.70000 7.26300 24.51100
H  42.83300 11.73700 26.15300
H  41.10000 11.52800 26.40800
H  42.71400 11.21100 23.91700
H  41.49700 12.52600 24.33000
H  41.00900 10.81200 24.08700
H  45.41400 12.16100 28.56600
H  46.34300 10.94700 29.47900
H  46.24200 12.61100 30.12700
H  43.21700 12.15100 34.60600
H  44.18200 10.76700 38.17100
H  45.81200 10.66000 37.80600
H  44.74000 9.39300 37.27400
Mg 10.64500 47.41200 25.50000
C  8.93400 47.73000 28.45600
C  13.40900 48.59000 27.06800
C  12.18800 47.19800 22.62700
C  7.61600 46.98000 23.85000
N  11.16500 47.87800 27.67000
C  10.30000 48.00300 28.69000
C  11.00500 48.53900 29.97400
C  12.30800 49.17500 29.37000
C  12.31600 48.49200 27.92600
C  12.12600 50.77100 29.26200
C  11.29300 47.55100 31.12200
C  11.14100 47.94500 32.61100
H  10.58700 46.82900 33.57500
N  12.64100 47.67900 24.95800
C  13.60800 48.11900 25.76100
C  14.89500 48.26900 25.04500
C  14.60200 47.84000 23.73600
C  13.09000 47.54700 23.69500
C  16.19600 48.67900 25.68100
C  15.49200 47.74000 22.40200
O  15.02600 47.39600 21.33700
C  16.98800 47.91600 22.48100
N  9.97300 47.45500 23.44700
C  10.79700 47.12800 22.45900
C  10.11200 46.74400 21.06100
C  8.70300 46.49400 21.62600
C  8.72300 47.02400 23.03800
C  10.09000 47.87700 20.00600
C  8.28900 44.98200 21.74000
C  9.30800 44.04600 22.48900
N  8.61600 47.31100 26.00000
C  7.47500 47.11100 25.23300
C  6.34100 46.96300 26.09300
C  6.82500 47.25800 27.37100
C  8.27300 47.44300 27.24600
C  4.95900 46.70100 25.57200
C  6.45900 47.46900 28.76500
O  5.38100 47.59500 29.36500
C  7.84400 47.67400 29.53700
C  7.89100 46.59700 30.58400
O  8.56800 45.57000 30.57500
O  6.90800 46.98300 31.44200
C  6.44000 45.93500 32.38100
H  14.26900 49.10900 27.49600
H  12.67900 46.91500 21.69300
H  6.61700 46.87600 23.41900
H  10.28200 49.28800 30.29600
H  13.14900 48.98000 30.03500
H  11.14200 51.14700 29.54200
H  12.30800 51.13100 28.24900
H  12.84700 51.23900 29.93300
H  12.31000 47.17600 31.00200
H  10.72900 46.62900 30.98000
H  10.53400 48.85000 32.60900
H  12.13800 48.22800 32.94800
H  16.56400 47.81200 26.22900
H  16.03100 49.45200 26.43100
H  16.92900 49.01600 24.94800
H  17.50900 47.51200 21.61300
H  17.38900 47.36300 23.33100
H  17.33400 48.91300 22.75200
H  10.40000 45.78000 20.64100
H  7.88300 46.95600 21.07600
H  11.10000 48.05400 19.63500
H  9.76500 48.72600 20.60700
H  9.38500 47.48900 19.27100
H  8.17600 44.64500 20.70900
H  7.33100 44.88800 22.25100
H  10.20300 44.62300 22.72000
H  9.55800 43.23000 21.81000
H  8.83500 43.65500 23.39000
H  4.96700 47.05200 24.54100
H  4.10400 47.05700 26.14700
H  4.74200 45.63500 25.63400
H  7.84100 48.66000 30.00100
H  5.51800 46.29600 32.83800
H  7.07400 45.76900 33.25200
H  6.23000 45.09400 31.72000

