158

Mg 1.24500 8.01300 27.41200
C  1.59200 10.42200 29.86800
C  1.11100 5.63500 29.91700
C  0.95300 5.80000 24.99400
C  1.22600 10.65200 25.02900
N  1.15200 8.04100 29.70600
C  1.33600 9.15400 30.47800
C  1.20500 8.76600 31.97400
C  1.45300 7.19300 31.91900
C  1.18900 6.89900 30.42100
C  2.82300 6.65400 32.39400
C  -0.22600 9.07700 32.52400
C  -0.62200 8.66400 33.93000
H  0.51300 8.34200 34.86300
N  1.13000 5.94100 27.41200
C  1.09700 5.11100 28.57200
C  0.98700 3.78300 28.12600
C  0.87000 3.80300 26.71500
C  1.01100 5.25400 26.27400
C  0.77700 2.55700 29.01200
C  0.54500 2.71900 25.71000
O  0.38300 2.97800 24.52100
C  0.28300 1.32400 26.11100
N  1.14200 8.23200 25.38700
C  0.98000 7.13600 24.57300
C  0.79200 7.47300 23.04300
C  0.51600 9.02200 23.15000
C  0.87700 9.35700 24.65200
C  2.08500 7.01500 22.19200
C  -0.89000 9.44600 22.75700
C  -1.08300 10.00600 21.33700
N  1.40900 10.16000 27.37400
C  1.47700 11.08400 26.37000
C  1.72600 12.45000 26.89900
C  1.69400 12.24100 28.29700
C  1.57600 10.81300 28.50200
C  1.91000 13.79600 26.10500
C  1.90400 12.86100 29.55100
O  2.23700 14.02900 29.74200
C  1.69100 11.71800 30.66500
C  2.63600 11.74100 31.71800
O  3.83800 11.49900 31.65300
O  2.09300 12.23700 32.91600
C  2.96900 12.32000 34.05100
H  1.04600 4.86000 30.68300
H  0.73300 5.09500 24.19000
H  1.21500 11.49300 24.33300
H  2.00400 9.23800 32.54600
H  0.68300 6.79300 32.57900
H  3.12900 5.93300 31.63600
H  2.74700 6.12500 33.34400
H  3.56700 7.44700 32.47500
H  -0.99600 8.77200 31.81500
H  -0.30000 10.15700 32.39800
H  -1.30100 7.81100 33.90300
H  -1.15700 9.51400 34.35300
H  1.38700 1.71500 28.68600
H  -0.26200 2.22600 29.01300
H  1.00100 2.77700 30.05600
H  1.14400 0.92600 26.64800
H  0.31100 0.66200 25.24600
H  -0.52800 1.15800 26.82100
H  -0.07400 6.88800 22.73500
H  1.10500 9.64800 22.48000
H  1.62900 6.19200 21.64200
H  2.88600 6.64700 22.83400
H  2.38800 7.82400 21.52700
H  -1.14600 10.31100 23.36900
H  -1.53600 8.57700 22.88100
H  -0.37200 10.79700 21.09700
H  -2.05700 10.49600 21.33200
H  -0.95900 9.22100 20.59200
H  1.81600 13.69700 25.02400
H  2.92700 14.09800 26.35400
H  1.22500 14.60800 26.35100
H  0.73800 11.85700 31.17700
H  2.35000 12.26100 34.94600
H  3.46000 13.28900 34.15100
H  3.73900 11.56100 34.18600
Mg 26.77000 49.47600 25.70300
C  24.80000 50.58700 28.25400
C  29.08900 48.59900 27.99900
C  28.88300 48.80300 23.17300
C  24.46400 50.75500 23.43000
N  26.87700 49.65500 27.88900
C  25.97400 50.09300 28.76200
C  26.33200 49.72000 30.19100
C  27.83600 49.48400 30.03600
C  27.95100 49.16400 28.52400
C  28.79100 50.58600 30.46100
C  25.45400 48.59400 30.92300
C  24.85900 48.84100 32.34700
H  25.76600 49.52700 33.39600
N  28.71500 48.72200 25.62300
C  29.54100 48.38900 26.71900
C  30.79600 47.75600 26.25000
C  30.81700 47.83300 24.80000
C  29.47000 48.42000 24.42800
C  31.95200 47.26200 27.10500
C  31.90900 47.54700 23.76900
O  31.67900 47.79100 22.60200
C  33.21500 46.96900 24.28500
N  26.69700 49.74600 23.59400
C  27.69300 49.43200 22.76500
C  27.30500 49.63400 21.28800
C  25.84700 50.17800 21.37500
C  25.59800 50.18100 22.89700
C  28.29300 50.49200 20.43900
C  24.65800 49.41500 20.62400
C  24.00100 50.01500 19.40400
N  25.03700 50.53500 25.81000
C  24.17700 50.97300 24.76500
C  23.07500 51.70000 25.33300
C  23.27500 51.53400 26.74400
C  24.45700 50.78100 26.92800
C  21.92200 52.23000 24.59500
C  22.61900 51.80300 28.02400
O  21.57800 52.39000 28.33100
C  23.62900 51.15800 29.01800
C  23.97400 52.14400 30.11900
O  24.37300 53.27900 29.81300
O  23.89200 51.54700 31.40000
C  24.27400 52.35400 32.55800
H  29.83000 48.31200 28.74700
H  29.47700 48.64100 22.27100
H  23.78500 51.30600 22.77600
H  26.31000 50.68200 30.70300
H  28.07200 48.58500 30.60700
H  29.31900 51.01200 29.60900
H  29.61600 50.06700 30.95000
H  28.23900 51.37600 30.97100
H  26.01400 47.65900 30.89700
H  24.59300 48.36900 30.29500
H  24.79900 47.78200 32.59900
H  23.88400 49.31900 32.25800
H  31.85100 46.18400 26.97700
H  31.75600 47.62700 28.11200
H  32.95100 47.62000 26.85300
H  33.05300 46.03000 24.81500
H  33.76900 47.70600 24.86700
H  33.95200 46.65400 23.54600
H  27.28900 48.62100 20.88500
H  25.77800 51.20900 21.02700
H  29.17400 50.85700 20.96900
H  27.75100 51.40300 20.18600
H  28.57300 49.92800 19.54900
H  23.89000 49.28100 21.38500
H  25.00800 48.41200 20.38000
H  24.12000 49.25900 18.62700
H  24.50800 50.94100 19.13300
H  22.97000 50.17200 19.72000
H  21.63600 51.69600 23.68900
H  22.15800 53.26300 24.34100
H  21.00700 52.25800 25.18600
H  23.07900 50.36900 29.53100
H  24.16200 51.65400 33.38500
H  23.51500 53.13600 32.52600
H  25.29400 52.73800 32.55400

