158

Mg 35.49800 48.83300 25.92400
C  36.10300 46.90300 28.79600
C  34.55500 51.41100 27.97000
C  34.56000 50.44800 23.41100
C  36.23000 45.83200 24.01600
N  35.25100 49.08700 28.10800
C  35.64500 48.20500 29.05100
C  35.48400 48.75500 30.48800
C  34.87200 50.17600 30.19700
C  34.92100 50.28600 28.65600
C  33.44100 50.44000 30.74800
C  36.92500 48.78400 31.19500
C  36.95900 48.40400 32.70200
H  35.65600 48.57100 33.42800
N  34.66400 50.68000 25.73100
C  34.43000 51.62000 26.64200
C  34.01700 52.86100 25.99900
C  34.07000 52.62200 24.62500
C  34.42200 51.20700 24.55900
C  33.69600 54.16000 26.75900
C  33.88500 53.61300 23.47800
O  34.02300 53.31400 22.24100
C  33.36800 55.00400 23.79800
N  35.32100 48.16400 24.05900
C  34.89200 49.12100 23.13300
C  35.31000 48.63200 21.71200
C  35.91100 47.22900 22.00700
C  35.82200 47.06700 23.43500
C  34.17000 48.66000 20.70900
C  37.36900 47.27700 21.42800
C  38.68000 47.74000 22.13400
N  36.27800 46.76300 26.25000
C  36.49700 45.76300 25.40000
C  37.05700 44.68400 26.20000
C  36.97700 45.05500 27.51600
C  36.42100 46.31400 27.51900
C  37.61500 43.39900 25.68800
C  37.14600 44.67100 28.85500
O  37.48800 43.65700 29.35600
C  36.48000 45.80700 29.73500
C  35.35900 45.14300 30.42300
O  34.33800 44.62900 29.87400
O  35.49700 45.16200 31.77600
C  34.37200 44.70000 32.50400
H  34.26300 52.36200 28.42100
H  34.25500 50.93500 22.48200
H  36.63400 45.10600 23.30800
H  34.80500 48.09500 31.02700
H  35.48600 50.99700 30.56800
H  33.43700 51.36800 31.32000
H  33.05900 49.70600 31.45800
H  32.73300 50.70400 29.96300
H  37.32500 49.78900 31.05300
H  37.68200 48.18900 30.68400
H  37.66800 48.99300 33.28400
H  37.17300 47.34100 32.81300
H  33.52000 54.02800 27.82700
H  32.74000 54.51700 26.37600
H  34.40400 54.98500 26.68200
H  32.40600 54.90800 24.30200
H  33.20900 55.56500 22.87700
H  33.94800 55.59700 24.50500
H  36.09100 49.32700 21.40200
H  35.41000 46.39800 21.50900
H  33.88700 47.66600 20.36300
H  34.63300 49.15600 19.85500
H  33.35200 49.28400 21.06900
H  37.40100 47.71600 20.43100
H  37.52000 46.21900 21.21200
H  38.44300 47.83100 23.19400
H  39.09600 48.66600 21.73700
H  39.45800 46.98800 22.00500
H  37.35400 42.55900 26.33200
H  38.69200 43.43700 25.52500
H  37.18100 43.16800 24.71500
H  37.18100 46.19000 30.47600
H  33.41900 45.06300 32.12200
H  34.40700 45.16500 33.49000
H  34.38700 43.61400 32.59300
Mg 5.32600 54.12900 41.38000
C  5.00800 50.69900 40.88500
C  8.73400 53.79500 40.41000
C  5.76900 57.39400 41.54600
C  2.00600 54.22700 42.07000
N  6.61400 52.55200 40.48800
C  6.18900 51.25100 40.40100
C  7.38800 50.38100 39.90500
C  8.58800 51.32200 40.18400
C  7.92500 52.62600 40.37500
C  9.61200 50.91200 41.32500
C  7.27800 49.84600 38.45300
C  6.52000 50.84500 37.41700
H  5.83600 50.20000 36.16500
N  7.03100 55.43300 41.01800
C  8.30100 55.13800 40.65100
C  9.07800 56.35500 40.64000
C  8.29400 57.45300 41.04900
C  6.97000 56.77900 41.28100
C  10.54900 56.41500 40.25400
C  8.70600 58.94200 41.15200
O  9.78800 59.36200 40.68400
C  7.77300 59.97000 41.79700
N  4.07200 55.67100 41.71500
C  4.48300 56.90300 41.87000
C  3.20600 57.84700 41.96600
C  2.07900 56.82000 42.12800
C  2.76000 55.48000 41.90800
C  3.23000 58.82500 43.08600
C  0.96500 56.94700 41.16100
C  0.45200 58.32900 40.70400
N  3.79000 52.76300 41.52800
C  2.51500 52.91300 41.94500
C  1.89600 51.60400 42.01900
C  2.85700 50.73600 41.65300
C  3.94200 51.44600 41.36600
C  0.42800 51.35800 42.51500
C  3.08900 49.29100 41.54300
O  2.34700 48.30000 41.67800
C  4.57500 49.25800 41.04500
C  4.44900 48.55000 39.79000
O  4.09100 49.07500 38.74400
O  4.72000 47.24400 39.95400
C  4.65500 46.33200 38.77400
H  9.82000 53.68400 40.36700
H  5.71300 58.48400 41.50500
H  0.93200 54.36700 42.20600
H  7.46400 49.53400 40.58700
H  9.14800 51.49700 39.26600
H  9.51600 49.84600 41.53300
H  9.45100 51.47100 42.24700
H  10.62500 51.16300 41.00900
H  6.76200 48.88600 38.42000
H  8.29500 49.87000 38.06200
H  7.21900 51.58500 37.02900
H  5.71000 51.36100 37.93300
H  10.65000 56.82000 39.24700
H  10.96300 55.41000 40.16700
H  11.19600 56.99200 40.91400
H  8.39200 60.82100 42.08000
H  7.49200 59.48000 42.72900
H  6.94000 60.10400 41.10700
H  3.14100 58.38300 41.01900
H  1.62000 56.83800 43.11600
H  3.14100 59.80000 42.60800
H  4.21200 58.79800 43.55900
H  2.47600 58.72400 43.86700
H  0.14900 56.47100 41.70500
H  1.23500 56.34900 40.29100
H  0.85800 58.46000 39.70100
H  0.83600 59.11700 41.35100
H  -0.63700 58.28700 40.70600
H  0.49800 51.66200 43.55900
H  0.20100 50.31900 42.27500
H  -0.16000 52.09400 41.96500
H  5.19500 48.68600 41.73600
H  5.04900 46.71500 37.83300
H  3.66600 45.93100 38.55400
H  5.42200 45.56500 38.88500

