158

Mg 26.20500 0.39600 29.62200
C  28.00000 0.20800 32.64100
C  23.31200 0.80100 31.53300
C  24.39500 0.21600 26.76000
C  28.99200 -0.50100 27.82100
N  25.70200 0.32500 31.92800
C  26.64600 0.44800 32.92200
C  26.00100 0.81200 34.25500
C  24.42700 0.87600 33.92000
C  24.44200 0.64900 32.31900
C  23.53300 0.09800 34.87300
C  26.62900 2.14900 34.77600
C  27.35600 1.99200 36.09300
H  26.81500 2.84900 37.28400
N  24.09300 0.45500 29.18400
C  23.05600 0.50800 30.12000
C  21.77500 0.43000 29.39700
C  22.06100 0.22800 28.00500
C  23.55900 0.32400 27.95300
C  20.44300 0.48100 30.15600
C  21.08900 -0.06100 26.81800
O  21.50800 -0.19500 25.66700
C  19.64100 -0.10500 26.99100
N  26.59000 -0.05800 27.56300
C  25.71800 0.00200 26.54900
C  26.38300 -0.08300 25.16300
C  27.82200 -0.45800 25.58700
C  27.86100 -0.31900 27.06600
C  25.67300 -1.06700 24.15600
C  28.94400 0.34500 24.79000
C  29.18900 1.74900 25.14800
N  28.12800 -0.03500 30.03300
C  29.17000 -0.39300 29.20600
C  30.30000 -0.72200 30.01500
C  29.94400 -0.42600 31.34500
C  28.57600 -0.04900 31.30700
C  31.64900 -1.19300 29.44700
C  30.44200 -0.41200 32.74600
O  31.46600 -0.85600 33.22600
C  29.17600 0.11100 33.66800
C  29.14600 -0.79400 34.80000
O  28.41400 -1.81800 34.88200
O  29.91600 -0.37100 35.80400
C  29.80000 -1.08400 37.08600
H  22.45200 1.19600 32.07800
H  23.89500 -0.00600 25.81500
H  29.86300 -0.82100 27.24600
H  26.14400 -0.06900 34.88200
H  24.02900 1.87200 34.11300
H  22.96100 -0.62000 34.28500
H  22.87500 0.81900 35.35800
H  24.05400 -0.45600 35.65400
H  25.86100 2.90900 34.91800
H  27.43200 2.64000 34.22600
H  28.38800 2.28300 35.89800
H  27.26800 0.95000 36.40000
H  20.58200 1.07800 31.05800
H  19.97800 -0.45600 30.46300
H  19.78400 1.00000 29.46000
H  19.20200 -0.16300 25.99500
H  19.32300 0.83300 27.44700
H  19.37100 -0.94300 27.63400
H  26.44500 0.84100 24.58700
H  27.93600 -1.54200 25.55900
H  24.73000 -1.37300 24.60900
H  26.22800 -1.99500 24.01700
H  25.60100 -0.59800 23.17500
H  28.57400 0.40600 23.76700
H  29.85500 -0.24000 24.65900
H  30.25200 1.92500 25.31500
H  28.67000 2.07100 26.05000
H  28.73000 2.46400 24.46500
H  31.69200 -0.89100 28.40100
H  31.74200 -2.27200 29.57200
H  32.50700 -0.68100 29.88100
H  29.38200 1.13400 33.98200
H  29.97500 -2.15600 36.99500
H  28.80700 -0.94300 37.51200
H  30.45700 -0.63600 37.83100
Mg 47.37900 14.97200 28.14700
C  45.43000 14.89500 31.06700
C  49.49300 17.25000 29.66400
C  49.07800 15.29900 25.19500
C  44.92400 13.14800 26.51000
N  47.39300 16.01200 30.09500
C  46.59400 15.71200 31.18800
C  47.14600 16.33000 32.51700
C  48.22300 17.36400 32.00200
C  48.42500 16.85200 30.50600
C  47.75400 18.84300 31.80800
C  47.70400 15.27100 33.52000
C  47.56200 15.73500 34.99900
H  48.76400 15.57600 35.86700
N  49.15400 16.04200 27.58200
C  49.87300 16.88500 28.36900
C  51.10200 17.35600 27.64200
C  50.99900 16.72300 26.35700
C  49.71200 15.96400 26.34400
C  52.08500 18.41900 28.08200
C  51.95200 16.66300 25.14500
O  51.78600 16.02100 24.11900
C  53.33300 17.35400 25.28700
N  47.02000 14.47600 26.14300
C  47.86000 14.66000 25.11900
C  47.28800 14.02400 23.77400
C  46.07700 13.22600 24.28400
C  46.01300 13.59300 25.72400
C  46.83900 14.95700 22.65600
C  45.99700 11.69000 23.99500
C  47.02700 10.75500 24.63100
N  45.60400 14.16700 28.63100
C  44.71600 13.36800 27.88800
C  43.52000 13.13100 28.65300
C  43.79000 13.63100 29.89200
C  45.02000 14.24200 29.84300
C  42.32600 12.42700 28.23800
C  43.27200 13.79000 31.28200
O  42.24700 13.32300 31.72900
C  44.37100 14.60400 32.10800
C  43.71800 15.81100 32.83200
O  42.92300 16.59100 32.35400
O  44.23900 15.95500 34.09200
C  43.94800 17.18100 34.87300
H  50.26200 17.88200 30.11400
H  49.69300 15.23100 24.29500
H  44.20400 12.55600 25.94100
H  46.30000 16.81400 33.00500
H  49.13700 17.45500 32.58900
H  48.57300 19.52500 32.03700
H  46.90900 19.10300 32.44600
H  47.42500 18.99000 30.78000
H  48.74100 15.05300 33.26500
H  47.16000 14.32800 33.46300
H  46.85700 14.98900 35.36800
H  47.04400 16.69400 35.00700
H  51.96800 19.26500 27.40400
H  53.13900 18.15300 28.00000
H  51.85200 18.81500 29.07000
H  53.20400 18.43500 25.33700
H  53.94400 17.18600 24.39900
H  53.89900 17.08600 26.17900
H  47.91100 13.17500 23.49200
H  45.14900 13.70300 23.97000
H  46.72700 14.36300 21.74900
H  47.51500 15.78200 22.43300
H  45.87400 15.42300 22.85400
H  46.14800 11.60000 22.91900
H  45.07700 11.20100 24.31500
H  46.57900 9.79300 24.88100
H  47.36800 11.11000 25.60300
H  47.82900 10.50300 23.93800
H  42.02100 11.75800 29.04300
H  42.54200 11.89200 27.31400
H  41.45500 13.06200 28.07900
H  44.77500 13.92500 32.85900
H  42.88500 17.18000 35.11400
H  44.36000 18.02500 34.32100
H  44.51800 17.34600 35.78700

