158

Mg 46.99700 16.61800 29.10600
C  44.82400 16.03000 31.79700
C  49.03700 18.29800 31.29700
C  48.59300 17.97800 26.44900
C  44.58600 15.33600 27.01400
N  46.83600 17.09400 31.31900
C  45.93900 16.74300 32.21600
C  46.33700 17.15900 33.66000
C  47.65800 17.96000 33.45500
C  47.88700 17.76000 31.92000
C  47.69300 19.43700 33.81200
C  46.57800 15.86800 34.56000
C  46.11600 15.96300 35.99500
H  45.90300 17.34600 36.59200
N  48.77300 17.71400 28.90000
C  49.51200 18.24700 29.93000
C  50.65900 18.94100 29.28100
C  50.52500 18.74200 27.83300
C  49.26600 18.07400 27.66500
C  51.72500 19.65100 30.11000
C  51.50700 19.16100 26.78800
O  51.28300 18.98400 25.61400
C  52.86300 19.63500 27.09100
N  46.61100 16.72300 27.07500
C  47.41100 17.35900 26.14700
C  47.04100 17.07300 24.67300
C  45.87600 16.00200 24.89800
C  45.73400 15.90100 26.42800
C  46.65100 18.37400 23.89600
C  46.32000 14.55800 24.30600
C  45.22300 13.91900 23.37800
N  45.08200 15.78000 29.31600
C  44.33800 15.23500 28.37100
C  43.15700 14.67700 28.92600
C  43.33800 14.94200 30.31200
C  44.54000 15.61900 30.49800
C  42.12900 13.96400 28.23600
C  42.76600 14.73000 31.63200
O  41.72800 14.16200 31.93900
C  43.72300 15.43800 32.61200
C  42.97100 16.50400 33.31100
O  42.35000 17.41700 32.75700
O  43.06000 16.33000 34.69000
C  42.19400 17.29800 35.35800
H  49.76200 18.66200 32.02900
H  49.06800 18.46200 25.59300
H  43.89900 14.91400 26.27700
H  45.54700 17.83600 33.98600
H  48.52400 17.58700 34.00300
H  47.97700 20.06900 32.97100
H  48.41300 19.62200 34.60800
H  46.70800 19.72700 34.18000
H  47.61500 15.53000 34.57500
H  46.01200 15.04200 34.13100
H  46.92900 15.60500 36.62700
H  45.19300 15.41000 36.16800
H  52.32900 18.77700 30.35400
H  51.29900 19.97900 31.05800
H  52.27100 20.42600 29.57200
H  53.32800 19.79500 26.11800
H  53.35600 18.85600 27.67300
H  52.82500 20.58400 27.62500
H  47.94300 16.67800 24.20600
H  44.94500 16.29700 24.41300
H  47.00000 19.27000 24.40900
H  45.56500 18.38500 23.79600
H  46.92800 18.32900 22.84300
H  46.70600 14.00000 25.16000
H  47.05100 14.93300 23.59000
H  45.78700 13.63600 22.48900
H  44.41800 14.59400 23.08900
H  44.72200 13.06300 23.82900
H  41.36600 13.54500 28.89100
H  42.67100 13.13400 27.78300
H  41.58300 14.41700 27.40800
H  44.05000 14.66900 33.31300
H  41.12000 17.16200 35.23500
H  42.53600 18.28500 35.04800
H  42.38200 17.17500 36.42500
Mg -4.60900 25.51400 26.57100
C  -3.16900 26.63700 29.64000
C  -6.64200 23.50100 28.33000
C  -5.38100 24.02200 23.63400
C  -2.27500 27.60200 24.90100
N  -4.64900 24.98000 28.74000
C  -4.15800 25.62200 29.82700
C  -4.91700 25.20600 31.08900
C  -5.79100 24.03300 30.65000
C  -5.73500 24.14100 29.12400
C  -5.23500 22.63700 31.06100
C  -5.59300 26.41700 31.80200
C  -5.32800 26.50700 33.32000
H  -4.64600 25.34200 34.07400
N  -5.94700 24.03800 26.02200
C  -6.71800 23.30600 26.92600
C  -7.64600 22.37800 26.19300
C  -7.27900 22.56700 24.81300
C  -6.15600 23.52600 24.76800
C  -8.69200 21.60500 26.75700
C  -7.93800 21.88200 23.58400
O  -7.47600 22.05100 22.46900
C  -9.25700 21.19900 23.74400
N  -3.88400 25.71700 24.50300
C  -4.34700 25.00000 23.50800
C  -3.64600 25.37400 22.16000
C  -2.88400 26.66000 22.57300
C  -3.04700 26.72300 24.08500
C  -2.84600 24.25500 21.49700
C  -3.44300 27.92400 21.89100
C  -2.73400 28.35500 20.56800
N  -3.14800 26.89800 27.09100
C  -2.28700 27.68800 26.30200
C  -1.50900 28.52000 27.14000
C  -1.83900 28.14600 28.45000
C  -2.80200 27.13300 28.39200
C  -0.52800 29.41700 26.78900
C  -1.55500 28.37200 29.81600
O  -0.69800 29.09900 30.36800
C  -2.44400 27.43800 30.65700
C  -1.54800 26.60400 31.51100
O  -0.69700 25.80700 31.15700
O  -1.56300 27.20000 32.78400
C  -0.49400 26.90100 33.71800
H  -7.28100 22.77300 28.83400
H  -5.44900 23.43700 22.71500
H  -1.64700 28.24800 24.28400
H  -4.21000 24.75700 31.78600
H  -6.80200 24.20500 31.02000
H  -4.89000 22.55300 32.09100
H  -4.31500 22.49000 30.49500
H  -6.02400 21.93100 30.80200
H  -6.66900 26.37900 31.63100
H  -5.26500 27.28900 31.23600
H  -6.26100 26.60100 33.87600
H  -4.71300 27.36200 33.60100
H  -8.55900 21.46900 27.83100
H  -8.71100 20.55600 26.46300
H  -9.63900 22.12800 26.62500
H  -9.83800 21.08100 22.83000
H  -9.92200 21.82900 24.33600
H  -9.02200 20.23500 24.19400
H  -4.41400 25.68200 21.45100
H  -1.81400 26.58300 22.37800
H  -1.79000 24.52500 21.49400
H  -3.19800 24.14700 20.47100
H  -3.00300 23.28400 21.96600
H  -3.50000 28.73000 22.62300
H  -4.46900 27.72500 21.58100
H  -1.89100 27.66600 20.49800
H  -2.42600 29.39800 20.63500
H  -3.46200 28.26600 19.76200
H  -0.37000 29.64900 25.73600
H  0.41500 29.00400 27.14800
H  -0.74400 30.35800 27.29400
H  -3.10900 28.05100 31.26600
H  -0.65800 25.83200 33.85500
H  -0.72700 27.43600 34.63800
H  0.43700 27.06500 33.17500

