158

Mg 0.09200 7.60400 25.20700
C  0.85700 9.69100 27.79800
C  0.47100 4.89500 27.28900
C  -0.41800 5.61700 22.61600
C  0.28300 10.31800 23.05200
N  0.70800 7.28800 27.28500
C  0.85600 8.34900 28.18900
C  1.19400 7.81000 29.59500
C  1.14500 6.30400 29.36300
C  0.77700 6.10300 27.92800
C  2.45400 5.55500 29.70000
C  0.22100 8.28600 30.65200
C  0.94800 8.67900 32.00600
H  1.52700 7.50700 32.84000
N  -0.20700 5.57400 25.05800
C  -0.07700 4.63200 25.99100
C  -0.25800 3.27000 25.33900
C  -0.51100 3.40700 23.99300
C  -0.45200 4.97400 23.84300
C  -0.07500 2.01700 26.15800
C  -0.77700 2.29800 22.94900
O  -1.17900 2.54700 21.83900
C  -0.50700 0.77700 23.37200
N  0.09100 7.90300 23.15800
C  -0.24900 6.96500 22.25900
C  -0.56900 7.46400 20.88300
C  -0.37300 8.99900 21.05300
C  0.07400 9.09800 22.51100
C  0.19900 6.86700 19.72800
C  -1.54100 9.95400 20.64500
C  -2.85700 9.85200 21.30400
N  0.59200 9.56700 25.33700
C  0.62900 10.53900 24.37700
C  0.78600 11.86000 24.95100
C  1.01400 11.53500 26.29500
C  0.78100 10.14700 26.50100
C  0.84100 13.18500 24.39100
C  1.30200 12.13300 27.55900
O  1.62000 13.27400 27.90100
C  1.20800 10.97200 28.67900
C  2.43000 10.96900 29.54300
O  3.44900 10.38200 29.30800
O  2.17800 11.57800 30.71800
C  3.32900 11.68900 31.69900
H  0.48300 4.09100 28.02800
H  -0.86800 4.96600 21.86300
H  0.14600 11.24100 22.48600
H  2.22800 8.10500 29.77300
H  0.45800 5.87300 30.09100
H  2.68600 4.86100 28.89100
H  2.33400 4.95100 30.59900
H  3.26900 6.25900 29.86800
H  -0.53200 7.52600 30.86200
H  -0.27600 9.16900 30.25000
H  0.23800 9.31300 32.53700
H  1.85000 9.20000 31.68200
H  -1.04700 1.54200 26.03400
H  0.01000 2.36000 27.19000
H  0.85000 1.47600 25.96100
H  -1.34200 0.43100 23.98300
H  0.46200 0.82200 23.86800
H  -0.39000 0.10900 22.51900
H  -1.62800 7.32300 20.66800
H  0.54400 9.30500 20.54900
H  -0.38700 6.60100 18.84800
H  0.69300 5.94200 20.02300
H  0.88200 7.62600 19.34600
H  -1.69900 9.76900 19.58300
H  -1.13100 10.96400 20.61200
H  -2.78400 9.13200 22.11900
H  -3.58400 9.54800 20.55100
H  -3.19200 10.77700 21.77400
H  0.00400 13.71000 24.85200
H  0.68300 13.21900 23.31300
H  1.77900 13.63100 24.72200
H  0.46200 11.37500 29.36400
H  3.75500 10.71400 31.93700
H  3.03700 12.10100 32.66500
H  4.15300 12.24500 31.25200
Mg 24.02900 -5.07800 44.93000
C  25.60400 -2.33900 43.50600
C  21.14200 -4.16900 43.09100
C  22.76500 -8.19900 45.40300
C  27.27000 -6.27500 46.01900
N  23.51400 -3.43900 43.40500
C  24.29600 -2.39700 43.02700
C  23.56200 -1.40500 42.11600
C  22.12700 -1.74800 42.48400
C  22.22900 -3.25100 42.93700
C  21.50700 -0.87800 43.55500
C  23.98000 -1.57300 40.65300
C  24.35500 -0.28600 39.83400
H  25.22500 -0.57900 38.60100
N  22.16800 -6.00200 44.46800
C  21.09400 -5.50300 43.71500
C  20.00900 -6.48800 43.74200
C  20.47100 -7.67600 44.37400
C  21.80700 -7.30300 44.81800
C  18.70700 -6.12200 43.23100
C  19.68600 -8.90300 44.56000
O  18.47700 -8.95100 44.23500
C  20.29700 -10.15900 45.20000
N  24.90500 -6.96800 45.66900
C  24.13400 -8.04300 45.81500
C  24.96000 -9.16300 46.45100
C  26.42500 -8.55700 46.61100
C  26.22400 -7.20100 45.99900
C  24.23800 -9.75600 47.73200
C  27.58200 -9.30700 45.85600
C  28.84600 -9.57900 46.69100
N  26.07100 -4.47300 44.87900
C  27.23700 -4.95500 45.47900
C  28.25400 -4.06800 45.15600
C  27.71400 -3.04600 44.38000
C  26.36000 -3.32600 44.26500
C  29.67700 -4.27300 45.42300
C  27.98700 -1.73700 43.68600
O  29.06700 -1.24500 43.49400
C  26.59700 -1.26200 43.11600
C  26.33000 0.15000 43.62800
O  25.53600 0.45500 44.52900
O  27.19600 1.01800 43.02300
C  26.99800 2.40500 43.56000
H  20.21400 -3.80700 42.64400
H  22.52900 -9.23700 45.64400
H  28.29100 -6.65500 46.10000
H  23.69300 -0.38000 42.46400
H  21.53200 -1.55000 41.59200
H  22.05300 0.05300 43.70400
H  21.44100 -1.48900 44.45600
H  20.51200 -0.48600 43.34400
H  23.05700 -1.86200 40.15100
H  24.76400 -2.31700 40.51400
H  24.80400 0.41900 40.53400
H  23.47600 0.20600 39.41700
H  17.98300 -6.61900 43.87600
H  18.75600 -6.60800 42.25600
H  18.51400 -5.05200 43.30800
H  19.56700 -10.96500 45.13300
H  20.52600 -9.96800 46.24900
H  21.12500 -10.52500 44.59300
H  25.01300 -9.88400 45.63500
H  26.60400 -8.37200 47.67000
H  23.95400 -10.76900 47.44400
H  23.27500 -9.31700 47.99400
H  24.97100 -9.74700 48.53900
H  27.98000 -8.80100 44.97600
H  27.25200 -10.30700 45.57500
H  28.75900 -10.66500 46.71000
H  28.70100 -9.31600 47.73800
H  29.72900 -9.10400 46.26300
H  29.88300 -4.86900 46.31200
H  30.22400 -3.36700 45.68200
H  30.10800 -4.81300 44.58000
H  26.76500 -1.02100 42.06700
H  27.39800 3.10900 42.83000
H  27.57300 2.40800 44.48600
H  25.98300 2.70500 43.82000

