158

Mg 0.48200 7.26500 25.30400
C  1.11700 9.17800 28.08500
C  0.69000 4.40300 27.27300
C  0.17000 5.37200 22.50800
C  0.96600 10.06800 23.26000
N  0.64500 6.85000 27.45300
C  0.89000 7.84200 28.40500
C  1.00400 7.23000 29.84500
C  0.96400 5.68900 29.48100
C  0.81900 5.58300 27.97100
C  2.18200 4.86400 29.91100
C  -0.14900 7.76700 30.64600
C  -0.03000 7.78900 32.19900
H  1.12200 7.19100 33.00400
N  0.42400 5.20900 24.95100
C  0.46900 4.20400 25.91600
C  0.40600 2.93700 25.25300
C  0.16900 3.20700 23.87900
C  0.21600 4.63100 23.70000
C  0.55900 1.56500 25.95300
C  -0.15300 2.23900 22.75600
O  -0.18500 2.53100 21.56500
C  -0.30000 0.73000 23.09500
N  0.60900 7.66600 23.28200
C  0.23000 6.74300 22.32500
C  0.07900 7.34400 20.93900
C  0.15800 8.91100 21.22100
C  0.56300 8.89600 22.67600
C  1.04500 6.85100 19.92500
C  -1.18200 9.71700 20.96700
C  -1.23100 11.20600 20.60400
N  1.03000 9.23700 25.54400
C  1.15900 10.28400 24.64000
C  1.40400 11.51100 25.36500
C  1.46700 11.11800 26.70600
C  1.16900 9.76500 26.76600
C  1.44300 12.91400 24.75300
C  1.68400 11.56500 28.07700
O  1.86700 12.71200 28.57600
C  1.47700 10.32500 28.99200
C  2.73800 10.19500 29.75100
O  3.82000 10.05400 29.20300
O  2.39700 10.44600 31.06500
C  3.52800 10.67800 31.97900
H  0.65400 3.49800 27.88300
H  0.03400 4.82900 21.57000
H  1.00000 11.02400 22.73300
H  1.92100 7.53300 30.34900
H  0.02100 5.33000 29.89400
H  2.73400 4.49800 29.04500
H  1.78000 4.06200 30.52900
H  2.79100 5.42700 30.61900
H  -1.00300 7.10700 30.49100
H  -0.49900 8.73900 30.29900
H  -1.00300 7.40200 32.50100
H  -0.02600 8.83100 32.52100
H  1.33300 0.97600 25.46100
H  -0.41400 1.07500 25.90500
H  0.92000 1.71500 26.97100
H  -0.66300 0.29000 22.16600
H  -1.00800 0.63600 23.91900
H  0.68800 0.31600 23.29400
H  -0.91400 7.07900 20.57600
H  1.03200 9.37200 20.76100
H  1.88900 7.48700 19.65900
H  0.56000 6.66300 18.96800
H  1.49200 5.88800 20.17100
H  -1.80900 9.41800 21.80700
H  -1.55900 9.31400 20.02700
H  -1.82800 11.62800 21.41200
H  -1.56800 11.49400 19.60800
H  -0.29700 11.76800 20.62400
H  1.49800 13.73400 25.46900
H  0.58100 13.13900 24.12500
H  2.28900 12.89200 24.06600
H  0.69600 10.44200 29.74400
H  3.16900 11.40800 32.70400
H  4.47100 11.00800 31.54400
H  3.65800 9.74000 32.52000
Mg 16.17300 52.37500 27.13000
C  18.15700 50.99700 29.73100
C  13.77500 53.09800 29.44700
C  14.53000 53.58100 24.73600
C  18.56400 51.03000 24.80100
N  15.96400 51.95900 29.31900
C  16.93400 51.53000 30.20800
C  16.38600 51.33000 31.60700
C  14.97500 52.00900 31.49100
C  14.83600 52.34400 29.98800
C  13.73800 51.17000 31.98300
C  17.34100 51.81900 32.75400
C  17.16400 53.13500 33.61200
H  16.29700 53.04500 34.90100
N  14.33400 53.32400 27.15100
C  13.44800 53.57900 28.19300
C  12.31600 54.25800 27.69000
C  12.57700 54.52200 26.27700
C  13.85000 53.84800 25.98500
C  11.18500 54.57000 28.61000
C  11.80900 55.36800 25.29000
O  12.24900 55.68900 24.17500
C  10.38400 55.66200 25.53400
N  16.49600 52.26900 24.98800
C  15.66000 52.99600 24.18800
C  16.03500 52.92000 22.64800
C  17.47900 52.39000 22.82100
C  17.49600 51.77500 24.20800
C  15.03100 51.97000 21.87800
C  18.68200 53.32500 22.54500
C  19.91200 52.70000 21.79800
N  17.98200 51.02500 27.19500
C  18.87100 50.61200 26.16100
C  20.02400 49.92700 26.70200
C  19.76900 50.03400 28.07500
C  18.52300 50.75500 28.34600
C  21.24500 49.41800 26.04400
C  20.30800 49.67300 29.36000
O  21.26100 48.98600 29.62800
C  19.33600 50.31000 30.43600
C  18.82600 49.18000 31.33500
O  18.10100 48.25000 30.99600
O  19.42500 49.25500 32.58100
C  18.91500 48.34100 33.62400
H  13.02700 53.38700 30.18800
H  13.78700 53.89400 23.99900
H  19.30000 50.88100 24.00800
H  16.31400 50.25900 31.79500
H  14.90800 52.94200 32.05100
H  12.78200 51.68800 31.90200
H  13.97300 50.74700 32.96000
H  13.67200 50.31200 31.31400
H  18.27800 52.02800 32.23800
H  17.49000 51.00800 33.46700
H  16.80200 53.91700 32.94500
H  18.15200 53.45400 33.94600
H  10.54000 55.36200 28.22900
H  11.65700 54.88800 29.53900
H  10.60000 53.66600 28.77700
H  9.82900 54.78000 25.85400
H  10.01200 55.93500 24.54700
H  10.22800 56.44100 26.28100
H  16.00800 53.93800 22.25900
H  17.62200 51.52900 22.16800
H  14.40100 51.41400 22.57300
H  15.54100 51.33400 21.15500
H  14.43300 52.68700 21.31500
H  19.10300 53.64200 23.49900
H  18.40300 54.23100 22.00500
H  19.68000 51.72400 21.37300
H  20.79100 52.48200 22.40400
H  20.26800 53.37800 21.02300
H  21.49300 50.16300 25.28900
H  21.05200 48.49600 25.49600
H  22.00300 49.33800 26.82400
H  19.88600 50.99200 31.08400
H  18.59600 48.85000 34.53400
H  19.65900 47.59200 33.89500
H  18.07300 47.69300 33.37800

