158

Mg 34.95100 3.21700 30.39600
C  32.70500 4.38800 32.75200
C  37.36600 2.97600 32.72100
C  36.97000 2.02700 27.98400
C  32.40200 3.62900 27.92400
N  34.89700 3.49700 32.51900
C  33.91300 3.98900 33.31700
C  34.28200 3.87400 34.80800
C  35.87100 3.76300 34.76800
C  36.06200 3.39000 33.21300
C  36.63500 5.06100 35.11600
C  33.57300 2.69200 35.51700
C  33.74100 2.59900 37.00300
H  34.57800 3.52400 37.82700
N  36.91100 2.71100 30.37100
C  37.74600 2.59800 31.46500
C  39.09400 2.13000 31.01600
C  38.92700 1.86400 29.62500
C  37.56400 2.24400 29.23200
C  40.26500 2.05800 31.97600
C  40.02200 1.32100 28.65000
O  39.88500 1.27900 27.41200
C  41.26800 0.76200 29.14300
N  34.66700 2.72900 28.24500
C  35.65700 2.20400 27.49600
C  35.19500 1.87800 26.07800
C  33.73400 2.51500 26.06200
C  33.55600 3.05300 27.50100
C  35.99900 2.32900 24.93600
C  32.61200 1.56800 25.52600
C  32.10400 1.77200 24.08000
N  32.90700 3.82000 30.32800
C  32.03400 4.02300 29.24100
C  30.77200 4.46000 29.77300
C  30.96400 4.67800 31.14100
C  32.30800 4.29600 31.44100
C  29.60300 4.78000 28.95900
C  30.34800 5.16700 32.36900
O  29.22000 5.48300 32.64400
C  31.48800 4.82800 33.45900
C  31.74500 6.03400 34.26700
O  32.00900 7.14300 33.88400
O  31.45700 5.75900 35.57400
C  31.51700 6.90100 36.59300
H  38.16800 2.84700 33.45100
H  37.57500 1.49100 27.25000
H  31.62100 3.81600 27.18500
H  33.89700 4.76200 35.30900
H  36.24300 2.94000 35.37900
H  35.98200 5.93200 35.06400
H  37.37400 5.19300 34.32600
H  37.22600 4.89700 36.01700
H  34.11600 1.80300 35.19500
H  32.54300 2.59100 35.17500
H  33.96600 1.57400 37.29600
H  32.73700 2.84100 37.35300
H  41.15300 2.49600 31.52100
H  40.58700 1.07000 32.30700
H  40.16500 2.73100 32.82800
H  40.98000 0.01000 29.87800
H  41.91900 1.51100 29.59400
H  41.76300 0.11300 28.42000
H  35.18500 0.79400 26.20000
H  33.74100 3.39600 25.42000
H  36.65200 3.18500 25.10400
H  35.35000 2.53400 24.08400
H  36.68600 1.49400 24.80100
H  31.76300 1.38600 26.18500
H  33.05600 0.57300 25.49400
H  32.45600 0.83400 23.65100
H  32.62900 2.64900 23.70300
H  31.03900 1.92600 23.90500
H  29.02000 3.88800 28.73100
H  29.99700 5.12000 28.00200
H  29.05000 5.67000 29.26200
H  31.21400 4.02600 34.14400
H  30.93300 6.63600 37.47500
H  31.17900 7.84400 36.16500
H  32.52900 7.06000 36.96600
Mg -12.28400 38.14600 41.49400
C  -9.89200 35.86500 41.03100
C  -10.32600 40.49500 39.84900
C  -14.99100 40.17900 41.09000
C  -14.52200 35.59700 42.57700
N  -10.35500 38.06100 40.48400
C  -9.60700 37.00100 40.33000
C  -8.36000 37.32400 39.54300
C  -8.47600 38.85500 39.26300
C  -9.82600 39.18300 39.85200
C  -7.36400 39.72300 39.87900
C  -8.09600 36.34200 38.42400
C  -6.75100 35.71800 38.39900
H  -5.86700 36.33400 37.19600
N  -12.53500 40.11800 40.75600
C  -11.59500 40.94900 40.29800
C  -12.11700 42.26100 40.19300
C  -13.46900 42.21400 40.43200
C  -13.71400 40.79000 40.85100
C  -11.33200 43.47700 39.66100
C  -14.47600 43.42100 40.35400
O  -14.16000 44.47400 39.74600
C  -15.83800 43.34100 40.97800
N  -14.55900 37.88300 41.64800
C  -15.40200 38.91500 41.54500
C  -16.90300 38.45000 41.57400
C  -16.74600 36.99600 42.06100
C  -15.17700 36.80000 42.16000
C  -18.00400 39.31600 42.28200
C  -17.31200 35.86900 41.11000
C  -18.04000 34.71600 41.86800
N  -12.31300 36.10800 41.73100
C  -13.16800 35.24500 42.39800
C  -12.48900 34.03800 42.74000
C  -11.17300 34.18300 42.21400
C  -11.14300 35.48800 41.54900
C  -13.04000 32.84200 43.44500
C  -9.95000 33.56100 41.96500
O  -9.54000 32.45800 42.38300
C  -9.05100 34.62800 41.18800
C  -7.75200 34.81500 41.85400
O  -6.82400 34.03200 41.85300
O  -7.72000 36.08100 42.45900
C  -6.42400 36.48300 43.06900
H  -9.70900 41.17600 39.26000
H  -15.85300 40.82200 40.89900
H  -15.19400 34.88000 43.05400
H  -7.55600 37.27600 40.27700
H  -8.45900 39.12300 38.20700
H  -7.62600 40.28300 40.77600
H  -6.87100 40.34300 39.13100
H  -6.53900 39.05000 40.11300
H  -8.44400 36.78900 37.49300
H  -8.87900 35.59000 38.52000
H  -6.81100 34.65300 38.17200
H  -6.17300 35.87500 39.31000
H  -11.37500 44.28400 40.39300
H  -11.61900 43.80700 38.66300
H  -10.27700 43.26800 39.48500
H  -15.91800 42.93500 41.98600
H  -16.48400 42.84600 40.25200
H  -16.16200 44.38100 41.00100
H  -17.13800 38.35400 40.51400
H  -17.23200 36.99400 43.03600
H  -17.49200 40.01600 42.94100
H  -18.61600 38.70100 42.94200
H  -18.60200 39.84500 41.53900
H  -16.48400 35.37200 40.60500
H  -18.02100 36.20900 40.35500
H  -19.04800 34.71700 41.45500
H  -18.13600 34.84400 42.94600
H  -17.60600 33.74900 41.61400
H  -13.80000 32.45600 42.76600
H  -13.57200 33.12000 44.35500
H  -12.27500 32.09000 43.63800
H  -8.76700 34.00500 40.33900
H  -6.42300 37.55300 42.86000
H  -5.52200 36.08300 42.60700
H  -6.37700 36.36100 44.15100

