158

Mg 25.70400 -0.12900 29.20000
C  27.50200 -0.15800 32.23100
C  22.87400 0.45900 30.82700
C  24.21900 -0.00600 26.20100
C  28.64700 -1.23900 27.60300
N  25.30700 0.18400 31.25400
C  26.13400 0.27500 32.34400
C  25.39500 0.58100 33.64700
C  24.02400 0.79100 33.12400
C  23.99700 0.40300 31.64300
C  23.03500 0.02300 33.96400
C  26.03500 1.78600 34.43300
C  26.92800 1.70100 35.74800
H  26.48600 2.61800 36.84900
N  23.79200 0.17800 28.53000
C  22.69600 0.37400 29.41300
C  21.49100 0.50000 28.59500
C  21.89300 0.40900 27.22100
C  23.33900 0.15300 27.27400
C  20.12400 0.67900 29.22700
C  21.13100 0.35500 25.92300
O  21.59400 0.15700 24.77300
C  19.73400 0.60500 26.14900
N  26.30500 -0.85400 27.27500
C  25.49400 -0.51400 26.19400
C  26.21900 -0.68600 24.91000
C  27.63500 -1.14000 25.36600
C  27.51300 -1.07900 26.83400
C  25.56900 -1.55900 23.90600
C  28.81200 -0.26700 24.81600
C  29.02000 1.07400 25.37700
N  27.70100 -0.60500 29.73800
C  28.79300 -1.03200 29.02000
C  29.99700 -1.13300 29.82700
C  29.45500 -0.86700 31.14400
C  28.09300 -0.55600 31.01900
C  31.40500 -1.44800 29.28400
C  29.83400 -0.85500 32.53000
O  30.88600 -1.17100 33.08000
C  28.55600 -0.27000 33.26900
C  28.21000 -1.22400 34.30100
O  27.40600 -2.13700 34.18400
O  29.01300 -1.08100 35.44200
C  28.86300 -2.10700 36.44100
H  21.98200 0.70600 31.40600
H  23.79500 0.06500 25.19800
H  29.61400 -1.59400 27.24000
H  25.59400 -0.27000 34.29800
H  23.80800 1.85800 33.18100
H  23.20600 0.13400 35.03500
H  23.04000 -1.05800 33.82800
H  22.01200 0.35900 33.79200
H  25.26100 2.54300 34.56800
H  26.75300 2.20800 33.73000
H  27.93300 2.04700 35.50700
H  26.88600 0.64000 35.99500
H  19.89300 1.74400 29.25700
H  20.06600 0.26100 30.23200
H  19.35700 0.09700 28.71700
H  19.30000 -0.33400 26.49200
H  19.42000 0.86500 25.13800
H  19.57000 1.38700 26.89000
H  26.28700 0.26900 24.38800
H  27.89000 -2.14800 25.03900
H  25.16500 -2.39200 24.48200
H  26.17800 -1.89500 23.06700
H  24.72700 -0.97500 23.53400
H  28.55000 -0.10900 23.76900
H  29.74300 -0.83000 24.76100
H  29.80100 1.06300 26.13800
H  28.05200 1.42800 25.72900
H  29.09300 1.74100 24.51800
H  31.57300 -0.50600 28.76100
H  31.42800 -2.39000 28.73600
H  32.16600 -1.56300 30.05600
H  28.81300 0.65400 33.78900
H  29.78700 -2.24700 37.00200
H  28.58700 -3.04500 35.96100
H  28.09000 -1.79400 37.14300
Mg 47.90900 44.75600 42.29800
C  44.44600 43.98100 42.61500
C  48.52600 41.44600 41.72900
C  50.98000 45.65000 41.86300
C  46.98600 48.21300 42.74100
N  46.59300 42.95400 42.26700
C  45.23000 42.86400 42.30200
C  44.78800 41.39500 41.99300
C  46.10800 40.66200 42.26700
C  47.17400 41.78600 42.06300
C  46.19100 40.16000 43.79300
C  44.09600 41.33200 40.54400
C  44.89400 40.82700 39.33200
H  44.29400 40.44800 37.93000
N  49.58500 43.69100 41.77100
C  49.61200 42.29500 41.60700
C  51.03600 41.96500 41.30500
C  51.81200 43.19100 41.36800
C  50.80000 44.25400 41.70100
C  51.55500 40.57600 40.94600
C  53.30300 43.32600 41.14300
O  53.94900 42.45100 40.61900
C  54.06400 44.51200 41.61400
N  48.87700 46.67800 42.28300
C  50.23100 46.75000 42.17300
C  50.80600 48.16400 42.33000
C  49.54600 48.98400 42.73200
C  48.38600 47.94100 42.56400
C  51.90000 48.24000 43.49000
C  49.22200 50.39100 42.05200
C  48.89900 51.50600 43.02900
N  46.13500 45.80600 42.55200
C  45.94600 47.20300 42.68500
C  44.53400 47.47800 42.86200
C  43.94500 46.21000 42.94000
C  44.97000 45.23700 42.82000
C  43.85900 48.81500 42.73800
C  42.68600 45.58800 42.87200
O  41.53500 46.00700 42.84500
C  42.90900 44.08500 42.76400
C  42.51200 43.33900 43.96800
O  41.64800 42.44700 44.09500
O  43.20000 43.77400 45.11400
C  42.85800 43.18000 46.43900
H  48.78600 40.38600 41.74500
H  52.05100 45.77900 41.69600
H  46.69500 49.22300 43.03500
H  43.89400 41.26900 42.60300
H  46.33400 39.81200 41.62400
H  45.24500 40.37800 44.28800
H  47.07000 40.62300 44.24100
H  46.25900 39.07500 43.71800
H  43.83000 42.35500 40.28000
H  43.21400 40.70000 40.64200
H  45.38400 39.90100 39.63400
H  45.67600 41.54800 39.09300
H  50.87900 39.79300 41.29100
H  52.46500 40.43200 41.52800
H  51.82700 40.38300 39.90800
H  53.80900 45.33800 40.95000
H  55.12300 44.26400 41.54300
H  53.79100 44.74100 42.64400
H  51.09600 48.61900 41.38300
H  49.48900 49.12000 43.81200
H  52.89800 48.09000 43.07800
H  51.76600 47.41100 44.18500
H  51.81600 49.26600 43.84700
H  48.44700 50.34600 41.28700
H  50.09400 50.72700 41.49200
H  48.94400 51.12500 44.04900
H  47.90100 51.93900 43.08600
H  49.59600 52.34400 43.04400
H  43.43600 48.77900 41.73400
H  44.63700 49.57400 42.82600
H  43.01700 48.93800 43.41900
H  42.51500 43.70600 41.82100
H  42.39000 42.19700 46.39200
H  42.26400 43.80300 47.10800
H  43.78700 42.85200 46.90300

