158

Mg 26.09500 1.24100 29.22300
C  28.01300 0.86900 32.13100
C  23.35500 1.75600 31.30900
C  24.11700 1.62400 26.47000
C  28.66800 0.19800 27.31500
N  25.72000 1.23100 31.55000
C  26.74500 1.25000 32.52800
C  26.16500 1.47100 33.89100
C  24.58700 1.62400 33.58500
C  24.53100 1.53000 32.05000
C  23.51400 0.72300 34.29100
C  26.83600 2.66700 34.71800
C  27.23300 2.28000 36.12100
H  27.20300 3.27800 37.30700
N  24.05400 1.61500 28.96800
C  23.12300 1.88500 29.93500
C  21.84900 2.16600 29.33900
C  22.08900 2.18500 27.95100
C  23.48600 1.79200 27.73300
C  20.57600 2.39800 30.11700
C  21.10500 2.66000 26.89200
O  21.42700 2.93300 25.76100
C  19.61300 3.08400 27.24900
N  26.30900 1.03700 27.04900
C  25.43800 1.23700 26.10700
C  26.01800 1.15300 24.71300
C  27.59000 0.74500 24.97800
C  27.52800 0.63900 26.52000
C  25.31000 0.17100 23.68000
C  28.61800 1.80800 24.39400
C  29.72300 1.22400 23.48900
N  27.94300 0.71700 29.55900
C  28.97000 0.43800 28.69100
C  30.23000 0.25800 29.37900
C  29.92100 0.41000 30.74900
C  28.46700 0.66700 30.80300
C  31.54900 -0.01100 28.69000
C  30.44800 0.50600 32.08800
O  31.62100 0.40700 32.47700
C  29.21300 0.78600 32.99400
C  29.11800 -0.36200 33.92700
O  28.66600 -1.49000 33.65100
O  29.66800 0.07300 35.11900
C  29.61600 -0.95300 36.19100
H  22.55400 2.08400 31.97400
H  23.47400 1.79800 25.60500
H  29.47900 -0.20800 26.70700
H  26.18900 0.59900 34.54400
H  24.34600 2.66100 33.82200
H  22.96900 0.19400 33.50800
H  22.96300 1.41300 34.92900
H  24.00100 -0.03800 34.90100
H  26.15100 3.49000 34.92300
H  27.66200 3.03900 34.11100
H  28.30100 2.07300 36.05900
H  26.63200 1.44900 36.49100
H  20.28500 3.44800 30.14100
H  20.60400 2.12500 31.17200
H  19.67600 2.03200 29.62300
H  19.10200 2.13000 27.37500
H  19.15900 3.67200 26.45200
H  19.53600 3.67800 28.16000
H  25.98000 2.18300 24.35900
H  27.75900 -0.29500 24.69800
H  25.51200 -0.87500 23.91100
H  25.63100 0.35800 22.65500
H  24.22000 0.20400 23.66800
H  29.17200 2.21300 25.24100
H  28.20000 2.72100 23.97100
H  29.45400 0.19300 23.25700
H  30.73600 1.16300 23.88600
H  29.68200 1.82700 22.58200
H  31.52500 0.52200 27.74000
H  31.57800 -1.08700 28.52300
H  32.46200 0.32800 29.18000
H  29.43600 1.70500 33.53700
H  28.62700 -0.90700 36.64800
H  30.37900 -0.75900 36.94500
H  29.72500 -1.98200 35.84900
Mg 54.71700 23.58900 45.30400
C  52.22500 25.77500 44.20900
C  52.90700 21.00100 44.03300
C  57.58000 21.71200 45.34800
C  56.73300 26.50500 46.11000
N  52.71400 23.46200 44.30100
C  51.88400 24.37400 43.93000
C  50.60600 23.90800 43.23700
C  50.74300 22.37400 43.56800
C  52.19300 22.22600 44.05900
C  49.69800 21.92300 44.70500
C  50.44100 24.22300 41.71900
C  49.11000 24.82600 41.26000
H  48.51200 24.17800 40.05100
N  55.14500 21.54000 44.92100
C  54.25600 20.64900 44.40300
C  54.96800 19.39000 44.21300
C  56.31800 19.54200 44.62100
C  56.40400 20.97900 44.99300
C  54.32300 18.24100 43.60500
C  57.29100 18.45700 44.50900
O  56.93800 17.27300 44.25600
C  58.72100 18.76100 44.80000
N  56.82000 23.96700 45.76900
C  57.78600 23.08400 45.67400
C  59.13400 23.66500 46.08600
C  58.86100 25.15400 46.47900
C  57.36200 25.22900 46.12200
C  59.89500 22.91900 47.26000
C  59.84000 26.09900 45.86900
C  60.56900 27.02000 46.92200
N  54.55200 25.72400 45.30800
C  55.39000 26.72700 45.80000
C  54.65000 27.98600 45.80800
C  53.40400 27.69000 45.15100
C  53.44800 26.28600 44.79500
C  55.10800 29.35300 46.27200
C  52.07100 28.22800 44.79100
O  51.57000 29.29800 45.05300
C  51.30300 27.04200 44.04300
C  51.10500 27.52700 42.71500
O  52.00400 27.58100 41.92100
O  49.85900 27.99800 42.49300
C  49.76700 28.56000 41.11700
H  52.37300 20.15500 43.59500
H  58.51300 21.14900 45.41600
H  57.32300 27.41100 46.26200
H  49.75800 24.38400 43.73100
H  50.69300 21.80200 42.64100
H  50.18800 21.36200 45.50200
H  48.97900 21.33200 44.13700
H  49.24400 22.81800 45.13100
H  50.76400 23.40500 41.07500
H  51.09300 25.06800 41.49800
H  49.20300 25.88500 41.01800
H  48.45000 24.63900 42.10700
H  54.91800 17.84000 42.78500
H  53.36900 18.56700 43.18900
H  54.01100 17.52900 44.36900
H  58.97600 19.46800 44.01100
H  59.27200 17.82400 44.71800
H  59.04300 18.98900 45.81600
H  59.72300 23.50500 45.18300
H  59.05600 25.26100 47.54600
H  60.86600 22.55800 46.92200
H  59.34200 21.99100 47.40900
H  60.04000 23.49800 48.17200
H  59.35800 26.81900 45.20800
H  60.67700 25.64400 45.34000
H  61.63100 26.79500 46.82300
H  60.05600 26.96000 47.88100
H  60.56800 28.08700 46.70100
H  54.81000 29.45000 47.31600
H  54.66700 30.12400 45.63800
H  56.17600 29.57200 46.27600
H  50.33600 26.96800 44.54100
H  48.82700 29.06600 40.89500
H  49.86400 27.72100 40.42800
H  50.54500 29.30900 40.96900

