158

Mg 48.42000 15.50800 28.41000
C  46.33400 15.00700 31.37000
C  50.45500 17.26400 30.33900
C  50.19200 16.21400 25.61700
C  45.77700 14.12300 26.49900
N  48.32800 16.01800 30.61200
C  47.45100 15.74200 31.65200
C  47.90800 16.28500 32.92400
C  49.18800 17.13900 32.56000
C  49.38600 16.79200 31.02200
C  48.98000 18.73700 32.68600
C  48.31200 15.13900 33.91300
C  47.87200 15.17700 35.40100
H  47.55300 16.49200 35.91200
N  50.17500 16.57000 28.05200
C  50.87400 17.21400 28.97400
C  52.07900 17.76100 28.41600
C  52.08900 17.30600 27.05700
C  50.79800 16.63400 26.82300
C  53.11100 18.44800 29.28900
C  53.20600 17.40300 26.03800
O  53.16200 16.70600 25.00300
C  54.46100 18.24500 26.28100
N  48.01600 15.22500 26.36700
C  48.99100 15.51900 25.40800
C  48.39200 15.27000 24.03000
C  46.96500 14.58000 24.27900
C  46.87700 14.71600 25.80500
C  48.23200 16.58600 23.20200
C  46.92700 13.09000 23.73200
C  47.80600 12.11600 24.51800
N  46.46300 14.64200 28.82000
C  45.54700 14.01200 27.94600
C  44.45000 13.57800 28.75900
C  44.69300 13.88300 30.09900
C  45.94600 14.51600 30.07100
C  43.22100 12.93800 28.25500
C  44.27200 13.73500 31.46400
O  43.19200 13.29200 31.91000
C  45.26600 14.48400 32.32400
C  44.44900 15.36800 33.21200
O  44.02600 16.45700 33.00700
O  44.20800 14.65700 34.36000
C  43.41600 15.39400 35.36000
H  51.12300 17.85400 30.96900
H  50.82700 16.41300 24.75100
H  45.05800 13.52900 25.93100
H  47.13700 16.99900 33.21200
H  50.15000 16.89400 33.00900
H  49.72800 19.13300 33.37200
H  47.99600 19.01900 33.06300
H  49.06300 19.35700 31.79300
H  49.37300 15.05300 34.14700
H  48.07000 14.22300 33.37500
H  48.65300 14.84500 36.08400
H  47.03500 14.48300 35.47600
H  53.54400 17.65100 29.89500
H  52.72900 19.18700 29.99300
H  53.81100 18.89400 28.58300
H  54.20000 19.27400 26.52600
H  55.03200 18.21600 25.35300
H  54.95200 17.73900 27.11300
H  49.02000 14.46600 23.64800
H  46.08100 15.18600 24.08300
H  47.74600 17.24900 23.91800
H  47.67400 16.46600 22.27400
H  49.26800 16.83300 22.96900
H  47.36200 13.05700 22.73300
H  45.87300 12.81600 23.69000
H  48.23500 11.48000 23.74400
H  47.22200 11.48100 25.18300
H  48.64900 12.59600 25.01600
H  43.09700 11.91100 28.59900
H  42.96000 13.10100 27.20900
H  42.43700 13.53900 28.71500
H  45.71100 13.69200 32.92600
H  42.55800 15.83500 34.85400
H  43.90900 16.18100 35.93000
H  42.90300 14.62700 35.94000
Mg 49.92200 44.40500 41.55400
C  46.68100 44.97500 40.39500
C  49.43200 41.07800 40.76000
C  53.09700 44.02100 42.10500
C  50.10400 47.81200 42.41200
N  48.22600 43.18400 40.78900
C  46.97400 43.64600 40.43700
C  46.16400 42.53800 39.79700
C  46.89900 41.25300 40.33000
C  48.29900 41.86500 40.61800
C  46.24700 40.62600 41.63000
C  46.22000 42.60500 38.29400
C  44.82800 42.64400 37.57200
H  44.74500 43.57800 36.31300
N  51.20200 42.75500 41.36800
C  50.78500 41.46300 41.04100
C  51.99600 40.64100 41.02600
C  53.07900 41.43200 41.49100
C  52.50900 42.77600 41.69400
C  52.07900 39.31500 40.59500
C  54.57500 41.04900 41.63100
O  55.00500 39.95600 41.38100
C  55.68300 42.06800 41.90500
N  51.40400 45.73300 42.17000
C  52.69900 45.29900 42.36200
C  53.60600 46.43400 42.87200
C  52.63700 47.67800 42.95700
C  51.28600 47.04800 42.53200
C  54.33000 46.08700 44.23100
C  53.12200 48.98400 42.32700
C  54.43500 49.54800 42.72400
N  48.63700 46.11200 41.47400
C  48.86800 47.46100 41.78500
C  47.73000 48.26900 41.39200
C  46.86000 47.28900 40.81700
C  47.46700 46.01700 40.88600
C  47.68300 49.77400 41.41100
C  45.60900 47.16800 40.10800
O  44.75800 47.99200 39.82500
C  45.47300 45.63200 39.82500
C  44.22000 45.13500 40.44700
O  43.32500 44.58300 39.80800
O  44.18500 45.47900 41.78000
C  42.81500 45.62100 42.26900
H  49.31600 40.02700 40.48800
H  54.11000 44.01800 42.51300
H  50.23900 48.80600 42.84300
H  45.14000 42.55000 40.17000
H  46.76600 40.41900 39.64100
H  45.49700 41.17900 42.19500
H  47.09900 40.67800 42.30700
H  45.98300 39.58300 41.45500
H  46.92500 41.88500 37.87800
H  46.58500 43.59200 38.01000
H  43.98900 42.97900 38.18200
H  44.59000 41.62300 37.27500
H  52.32000 39.25300 39.53300
H  51.12600 38.82800 40.80200
H  52.87400 38.79900 41.13200
H  55.73900 42.42200 42.93400
H  55.49200 42.90100 41.22900
H  56.63100 41.71300 41.49900
H  54.41500 46.51500 42.14600
H  52.47600 47.96600 43.99600
H  54.33100 45.02400 44.47500
H  53.90800 46.67600 45.04500
H  55.34400 46.48600 44.20800
H  52.37600 49.75000 42.54000
H  53.29800 48.92300 41.25300
H  54.98400 49.87300 41.83900
H  55.07900 48.89800 43.31700
H  54.12600 50.43900 43.27000
H  47.01000 50.23600 42.13200
H  47.44400 50.12200 40.40600
H  48.71900 50.10800 41.46400
H  45.40400 45.27800 38.79600
H  42.90000 46.16000 43.21200
H  42.64300 44.58700 42.56600
H  42.02200 45.92000 41.58300

