158

Mg 53.76800 25.07700 43.71100
C  51.05000 27.15100 42.95200
C  52.01000 22.46200 42.68100
C  56.69400 23.42000 43.53000
C  55.51000 28.08400 44.49000
N  51.77300 24.91400 42.75100
C  50.81400 25.84900 42.65000
C  49.42500 25.22600 42.11900
C  49.76200 23.68300 42.39200
C  51.32100 23.68500 42.67100
C  48.98400 23.07300 43.61600
C  49.08400 25.33700 40.60400
C  50.24200 25.54800 39.68000
H  49.90500 25.90200 38.18900
N  54.27600 23.15300 43.19900
C  53.34500 22.18700 42.93800
C  54.05700 20.92700 42.77200
C  55.46100 21.18100 42.87000
C  55.57400 22.67100 43.22000
C  53.36500 19.70200 42.52500
C  56.44500 20.16700 42.70400
O  56.11500 19.00000 42.69500
C  57.95600 20.47000 42.63300
N  55.79800 25.67600 43.84800
C  56.87200 24.76400 43.81200
C  58.18000 25.43200 44.25100
C  57.73600 26.91100 44.38900
C  56.26800 26.92200 44.18500
C  58.86100 24.80600 45.53200
C  58.41900 27.91300 43.37300
C  59.13200 29.11600 43.92800
N  53.43900 27.16400 43.83000
C  54.18000 28.20900 44.23600
C  53.37200 29.38400 44.40100
C  52.16700 29.05200 43.77900
C  52.24800 27.68700 43.45500
C  53.84800 30.63300 45.06400
C  50.85600 29.55300 43.38500
O  50.40500 30.65700 43.51600
C  50.09800 28.28200 42.83900
C  49.56700 28.57200 41.46300
O  50.23500 29.00100 40.57200
O  48.18800 28.51300 41.43800
C  47.51900 29.19700 40.32000
H  51.37300 21.61000 42.43500
H  57.63900 22.88300 43.42900
H  56.02200 28.93600 44.94100
H  48.60200 25.60700 42.72300
H  49.64300 23.11900 41.46700
H  49.72100 22.64500 44.29600
H  48.44200 22.19700 43.26100
H  48.36800 23.83500 44.09300
H  48.32000 26.09900 40.45500
H  48.59100 24.38600 40.40000
H  50.57300 24.52400 39.50300
H  51.18700 25.97100 40.02200
H  53.34900 19.11400 43.44300
H  53.85700 19.25100 41.66300
H  52.32300 19.79100 42.21900
H  58.49000 19.56800 42.33100
H  58.18800 20.76900 43.65500
H  58.15700 21.25300 41.90300
H  58.80600 25.06200 43.43900
H  58.03500 27.26400 45.37600
H  59.54800 23.99600 45.28900
H  58.06800 24.43700 46.18300
H  59.47500 25.54400 46.04800
H  57.67800 28.21500 42.63300
H  59.14900 27.40600 42.74100
H  58.71800 29.46200 44.87500
H  59.03100 29.87800 43.15600
H  60.17600 28.88700 44.14600
H  53.28900 31.54200 44.84100
H  54.79300 30.88800 44.58500
H  54.04500 30.49800 46.12700
H  49.24900 28.18200 43.51600
H  46.45700 29.11400 40.55100
H  47.58700 28.59700 39.41300
H  47.84200 30.21900 40.11800
Mg 0.97700 42.17600 25.97100
C  2.12000 42.31700 29.32000
C  -1.99600 41.18300 27.05000
C  0.19600 41.54700 22.78800
C  4.26300 42.98100 24.92400
N  0.24400 41.77100 27.98100
C  0.77400 42.01400 29.19900
C  -0.27300 41.88300 30.28200
C  -1.56100 41.34900 29.63500
C  -1.13100 41.45000 28.11800
C  -1.88200 39.87500 30.02900
C  -0.39700 43.27700 30.93500
C  -0.42900 43.29500 32.52800
H  -0.54400 41.90800 33.29900
N  -0.69200 41.43500 25.01000
C  -1.81100 41.04100 25.66100
C  -2.80700 40.66100 24.73100
C  -2.20200 40.87400 23.41700
C  -0.82800 41.35700 23.72400
C  -4.21800 40.22300 25.11200
C  -2.68800 40.57100 22.00800
O  -2.12600 40.93300 20.96900
C  -4.02900 39.79400 21.81400
N  2.13500 42.31300 24.15600
C  1.51600 42.03300 22.96400
C  2.46100 42.08700 21.76900
C  3.73200 42.74500 22.36000
C  3.38300 42.69900 23.88400
C  2.79800 40.70900 21.16500
C  3.90900 44.22100 21.95900
C  4.03200 44.57200 20.52200
N  2.82700 42.60500 26.90500
C  4.03800 42.99300 26.35400
C  5.00000 43.19000 27.42400
C  4.23300 43.03700 28.61600
C  2.98100 42.60100 28.22700
C  6.46600 43.54100 27.26000
C  4.29600 43.22900 30.04300
O  5.13900 43.64200 30.78400
C  2.92700 42.62000 30.54600
C  3.26700 41.35300 31.34600
O  3.16800 40.18300 30.98900
O  3.41000 41.67300 32.66900
C  3.25700 40.78400 33.83400
H  -3.01700 41.00900 27.39700
H  0.00500 41.25100 21.75400
H  5.28800 43.21900 24.63300
H  0.11800 41.13800 30.97500
H  -2.34300 42.05900 29.90800
H  -2.08100 39.35400 29.09200
H  -2.73500 39.82500 30.70500
H  -1.06500 39.33900 30.51300
H  -1.25500 43.79000 30.49900
H  0.45200 43.92300 30.71000
H  -1.31500 43.82400 32.87800
H  0.46800 43.76200 32.93400
H  -4.58800 39.34700 24.58000
H  -4.85100 41.08200 24.88900
H  -4.23200 39.95700 26.16900
H  -3.75700 38.75700 22.01300
H  -4.17500 40.05600 20.76600
H  -4.76900 40.31700 22.42000
H  2.09900 42.75200 20.98500
H  4.56600 42.07400 22.15300
H  2.25200 40.60900 20.22700
H  2.49600 39.83000 21.73500
H  3.85900 40.64900 20.92400
H  4.58100 44.74100 22.64100
H  2.94000 44.62100 22.25800
H  3.12800 45.12300 20.26100
H  4.28000 43.69900 19.91800
H  4.89900 45.22400 20.41000
H  7.03300 42.61100 27.22500
H  6.74500 44.11800 28.14200
H  6.52900 44.09100 26.32100
H  2.47700 43.42200 31.13200
H  2.73600 39.87200 33.54400
H  2.71800 41.26800 34.64800
H  4.20400 40.53000 34.31000

