158

Mg 26.18200 -0.90500 29.00500
C  28.29700 -1.13900 31.78900
C  23.55500 -0.37400 31.00900
C  24.16400 -1.25200 26.30500
C  29.01700 -1.55000 27.05100
N  26.04400 -0.80800 31.11800
C  26.96000 -0.81900 32.13200
C  26.47700 -0.34000 33.47600
C  24.95900 -0.24200 33.15100
C  24.77100 -0.52600 31.67200
C  24.06600 -0.99700 34.19700
C  27.17600 0.93200 34.09400
C  27.91800 0.84400 35.42600
H  27.66200 1.77200 36.58700
N  24.20900 -0.80900 28.67100
C  23.25500 -0.57700 29.64700
C  21.94500 -0.66700 29.09700
C  22.07600 -0.90400 27.67700
C  23.50000 -0.99700 27.46900
C  20.67800 -0.61100 29.98000
C  20.89000 -1.00800 26.60300
O  21.06400 -1.31500 25.41700
C  19.39200 -0.90400 27.02600
N  26.54700 -1.53800 26.98000
C  25.53300 -1.52700 26.09800
C  26.14000 -1.40500 24.70800
C  27.70900 -1.41300 24.88900
C  27.79100 -1.43300 26.37600
C  25.65600 -2.50900 23.72500
C  28.49400 -0.22100 24.19700
C  28.68200 1.09200 24.92300
N  28.16700 -1.45500 29.31800
C  29.19000 -1.63300 28.43300
C  30.37700 -1.95500 29.13600
C  30.10400 -1.75500 30.48800
C  28.69000 -1.43900 30.48900
C  31.69700 -2.34500 28.51700
C  30.66300 -1.72800 31.80600
O  31.82000 -1.84200 32.21600
C  29.49400 -1.25900 32.68000
C  29.46500 -2.09200 33.96700
O  28.87400 -3.13900 34.13800
O  30.33400 -1.50100 34.84000
C  30.41500 -2.04900 36.16200
H  22.75000 -0.16800 31.71800
H  23.62700 -1.25300 25.35400
H  29.97200 -1.48600 26.52700
H  26.68700 -1.11000 34.22000
H  24.69100 0.78800 33.38500
H  23.47700 -1.70000 33.60800
H  23.38100 -0.16400 34.35500
H  24.53800 -1.37200 35.10500
H  26.50400 1.77800 34.23600
H  27.95700 1.33900 33.45100
H  28.99000 0.97200 35.27900
H  27.90700 -0.16200 35.84500
H  19.99500 0.18500 29.68000
H  20.84700 -0.49900 31.05100
H  20.20800 -1.58700 29.86400
H  19.15800 -1.69700 27.73600
H  18.77600 -0.99200 26.13100
H  19.17500 0.03100 27.54300
H  25.83900 -0.49600 24.18700
H  28.13000 -2.39900 24.69500
H  25.74100 -3.37900 24.37600
H  26.36800 -2.67300 22.91600
H  24.67000 -2.36800 23.28000
H  27.94000 -0.01500 23.28100
H  29.46500 -0.60900 23.88700
H  28.09000 1.29100 25.81600
H  28.34200 1.80400 24.17100
H  29.75800 1.20300 25.06000
H  32.24900 -1.57200 27.98100
H  31.59900 -3.23500 27.89600
H  32.28600 -2.72800 29.35000
H  29.72200 -0.24400 33.00600
H  30.64600 -3.11000 36.06900
H  29.50200 -1.76400 36.68500
H  31.28000 -1.62100 36.66800
Mg 48.20900 14.37100 28.12100
C  45.77300 14.39300 30.69900
C  50.27100 16.43300 29.94400
C  50.12200 14.86700 25.25300
C  46.12300 12.29400 26.29300
N  47.93700 15.48300 30.07800
C  46.96600 15.18400 31.03500
C  47.47500 15.57400 32.42900
C  48.72800 16.45700 32.13600
C  49.06200 16.10500 30.62500
C  48.60200 17.96200 32.25300
C  47.76900 14.40200 33.46300
C  47.14700 14.62600 34.87400
H  48.16700 14.99000 35.93600
N  49.94100 15.53700 27.62700
C  50.67500 16.26100 28.56400
C  51.76300 16.92600 27.88200
C  51.74200 16.51200 26.49800
C  50.54500 15.61100 26.38900
C  52.68900 17.97000 28.53100
C  52.65500 16.84100 25.39500
O  52.56300 16.32000 24.27200
C  53.78100 17.77400 25.54700
N  48.12200 13.62500 26.08700
C  48.94000 13.98700 25.10200
C  48.70200 13.17300 23.81200
C  47.41000 12.30200 24.14400
C  47.21600 12.77000 25.60100
C  48.61100 14.11000 22.54900
C  47.65500 10.71500 24.00600
C  48.06700 9.92800 25.23200
N  46.29600 13.57400 28.37800
C  45.56900 12.72900 27.51000
C  44.36500 12.31100 28.04600
C  44.40700 13.01800 29.29000
C  45.55300 13.74100 29.46500
C  43.27600 11.54500 27.42300
C  43.61500 13.26500 30.47000
O  42.49200 12.95400 30.79100
C  44.58500 13.92100 31.53400
C  43.87800 14.94600 32.34300
O  43.52800 16.01700 32.03400
O  43.66100 14.48000 33.61200
C  42.89700 15.38900 34.46400
H  50.87000 17.18200 30.46500
H  50.74900 15.03500 24.37500
H  45.43400 11.64200 25.75200
H  46.70000 16.21800 32.84300
H  49.57400 16.11000 32.72800
H  49.04300 18.33400 33.17700
H  47.57200 18.27800 32.08900
H  48.98700 18.42600 31.34500
H  48.83000 14.38600 33.71200
H  47.33500 13.46100 33.12400
H  46.71700 13.66800 35.16700
H  46.28400 15.27200 34.71000
H  52.61100 17.79800 29.60400
H  52.47100 19.01600 28.31700
H  53.65400 17.54400 28.25500
H  53.40200 18.75900 25.82100
H  54.20700 17.91200 24.55300
H  54.59700 17.47300 26.20500
H  49.61900 12.60200 23.67200
H  46.52100 12.49800 23.54400
H  47.85700 13.78300 21.83300
H  49.44900 13.91000 21.88200
H  48.60400 15.17700 22.77100
H  48.46300 10.60900 23.28200
H  46.71600 10.31400 23.62600
H  47.26700 9.29900 25.62000
H  48.26000 10.61100 26.05900
H  48.85800 9.24000 24.93400
H  43.03700 10.63500 27.97300
H  43.56200 11.33400 26.39200
H  42.40800 12.20400 27.43500
H  44.85300 13.14600 32.25300
H  41.95300 15.67500 33.99900
H  43.36400 16.32100 34.78400
H  42.68700 14.71500 35.29400

