158

Mg 41.57800 8.96700 29.39900
C  43.27000 10.27300 32.14500
C  39.31200 7.74400 31.64000
C  39.88300 7.61300 26.89900
C  44.00600 10.15100 27.35600
N  41.37400 8.96200 31.71800
C  42.09800 9.67800 32.60700
C  41.57300 9.52400 34.05200
C  40.42900 8.50400 33.85200
C  40.33600 8.41100 32.28100
C  40.56400 7.16400 34.54100
C  41.15600 10.83400 34.76800
C  40.24800 10.78700 36.09400
H  40.54000 11.73800 37.22400
N  39.82500 7.79100 29.24600
C  39.00300 7.45800 30.25100
C  37.84300 6.73300 29.79400
C  37.94400 6.68300 28.34200
C  39.25200 7.42100 28.09100
C  36.81100 6.13800 30.75300
C  37.03100 6.04600 27.36400
O  37.16600 6.28600 26.19400
C  35.86200 5.39200 27.75500
N  41.89800 8.95900 27.40900
C  41.05000 8.35400 26.52100
C  41.58700 8.45400 25.08700
C  42.81200 9.41900 25.20300
C  42.93900 9.54800 26.75200
C  41.89700 7.16800 24.29200
C  42.63500 10.78500 24.46900
C  43.86400 11.27900 23.70400
N  43.29000 9.95300 29.60600
C  44.19900 10.38200 28.67900
C  45.24900 11.15100 29.29000
C  44.92000 11.04900 30.70300
C  43.74600 10.34200 30.80800
C  46.25400 11.82700 28.47600
C  45.33200 11.51300 32.04700
O  46.33500 12.10000 32.45000
C  44.27300 11.04400 33.05500
C  45.01600 10.31500 34.18200
O  45.51500 9.21000 34.03500
O  44.94700 10.97500 35.33600
C  45.69500 10.42100 36.46700
H  38.59900 7.29200 32.33300
H  39.32900 7.16400 26.07100
H  44.66800 10.57900 26.60100
H  42.31200 9.13000 34.74900
H  39.47200 8.84600 34.24600
H  39.55200 6.84700 34.79200
H  41.16700 7.36600 35.42600
H  40.98600 6.39700 33.89200
H  40.66800 11.49800 34.05400
H  42.04300 11.41500 35.02200
H  40.41700 9.79200 36.50500
H  39.17400 10.87800 35.93200
H  36.91900 5.05400 30.74600
H  35.89600 6.49800 30.28300
H  36.96000 6.41200 31.79700
H  35.73700 4.53600 27.09200
H  34.99700 6.05400 27.79600
H  35.87100 4.95600 28.75400
H  40.80000 8.93600 24.50800
H  43.74300 8.93900 24.90200
H  42.20500 6.32300 24.90700
H  42.63500 7.25200 23.49500
H  40.91100 6.95100 23.88000
H  42.53100 11.55000 25.23900
H  41.80500 10.67500 23.77100
H  44.37500 10.42500 23.25900
H  44.51700 11.80600 24.40100
H  43.45900 12.00500 22.99900
H  47.06100 11.11200 28.31500
H  46.79300 12.57700 29.05500
H  45.90600 12.22800 27.52400
H  43.85100 11.98100 33.41600
H  45.15800 9.55800 36.86000
H  45.83600 11.20300 37.21400
H  46.68900 10.17300 36.09700
Mg 48.11500 16.31100 28.39000
C  45.93900 16.01900 31.01800
C  50.39100 18.10700 30.35500
C  49.74000 17.33100 25.57800
C  45.51900 14.81900 26.29800
N  48.14100 16.90800 30.40100
C  47.15300 16.65100 31.34900
C  47.63200 17.02100 32.78900
C  48.89800 17.86900 32.52400
C  49.23700 17.57700 31.00400
C  48.80500 19.38100 32.85500
C  47.70500 15.74300 33.74600
C  47.45900 16.04600 35.25500
H  47.69100 17.45200 35.79600
N  49.97500 17.33200 28.08300
C  50.76800 17.91200 29.02900
C  52.01700 18.21700 28.41500
C  51.85300 18.09900 26.99800
C  50.42800 17.57700 26.79700
C  53.19500 18.77900 29.15700
C  52.80200 18.24800 25.85400
O  52.45000 17.91000 24.70700
C  54.07800 18.88900 26.07900
N  47.62500 16.14700 26.19100
C  48.53300 16.66700 25.23800
C  48.08600 16.24500 23.78400
C  46.96900 15.21800 24.13000
C  46.64900 15.34500 25.65600
C  47.49600 17.42400 22.97700
C  47.32300 13.77900 23.65200
C  46.61800 13.29400 22.38400
N  46.14800 15.56100 28.56800
C  45.25100 14.96300 27.64100
C  44.06500 14.47900 28.41100
C  44.30400 14.87500 29.75900
C  45.55500 15.58100 29.79200
C  42.86500 13.79700 27.82200
C  43.80200 14.85300 31.13300
O  42.77600 14.26500 31.60500
C  44.76200 15.61200 31.96000
C  43.97900 16.72700 32.59000
O  43.97400 17.86900 32.15400
O  43.48600 16.38700 33.82500
C  43.01200 17.45600 34.67900
H  51.13900 18.57000 31.00200
H  50.15900 17.70300 24.64100
H  44.82000 14.16300 25.77400
H  46.94000 17.75200 33.20700
H  49.80300 17.46100 32.97400
H  49.83000 19.66500 33.09400
H  48.18400 19.59300 33.72500
H  48.49200 20.02500 32.03200
H  48.73600 15.41800 33.60900
H  47.06600 14.90900 33.45600
H  48.20800 15.44600 35.77200
H  46.44800 15.71800 35.49700
H  53.34200 18.61000 30.22400
H  53.42300 19.83400 29.00900
H  54.01000 18.14900 28.80200
H  54.35700 19.10500 25.04800
H  54.74800 18.15000 26.51700
H  53.95400 19.73400 26.75600
H  48.85000 15.76900 23.17000
H  46.03300 15.46600 23.63000
H  48.29600 17.62700 22.26500
H  47.29200 18.28900 23.60700
H  46.51500 17.16800 22.57800
H  47.09700 13.18500 24.53700
H  48.40800 13.87100 23.60900
H  46.45000 14.02100 21.58900
H  45.64800 12.96200 22.75200
H  47.14600 12.45000 21.94000
H  42.21700 13.33800 28.56900
H  43.16200 13.06900 27.06700
H  42.25200 14.55200 27.32900
H  44.97800 15.03000 32.85600
H  42.25800 18.00100 34.11200
H  43.88800 18.06800 34.89800
H  42.62400 17.08600 35.62800

