158

Mg 47.21700 24.54500 28.58600
C  47.81000 26.76400 31.33300
C  46.53400 22.11500 30.76500
C  46.68800 22.56500 25.92800
C  48.50800 27.02700 26.43600
N  47.33700 24.42500 30.82200
C  47.51800 25.43700 31.74200
C  47.29000 24.95800 33.18600
C  46.66900 23.53300 32.92700
C  46.85400 23.33100 31.42600
C  47.24100 22.39800 33.80600
C  46.40000 25.92700 34.01000
C  45.41800 25.51300 35.11900
H  45.51800 26.36500 36.46300
N  46.66500 22.60600 28.38300
C  46.36600 21.69300 29.41300
C  45.88900 20.41800 28.90600
C  46.03900 20.52700 27.46600
C  46.47400 21.98400 27.20200
C  45.39200 19.31400 29.85400
C  45.85500 19.50700 26.41700
O  45.68800 19.74500 25.21700
C  45.58000 18.09800 26.84600
N  47.65100 24.73300 26.47900
C  47.27500 23.78000 25.54100
C  47.63700 24.14500 24.14100
C  47.88600 25.64400 24.34400
C  48.13100 25.83000 25.84200
C  48.80900 23.39400 23.56400
C  46.76400 26.60600 23.90600
C  45.29700 26.23600 24.36400
N  47.95200 26.48100 28.76300
C  48.41800 27.36900 27.82100
C  48.98200 28.55700 28.47900
C  48.64900 28.39400 29.83100
C  48.07200 27.11200 29.95300
C  49.62000 29.80300 27.83300
C  48.59700 29.01400 31.05100
O  48.95600 30.13500 31.41100
C  48.08000 28.04800 32.08100
C  48.87600 27.96900 33.28500
O  49.86600 27.28500 33.50500
O  48.34700 28.90300 34.18100
C  48.90400 28.88400 35.48500
H  46.30100 21.25700 31.40000
H  46.60300 21.82900 25.12600
H  48.94600 27.79000 25.78900
H  48.21300 24.85400 33.75600
H  45.59900 23.69600 33.05200
H  46.47900 21.75700 34.25000
H  47.84300 22.87200 34.58200
H  47.80500 21.70100 33.18500
H  45.82200 26.54000 33.31800
H  47.09600 26.51800 34.60500
H  45.35300 24.44800 35.34300
H  44.45400 25.75500 34.67200
H  44.42200 18.99500 29.47200
H  45.38400 19.57500 30.91200
H  46.08700 18.47500 29.83100
H  46.23600 17.82300 27.67200
H  45.71600 17.26800 26.15300
H  44.52400 18.09900 27.11600
H  46.75500 23.92600 23.53900
H  48.69800 26.01200 23.71800
H  49.74700 23.94800 23.56400
H  48.67800 23.02300 22.54800
H  48.91500 22.49300 24.16800
H  46.70300 26.59800 22.81800
H  46.92200 27.64700 24.19100
H  44.83800 25.78300 23.48500
H  44.81600 27.17500 24.63500
H  45.33900 25.61000 25.25500
H  48.96900 30.62300 27.53000
H  50.20600 29.52300 26.95700
H  50.32500 30.26600 28.52400
H  47.10200 28.38800 32.42100
H  48.59300 28.11400 36.19100
H  48.67200 29.84000 35.95300
H  49.99300 28.83900 35.49800
Mg 7.12200 54.08800 40.73900
C  6.60000 50.74400 40.80400
C  10.37500 53.62400 40.10700
C  7.30300 57.47000 39.98600
C  3.56000 54.58300 41.28000
N  8.37800 52.34500 40.64100
C  7.95200 51.05500 40.50600
C  9.12000 50.13500 40.34700
C  10.34100 51.11600 40.45700
C  9.69100 52.46000 40.40100
C  11.21100 50.91600 41.73900
C  9.20200 49.31900 39.02900
C  9.32200 50.00400 37.63900
H  7.94300 50.07900 36.93800
N  8.67000 55.38800 40.08400
C  9.94800 54.98300 39.92400
C  10.72800 56.15600 39.45100
C  9.92800 57.33800 39.56300
C  8.58000 56.76000 39.84200
C  12.19500 56.18800 39.19600
C  10.37300 58.82900 39.37500
O  11.46700 59.13600 38.95200
C  9.40100 59.86800 39.75800
N  5.61600 55.73700 40.59200
C  6.00700 57.01800 40.31600
C  4.88400 58.05900 40.60700
C  3.62700 57.10400 40.82900
C  4.29200 55.72700 40.92500
C  5.19500 59.06100 41.73400
C  2.53400 57.17300 39.79200
C  1.31800 58.15100 40.05400
N  5.44000 52.98300 41.07300
C  4.07800 53.33900 41.27000
C  3.30700 52.15200 41.57800
C  4.25800 51.09800 41.35600
C  5.47800 51.64100 41.00100
C  1.85400 52.06200 41.87000
C  4.40500 49.65500 41.31700
O  3.61100 48.71500 41.55700
C  5.92500 49.36100 40.96000
C  5.93400 48.41900 39.80300
O  5.48300 48.59000 38.68100
O  6.32900 47.13500 40.30900
C  6.26400 46.02500 39.34200
H  11.43900 53.43300 39.95300
H  7.34700 58.49900 39.62500
H  2.50900 54.79800 41.48100
H  9.12000 49.50500 41.23700
H  10.98600 50.89800 39.60500
H  11.14100 49.96700 42.27100
H  10.91400 51.73900 42.38800
H  12.26100 50.99800 41.45700
H  8.32000 48.67900 39.00900
H  10.04900 48.63700 39.10200
H  9.94900 49.45100 36.93900
H  9.66400 51.02000 37.83200
H  12.56900 55.16400 39.18100
H  12.75500 56.82200 39.88300
H  12.41300 56.63400 38.22600
H  8.69000 59.76900 38.93800
H  9.81200 60.87700 39.71700
H  8.92300 59.68400 40.72000
H  4.77800 58.57400 39.65200
H  3.15900 57.20900 41.80800
H  6.25600 58.91000 41.93400
H  4.49700 58.93100 42.56200
H  5.24200 60.10700 41.43400
H  2.14100 56.16900 39.63300
H  2.99200 57.54300 38.87400
H  0.49600 57.49500 40.33900
H  1.24600 58.79200 39.17500
H  1.61700 58.74400 40.91800
H  1.62400 51.46900 42.75500
H  1.35300 51.60200 41.01900
H  1.30700 52.99700 41.99200
H  6.22200 48.89900 41.90100
H  5.92800 45.16200 39.91800
H  7.16900 45.79300 38.78000
H  5.49100 46.20900 38.59700

