158

Mg 30.29000 57.79300 40.48400
C  27.57400 55.96400 39.29400
C  32.42600 55.30400 39.30400
C  32.77900 59.99800 40.58100
C  28.07800 60.49100 41.18400
N  30.00300 55.88400 39.31100
C  28.79200 55.28600 38.99000
C  29.11200 53.98800 38.33400
C  30.52300 53.60100 38.80700
C  31.03700 55.01000 39.19700
C  30.55100 52.61600 40.08100
C  29.01500 53.83400 36.83600
C  28.05100 52.64500 36.35000
H  27.15400 53.04900 35.18300
N  32.33100 57.68700 39.95200
C  33.00900 56.57900 39.53200
C  34.38900 56.83200 39.52500
C  34.50100 58.21200 39.94700
C  33.15400 58.72200 40.16800
C  35.45300 55.82200 39.11600
C  35.86400 58.96400 40.10300
O  36.87900 58.41100 39.78500
C  36.13100 60.29800 40.72600
N  30.40000 59.98400 40.82400
C  31.56600 60.58400 40.87900
C  31.42300 62.07300 41.16800
C  29.84400 62.13500 41.55300
C  29.38500 60.82700 41.09400
C  32.39300 62.52700 42.35800
C  28.96500 63.33000 41.05300
C  29.63000 64.65100 40.84500
N  28.29300 58.09000 40.53900
C  27.52800 59.22000 40.83200
C  26.11100 58.98800 40.67000
C  26.15600 57.68700 40.06700
C  27.44000 57.24800 39.95100
C  25.06500 59.85600 41.17100
C  25.19400 56.63700 39.51100
O  23.96900 56.57300 39.34200
C  26.12700 55.45800 39.00800
C  25.80300 54.27400 39.78300
O  25.62400 54.25100 40.96000
O  25.58400 53.20700 38.94400
C  25.17800 51.96800 39.59200
H  32.99000 54.40000 39.06500
H  33.61700 60.69800 40.60900
H  27.45600 61.27900 41.61400
H  28.39600 53.29900 38.78200
H  31.11800 53.15100 38.01200
H  30.81100 51.70500 39.54200
H  29.66800 52.29000 40.63200
H  31.27000 52.95700 40.82600
H  29.97400 53.80100 36.31900
H  28.61800 54.76200 36.42400
H  27.42300 52.48500 37.22700
H  28.57300 51.74500 36.02600
H  35.36800 55.60400 38.05100
H  35.33400 54.86900 39.63200
H  36.39100 56.20700 39.51500
H  37.21400 60.39500 40.80600
H  35.60300 60.39000 41.67500
H  35.68700 61.05700 40.08300
H  31.56800 62.57800 40.21300
H  29.76600 62.21700 42.63700
H  33.09000 63.32200 42.09000
H  32.89700 61.71300 42.87800
H  31.81400 62.98800 43.15800
H  28.28000 63.39000 41.89800
H  28.49900 63.05100 40.10800
H  30.49300 64.55500 41.50400
H  28.88000 65.41700 41.04100
H  29.80000 64.69300 39.76900
H  25.47400 60.29500 42.08100
H  24.26300 59.17700 41.46100
H  24.70700 60.59300 40.45300
H  26.00400 55.27600 37.94000
H  24.52300 51.36100 38.96800
H  24.77600 52.06700 40.60000
H  26.10700 51.40900 39.70600
Mg -12.02700 38.08300 42.20600
C  -9.82000 35.28700 41.49500
C  -9.62500 40.10200 40.67100
C  -14.37900 40.44200 42.11300
C  -14.29100 35.74200 43.42300
N  -9.98400 37.67600 41.08500
C  -9.34300 36.49700 40.91800
C  -7.95400 36.69500 40.19000
C  -7.77500 38.33700 40.28800
C  -9.22900 38.76300 40.67400
C  -6.63300 38.94000 41.14000
C  -7.94300 36.13300 38.72800
C  -6.82400 35.06000 38.57200
H  -5.66400 35.31400 37.50300
N  -11.94800 40.03800 41.53400
C  -10.90800 40.67200 40.95900
C  -11.27200 42.07600 40.85100
C  -12.67700 42.24400 41.18100
C  -13.06600 40.84300 41.70900
C  -10.33000 43.16500 40.38600
C  -13.46600 43.57200 41.18200
O  -12.88500 44.65900 41.06800
C  -14.97000 43.61000 41.57500
N  -14.04600 38.00900 42.51700
C  -14.81700 39.15000 42.46300
C  -16.26300 38.82100 42.93200
C  -16.28800 37.27100 43.13900
C  -14.75700 36.97900 42.98900
C  -16.80500 39.65400 44.10800
C  -17.32800 36.37900 42.31100
C  -16.75300 35.78300 40.97200
N  -12.06800 35.97800 42.47100
C  -13.00500 35.24600 43.12900
C  -12.56400 33.90500 43.27800
C  -11.32200 33.85800 42.60700
C  -11.07200 35.19400 42.17800
C  -13.38300 32.83400 43.79900
C  -10.24600 33.04500 42.15300
O  -10.06700 31.83800 42.24000
C  -9.24100 33.91200 41.38800
C  -7.86000 33.74200 42.01300
O  -7.17600 32.76300 41.81100
O  -7.44200 34.82200 42.78500
C  -6.25900 34.58900 43.52900
H  -8.82800 40.79700 40.40000
H  -15.12300 41.23100 42.24500
H  -15.10300 35.02800 43.58000
H  -7.22100 36.23000 40.84900
H  -7.47300 38.63500 39.28400
H  -6.98900 39.87700 41.57000
H  -5.83200 39.10500 40.42000
H  -6.41600 38.24500 41.95000
H  -7.88500 36.95700 38.01700
H  -8.92300 35.70400 38.51700
H  -7.24500 34.06800 38.41200
H  -6.24800 35.03200 39.49700
H  -10.12200 43.85100 41.20700
H  -10.86500 43.76400 39.64900
H  -9.38500 42.80300 39.98300
H  -15.32000 43.31200 42.56400
H  -15.45700 42.87000 40.94000
H  -15.31700 44.60000 41.27800
H  -16.89500 38.97900 42.05800
H  -16.48400 37.05900 44.19000
H  -17.13800 38.98400 44.90000
H  -17.61300 40.28100 43.72900
H  -16.04700 40.35000 44.46800
H  -18.15900 37.00000 41.97700
H  -17.78000 35.62000 42.94900
H  -16.96800 34.72100 40.84700
H  -15.66900 35.77100 40.86200
H  -17.18200 36.21300 40.06700
H  -14.39100 32.88400 43.38800
H  -13.29000 32.82400 44.88500
H  -13.01700 31.86100 43.47200
H  -9.12300 33.56900 40.36000
H  -5.96200 33.54500 43.62800
H  -6.31700 34.96000 44.55300
H  -5.37900 35.09300 43.12900

