158

Mg 2.87800 -0.98800 44.00200
C  6.28700 -0.46100 43.72400
C  2.34400 1.78200 42.00900
C  -0.29800 -1.99300 43.58900
C  3.57800 -4.22900 45.25300
N  4.17000 0.46900 43.01600
C  5.55400 0.48500 42.98500
C  6.05700 1.65000 42.15400
C  4.76100 2.54600 41.94100
C  3.68300 1.57000 42.38000
C  4.59600 3.96900 42.60200
C  6.75800 1.12700 40.83800
C  7.75500 2.14500 40.21600
H  7.43500 2.71900 38.78700
N  1.28000 -0.10700 43.17300
C  1.19500 1.00800 42.37800
C  -0.22300 1.29800 42.00000
C  -1.03500 0.22700 42.52700
C  -0.02000 -0.71400 43.15200
C  -0.62800 2.58700 41.31500
C  -2.56900 0.04000 42.38700
O  -3.28600 0.73900 41.67300
C  -3.19300 -0.99900 43.22500
N  1.78900 -2.88800 44.29800
C  0.49300 -3.06100 43.99600
C  -0.03900 -4.48700 44.45200
C  1.25700 -5.14600 45.02900
C  2.29100 -4.02800 44.83900
C  -1.17400 -4.30100 45.40900
C  1.71000 -6.45400 44.33400
C  1.87100 -7.74100 45.20100
N  4.52000 -2.11600 44.45800
C  4.67600 -3.34300 45.04500
C  6.08100 -3.62300 45.40800
C  6.74900 -2.53200 44.86500
C  5.79100 -1.64400 44.35600
C  6.71000 -4.96200 46.00200
C  8.08800 -1.87200 44.76800
O  9.18800 -2.17800 45.16600
C  7.74700 -0.57800 43.93400
C  8.37600 0.53000 44.60100
O  8.22300 0.79400 45.78800
O  9.24300 1.15500 43.73400
C  10.09000 2.11900 44.39800
H  2.20600 2.63000 41.33600
H  -1.28900 -2.38900 43.36000
H  3.89400 -5.12900 45.78500
H  6.77100 2.13700 42.81900
H  4.65300 2.69200 40.86600
H  5.58500 4.42500 42.57400
H  4.19100 3.88000 43.61000
H  3.92800 4.60600 42.02100
H  5.91700 0.92400 40.17500
H  7.30900 0.21000 41.04600
H  8.71500 1.64500 40.33900
H  7.68300 3.02700 40.85400
H  -0.77300 2.47900 40.24000
H  0.27900 3.19100 41.27800
H  -1.49400 3.10700 41.72500
H  -4.19700 -0.61500 43.40800
H  -2.72800 -1.09700 44.20600
H  -3.34600 -1.89900 42.63000
H  -0.41900 -5.02300 43.58200
H  1.25000 -5.35500 46.09900
H  -2.11500 -4.39700 44.86700
H  -1.09800 -3.31600 45.87000
H  -1.15200 -5.12200 46.12500
H  2.64700 -6.31500 43.79300
H  1.03900 -6.70300 43.51200
H  2.95400 -7.79800 45.31100
H  1.45100 -8.61500 44.70300
H  1.57500 -7.64300 46.24500
H  6.82800 -5.67100 45.18300
H  5.95700 -5.41200 46.64900
H  7.65500 -4.73400 46.49400
H  8.26500 -0.72700 42.98700
H  9.46000 2.99600 44.54400
H  11.05000 2.44900 44.00000
H  10.38800 1.69300 45.35600
Mg 25.47700 0.52500 28.85500
C  27.46200 0.34000 31.62200
C  22.70700 0.99400 30.82300
C  23.75800 0.46000 25.96600
C  28.38600 -0.38100 26.87100
N  25.12400 0.55900 31.00600
C  26.10100 0.64000 31.93300
C  25.51200 1.01500 33.35000
C  23.94600 1.10800 33.00900
C  23.89700 0.87200 31.52000
C  23.05600 0.21500 33.90400
C  26.14800 2.32000 33.98300
C  25.59500 2.71500 35.38400
H  26.42000 2.36700 36.64200
N  23.51400 0.64800 28.43000
C  22.52100 0.91300 29.38700
C  21.21000 1.01900 28.73300
C  21.46000 0.62100 27.36700
C  22.98900 0.57300 27.19200
C  19.99800 1.37200 29.50400
C  20.48200 0.41100 26.21900
O  20.80100 -0.10400 25.12700
C  19.07500 0.72800 26.48100
N  26.03200 0.23000 26.67800
C  25.11100 0.37700 25.64700
C  25.66700 0.19400 24.26000
C  27.13500 0.04300 24.61500
C  27.25500 -0.12000 26.10600
C  25.02200 -0.90200 23.33700
C  28.19500 1.05400 24.07800
C  29.48600 0.51200 23.46700
N  27.50800 0.06600 29.13900
C  28.47900 -0.33400 28.23900
C  29.62400 -0.79800 29.06300
C  29.29300 -0.39200 30.35600
C  27.96300 0.05700 30.35400
C  30.81900 -1.42300 28.55500
C  29.80000 -0.42100 31.72000
O  30.90700 -0.73700 32.15900
C  28.59100 -0.05300 32.61000
C  28.09200 -1.22200 33.39700
O  27.19200 -1.91000 33.04100
O  28.55500 -1.11800 34.64700
C  28.13200 -2.11900 35.63100
H  21.94800 1.21700 31.57600
H  23.00900 0.48600 25.17200
H  29.25100 -0.67500 26.27200
H  25.64100 0.21700 34.08200
H  23.65200 2.15400 33.09400
H  22.45400 -0.50500 33.35000
H  22.36900 0.89500 34.40800
H  23.56600 -0.24100 34.75300
H  25.94400 3.20200 33.37600
H  27.22800 2.20100 34.07800
H  24.59800 2.31300 35.56600
H  25.53100 3.80000 35.46100
H  19.34300 2.08400 29.00300
H  20.28900 1.87100 30.42800
H  19.35400 0.50600 29.65800
H  18.87200 0.04800 27.30800
H  18.40500 0.53700 25.64300
H  18.97800 1.67100 27.01900
H  25.60400 1.16500 23.76700
H  27.40900 -0.94800 24.25400
H  24.64600 -1.76200 23.89200
H  25.69100 -1.36000 22.60900
H  24.26700 -0.50500 22.65900
H  28.46200 1.78900 24.83800
H  27.80200 1.67100 23.27000
H  29.60600 0.94600 22.47400
H  29.35200 -0.57000 23.46700
H  30.37000 0.77800 24.04700
H  30.49000 -2.25100 27.92600
H  31.51200 -1.83100 29.29000
H  31.23400 -0.60000 27.97400
H  28.85100 0.83900 33.18100
H  28.96200 -2.57100 36.17500
H  27.66700 -2.99100 35.17200
H  27.44000 -1.72900 36.37700

