158

Mg 25.66000 1.51000 29.56000
C  27.53000 1.12000 32.39300
C  22.91000 1.79000 31.43300
C  23.82600 1.32500 26.56700
C  28.50100 0.82100 27.67500
N  25.28500 1.59700 31.65400
C  26.20600 1.42200 32.64200
C  25.63400 1.82400 34.06400
C  24.10200 1.89600 33.73900
C  24.05700 1.72700 32.19900
C  23.29800 0.83500 34.52300
C  26.27500 3.14900 34.58400
C  25.92300 3.50700 36.10300
H  27.02500 3.58200 37.12600
N  23.65800 1.66000 29.01500
C  22.72200 1.90500 29.97600
C  21.46500 2.03900 29.27700
C  21.73100 1.89300 27.87000
C  23.13900 1.70300 27.74400
C  20.18300 2.29900 29.93700
C  20.79700 2.07700 26.69800
O  21.10500 1.99300 25.51100
C  19.33000 2.20200 26.91400
N  26.03900 0.87400 27.41000
C  25.18800 1.09600 26.35400
C  25.88000 0.97000 24.96400
C  27.35900 0.98000 25.39700
C  27.30100 0.93200 26.94300
C  25.48200 -0.30200 24.07800
C  28.15200 2.15800 24.78900
C  28.11400 3.40700 25.72000
N  27.62300 0.99900 29.87400
C  28.65000 0.64400 29.02800
C  29.84500 0.57400 29.77300
C  29.40900 0.64600 31.12900
C  28.04900 0.90700 31.12600
C  31.27300 0.19500 29.24900
C  29.90200 0.66100 32.46600
O  31.04200 0.36100 32.85200
C  28.68000 0.99900 33.37600
C  28.48800 0.04800 34.46600
O  27.92500 -1.00400 34.36200
O  29.05500 0.44800 35.68000
C  28.97700 -0.52200 36.74600
H  22.02400 1.89900 32.06100
H  23.14700 1.25700 25.71500
H  29.48100 0.82100 27.19400
H  25.84800 0.99700 34.74100
H  23.80400 2.87600 34.11400
H  23.13200 1.19800 35.53800
H  23.95500 -0.03500 34.52300
H  22.32000 0.72700 34.05500
H  25.93700 3.98700 33.97400
H  27.35900 3.23100 34.51700
H  25.15300 2.81200 36.43900
H  25.38500 4.45400 36.07400
H  19.51200 1.48200 29.67300
H  19.72800 3.21900 29.57200
H  20.23000 2.35600 31.02500
H  19.40000 3.18800 27.37200
H  18.91200 1.42500 27.55400
H  18.83900 2.31000 25.94600
H  25.63800 1.81800 24.32300
H  27.81100 0.03200 25.10500
H  25.20800 -1.07200 24.80000
H  26.25400 -0.59200 23.36500
H  24.52400 -0.04500 23.62600
H  27.68600 2.59200 23.90300
H  29.21600 1.95900 24.66300
H  27.40900 3.40500 26.55100
H  27.96800 4.26100 25.05900
H  29.10600 3.58300 26.13500
H  32.04000 0.54300 29.94100
H  31.55200 0.59500 28.27300
H  31.31900 -0.88300 29.40100
H  28.85700 1.99200 33.78900
H  28.66100 -1.53800 36.51200
H  28.41700 -0.09900 37.58000
H  29.99300 -0.66500 37.11400
Mg -12.74500 14.56300 42.50100
C  -9.43900 13.70100 41.65400
C  -12.22800 17.58500 40.89700
C  -15.99600 15.26200 43.00600
C  -13.42700 11.23700 43.32100
N  -11.04600 15.40700 41.30900
C  -9.71100 14.93500 41.24200
C  -8.76100 15.93000 40.54100
C  -9.67000 17.14300 40.35100
C  -11.09800 16.73900 40.84500
C  -9.05300 18.45700 40.86900
C  -8.02900 15.38800 39.25000
C  -6.52900 15.27600 39.27400
H  -5.72600 15.90300 38.21500
N  -14.00400 16.18500 41.95800
C  -13.56600 17.37600 41.33400
C  -14.79100 18.19000 41.34800
C  -15.83700 17.51000 41.92700
C  -15.31500 16.23900 42.27500
C  -14.67800 19.55100 40.74900
C  -17.29100 18.10200 42.10500
O  -17.52200 19.28200 41.82400
C  -18.48900 17.19300 42.57700
N  -14.53100 13.35600 43.05300
C  -15.68900 13.93800 43.41100
C  -16.57700 12.98600 44.17800
C  -15.88400 11.62000 44.06000
C  -14.54900 12.05300 43.44800
C  -16.82700 13.34600 45.61900
C  -16.66000 10.45300 43.32500
C  -16.84400 9.21900 44.23600
N  -11.71400 12.89900 42.62800
C  -12.14700 11.61500 42.84500
C  -10.94900 10.76200 42.77900
C  -9.93200 11.51800 42.22800
C  -10.40200 12.85700 42.22000
C  -10.92000 9.31100 43.27300
C  -8.58100 11.46700 41.70100
O  -7.80500 10.54800 41.63100
C  -8.17300 12.93800 41.45000
C  -7.07500 13.45400 42.32500
O  -7.29200 14.13100 43.31400
O  -5.87400 13.23300 41.76000
C  -4.64200 13.77100 42.41700
H  -12.03400 18.59400 40.52700
H  -17.00500 15.40500 43.40000
H  -13.61500 10.17100 43.46200
H  -7.97800 16.27100 41.21900
H  -9.85200 17.25000 39.28200
H  -9.50100 19.27700 40.30700
H  -7.99400 18.43500 40.61500
H  -9.16500 18.45500 41.95300
H  -8.28800 16.10800 38.47300
H  -8.49100 14.40700 39.14100
H  -6.14400 14.27100 39.44100
H  -6.25100 15.76000 40.21000
H  -14.93500 19.57500 39.69000
H  -13.64800 19.90700 40.76700
H  -15.27400 20.28400 41.29300
H  -18.54500 16.28900 41.97000
H  -19.38000 17.77200 42.33200
H  -18.46900 17.05000 43.65700
H  -17.50600 13.09300 43.61800
H  -15.63300 11.36100 45.08900
H  -17.09500 12.46700 46.20400
H  -17.64700 14.05200 45.74700
H  -15.97100 13.82500 46.09400
H  -16.20800 10.13500 42.38500
H  -17.65100 10.87900 43.16000
H  -17.35700 8.45700 43.64800
H  -17.59300 9.58300 44.94000
H  -15.97900 8.71400 44.66500
H  -11.05900 9.30200 44.35400
H  -9.91400 8.92800 43.10500
H  -11.56900 8.71200 42.63400
H  -7.88600 12.95600 40.39800
H  -3.78400 13.28800 41.94900
H  -4.75100 13.35400 43.41800
H  -4.73700 14.85500 42.35600

