158

Mg 42.00600 7.89500 29.93300
C  43.79600 9.45100 32.39300
C  39.88300 6.57000 32.25500
C  40.30100 6.49600 27.45500
C  44.84600 8.34100 27.68900
N  42.05500 7.90900 32.08900
C  42.66200 8.83000 32.83900
C  42.08800 8.82000 34.31200
C  40.81200 7.82400 34.21900
C  40.98900 7.33800 32.81400
C  40.80900 6.62800 35.28000
C  41.73400 10.23300 34.88400
C  42.44900 10.68700 36.21200
H  41.55600 11.36700 37.30300
N  40.31000 6.80800 29.87700
C  39.55100 6.33100 30.92500
C  38.39900 5.60300 30.43000
C  38.38200 5.74500 29.02200
C  39.72600 6.32500 28.74800
C  37.43900 4.89800 31.38100
C  37.24400 5.33200 28.02200
O  37.49800 5.31200 26.82300
C  35.90700 5.19500 28.56500
N  42.64400 7.22300 27.89200
C  41.64200 6.88200 27.12500
C  42.15800 6.79200 25.63900
C  43.67600 7.29100 25.74100
C  43.80200 7.58500 27.21700
C  42.03800 5.32800 25.03500
C  43.96100 8.36000 24.76500
C  43.28900 9.73200 25.14100
N  43.95700 8.73300 29.98300
C  44.96800 8.81600 29.04900
C  45.97700 9.69300 29.58800
C  45.65300 9.93700 30.95500
C  44.40200 9.35500 31.15000
C  47.09200 10.31100 28.77200
C  46.04800 10.64600 32.16300
O  46.97200 11.40900 32.40100
C  44.83900 10.26200 33.22500
C  45.38300 9.45000 34.37300
O  45.45500 8.21300 34.59600
O  45.91400 10.40300 35.21900
C  46.32400 9.97700 36.57700
H  39.06000 6.35900 32.94000
H  39.75500 6.16400 26.57000
H  45.58900 8.58600 26.92800
H  42.89400 8.32000 34.84900
H  39.86100 8.33000 34.05000
H  39.75500 6.55000 35.54600
H  41.49600 6.97600 36.05100
H  41.29600 5.79700 34.77000
H  40.65200 10.35800 34.92700
H  42.01300 10.99500 34.15700
H  43.27100 11.36400 35.98200
H  42.93500 9.82400 36.66700
H  36.92400 4.09700 30.85000
H  36.72400 5.54700 31.88600
H  38.03200 4.31600 32.08600
H  35.76100 6.10700 29.14400
H  35.89300 4.31300 29.20600
H  35.10300 4.97700 27.86300
H  41.47400 7.38700 25.03300
H  44.39400 6.53000 25.43800
H  41.74900 4.75800 25.91800
H  42.98200 4.95300 24.63900
H  41.27900 5.15700 24.27200
H  43.53500 7.98900 23.83300
H  45.03500 8.53200 24.69100
H  42.71300 9.71000 26.06600
H  42.67300 10.04700 24.29900
H  44.08700 10.47400 25.18200
H  46.83300 11.16800 28.15000
H  47.59900 9.61100 28.10900
H  47.77700 10.69900 29.52600
H  44.34200 11.15200 33.61000
H  46.89500 9.04900 36.60600
H  45.49400 9.75100 37.24500
H  46.99900 10.77400 36.89000
Mg 53.41100 24.01800 45.87300
C  50.86000 26.02900 44.49400
C  51.92500 21.26700 44.47300
C  56.42100 22.43900 46.18100
C  54.76700 27.00100 47.07100
N  51.66800 23.70900 44.64700
C  50.77900 24.62500 44.31400
C  49.49300 23.99200 43.69900
C  49.72300 22.45400 44.13100
C  51.18500 22.43500 44.47100
C  48.83000 22.01900 45.43200
C  49.45200 24.16900 42.15300
C  48.02400 24.17100 41.54500
H  47.84500 24.15500 40.04000
N  54.03600 22.09900 45.52500
C  53.25300 21.13800 44.87800
C  53.97800 19.84500 44.81300
C  55.33600 20.21100 45.27700
C  55.33600 21.61100 45.59900
C  53.54300 18.57200 44.13800
C  56.61700 19.25700 45.17500
O  56.44700 18.07900 44.88800
C  58.07800 19.57200 45.55500
N  55.40200 24.76100 46.26200
C  56.40200 23.78700 46.57300
C  57.66900 24.46900 47.28100
C  57.09100 25.90300 47.54600
C  55.65300 25.87700 47.00500
C  58.26900 23.67700 48.49800
C  57.86300 27.16400 47.10700
C  58.03700 28.29500 48.09400
N  52.95700 26.15000 45.81900
C  53.51700 27.20300 46.51800
C  52.73600 28.41100 46.27900
C  51.68800 28.00900 45.47000
C  51.87200 26.63500 45.24700
C  53.07300 29.72100 46.95100
C  50.41400 28.41100 44.87200
O  49.94900 29.50200 44.81700
C  49.79300 27.12700 44.22800
C  49.60700 27.46400 42.81200
O  50.42800 27.71400 41.92400
O  48.22400 27.44400 42.55900
C  47.84900 27.90200 41.17800
H  51.47400 20.34800 44.09300
H  57.39000 21.96500 46.35200
H  55.21300 27.86600 47.56600
H  48.56400 24.43400 44.06000
H  49.57400 21.77100 43.29500
H  48.10000 21.40200 44.90800
H  48.43100 22.97000 45.78500
H  49.32000 21.41700 46.19700
H  49.95400 23.28900 41.75100
H  49.91700 25.10500 41.84300
H  47.57400 25.06200 41.98200
H  47.42700 23.33200 41.90100
H  53.69600 17.74900 44.83700
H  54.13900 18.38500 43.24500
H  52.50100 18.39600 43.87400
H  58.34300 20.28800 44.77700
H  58.70100 18.70300 45.34100
H  58.24000 19.83000 46.60100
H  58.45000 24.43900 46.52200
H  56.92300 26.01000 48.61800
H  59.33900 23.54600 48.34200
H  57.84300 22.68000 48.61000
H  58.00500 24.26400 49.37900
H  57.41100 27.42600 46.15100
H  58.86500 26.91900 46.75500
H  57.53600 29.16600 47.67100
H  59.07800 28.47900 48.35900
H  57.46200 28.19800 49.01600
H  52.67900 29.65900 47.96500
H  52.69200 30.58100 46.40000
H  54.14800 29.90200 46.94200
H  48.87300 26.79900 44.71200
H  47.70200 28.96800 41.00400
H  46.88300 27.41000 41.07000
H  48.46400 27.42100 40.41800

