158

Mg 24.42900 -5.18200 45.58300
C  26.21400 -2.48300 44.15500
C  21.72900 -4.42100 43.32500
C  23.04600 -8.14000 46.32800
C  27.32100 -6.00400 47.30000
N  24.05800 -3.57500 43.99600
C  24.89300 -2.57700 43.61200
C  24.29600 -1.73500 42.46500
C  22.84200 -2.24700 42.38500
C  22.79100 -3.48100 43.29600
C  21.75800 -1.18200 42.84400
C  25.10200 -1.93500 41.08100
C  25.49600 -0.66400 40.34200
H  25.39800 -0.80100 38.79200
N  22.55400 -6.10200 45.05100
C  21.61700 -5.64800 44.14200
C  20.57100 -6.62400 44.06500
C  20.80300 -7.61300 45.05300
C  22.17400 -7.33700 45.59200
C  19.37400 -6.40800 43.12000
C  19.84900 -8.73100 45.37700
O  18.66000 -8.67800 45.01700
C  20.14700 -9.83200 46.41300
N  25.07300 -6.87000 46.59700
C  24.33200 -7.92000 46.82400
C  25.00700 -8.90600 47.79200
C  26.45100 -8.35900 47.89500
C  26.34600 -6.96100 47.28500
C  24.21800 -9.00100 49.14800
C  27.62400 -9.27100 47.37600
C  28.87200 -9.49700 48.35500
N  26.35900 -4.32700 45.80600
C  27.37700 -4.85900 46.55200
C  28.55600 -3.90800 46.38800
C  28.14100 -2.99100 45.40500
C  26.78900 -3.29300 45.12600
C  29.90100 -4.05300 47.01200
C  28.53200 -1.89600 44.61100
O  29.63100 -1.34000 44.49500
C  27.32700 -1.51200 43.75300
C  27.06600 -0.05500 43.97300
O  26.41500 0.54100 44.80600
O  27.84200 0.65300 43.06000
C  27.77700 2.09900 43.13400
H  20.85300 -4.21900 42.70400
H  22.78200 -9.19200 46.45500
H  28.22000 -6.17300 47.89700
H  24.22900 -0.66100 42.64000
H  22.63600 -2.54700 41.35800
H  22.09600 -0.89500 43.83900
H  20.78000 -1.65400 42.94200
H  21.72300 -0.28600 42.22300
H  24.60300 -2.68000 40.46100
H  26.04000 -2.39100 41.39800
H  26.49200 -0.35900 40.66300
H  24.71600 0.05900 40.58300
H  19.58900 -6.98500 42.22000
H  19.16400 -5.37800 42.83100
H  18.45900 -6.81700 43.54800
H  20.81000 -9.43500 47.18200
H  20.83400 -10.52800 45.93100
H  19.23200 -10.26200 46.82000
H  24.91500 -9.83100 47.22300
H  26.64100 -8.32100 48.96800
H  23.25700 -8.50600 49.00800
H  24.74200 -8.76100 50.07300
H  24.00900 -10.06500 49.25900
H  28.04600 -8.81100 46.48300
H  27.28000 -10.23200 46.99400
H  28.84800 -10.47200 48.84200
H  28.83300 -8.67500 49.06900
H  29.76000 -9.48500 47.72200
H  30.06200 -3.68500 48.02600
H  30.59100 -3.44000 46.43100
H  30.29700 -5.06400 46.91700
H  27.60700 -1.62900 42.70600
H  27.02400 2.47400 42.44000
H  28.71600 2.51800 42.77200
H  27.56200 2.46800 44.13700
Mg -12.26100 16.57600 40.99500
C  -8.99100 15.14700 40.45600
C  -11.19300 19.47300 39.59400
C  -15.47300 17.41600 40.60000
C  -13.26000 13.22400 41.72300
N  -10.28300 17.17200 39.85300
C  -9.12900 16.47300 39.87300
C  -7.94600 17.39700 39.36400
C  -8.66500 18.86900 39.25800
C  -10.14800 18.55000 39.58300
C  -8.15000 19.97300 40.16800
C  -7.25300 16.91500 38.06900
C  -5.68700 16.92100 38.15500
H  -4.96500 16.97100 36.83000
N  -13.19500 18.27400 40.40800
C  -12.54900 19.33500 39.86200
C  -13.49500 20.43100 39.54300
C  -14.75700 19.91600 39.89800
C  -14.56800 18.47400 40.26700
C  -13.16700 21.83600 39.21800
C  -16.05400 20.69600 39.85200
O  -16.08400 21.87400 39.66500
C  -17.35700 20.07500 40.35400
N  -14.11400 15.49400 41.15400
C  -15.32400 16.09000 40.96500
C  -16.53800 15.15800 41.12000
C  -15.85400 13.92900 41.76700
C  -14.34700 14.16700 41.55900
C  -17.70600 15.92300 41.95300
C  -16.40800 12.53600 41.25800
C  -16.85000 11.58300 42.42600
N  -11.36100 14.62200 41.09100
C  -11.89100 13.42200 41.44500
C  -10.83100 12.44600 41.68700
C  -9.68200 13.07900 41.21300
C  -10.03500 14.44300 40.89200
C  -10.97300 11.08900 42.19700
C  -8.24200 12.86800 41.04100
O  -7.56600 11.88200 41.17600
C  -7.73700 14.28000 40.52800
C  -6.86200 14.75300 41.59800
O  -7.09000 15.38300 42.63900
O  -5.58000 14.27600 41.32300
C  -4.55700 14.44300 42.42100
H  -10.87800 20.47100 39.28300
H  -16.52300 17.66500 40.43700
H  -13.49200 12.20600 42.04300
H  -7.21200 17.29400 40.16200
H  -8.63700 19.21100 38.22300
H  -8.80400 20.16400 41.01800
H  -8.02300 20.91200 39.63000
H  -7.20600 19.64400 40.60500
H  -7.42500 17.53500 37.19000
H  -7.52800 15.87700 37.88200
H  -5.28500 16.06600 38.69900
H  -5.41800 17.85800 38.64300
H  -13.60700 22.17400 38.28000
H  -12.10300 22.02400 39.07600
H  -13.44100 22.55800 39.98800
H  -17.76100 19.60600 39.45700
H  -17.89900 20.98600 40.60600
H  -17.17500 19.44200 41.22300
H  -16.91800 14.82900 40.15300
H  -15.96000 13.96200 42.85100
H  -17.51100 16.99500 41.98000
H  -17.64700 15.69400 43.01700
H  -18.71400 15.73100 41.58400
H  -15.51800 12.00000 40.93000
H  -17.14800 12.65500 40.46700
H  -16.83400 12.03900 43.41500
H  -16.16400 10.74100 42.52000
H  -17.84000 11.18300 42.20600
H  -10.47300 11.05900 43.16600
H  -10.40200 10.40400 41.57200
H  -11.95700 10.62000 42.20900
H  -7.17500 14.03300 39.62700
H  -4.83200 14.17400 43.44100
H  -4.28100 15.49600 42.36200
H  -3.74600 13.82300 42.04000

