158

Mg 47.98200 15.91700 27.87500
C  45.97600 15.87200 30.71500
C  50.12200 18.13900 29.58500
C  49.76400 16.48600 24.96600
C  45.51300 14.35800 26.12400
N  47.99500 16.90000 29.89400
C  47.19300 16.57500 30.92500
C  47.58300 17.09900 32.27900
C  48.74400 17.99600 31.82500
C  49.00700 17.67800 30.37300
C  48.49500 19.55100 32.10400
C  48.10500 15.92400 33.26400
C  48.20400 16.30500 34.83100
H  47.44500 17.57800 35.27600
N  49.75300 17.02600 27.42300
C  50.48200 17.82500 28.23700
C  51.68800 18.19300 27.57600
C  51.71100 17.57200 26.24200
C  50.38500 16.95200 26.20500
C  52.79800 19.00500 28.24100
C  52.73200 17.54000 25.18500
O  52.59300 16.82700 24.20400
C  54.00400 18.16700 25.43800
N  47.71000 15.38400 25.88500
C  48.51300 15.88000 24.86400
C  47.91600 15.57100 23.50700
C  46.78300 14.55100 23.85000
C  46.63300 14.76000 25.40100
C  47.38400 16.89000 22.87200
C  47.03300 13.08200 23.59300
C  45.94700 12.37400 22.80600
N  46.13600 15.27500 28.26800
C  45.21600 14.64000 27.44800
C  44.04200 14.38000 28.23300
C  44.29900 14.80700 29.53700
C  45.58100 15.39400 29.46400
C  42.85100 13.76000 27.63600
C  43.78100 14.83200 30.79700
O  42.65700 14.42600 31.10400
C  44.86300 15.55600 31.67200
C  44.19200 16.71800 32.31200
O  44.04900 17.81500 31.82600
O  43.74900 16.33300 33.57400
C  42.93000 17.34100 34.24600
H  50.84900 18.71100 30.16500
H  50.28900 16.60100 24.01600
H  44.73000 13.95500 25.47900
H  46.79500 17.69700 32.73600
H  49.65500 17.76800 32.37800
H  47.58400 19.81500 32.64000
H  48.56200 20.07800 31.15200
H  49.23900 20.10600 32.67500
H  49.12400 15.65700 32.98300
H  47.44900 15.05500 33.22100
H  49.28800 16.25900 34.93300
H  47.73900 15.58900 35.50900
H  53.23100 19.68400 27.50600
H  53.63600 18.40700 28.60000
H  52.48000 19.50600 29.15600
H  54.46500 17.62400 26.26300
H  53.80100 19.23500 25.51200
H  54.62400 18.01600 24.55500
H  48.65500 15.14900 22.82500
H  45.89500 15.01000 23.41500
H  47.12600 16.59700 21.85500
H  48.07600 17.72800 22.94600
H  46.48000 17.16700 23.41600
H  47.24100 12.49700 24.48900
H  47.96300 12.97100 23.03400
H  45.97700 12.81800 21.81100
H  44.99700 12.51700 23.32100
H  46.16200 11.30800 22.73700
H  42.66600 13.96400 26.58200
H  41.95400 14.00500 28.20400
H  42.90500 12.68800 27.82600
H  45.21300 14.96600 32.51900
H  41.89900 17.35800 33.89200
H  43.38500 18.32400 34.12400
H  42.87700 17.18900 35.32500
Mg 47.85300 24.59600 28.06000
C  48.42900 27.02700 30.33700
C  46.62700 22.63000 30.53800
C  47.32700 22.24000 25.73000
C  49.25600 26.65700 25.60100
N  47.77700 24.77200 30.22900
C  47.90300 25.89800 30.96500
C  47.47200 25.69700 32.44200
C  47.04300 24.26600 32.48500
C  47.13000 23.82800 30.99300
C  47.74400 23.25600 33.39900
C  46.43700 26.76200 32.97100
C  46.71300 27.31400 34.43700
H  45.53900 27.33300 35.41800
N  47.06900 22.68100 28.16100
C  46.55700 21.99000 29.24900
C  46.09600 20.71200 28.85600
C  46.26000 20.63400 27.45300
C  46.96900 21.87300 27.05900
C  45.49700 19.75900 29.80700
C  45.75300 19.57900 26.48300
O  45.97300 19.52700 25.23900
C  44.88500 18.49200 27.00600
N  48.37500 24.40900 26.00100
C  48.05000 23.34600 25.26400
C  48.36400 23.60200 23.75400
C  48.70500 25.13300 23.67700
C  48.81400 25.41200 25.20500
C  49.48200 22.67600 23.11100
C  47.68100 25.91600 22.91100
C  46.47900 26.53000 23.66000
N  48.75900 26.44400 27.92600
C  49.27600 27.18900 26.85000
C  49.75200 28.50000 27.32900
C  49.46600 28.47000 28.71200
C  48.83100 27.21200 28.98800
C  50.19000 29.56700 26.44800
C  49.54500 29.21200 29.96900
O  50.08300 30.26500 30.15100
C  48.75100 28.32300 31.05600
C  49.79900 28.12300 32.13100
O  50.63800 27.28700 32.11200
O  49.44200 28.85700 33.20100
C  50.19000 28.67100 34.45300
H  46.24600 22.06700 31.39200
H  47.10800 21.45900 24.99900
H  49.65400 27.35700 24.86400
H  48.39000 25.85000 33.01000
H  46.02700 24.15800 32.86400
H  48.60100 23.79300 33.80400
H  48.03000 22.35100 32.86200
H  47.09400 22.92900 34.21100
H  45.41800 26.38300 33.04700
H  46.33400 27.57200 32.25000
H  47.04400 28.35000 34.35500
H  47.49900 26.68100 34.85000
H  44.43200 19.95200 29.93700
H  45.89900 19.93000 30.80500
H  45.72600 18.73600 29.50700
H  44.30900 18.12000 26.15900
H  44.14900 18.94700 27.67000
H  45.46100 17.69600 27.47700
H  47.49700 23.30400 23.16500
H  49.66400 25.32400 23.19700
H  50.29500 23.37400 22.91000
H  49.11300 22.03400 22.31200
H  49.88600 22.01300 23.87500
H  47.22000 25.38500 22.07800
H  48.21400 26.73900 22.43300
H  46.52300 27.61900 23.68000
H  46.43700 26.07500 24.64900
H  45.58100 26.27600 23.09700
H  49.75700 29.69500 25.45600
H  51.24200 29.34000 26.27500
H  50.12900 30.50300 27.00300
H  47.87300 28.84900 31.43100
H  49.42500 28.34300 35.15700
H  50.53400 29.65900 34.76000
H  51.02400 27.97500 34.53300

