158

Mg 35.84200 1.79900 29.59500
C  33.51100 2.75500 32.09300
C  38.22300 1.63800 32.02700
C  38.11100 1.16900 27.24900
C  33.38400 2.48500 27.22900
N  35.74800 2.05300 31.82400
C  34.70500 2.42500 32.63800
C  35.13300 2.58700 34.12600
C  36.70400 2.46700 33.98600
C  36.90600 2.01200 32.56300
C  37.49500 3.73600 34.42900
C  34.53100 1.41800 34.96800
C  34.30700 1.65800 36.49200
H  35.02400 2.86500 37.17900
N  37.88800 1.38700 29.66400
C  38.69700 1.29200 30.74400
C  40.06100 0.95300 30.32200
C  40.09800 0.85200 28.90500
C  38.66500 1.10900 28.51800
C  41.14200 0.92900 31.43200
C  41.28600 0.52300 27.98700
O  41.17000 0.56000 26.77100
C  42.65500 0.20300 28.48900
N  35.78500 1.90000 27.59500
C  36.81300 1.51300 26.76100
C  36.43700 1.49000 25.27600
C  34.86100 1.57500 25.31700
C  34.62200 2.11000 26.79800
C  37.01500 2.74800 24.59100
C  34.09000 0.24200 24.89700
C  33.84100 -0.72700 26.03900
N  33.88100 2.35500 29.61800
C  33.02200 2.63200 28.59200
C  31.76900 3.05100 29.06400
C  31.89000 3.10800 30.45500
C  33.18700 2.67500 30.71600
C  30.55400 3.33500 28.23400
C  31.19800 3.34400 31.71200
O  29.96700 3.46700 31.95500
C  32.25200 3.15700 32.82700
C  32.41100 4.42700 33.65500
O  33.13000 5.36800 33.36800
O  31.58800 4.33700 34.79700
C  31.63900 5.51800 35.60000
H  38.95600 1.52300 32.82800
H  38.76500 0.94500 26.40400
H  32.54400 2.57600 26.53700
H  34.92500 3.55900 34.57400
H  37.02700 1.60700 34.57400
H  36.89400 4.40900 35.04100
H  37.96900 4.29900 33.62400
H  38.28500 3.44100 35.11900
H  35.22400 0.57900 34.90300
H  33.63700 1.12500 34.41800
H  34.70900 0.73600 36.91200
H  33.23800 1.76500 36.67600
H  42.05900 0.43900 31.10500
H  40.74000 0.50200 32.35100
H  41.31800 1.97200 31.69500
H  42.94600 1.04300 29.12000
H  43.33900 0.21900 27.64100
H  42.66200 -0.78800 28.94300
H  36.76500 0.51100 24.92600
H  34.38600 2.25900 24.61400
H  37.39700 2.42900 23.62100
H  37.76600 3.14600 25.27300
H  36.20600 3.46100 24.43300
H  34.81000 -0.15500 24.18200
H  33.15700 0.48300 24.38800
H  34.78800 -1.25700 26.14000
H  33.09800 -1.46900 25.74800
H  33.65800 -0.25800 27.00600
H  30.23100 2.44200 27.70000
H  30.75700 4.17800 27.57300
H  29.79800 3.78400 28.87900
H  31.88700 2.30800 33.40600
H  32.61300 5.74000 36.03500
H  31.02200 5.40800 36.49200
H  31.46100 6.46000 35.08100
Mg 47.23100 25.43400 28.22200
C  47.83100 27.43700 31.04200
C  46.55200 22.82800 30.34000
C  47.35400 23.50800 25.77100
C  48.13100 28.21400 26.24800
N  47.14900 25.23600 30.43900
C  47.44800 26.16900 31.38600
C  47.08500 25.66200 32.73300
C  46.77700 24.09400 32.52000
C  46.79600 24.05800 30.96700
C  47.71800 23.07600 33.28900
C  45.97500 26.42800 33.55100
C  46.33200 26.76700 34.99100
H  45.19200 26.79200 36.00600
N  46.81500 23.48300 28.02900
C  46.51600 22.52200 29.01400
C  46.06200 21.33900 28.45900
C  46.32700 21.50100 27.09900
C  46.84400 22.86900 26.89000
C  45.49100 20.20700 29.24100
C  46.18300 20.51100 25.95700
O  46.53900 20.78900 24.81000
C  45.52300 19.17500 26.28600
N  47.74900 25.77600 26.27600
C  47.66800 24.77100 25.38700
C  48.02300 25.15900 24.01800
C  47.99300 26.71800 24.15500
C  47.98000 26.95300 25.65800
C  49.39400 24.56200 23.58000
C  46.88700 27.53600 23.46600
C  47.44700 28.89200 23.00200
N  47.85400 27.41400 28.52800
C  48.12400 28.45200 27.64800
C  48.62300 29.57000 28.32500
C  48.47800 29.26500 29.67000
C  48.07800 27.95100 29.75400
C  49.12500 30.83300 27.76800
C  48.70200 29.77900 30.95300
O  49.10700 30.87200 31.32500
C  48.23300 28.58100 31.94100
C  49.30400 28.28400 32.89200
O  50.21600 27.48400 32.75500
O  49.02400 28.93200 34.08000
C  49.75200 28.44900 35.28100
H  46.28400 22.03800 31.04500
H  47.59200 22.72600 25.04700
H  48.31900 29.06100 25.58500
H  48.07000 25.69400 33.19900
H  45.75600 23.91500 32.85800
H  48.26700 22.52400 32.52600
H  46.94000 22.50100 33.79000
H  48.42300 23.56000 33.96600
H  45.06500 25.82900 33.59500
H  45.68000 27.39500 33.14500
H  46.97900 27.64400 35.00600
H  46.97600 25.95800 35.33600
H  44.54900 19.83400 28.83900
H  45.28500 20.43600 30.28600
H  46.20300 19.38300 29.29700
H  46.30200 18.90600 26.99900
H  45.54000 18.66000 25.32500
H  44.54100 19.44100 26.67800
H  47.23300 24.82000 23.34800
H  48.94000 27.14200 23.82100
H  49.92400 24.10000 24.41300
H  50.05300 25.26300 23.06800
H  49.22100 23.74700 22.87700
H  46.14100 27.73000 24.23600
H  46.33800 27.02100 22.67900
H  48.44800 29.17300 23.32900
H  46.81900 29.66100 23.45200
H  47.26900 29.04000 21.93700
H  49.16200 30.85800 26.67800
H  50.17700 30.94400 28.03100
H  48.67000 31.71600 28.21700
H  47.45000 29.07100 32.52000
H  50.15600 27.45700 35.08000
H  49.01300 28.47800 36.08200
H  50.58600 29.14300 35.38800

