158

Mg 49.30800 35.37300 28.34600
C  47.32900 34.01300 30.82400
C  49.68400 38.21100 30.22500
C  50.80300 36.91200 25.61400
C  48.60000 32.60100 26.27500
N  48.46100 36.06100 30.26700
C  47.83600 35.24800 31.17000
C  47.91300 35.92800 32.64600
C  48.33100 37.39800 32.29800
C  48.93300 37.23500 30.87800
C  47.17600 38.40400 32.30200
C  48.89900 35.15200 33.52100
C  49.82300 35.83600 34.60100
H  49.14500 36.39600 35.87800
N  50.14200 37.28700 27.97800
C  50.24600 38.25900 28.94500
C  50.80100 39.47800 28.35600
C  51.21900 39.18400 26.99500
C  50.72600 37.75200 26.80100
C  51.00400 40.74200 29.13100
C  51.89200 39.95900 25.89200
O  52.24800 39.46500 24.85100
C  52.27500 41.40700 26.10600
N  49.55500 34.85600 26.29500
C  50.37400 35.61900 25.42500
C  50.73500 34.80100 24.19100
C  50.34100 33.34200 24.51400
C  49.42000 33.61900 25.74700
C  50.02100 35.41500 22.92300
C  51.51000 32.28100 24.79400
C  51.55600 31.17800 23.70800
N  48.29800 33.63200 28.52100
C  48.07600 32.59000 27.61600
C  47.43600 31.51200 28.22500
C  46.97100 32.07000 29.47400
C  47.55800 33.37300 29.60300
C  47.13900 30.15300 27.64700
C  46.23400 31.77600 30.62800
O  45.62800 30.78400 30.93300
C  46.32500 33.05000 31.49000
C  46.71300 32.53900 32.83100
O  47.75900 32.08100 33.16800
O  45.69200 32.91400 33.66800
C  46.05600 32.88900 35.10400
H  49.95500 39.01700 30.90900
H  51.24100 37.32700 24.70400
H  48.57100 31.69100 25.67200
H  46.94000 35.85900 33.13400
H  49.13000 37.74300 32.95400
H  46.80900 38.31100 33.32400
H  46.45000 38.19800 31.51500
H  47.56900 39.40400 32.12200
H  49.49200 34.57400 32.81300
H  48.41300 34.48500 34.23400
H  50.31600 36.65900 34.08300
H  50.64600 35.18600 34.90100
H  51.02000 40.53700 30.20200
H  50.23700 41.45900 28.83600
H  51.95500 41.23300 28.92400
H  52.43500 41.96200 25.18100
H  53.00400 41.64900 26.87900
H  51.31100 41.81600 26.40600
H  51.82400 34.82100 24.18000
H  49.72800 33.06900 23.65500
H  49.67100 36.40800 23.20800
H  49.23900 34.82400 22.44700
H  50.74300 35.65500 22.14300
H  51.50800 31.99100 25.84500
H  52.48000 32.76900 24.69900
H  50.62800 31.06100 23.14900
H  51.64500 30.18600 24.15200
H  52.38700 31.37500 23.03000
H  47.90700 29.47800 28.02300
H  47.20600 30.15800 26.55900
H  46.13900 29.91800 28.01100
H  45.29000 33.38200 31.56800
H  47.03500 33.35300 35.22100
H  45.92900 31.85800 35.43500
H  45.38300 33.52400 35.67900
Mg 17.11200 50.99400 26.56000
C  19.12200 49.67300 29.04400
C  14.82000 51.94100 28.85500
C  15.32100 52.29600 24.00800
C  19.42600 49.69000 24.27500
N  16.94400 50.76200 28.65600
C  17.93400 50.29500 29.50100
C  17.60200 50.56300 30.96600
C  16.05900 50.95100 30.86200
C  15.91800 51.29600 29.36700
C  15.04700 49.88200 31.34900
C  18.55200 51.65000 31.55100
C  18.91700 51.44200 33.02700
H  17.88300 50.76800 33.99000
N  15.37500 52.04100 26.39800
C  14.58100 52.32500 27.46800
C  13.38700 53.12800 27.04500
C  13.57300 53.25700 25.66900
C  14.76900 52.48300 25.25000
C  12.42800 53.61300 28.00300
C  12.72300 54.00600 24.72200
O  13.00400 54.25700 23.59200
C  11.34700 54.42000 25.07700
N  17.31200 50.90600 24.50700
C  16.47600 51.59500 23.66400
C  16.80600 51.35600 22.19900
C  18.18100 50.70100 22.22400
C  18.35400 50.37000 23.73300
C  15.82000 50.61600 21.32100
C  19.26600 51.55100 21.55100
C  20.19600 52.42500 22.45300
N  18.84600 49.88200 26.59600
C  19.67900 49.44300 25.61400
C  20.85600 48.73200 26.14700
C  20.64000 48.80400 27.50800
C  19.48300 49.57200 27.72000
C  21.82000 48.02400 25.28300
C  21.22100 48.41500 28.68600
O  22.27900 47.83200 28.86600
C  20.27300 48.93000 29.79600
C  19.86900 47.78100 30.65100
O  19.26400 46.83100 30.14900
O  20.07700 48.01900 31.99900
C  19.48700 46.96500 32.86100
H  14.14400 52.43800 29.55300
H  14.67400 52.65800 23.20600
H  20.26300 49.33100 23.67100
H  17.63200 49.61700 31.50500
H  15.78100 51.86800 31.38200
H  14.53100 49.41000 30.51200
H  14.36200 50.32100 32.07500
H  15.56900 49.03200 31.78700
H  18.06600 52.60900 31.37400
H  19.50700 51.82400 31.05600
H  19.11200 52.39000 33.52800
H  19.91500 51.00800 33.09400
H  11.93100 54.49500 27.59900
H  12.89200 53.91300 28.94200
H  11.75500 52.78100 28.21100
H  11.35100 55.46700 25.38100
H  10.94800 53.81300 25.89000
H  10.72700 54.38700 24.18100
H  16.96500 52.33700 21.75000
H  18.18600 49.76400 21.66700
H  14.99600 50.22700 21.92000
H  16.22800 49.80400 20.71900
H  15.36800 51.30100 20.60300
H  18.87400 51.89900 20.59500
H  19.99300 50.76100 21.36600
H  19.82200 52.50100 23.47400
H  20.27600 53.45400 22.10100
H  21.23300 52.09900 22.53400
H  22.24600 47.11600 25.71000
H  22.58200 48.71800 24.93000
H  21.18100 47.65300 24.48100
H  20.75700 49.65600 30.44900
H  18.43500 46.91900 32.57900
H  19.49800 47.39900 33.86100
H  19.99700 46.00200 32.85700

