158

Mg 8.64400 3.16400 27.48300
C  10.02500 1.85800 30.33700
C  6.77300 5.38300 29.52900
C  7.25400 4.40600 24.69700
C  9.83900 0.39300 25.61300
N  8.41500 3.58400 29.72000
C  9.15600 2.95100 30.66000
C  8.86600 3.59800 32.02500
C  7.68700 4.59600 31.73800
C  7.62300 4.57500 30.24900
C  6.27700 4.25100 32.17700
C  10.10600 4.30200 32.63000
C  10.47200 3.96700 34.11700
H  10.74700 5.08800 35.14900
N  7.33500 4.79500 27.07500
C  6.65000 5.50700 28.10000
C  5.77800 6.39100 27.41100
C  5.91300 6.16700 25.99100
C  6.92800 5.09100 25.87700
C  4.93100 7.41200 28.05200
C  5.10900 6.76900 24.81100
O  5.45000 6.59000 23.63400
C  3.81600 7.54900 25.11100
N  8.76200 2.53800 25.31200
C  8.01200 3.22800 24.35600
C  8.07300 2.50900 22.94200
C  8.88600 1.22200 23.31500
C  9.16700 1.33700 24.80800
C  6.77900 2.12800 22.29900
C  10.17100 0.84600 22.50200
C  10.03600 -0.47000 21.79600
N  9.58900 1.46300 27.79600
C  10.08100 0.48300 27.01700
C  10.80600 -0.47700 27.88800
C  10.95300 0.05700 29.13700
C  10.15200 1.25000 29.07600
C  11.54100 -1.70300 27.35800
C  11.52900 -0.09200 30.46500
O  12.26200 -0.96900 30.96400
C  10.93600 1.10900 31.29100
C  10.20200 0.50100 32.42300
O  9.15500 -0.07200 32.29900
O  11.00500 0.64100 33.55400
C  10.34900 0.13900 34.79000
H  6.32700 6.16800 30.14300
H  6.74700 4.70500 23.77700
H  10.23400 -0.51000 25.14300
H  8.31200 2.85600 32.59900
H  7.88000 5.59700 32.12400
H  5.77500 5.16900 32.48000
H  6.22800 3.53100 32.99400
H  5.62100 3.79300 31.43700
H  10.00500 5.37700 32.48000
H  10.93900 3.90600 32.04800
H  11.37500 3.36700 34.00100
H  9.70600 3.29600 34.50800
H  5.32700 7.77300 29.00200
H  3.93200 7.00600 28.21000
H  5.12300 8.30800 27.46100
H  3.21900 7.63200 24.20300
H  4.19400 8.48400 25.52400
H  3.38200 6.94800 25.90900
H  8.67600 3.05700 22.21800
H  8.21300 0.36400 23.31900
H  6.10800 2.33400 23.13200
H  6.63200 1.07700 22.04900
H  6.55800 2.84400 21.50800
H  11.05900 0.81000 23.13300
H  10.41400 1.73300 21.91700
H  10.21200 -0.40600 20.72200
H  9.09200 -0.97800 21.98700
H  10.78200 -1.20900 22.08800
H  12.58800 -1.42400 27.23900
H  11.06200 -2.00800 26.42800
H  11.45100 -2.48700 28.11000
H  11.71500 1.81700 31.57300
H  9.66800 -0.70200 34.65900
H  9.64900 0.93700 35.03900
H  11.02800 -0.07800 35.61500
Mg 35.84200 1.50000 29.46600
C  33.64500 2.50200 32.07200
C  38.39600 1.67800 31.73200
C  37.88500 0.86300 26.91800
C  33.06900 1.63500 27.26200
N  36.00300 2.08700 31.60700
C  34.95500 2.40900 32.52600
C  35.43400 2.43600 33.89200
C  36.99900 2.29100 33.75000
C  37.21500 2.06700 32.28500
C  37.75500 3.55900 34.32500
C  34.89400 1.17500 34.65400
C  34.54100 1.47900 36.13700
H  35.25500 2.60100 36.82300
N  37.82100 1.25000 29.36300
C  38.73200 1.26400 30.44000
C  40.08000 0.98700 29.90000
C  40.00200 0.94100 28.50300
C  38.54100 1.03200 28.17200
C  41.35600 0.65300 30.81400
C  41.02400 0.63700 27.46700
O  40.81800 0.52600 26.28500
C  42.50300 0.64100 27.95600
N  35.49000 1.08000 27.35700
C  36.54100 0.89400 26.50800
C  36.05700 0.86100 25.04000
C  34.54700 0.97300 25.17500
C  34.28600 1.24500 26.66900
C  36.65600 1.99100 24.11700
C  33.73200 -0.21400 24.61000
C  32.66100 0.04800 23.56100
N  33.79500 1.89900 29.60600
C  32.80500 1.95700 28.61900
C  31.51300 2.36100 29.17900
C  31.83000 2.49700 30.51800
C  33.17200 2.26900 30.73000
C  30.15400 2.62700 28.53900
C  31.14700 2.80200 31.81000
O  29.96600 2.92900 32.06000
C  32.32900 2.84300 32.81200
C  32.30400 4.13200 33.51200
O  32.88800 5.12800 33.19700
O  31.60100 4.00100 34.75300
C  31.33200 5.14700 35.63300
H  39.18100 1.93100 32.44800
H  38.52100 0.82900 26.03000
H  32.24400 1.63100 26.54600
H  35.14000 3.40000 34.30700
H  37.34600 1.37800 34.23300
H  38.35600 3.18600 35.15500
H  37.09900 4.41100 34.50500
H  38.49000 4.02600 33.67100
H  35.45800 0.25400 34.50400
H  33.89600 0.99600 34.25500
H  34.62300 0.54300 36.69000
H  33.51600 1.83100 36.25900
H  42.11600 1.40100 30.58800
H  41.78200 -0.33100 30.61800
H  41.12900 0.63100 31.88000
H  42.61200 1.53100 28.57600
H  43.17600 0.59800 27.09900
H  42.59900 -0.28000 28.53000
H  36.54300 0.02500 24.53600
H  34.18900 1.89700 24.72000
H  37.13800 2.67300 24.81900
H  35.84100 2.47300 23.57600
H  37.36700 1.55700 23.41400
H  33.46800 -0.91000 25.40600
H  34.47900 -0.82700 24.10500
H  33.15300 -0.34200 22.67000
H  32.44300 1.08300 23.29700
H  31.78000 -0.56200 23.76200
H  29.68500 1.67600 28.28800
H  30.24600 3.24400 27.64500
H  29.48100 3.15800 29.21200
H  32.04700 2.08200 33.53900
H  31.69000 4.91600 36.63600
H  30.32800 5.57200 35.62100
H  31.89300 5.97800 35.20600

