158

Mg 0.80800 7.43000 24.93000
C  1.33000 9.16400 27.87100
C  1.06300 4.47900 26.77900
C  0.63200 5.69500 21.99500
C  1.06200 10.47700 23.09700
N  1.06500 6.93500 27.07700
C  1.25100 7.80200 28.10600
C  1.27400 7.08000 29.51000
C  1.23300 5.59300 29.05600
C  1.02700 5.68400 27.46100
C  2.43800 4.75100 29.43800
C  0.05700 7.37900 30.48900
C  0.42800 7.52600 31.98700
H  1.61000 6.78000 32.55600
N  0.68000 5.37400 24.47200
C  0.88500 4.36700 25.33800
C  0.91200 3.06400 24.63700
C  0.76600 3.36700 23.23500
C  0.68100 4.90200 23.16300
C  1.04500 1.76800 25.29000
C  0.62500 2.51400 22.01300
O  0.45000 2.93500 20.83200
C  0.45000 1.00900 22.18700
N  0.90700 7.96200 22.88800
C  0.65500 7.10500 21.88500
C  0.48600 7.83700 20.50000
C  0.59200 9.33100 20.87300
C  0.90400 9.28500 22.36800
C  1.36800 7.34900 19.31200
C  -0.49500 10.28000 20.33500
C  -1.95400 10.36300 20.94600
N  1.09100 9.42400 25.32100
C  1.17400 10.53100 24.55300
C  1.18900 11.72500 25.44600
C  1.30100 11.24100 26.72200
C  1.17900 9.85400 26.62000
C  1.22000 13.13700 25.03500
C  1.49500 11.62300 28.10800
O  1.63500 12.70100 28.66700
C  1.49200 10.27900 28.88700
C  2.66900 10.26300 29.84100
O  3.75900 9.72500 29.60600
O  2.27100 10.89400 31.01300
C  3.26500 11.04600 32.12100
H  1.13100 3.58500 27.40200
H  0.49000 5.23100 21.01600
H  0.97600 11.47600 22.66300
H  2.26200 7.31300 29.90700
H  0.30000 5.11000 29.34600
H  2.10800 3.94500 30.09300
H  3.11100 5.37500 30.02600
H  3.03500 4.31500 28.63600
H  -0.80800 6.71800 30.42900
H  -0.25600 8.37900 30.18700
H  -0.35100 7.00400 32.54300
H  0.44600 8.59500 32.19700
H  0.49100 0.95400 24.82200
H  0.58700 1.73200 26.27900
H  2.08900 1.46200 25.23000
H  1.33200 0.67700 22.73600
H  0.45900 0.65800 21.15500
H  -0.48800 0.70000 22.64900
H  -0.55900 7.71100 20.21700
H  1.51200 9.72400 20.44000
H  1.86100 6.40400 19.54000
H  2.08800 8.14600 19.12400
H  0.70200 7.15000 18.47300
H  -0.55500 9.95300 19.29700
H  -0.07400 11.28500 20.33900
H  -2.00000 9.53800 21.65700
H  -2.73000 10.23000 20.19200
H  -2.15800 11.33000 21.40600
H  2.19700 13.55100 25.28300
H  0.40100 13.56600 25.61200
H  1.01300 13.32300 23.98100
H  0.60000 10.23600 29.51200
H  4.18700 11.43200 31.68600
H  3.45800 10.03900 32.49000
H  2.84300 11.60800 32.95400
Mg 43.87000 3.87200 46.83300
C  41.45000 6.51600 46.66000
C  41.22400 1.71900 46.42600
C  46.15500 1.56200 46.17900
C  46.39700 6.44200 46.84000
N  41.52000 4.09800 46.61500
C  40.84700 5.29600 46.56500
C  39.30200 5.03200 46.44700
C  39.22200 3.41900 46.66300
C  40.70800 3.00300 46.44700
C  38.66200 2.94100 47.99300
C  38.65200 5.57800 45.15400
C  39.36800 5.33300 43.83100
H  39.52600 6.51500 42.96000
N  43.70300 1.84100 46.46100
C  42.52200 1.18200 46.33000
C  42.84200 -0.16700 45.94600
C  44.21000 -0.23400 45.67400
C  44.75900 1.07900 46.11600
C  41.80200 -1.25100 45.69600
C  45.05300 -1.41000 44.98300
O  44.47500 -2.44100 44.61300
C  46.49000 -1.32600 44.75300
N  45.98000 4.00300 46.58600
C  46.69000 2.90000 46.41700
C  48.24200 3.16000 46.49100
C  48.26400 4.66200 46.90100
C  46.79800 5.06000 46.76300
C  49.00000 2.27100 47.43300
C  49.25700 5.43700 46.02300
C  50.16700 6.36100 46.86500
N  44.00200 6.05600 46.72300
C  45.06300 6.91800 46.76700
C  44.59100 8.27600 46.81200
C  43.15500 8.19100 46.78400
C  42.87300 6.76200 46.72300
C  45.54400 9.49800 46.89000
C  41.90300 8.92500 46.73800
O  41.63800 10.11900 46.60900
C  40.79500 7.84000 46.79000
C  39.99800 7.91000 48.04000
O  40.36100 7.73800 49.17100
O  38.79700 8.35600 47.74400
C  37.67700 8.12500 48.71400
H  40.35100 1.06900 46.34400
H  46.86900 0.75400 46.01100
H  47.25000 7.09700 47.03200
H  38.83900 5.59000 47.26100
H  38.63500 3.09300 45.80500
H  37.82900 3.62300 48.16700
H  39.42500 3.03400 48.76600
H  38.35100 1.89700 47.94700
H  38.43800 6.64300 45.23800
H  37.64600 5.17000 45.06500
H  38.76800 4.59000 43.30600
H  40.32000 4.86500 44.08100
H  41.85900 -1.69800 44.70400
H  40.75700 -0.95700 45.79300
H  42.01000 -2.11400 46.32900
H  46.99700 -1.26600 45.71600
H  46.72600 -0.45800 44.13700
H  46.76700 -2.29400 44.33500
H  48.67900 2.95600 45.51400
H  48.47100 4.69000 47.97100
H  49.96100 2.69300 47.72900
H  49.24500 1.33700 46.92700
H  48.42400 2.01500 48.32100
H  48.63600 6.07000 45.39000
H  49.83000 4.77000 45.37700
H  51.17300 5.98900 46.67300
H  50.04900 6.48300 47.94200
H  50.03600 7.29800 46.32400
H  46.05300 9.38000 47.84600
H  45.02300 10.45300 46.81700
H  46.25600 9.42300 46.06800
H  40.07900 7.93500 45.97300
H  37.75500 8.69300 49.64100
H  37.58100 7.07400 48.98300
H  36.73700 8.36000 48.21400

