158

Mg 41.17800 7.18700 29.29000
C  42.53800 8.82000 32.10100
C  38.75300 5.87300 31.27600
C  40.03800 5.66400 26.61500
C  44.19500 7.99700 27.58800
N  40.71400 7.27200 31.48000
C  41.31000 8.10800 32.32900
C  40.62600 7.93100 33.68600
C  39.58800 6.83300 33.50600
C  39.66400 6.65400 32.04800
C  39.83200 5.57200 34.32800
C  39.98800 9.19100 34.38700
C  40.19100 9.17200 35.98400
H  40.67700 10.49000 36.62300
N  39.60900 6.01700 28.96500
C  38.73300 5.59500 29.87200
C  37.62800 4.97000 29.17000
C  37.81800 5.03500 27.80400
C  39.22600 5.57700 27.68300
C  36.49900 4.29600 29.91300
C  36.89800 4.75700 26.63600
O  37.30600 4.69200 25.46400
C  35.48900 4.49600 26.98300
N  42.05300 6.75100 27.42500
C  41.34300 6.09900 26.50500
C  42.04800 6.20300 25.10600
C  43.23800 7.10100 25.38400
C  43.22000 7.26900 26.88300
C  42.44300 4.76000 24.52600
C  43.07500 8.48200 24.57300
C  42.16700 9.56000 25.19500
N  43.00200 8.17900 29.67600
C  44.09600 8.41700 28.90300
C  45.00600 9.23700 29.60600
C  44.43300 9.49000 30.86400
C  43.19000 8.72900 30.85100
C  46.31500 9.65300 29.19100
C  44.63300 10.11600 32.13000
O  45.52000 10.86600 32.48800
C  43.45400 9.66200 33.05100
C  44.07700 8.96900 34.25000
O  44.65500 7.85400 34.17300
O  43.67600 9.62500 35.43000
C  44.11700 8.87700 36.59500
H  38.03300 5.41000 31.95300
H  39.53400 5.36300 25.69300
H  45.04700 8.32600 26.99000
H  41.46500 7.64800 34.32000
H  38.57100 7.18500 33.67900
H  39.78300 4.63700 33.77000
H  39.07100 5.44400 35.09700
H  40.72800 5.57700 34.94900
H  38.90300 9.08500 34.38900
H  40.27700 10.16400 33.99000
H  40.79900 8.33100 36.31700
H  39.32000 8.76000 36.49500
H  36.64400 4.10300 30.97600
H  36.38800 3.30300 29.47800
H  35.52300 4.75000 29.74500
H  35.15400 5.28100 27.66100
H  35.27100 3.49100 27.34300
H  34.93800 4.63400 26.05200
H  41.34600 6.70200 24.43800
H  44.21600 6.67300 25.16800
H  42.30300 3.92700 25.21600
H  43.48100 4.69400 24.20000
H  41.83800 4.59400 23.63500
H  42.56600 8.18100 23.65700
H  44.07200 8.87700 24.37900
H  41.88100 9.29200 26.21200
H  41.33500 9.74700 24.51600
H  42.71800 10.49400 25.08500
H  46.64700 8.92700 28.44800
H  47.10300 9.62600 29.94300
H  46.20400 10.62900 28.71900
H  43.03300 10.61100 33.38200
H  43.92700 7.80400 36.55700
H  43.59200 9.19800 37.49500
H  45.16000 9.11700 36.80000
Mg 35.84900 49.22000 25.47800
C  35.87400 47.56900 28.54800
C  34.73000 52.14200 27.20000
C  35.34700 50.75000 22.54200
C  36.28800 46.14300 23.84100
N  35.35400 49.74200 27.61200
C  35.53400 48.94700 28.64800
C  35.47800 49.74200 30.02200
C  35.07900 51.21100 29.52400
C  35.00700 51.00700 27.96400
C  33.73600 51.75000 30.11100
C  36.84200 49.86400 30.79200
C  36.84400 49.59100 32.27800
H  35.45400 49.57200 33.04200
N  35.23100 51.19300 24.89200
C  34.87600 52.24100 25.74900
C  34.46100 53.38800 24.95900
C  34.68000 53.01700 23.60100
C  35.09900 51.61100 23.61200
C  33.92600 54.68600 25.55500
C  34.48100 53.88100 22.35700
O  34.56600 53.43900 21.20700
C  34.18100 55.41100 22.48200
N  35.85700 48.58000 23.54200
C  35.64800 49.36800 22.45800
C  35.79600 48.70800 21.10800
C  36.43400 47.37300 21.60000
C  36.19700 47.33800 23.11100
C  34.44800 48.65700 20.25500
C  37.93600 47.33600 21.25600
C  38.44600 46.36300 20.21000
N  36.07000 47.24700 26.03500
C  36.23700 46.04600 25.29200
C  36.47200 44.96900 26.16100
C  36.36900 45.53800 27.49200
C  36.14100 46.87200 27.36600
C  36.94200 43.58500 25.77300
C  36.44400 45.19700 28.87900
O  36.63400 44.10300 29.42400
C  36.18500 46.58700 29.62800
C  35.05100 46.21300 30.59300
O  33.87400 46.30800 30.43000
O  35.60200 45.82400 31.77100
C  34.64000 45.34900 32.81500
H  34.46000 53.05100 27.74000
H  35.38300 51.20800 21.55100
H  36.57700 45.22500 23.32400
H  34.67700 49.32400 30.63200
H  35.88000 51.93900 29.65700
H  32.89300 51.33900 29.55400
H  33.76200 52.83100 29.97300
H  33.51700 51.32800 31.09200
H  37.30400 50.84700 30.69000
H  37.55300 49.15900 30.36100
H  37.54000 50.24500 32.80300
H  37.28000 48.59900 32.39300
H  34.07900 54.70900 26.63400
H  32.84300 54.75400 25.45800
H  34.37700 55.54600 25.05900
H  33.21700 55.43500 22.99000
H  34.10500 55.83600 21.48100
H  35.05000 55.80200 23.01100
H  36.49300 49.29900 20.51400
H  35.78100 46.62400 21.15200
H  34.11600 47.62200 20.18600
H  34.72800 49.09000 19.29400
H  33.75600 49.31600 20.77900
H  38.39000 47.22800 22.24200
H  38.16800 48.32800 20.87000
H  37.60000 46.02700 19.60900
H  38.97200 45.55700 20.72200
H  39.15600 46.96800 19.64700
H  37.72100 43.23300 26.45000
H  37.28400 43.47900 24.74300
H  36.11200 42.89200 25.91600
H  37.11000 46.90200 30.11100
H  33.80100 46.03900 32.90600
H  35.15200 45.33600 33.77700
H  34.20300 44.38100 32.57200

