158

Mg 30.34900 57.99100 40.66700
C  27.29000 56.38000 39.59000
C  31.87800 55.02600 39.53300
C  33.21400 59.71200 40.34900
C  28.54700 60.78500 41.15600
N  29.65000 55.92100 39.67800
C  28.39100 55.55500 39.30400
C  28.40400 54.25600 38.56500
C  29.76400 53.63600 38.87700
C  30.48900 54.88600 39.46900
C  29.88700 52.34800 39.81100
C  28.13200 54.46000 36.99200
C  27.11300 53.61900 36.19300
H  26.08300 54.34600 35.19600
N  32.33800 57.38400 40.07600
C  32.71100 56.14700 39.76700
C  34.11000 56.25000 39.49400
C  34.57800 57.52000 39.85700
C  33.34700 58.28100 40.09100
C  34.88700 55.17400 38.89100
C  36.03400 58.05100 39.66500
O  36.90500 57.24000 39.32500
C  36.43500 59.41500 39.98500
N  30.81400 60.04600 40.79600
C  32.05500 60.50700 40.71200
C  32.10500 62.00100 41.13500
C  30.59500 62.29100 41.45900
C  29.92800 60.97400 41.09300
C  33.07900 62.40900 42.21300
C  30.03500 63.48800 40.74500
C  29.68900 63.42900 39.27100
N  28.28900 58.50200 40.65300
C  27.77600 59.69900 40.86900
C  26.37300 59.64000 40.51000
C  26.14300 58.35400 40.04600
C  27.32300 57.66900 40.10300
C  25.24500 60.72200 40.53700
C  25.10800 57.50100 39.54000
O  23.95000 57.76800 39.29800
C  25.79900 56.12400 39.16900
C  25.32500 55.03100 40.06100
O  25.21500 55.07400 41.31500
O  24.87700 53.94800 39.39400
C  24.36500 52.83800 40.19700
H  32.24500 54.04000 39.23900
H  34.03600 60.41200 40.18400
H  28.05300 61.69700 41.49500
H  27.58800 53.66300 38.97700
H  30.30000 53.47100 37.94200
H  30.82800 52.43600 40.35500
H  29.63600 51.48100 39.20100
H  28.99800 52.42900 40.43700
H  29.10100 54.57700 36.50700
H  27.73200 55.46800 36.88600
H  26.43400 53.20600 36.93900
H  27.68500 52.82500 35.71300
H  35.37100 55.48900 37.96700
H  34.33000 54.28100 38.60700
H  35.55300 54.76200 39.64900
H  37.48100 59.32000 40.27800
H  35.85500 59.67600 40.87000
H  36.28700 60.16600 39.20800
H  32.27400 62.48800 40.17500
H  30.54800 62.35300 42.54600
H  33.69500 63.17600 41.74400
H  33.67300 61.50400 42.34300
H  32.80100 62.95200 43.11700
H  30.71200 64.34100 40.81000
H  29.17500 63.91200 41.26300
H  30.26300 64.17100 38.71600
H  28.64600 63.56200 38.98600
H  29.97200 62.42000 38.97000
H  25.45300 61.65400 40.01200
H  24.99100 60.97000 41.56700
H  24.28900 60.36400 40.15400
H  25.50900 55.90900 38.14000
H  24.98200 52.73500 41.09000
H  24.60400 51.89000 39.71400
H  23.27900 52.90900 40.25700
Mg -6.40000 24.72400 26.71300
C  -4.65600 26.33700 29.38900
C  -7.82000 22.68500 29.23200
C  -7.96100 23.14400 24.23700
C  -4.59600 26.59000 24.43600
N  -6.20600 24.46700 29.12300
C  -5.49100 25.34100 29.91100
C  -5.80400 25.09200 31.39300
C  -6.52100 23.69500 31.29200
C  -7.01600 23.65300 29.82700
C  -5.85600 22.36000 31.81000
C  -6.73500 26.23500 32.03400
C  -6.27600 26.77500 33.33000
H  -5.84700 25.81100 34.40800
N  -7.68600 23.10600 26.75000
C  -8.17500 22.46700 27.88000
C  -9.28600 21.55900 27.47500
C  -9.34400 21.66000 26.03700
C  -8.30700 22.63400 25.61000
C  -10.12800 20.63400 28.40800
C  -10.09000 20.84400 25.01000
O  -10.06200 21.06300 23.78900
C  -10.87400 19.66200 25.52400
N  -6.38100 24.85100 24.56400
C  -7.20200 24.18700 23.79000
C  -6.75100 24.45000 22.27600
C  -5.70500 25.54200 22.42100
C  -5.55200 25.67800 23.91200
C  -6.35600 23.21000 21.49600
C  -6.07300 26.92100 21.85100
C  -5.55900 27.20900 20.44300
N  -4.93700 26.13000 26.79200
C  -4.29700 26.86100 25.79700
C  -3.38100 27.84500 26.41500
C  -3.55300 27.69500 27.74200
C  -4.47000 26.65800 27.98200
C  -2.48900 28.81800 25.72600
C  -3.05500 28.25300 29.00100
O  -2.19400 29.06500 29.22500
C  -3.84200 27.38900 30.09600
C  -2.82000 26.85600 31.06900
O  -1.94900 26.02700 30.78800
O  -3.10800 27.16500 32.35700
C  -2.16800 26.50900 33.34100
H  -8.29800 22.22600 30.10000
H  -8.39500 22.60400 23.39300
H  -4.22200 27.15600 23.58000
H  -4.81100 24.86400 31.78000
H  -7.35500 23.88400 31.96700
H  -5.16500 22.47100 32.64600
H  -5.22800 22.00400 30.99300
H  -6.47600 21.49800 32.05500
H  -7.76600 25.89200 32.12800
H  -6.82900 27.11600 31.40000
H  -7.14900 27.32100 33.68600
H  -5.44700 27.46200 33.16400
H  -11.17600 20.65700 28.11100
H  -10.30100 21.09300 29.38200
H  -9.82400 19.58900 28.46800
H  -10.27900 19.11000 26.25200
H  -11.18100 19.02500 24.69500
H  -11.71300 20.15300 26.01600
H  -7.68100 24.81700 21.84300
H  -4.78800 25.18300 21.95300
H  -7.00200 23.02700 20.63700
H  -6.12000 22.28400 22.02200
H  -5.39100 23.43600 21.04100
H  -5.74800 27.76500 22.46100
H  -7.16100 26.89400 21.79700
H  -6.35000 27.29000 19.69700
H  -4.84900 26.45900 20.09300
H  -5.12400 28.20900 20.44100
H  -1.54600 28.78600 26.27200
H  -2.87300 29.82700 25.87400
H  -2.33000 28.56900 24.67700
H  -4.51400 28.06300 30.62600
H  -2.44900 25.45600 33.31600
H  -2.28600 26.84600 34.37100
H  -1.16000 26.70700 32.97500

