158

Mg 54.65200 23.84000 44.73300
C  52.18200 26.09900 43.51300
C  53.13100 21.31300 43.01400
C  57.58900 21.98400 44.94700
C  56.48500 26.55500 45.92700
N  52.85700 23.78800 43.46600
C  51.95700 24.79500 43.10800
C  50.91900 24.22100 42.18900
C  51.04900 22.64900 42.26700
C  52.37400 22.54100 43.04100
C  49.92200 22.12200 43.13300
C  51.29400 24.74500 40.68800
C  50.12800 25.16200 39.77500
H  50.63200 25.55700 38.34000
N  55.20300 21.86900 44.23500
C  54.44000 20.95500 43.50400
C  55.08700 19.68800 43.57300
C  56.37000 19.91300 44.13100
C  56.38100 21.32400 44.51800
C  54.52000 18.52600 42.88900
C  57.42300 18.87000 44.32200
O  57.27800 17.70800 43.96300
C  58.64200 19.10700 45.18500
N  56.82200 24.27700 45.29800
C  57.78600 23.33900 45.25400
C  59.07800 23.90900 45.81800
C  58.74500 25.38000 45.96200
C  57.25000 25.43400 45.75600
C  59.39100 23.27300 47.17700
C  59.64400 26.31400 44.93200
C  59.94200 27.60400 45.67600
N  54.43900 25.88700 44.79300
C  55.19700 26.85700 45.45600
C  54.36700 28.03700 45.67700
C  53.27800 27.80400 44.79900
C  53.29300 26.49800 44.35000
C  54.61000 29.25900 46.39400
C  52.08600 28.45900 44.25100
O  51.61300 29.57300 44.27800
C  51.35700 27.34200 43.45800
C  51.16700 27.94200 42.06800
O  52.02400 28.47600 41.39900
O  49.87700 27.74500 41.72800
C  49.41300 28.48100 40.58500
H  52.54600 20.55500 42.49000
H  58.52600 21.43300 45.05400
H  56.94200 27.42500 46.40300
H  49.90200 24.51500 42.44600
H  51.16700 22.13700 41.31200
H  48.96100 22.58600 42.91000
H  50.24200 22.38000 44.14300
H  49.80600 21.04700 42.99500
H  51.81400 23.94500 40.16000
H  52.05100 25.52000 40.80200
H  49.61600 26.00500 40.24000
H  49.44600 24.31200 39.74300
H  55.01400 18.41400 41.92400
H  53.45700 18.72400 42.75200
H  54.74300 17.65800 43.51000
H  58.32600 19.65500 46.07300
H  59.43400 19.54900 44.58000
H  59.05000 18.11300 45.36600
H  59.96000 23.87400 45.17800
H  58.86300 25.61800 47.01900
H  60.40500 23.60200 47.40600
H  59.36100 22.18400 47.17600
H  58.70600 23.68300 47.91900
H  59.08000 26.63300 44.05500
H  60.53600 25.83900 44.52300
H  59.26600 28.42600 45.43800
H  60.95200 27.96500 45.47900
H  59.89600 27.50000 46.76000
H  53.86800 29.37600 47.18500
H  54.55800 30.17300 45.80200
H  55.60800 29.14900 46.82000
H  50.35800 27.09100 43.81400
H  49.30700 29.54700 40.78400
H  48.41100 28.11700 40.35700
H  50.01900 28.24900 39.70900
Mg 48.41400 34.74800 26.55600
C  46.78700 33.46700 29.51100
C  48.93200 37.67200 28.48000
C  49.36500 36.34800 23.84000
C  47.41600 32.03100 24.93700
N  48.04500 35.41800 28.77200
C  47.39400 34.67300 29.79400
C  47.65500 35.32500 31.11700
C  47.76400 36.81000 30.55100
C  48.33700 36.66000 29.17000
C  46.54500 37.75400 30.56700
C  48.99000 34.76900 31.72900
C  48.97400 34.70800 33.32000
H  47.99800 35.55700 34.01000
N  49.12200 36.70500 26.21300
C  49.29700 37.73500 27.12500
C  50.01300 38.80800 26.52400
C  50.23700 38.41000 25.17000
C  49.52600 37.11800 24.95400
C  50.54300 40.04400 27.31000
C  50.95400 39.19000 24.07200
O  51.03100 38.74600 22.92200
C  51.47700 40.55700 24.33700
N  48.08500 34.35800 24.55300
C  48.86300 35.02500 23.63900
C  48.96800 34.21900 22.31000
C  48.21400 32.87000 22.66700
C  47.98700 33.08500 24.14500
C  48.43800 35.03300 21.03700
C  48.98300 31.51900 22.22100
C  50.48400 31.39100 22.62800
N  47.18900 33.13700 27.00500
C  46.94400 32.01200 26.23200
C  46.24700 30.97300 26.98700
C  46.01000 31.57600 28.27200
C  46.70300 32.86600 28.24000
C  45.82500 29.58600 26.64500
C  45.40300 31.49900 29.54500
O  44.76300 30.57200 30.01300
C  45.72900 32.82500 30.31700
C  45.86200 32.62200 31.73100
O  46.91000 32.32100 32.30000
O  44.61900 32.66700 32.31000
C  44.53000 31.95400 33.57600
H  48.91800 38.58900 29.07400
H  49.80800 36.76800 22.93500
H  47.22600 31.11700 24.36900
H  46.77900 35.27900 31.76400
H  48.46500 37.29400 31.23100
H  46.09800 37.85500 29.57800
H  46.80300 38.78100 30.82800
H  45.83700 37.29200 31.25500
H  49.89700 35.28000 31.40500
H  49.11100 33.73700 31.40000
H  49.94200 35.02600 33.70500
H  48.76800 33.69400 33.66400
H  51.62100 39.99100 27.46700
H  49.89700 40.15800 28.18100
H  50.30300 41.00700 26.85900
H  50.74500 41.19000 24.84000
H  51.82100 40.96700 23.38700
H  52.39000 40.44400 24.92200
H  50.03500 34.09500 22.12900
H  47.25900 32.88800 22.14200
H  48.20900 36.02000 21.44000
H  47.50400 34.69800 20.58500
H  49.21500 35.18600 20.28800
H  48.87700 31.40100 21.14200
H  48.42800 30.66300 22.60500
H  51.07300 31.35300 21.71200
H  50.73300 30.48900 23.18700
H  50.82100 32.27500 23.16900
H  46.32400 29.48000 25.68200
H  44.76300 29.34500 26.68900
H  46.40700 28.90500 27.26600
H  44.89200 33.51800 30.22900
H  44.74700 30.91100 33.34700
H  43.52800 31.96900 34.00400
H  45.14400 32.39900 34.35900

