158

Mg 2.39100 -2.24600 43.92000
C  5.83200 -1.71200 43.71700
C  1.93700 0.35900 41.89500
C  -0.82600 -2.92800 44.01000
C  3.04900 -5.46800 45.33000
N  3.76000 -0.95800 42.69400
C  5.11100 -0.84100 42.91400
C  5.62200 0.32300 42.03100
C  4.30400 1.10600 41.64900
C  3.25300 0.07800 42.06900
C  4.21700 2.42800 42.41100
C  6.33100 -0.31400 40.72500
C  7.67800 0.40400 40.35200
H  8.13000 0.48500 38.85500
N  0.69000 -1.41800 43.05300
C  0.75800 -0.24500 42.35200
C  -0.62800 0.12000 42.11700
C  -1.50000 -0.82000 42.74100
C  -0.59000 -1.76200 43.28900
C  -1.02400 1.43000 41.45800
C  -3.03900 -0.77300 42.80200
O  -3.67700 0.07200 42.11200
C  -3.96700 -1.76400 43.50500
N  1.25000 -3.99400 44.55600
C  -0.09000 -3.98500 44.51000
C  -0.65500 -5.34400 44.93400
C  0.61100 -6.25400 45.36100
C  1.77100 -5.17300 45.05700
C  -1.78800 -5.36500 45.91300
C  0.88100 -7.67800 44.67500
C  1.52100 -8.81100 45.59700
N  4.09600 -3.41900 44.46400
C  4.21800 -4.59000 45.14700
C  5.65000 -4.79500 45.45100
C  6.36900 -3.63800 45.01300
C  5.34700 -2.88000 44.35300
C  6.24400 -5.92200 46.21000
C  7.63000 -2.95600 44.98400
O  8.71400 -3.15200 45.50700
C  7.37800 -1.68400 44.13600
C  7.64500 -0.49500 45.04300
O  7.22200 -0.25200 46.15200
O  8.34700 0.40600 44.23800
C  8.48900 1.75400 44.74100
H  1.70600 1.20300 41.24200
H  -1.89800 -3.13500 43.99600
H  3.38200 -6.40700 45.77700
H  6.37900 0.81500 42.64200
H  4.11600 1.35100 40.60400
H  3.32500 3.03900 42.26700
H  5.09700 3.03000 42.18300
H  4.31900 2.18000 43.46700
H  5.63100 -0.19800 39.89800
H  6.48900 -1.38500 40.84800
H  8.46200 -0.07900 40.93500
H  7.59600 1.40300 40.77800
H  -1.62100 2.06100 42.11600
H  -1.59500 1.28100 40.54100
H  -0.14600 2.00600 41.16600
H  -4.00100 -2.73000 43.00200
H  -4.93200 -1.27300 43.63400
H  -3.44300 -1.87300 44.45500
H  -1.10300 -5.63500 43.98500
H  0.48600 -6.42400 46.43100
H  -1.79900 -4.54900 46.63500
H  -1.90500 -6.39300 46.25600
H  -2.67100 -5.10300 45.33000
H  1.52300 -7.44000 43.82600
H  -0.03900 -8.10900 44.27900
H  2.28300 -9.34600 45.03000
H  0.76700 -9.56500 45.81900
H  1.99400 -8.48700 46.52400
H  6.50200 -6.69400 45.48400
H  5.48500 -6.31000 46.89000
H  7.13800 -5.61800 46.75500
H  8.01800 -1.73000 43.25400
H  8.40800 1.83400 45.82500
H  7.78800 2.49400 44.35500
H  9.44100 2.13000 44.36800
Mg 16.80900 -1.26600 27.28300
C  15.60700 0.69900 30.13200
C  18.91700 -2.86800 29.34700
C  17.90700 -2.87700 24.56800
C  14.70200 0.76500 25.33000
N  17.16600 -1.09000 29.52900
C  16.50400 -0.36700 30.45100
C  17.06100 -0.60000 31.87500
C  18.22400 -1.70800 31.58900
C  18.11400 -1.95400 30.08400
C  19.60700 -1.38500 32.14500
C  15.91900 -1.04000 32.94100
C  16.03800 -0.46700 34.36400
H  17.40700 0.13600 34.86700
N  18.28400 -2.60800 26.99400
C  18.99400 -3.23200 27.96300
C  19.83000 -4.15700 27.42500
C  19.54400 -4.16200 26.05300
C  18.54400 -3.21300 25.81200
C  20.81200 -5.07700 28.26400
C  20.11500 -5.01300 25.03900
O  19.73800 -5.07100 23.86400
C  21.22900 -6.01300 25.39100
N  16.39400 -0.99100 25.23000
C  16.93900 -1.84800 24.29300
C  16.47400 -1.51400 22.88400
C  15.42000 -0.36900 23.17400
C  15.50000 -0.19200 24.63200
C  17.50800 -1.10200 21.93600
C  14.05800 -0.72300 22.60800
C  13.15900 -1.70000 23.41900
N  15.39400 0.32700 27.57700
C  14.70000 1.08200 26.71400
C  13.90100 2.10100 27.35200
C  14.24100 2.01500 28.66300
C  15.09500 0.91000 28.80700
C  12.95800 3.03500 26.67100
C  14.04000 2.57700 29.95500
O  13.30900 3.51100 30.29200
C  14.92700 1.69800 30.98800
C  15.75700 2.74900 31.62400
O  16.70300 3.36800 31.24900
O  15.05900 3.06600 32.73600
C  15.46700 4.20600 33.62000
H  19.64800 -3.34600 30.00300
H  18.02500 -3.40800 23.62000
H  14.07100 1.33400 24.64300
H  17.44000 0.38200 32.15900
H  17.93200 -2.64600 32.06100
H  19.92500 -2.18200 32.81700
H  19.64000 -0.46100 32.72300
H  20.26100 -1.37500 31.27300
H  16.12100 -2.09600 33.12000
H  15.01000 -0.76800 32.40500
H  15.62300 -1.17100 35.08600
H  15.39900 0.41500 34.31500
H  20.51500 -6.12400 28.20100
H  20.67900 -4.88700 29.32900
H  21.83500 -4.88500 27.94100
H  20.90300 -6.72900 26.14500
H  21.98200 -5.31100 25.74900
H  21.68800 -6.48800 24.52400
H  15.94600 -2.41800 22.57900
H  15.73700 0.57600 22.73300
H  18.47100 -1.07100 22.44400
H  17.22700 -0.13900 21.50900
H  17.61100 -1.88000 21.17900
H  14.19000 -1.14700 21.61300
H  13.52200 0.21000 22.43900
H  12.34200 -1.14500 23.88100
H  13.77000 -2.22100 24.15700
H  12.78300 -2.38600 22.66100
H  12.29000 3.52000 27.38200
H  12.27500 2.46200 26.04300
H  13.40000 3.88800 26.15600
H  14.20800 1.25300 31.67600
H  15.12300 4.11300 34.65000
H  15.22800 5.20000 33.24000
H  16.55700 4.22700 33.64300

