158

Mg 41.50800 40.44300 27.27500
C  41.02300 43.09200 29.59300
C  42.06000 38.34700 29.91100
C  42.38100 38.22200 24.98800
C  41.17900 42.89200 24.67700
N  41.61200 40.73300 29.50400
C  41.25200 41.84500 30.18800
C  41.16700 41.50600 31.72900
C  41.71900 40.01800 31.81100
C  41.78900 39.66500 30.31500
C  43.01600 39.83800 32.66000
C  39.76400 41.68400 32.42900
C  39.67200 42.57900 33.65600
H  39.24200 41.96500 34.94100
N  42.03700 38.55000 27.46700
C  42.24600 37.83000 28.62400
C  42.57500 36.49500 28.22700
C  42.67800 36.42300 26.80700
C  42.32300 37.75200 26.31400
C  42.75200 35.37900 29.35100
C  43.02400 35.20800 25.92600
O  43.04400 35.12600 24.69200
C  43.28900 33.92200 26.65400
N  41.79200 40.61800 25.10600
C  42.10600 39.49800 24.41300
C  42.28000 39.76400 22.88300
C  41.86700 41.30600 22.79300
C  41.53200 41.63100 24.29100
C  43.78800 39.45900 22.44300
C  40.68700 41.48800 21.78100
C  39.37300 41.04100 22.35300
N  41.10500 42.55900 27.11100
C  41.00300 43.36000 26.03100
C  40.78600 44.74200 26.49900
C  40.71400 44.61600 27.86500
C  41.01900 43.30700 28.19100
C  40.61600 45.91600 25.55000
C  40.52300 45.42500 29.04000
O  40.24900 46.60000 29.20900
C  40.67100 44.38500 30.23500
C  41.63300 44.77700 31.32200
O  42.84700 44.79400 31.24200
O  40.92300 45.32300 32.31100
C  41.78900 45.96500 33.37600
H  42.17200 37.66900 30.75900
H  42.77500 37.51700 24.25300
H  40.95900 43.50100 23.79800
H  41.96800 42.14500 32.10300
H  40.87100 39.46000 32.20800
H  43.90200 39.77900 32.02900
H  42.86100 38.81700 33.00800
H  43.09100 40.55400 33.47800
H  39.37000 40.74100 32.80800
H  39.06700 42.04700 31.67300
H  38.80800 43.22600 33.50400
H  40.52100 43.20800 33.92300
H  42.05000 34.54600 29.31800
H  42.80800 35.83700 30.33800
H  43.71400 35.02300 28.98100
H  44.31300 33.96000 27.02500
H  43.23100 33.08400 25.96000
H  42.54100 33.76100 27.43000
H  41.52200 39.12900 22.42400
H  42.66200 41.95000 22.42000
H  44.40300 39.00800 23.22200
H  44.29000 40.37300 22.12600
H  43.79300 38.79400 21.57900
H  40.97400 41.01400 20.84300
H  40.53100 42.54300 21.55400
H  38.75500 41.93100 22.24000
H  39.47700 40.71100 23.38700
H  38.95100 40.19900 21.80400
H  39.66500 45.91900 25.01700
H  41.38600 45.98900 24.78100
H  40.64500 46.81600 26.16400
H  39.68900 44.12000 30.62700
H  42.05000 45.23700 34.14300
H  41.31300 46.73500 33.98300
H  42.78100 46.25700 33.03000
Mg 26.10500 50.51400 27.55400
C  23.85600 51.91600 29.89900
C  28.21400 49.77800 29.99100
C  28.30600 49.74500 25.16200
C  23.93300 51.95800 25.00900
N  25.93100 50.72200 29.77900
C  25.00500 51.33200 30.56700
C  25.21100 51.02800 32.09000
C  26.69100 50.42200 32.04200
C  27.00100 50.34300 30.54500
C  27.86000 51.12300 32.84500
C  24.16000 50.10100 32.80600
C  23.78800 50.45600 34.24100
H  24.80600 50.76500 35.27500
N  28.02300 49.62100 27.59700
C  28.75300 49.51300 28.68100
C  30.09200 49.03900 28.35400
C  30.11700 48.90200 26.88800
C  28.77700 49.41000 26.45700
C  31.20600 48.86000 29.38700
C  31.24000 48.34300 25.98300
O  31.14100 48.37800 24.79800
C  32.41600 47.47400 26.55400
N  26.19100 50.91300 25.38100
C  27.16900 50.36800 24.60600
C  26.75000 50.40200 23.14000
C  25.23700 50.73300 23.22800
C  25.10000 51.27500 24.65600
C  27.73500 51.21100 22.37000
C  24.20200 49.64800 22.77900
C  24.25700 49.02700 21.38000
N  24.32800 51.80300 27.41800
C  23.56000 52.23200 26.37200
C  22.39100 52.88900 26.82500
C  22.51600 52.83200 28.24000
C  23.70700 52.14600 28.52900
C  21.27400 53.30100 25.87600
C  21.86200 53.24400 29.46700
O  20.76700 53.71800 29.76200
C  22.67500 52.60400 30.61400
C  23.07100 53.70700 31.57100
O  23.82900 54.59800 31.43400
O  22.42800 53.36400 32.75800
C  22.74900 54.27000 33.88000
H  28.95200 49.56300 30.76700
H  28.97800 49.63600 24.30800
H  23.33100 52.27200 24.15400
H  25.14900 51.99600 32.58700
H  26.59100 49.42700 32.47600
H  28.79000 51.14500 32.27700
H  27.94100 50.89900 33.90800
H  27.46300 52.13800 32.88600
H  24.51200 49.08200 32.96500
H  23.24800 49.95000 32.22800
H  23.17300 49.68500 34.70500
H  23.17500 51.35700 34.25800
H  32.22200 48.68600 29.03400
H  31.08500 47.89000 29.87000
H  31.19200 49.66900 30.11700
H  33.14100 48.22500 26.86900
H  32.68600 46.92100 25.65500
H  31.96200 46.85600 27.32900
H  26.68100 49.37300 22.78800
H  25.05400 51.60000 22.59300
H  27.39500 52.19300 22.04000
H  27.92600 50.61000 21.48100
H  28.73000 51.27300 22.81100
H  23.26500 50.19800 22.86600
H  24.13100 48.87000 23.53800
H  24.36900 47.95500 21.54800
H  25.05500 49.42600 20.75500
H  23.36300 49.38500 20.86800
H  21.12000 52.52500 25.12500
H  21.45300 54.26400 25.39800
H  20.47400 53.47500 26.59500
H  22.07100 51.86200 31.13700
H  22.97300 55.29700 33.59100
H  23.61900 53.80400 34.34300
H  21.94900 54.25800 34.62000

