158

Mg 35.64300 2.92000 29.78100
C  33.33600 3.74600 32.23400
C  38.03200 2.63600 32.38700
C  37.80500 2.00400 27.50900
C  33.02400 2.85700 27.39000
N  35.67700 3.07100 32.03600
C  34.57700 3.42200 32.77100
C  34.95700 3.51600 34.27700
C  36.50200 3.36300 34.30800
C  36.74400 2.86300 32.88900
C  37.35000 4.64400 34.61200
C  34.28800 2.38100 35.13100
C  33.51000 2.72600 36.48100
H  34.13600 3.81000 37.46000
N  37.62900 2.54900 29.91100
C  38.42700 2.41400 31.02400
C  39.80800 2.12500 30.59300
C  39.81200 2.04100 29.12400
C  38.41100 2.22900 28.78500
C  40.90200 1.93300 31.52600
C  40.96300 1.74500 28.14100
O  40.77800 1.94500 26.98300
C  42.27700 1.19200 28.68800
N  35.41100 2.32300 27.76500
C  36.46100 2.00700 27.07400
C  36.14000 1.59300 25.59800
C  34.53900 1.69700 25.64100
C  34.26500 2.33800 26.99000
C  36.91600 2.27400 24.44400
C  33.64300 0.34300 25.47000
C  32.38500 0.36900 24.66800
N  33.67200 3.41000 29.71200
C  32.68400 3.35700 28.66700
C  31.36500 3.70900 29.20800
C  31.54800 3.96200 30.55800
C  32.97300 3.62200 30.84700
C  30.10100 3.77600 28.45300
C  31.02600 4.39800 31.78300
O  29.90200 4.76900 32.04100
C  32.06300 4.22600 32.91800
C  32.07500 5.43500 33.80700
O  32.66900 6.51700 33.58200
O  31.29800 5.19700 34.95000
C  31.38000 6.28200 35.98200
H  38.83000 2.52300 33.12400
H  38.44500 1.63700 26.70500
H  32.25700 2.70300 26.62800
H  34.57200 4.48200 34.60400
H  36.94700 2.64100 34.99400
H  38.07800 4.89400 33.84100
H  37.75800 4.64900 35.62300
H  36.69400 5.50600 34.49700
H  34.99500 1.59100 35.38300
H  33.63400 1.86400 34.42900
H  33.15000 1.83200 36.99200
H  32.61900 3.18300 36.05100
H  40.66300 1.05500 32.12700
H  40.91100 2.67500 32.32400
H  41.88700 1.88600 31.06100
H  42.85700 1.99600 29.14200
H  42.95800 0.67700 28.01100
H  41.94100 0.37500 29.32700
H  36.29800 0.52300 25.46200
H  34.16400 2.47900 24.98100
H  37.46500 3.05600 24.96800
H  36.20200 2.75900 23.77800
H  37.57200 1.54300 23.97200
H  33.34300 -0.02600 26.45000
H  34.33000 -0.31500 24.93700
H  32.53800 -0.20500 23.75500
H  32.10600 1.35700 24.30100
H  31.54800 0.04100 25.28600
H  29.31100 3.14400 28.85700
H  30.28800 3.55700 27.40200
H  29.66400 4.76900 28.34700
H  31.64600 3.50600 33.62200
H  30.73400 7.05300 35.56300
H  32.42400 6.53400 36.16600
H  30.94600 5.93500 36.92000
Mg 0.65900 42.94600 26.03200
C  2.75200 42.90400 28.97000
C  -1.85200 41.74600 28.30900
C  -1.27200 42.28200 23.41400
C  3.42000 43.42100 24.21600
N  0.47900 42.45400 28.43500
C  1.49900 42.50200 29.36600
C  0.94000 42.34100 30.81800
C  -0.45000 41.76500 30.49300
C  -0.69000 42.10100 28.99400
C  -0.65200 40.22400 30.83200
C  0.94400 43.78200 31.53600
C  1.00400 43.67500 33.07100
H  0.99200 42.28300 33.76200
N  -1.36300 42.26400 25.81600
C  -2.20700 41.93700 26.87600
C  -3.54600 41.66600 26.30100
C  -3.43500 41.82200 24.87300
C  -1.98800 42.08300 24.59600
C  -4.76400 41.47700 27.16500
C  -4.45800 41.63200 23.81600
O  -4.18600 41.57200 22.62000
C  -5.92600 41.34900 24.15500
N  1.17700 42.54600 24.09900
C  0.12600 42.58500 23.21500
C  0.72700 42.75300 21.76600
C  2.04600 43.51400 22.00000
C  2.22700 43.20300 23.55300
C  0.86000 41.48600 20.94200
C  1.96900 45.03100 21.66600
C  3.34800 45.59900 21.21700
N  2.72400 43.26200 26.44100
C  3.72400 43.46100 25.59100
C  4.99700 43.68000 26.26400
C  4.62900 43.57600 27.61800
C  3.23300 43.18800 27.69700
C  6.31600 44.04800 25.76100
C  5.19300 43.49000 28.95400
O  6.31600 43.58800 29.31400
C  3.96600 43.24300 29.86700
C  4.33100 42.16400 30.80000
O  4.38600 40.99200 30.51000
O  4.48500 42.70700 32.07100
C  5.17700 41.87100 33.07000
H  -2.62100 41.27400 28.92400
H  -1.80300 42.16100 22.46800
H  4.35400 43.60700 23.68200
H  1.65300 41.70300 31.33900
H  -1.21800 42.31600 31.03600
H  -1.35600 40.11200 31.65700
H  0.32100 39.87800 31.18100
H  -1.02800 39.70100 29.95200
H  0.12000 44.43400 31.24500
H  1.76700 44.39900 31.17400
H  0.42000 44.48100 33.51600
H  1.98600 44.02200 33.39500
H  -4.95200 40.40400 27.19100
H  -5.63900 41.88000 26.65500
H  -4.77600 41.85000 28.18900
H  -6.58800 41.15800 23.31000
H  -6.33000 42.12000 24.81100
H  -6.03100 40.43800 24.74400
H  0.02400 43.45200 21.31200
H  2.92500 43.05100 21.55300
H  0.28300 40.64600 21.32800
H  1.87100 41.13300 20.73800
H  0.39200 41.64200 19.97000
H  1.63400 45.51400 22.58400
H  1.19500 45.17800 20.91300
H  3.19000 45.84700 20.16700
H  4.10100 44.81300 21.28300
H  3.68500 46.47500 21.77100
H  6.28800 44.86900 25.04500
H  6.70600 43.13700 25.30700
H  7.04500 44.29600 26.53200
H  3.72200 44.15100 30.41900
H  6.24600 41.94300 32.86500
H  4.85600 40.83500 32.96800
H  5.01000 42.18200 34.10100

