158

Mg 45.37600 5.77900 49.09900
C  43.01200 8.26200 48.21400
C  42.97000 3.51200 48.53100
C  47.80600 3.37300 49.12900
C  47.75800 8.21200 49.38000
N  43.25600 5.90400 48.38900
C  42.44400 6.99500 48.21300
C  40.96100 6.58300 47.94800
C  41.06600 5.04800 48.12400
C  42.52200 4.78900 48.41600
C  40.07200 4.42000 49.22400
C  40.49600 7.01900 46.49300
C  39.07500 7.68800 46.30800
H  38.52400 7.54500 44.87900
N  45.28500 3.61300 48.98200
C  44.22900 2.90000 48.62800
C  44.63200 1.50200 48.62400
C  46.08000 1.41700 48.91900
C  46.48500 2.83900 49.01700
C  43.66600 0.37100 48.37800
C  46.83700 0.12900 49.18700
O  46.27300 -0.95500 49.02800
C  48.29900 0.16000 49.88700
N  47.47600 5.78600 49.39200
C  48.30400 4.67400 49.37000
C  49.79700 5.05300 49.21900
C  49.78300 6.52100 49.56500
C  48.27600 6.90700 49.51900
C  50.79600 4.15200 50.05800
C  50.69100 7.40900 48.67100
C  52.23000 7.28500 48.99700
N  45.42100 7.83700 48.93300
C  46.51200 8.65500 48.97200
C  46.11700 10.08000 48.66400
C  44.65000 9.92700 48.50300
C  44.33800 8.58400 48.54900
C  47.04200 11.28400 48.62900
C  43.45100 10.66500 48.19900
O  43.26700 11.85500 47.87200
C  42.28000 9.52700 48.04900
C  41.27600 9.73800 49.14000
O  41.17000 9.19000 50.17000
O  40.41000 10.62600 48.60600
C  39.10600 10.70000 49.36800
H  42.14500 2.81800 48.35400
H  48.62500 2.66000 49.24400
H  48.55100 8.95600 49.47400
H  40.28700 7.08700 48.64100
H  40.84400 4.60900 47.15100
H  39.34000 5.15400 49.56000
H  40.58600 4.08000 50.12300
H  39.51000 3.61200 48.75500
H  40.46600 6.11700 45.88200
H  41.22100 7.72400 46.08500
H  39.08900 8.74700 46.56600
H  38.50600 7.16100 47.07400
H  42.78900 0.79700 47.89000
H  43.31200 -0.11100 49.28900
H  43.96800 -0.33500 47.60400
H  49.02400 0.56400 49.18100
H  48.58700 -0.86400 50.12500
H  48.26900 0.82900 50.74700
H  49.99000 4.95300 48.15100
H  50.17000 6.62400 50.57800
H  51.58600 4.75600 50.50500
H  51.18200 3.38100 49.39200
H  50.12600 3.66800 50.76800
H  50.57300 8.49200 48.69800
H  50.46800 7.11200 47.64600
H  52.62300 6.64200 48.21000
H  52.54100 6.80500 49.92500
H  52.67400 8.27800 48.92900
H  48.10000 11.02700 48.57700
H  46.92400 12.00600 49.43600
H  46.66800 11.86200 47.78400
H  41.79400 9.53100 47.07400
H  39.34600 11.45800 50.11400
H  38.74200 9.77800 49.82100
H  38.36300 10.96600 48.61600
Mg 42.23400 40.61500 26.18300
C  41.41100 42.90700 28.74400
C  43.39900 38.51100 28.63200
C  43.01000 38.63200 23.71600
C  41.39400 43.18100 23.81300
N  42.52600 40.79300 28.35600
C  41.99300 41.75400 29.23900
C  42.00300 41.37800 30.72900
C  42.76100 39.94100 30.62800
C  42.90300 39.74600 29.11600
C  44.21900 40.01600 31.34400
C  40.51300 41.14300 31.16000
C  40.10000 41.95600 32.38900
H  39.40800 41.18400 33.52400
N  43.14100 38.78800 26.25700
C  43.44200 37.97700 27.32100
C  43.87700 36.69300 26.76700
C  43.81600 36.78900 25.32000
C  43.32800 38.15700 25.01900
C  44.17700 35.55300 27.65700
C  44.11000 35.67900 24.32700
O  44.10700 35.88800 23.12500
C  44.64000 34.38700 24.67300
N  42.31200 40.92700 23.96200
C  42.69400 39.88200 23.22500
C  42.46700 40.20500 21.74800
C  41.87600 41.68100 21.83200
C  41.90500 42.01200 23.32400
C  43.70700 40.10800 20.82300
C  40.41100 41.82900 21.26600
C  40.29500 42.25600 19.76400
N  41.47400 42.60200 26.21700
C  41.14500 43.48900 25.18800
C  40.71500 44.75200 25.78800
C  40.81200 44.56800 27.21000
C  41.27300 43.27000 27.37300
C  40.30200 45.94900 25.05000
C  40.57200 45.13700 28.44600
O  40.07300 46.20500 28.63100
C  40.97400 44.16500 29.50900
C  42.01600 44.67700 30.39500
O  43.23200 44.63900 30.26600
O  41.39400 45.16200 31.50900
C  42.27000 45.36100 32.64200
H  43.68100 37.86300 29.46500
H  43.33800 37.92500 22.95100
H  40.97300 43.92100 23.12900
H  42.55200 42.09500 31.33900
H  42.30200 39.10800 31.15900
H  44.33100 39.17600 32.03100
H  44.28300 40.92200 31.94600
H  44.97800 39.84300 30.58100
H  40.36300 40.13300 31.54200
H  39.85900 41.33500 30.30900
H  39.46400 42.81200 32.16400
H  41.01900 42.29700 32.86500
H  45.10400 35.02500 27.43200
H  43.41100 34.78700 27.53900
H  44.15400 35.81000 28.71600
H  44.79100 33.72400 23.82000
H  44.04100 33.86200 25.41600
H  45.63100 34.51500 25.10700
H  41.70300 39.53400 21.35400
H  42.58100 42.40500 21.42400
H  44.24800 41.05200 20.76700
H  43.43000 39.74100 19.83500
H  44.37700 39.40800 21.32100
H  39.69600 42.48400 21.76400
H  39.87200 40.88200 21.29500
H  39.68400 41.67800 19.07000
H  41.31700 42.38600 19.40800
H  39.95300 43.28800 19.67800
H  39.28800 46.30900 25.22700
H  40.50400 45.77800 23.99300
H  40.96000 46.79800 25.23400
H  40.05800 43.92300 30.04800
H  42.48900 44.36300 33.02400
H  41.73700 46.04300 33.30300
H  43.24700 45.78200 32.40400

