158

Mg -3.23300 17.26500 25.56500
C  -3.24600 14.82100 28.20100
C  -3.95500 19.57000 27.92100
C  -3.35700 19.41900 23.09200
C  -2.77800 14.68500 23.33000
N  -3.55300 17.13600 27.91500
C  -3.39300 16.11200 28.73000
C  -3.50500 16.53600 30.20100
C  -4.04400 18.00500 30.08100
C  -3.87200 18.30600 28.53100
C  -5.43500 18.42800 30.61200
C  -2.08500 16.32900 30.85500
C  -1.52600 17.08200 32.06300
H  -1.30600 16.17800 33.29500
N  -3.63900 19.21100 25.47100
C  -3.82700 19.99300 26.57000
C  -4.08300 21.29500 26.11600
C  -3.83300 21.38600 24.75000
C  -3.63000 19.96600 24.35700
C  -4.47400 22.45400 27.09700
C  -3.71600 22.66500 23.82500
O  -3.68500 22.56600 22.62200
C  -3.55400 24.03300 24.50500
N  -2.74600 17.11600 23.51200
C  -2.97700 18.16700 22.70800
C  -2.76700 17.82200 21.20600
C  -2.85700 16.28200 21.36800
C  -2.66600 15.98800 22.80200
C  -3.77100 18.36500 20.12400
C  -1.97000 15.43000 20.36900
C  -2.56900 14.24400 19.64100
N  -3.16400 15.23800 25.71000
C  -3.05200 14.31800 24.69100
C  -3.14700 12.97900 25.15000
C  -3.19500 13.17100 26.48800
C  -3.22400 14.56200 26.83800
C  -3.06000 11.67800 24.43800
C  -3.26200 12.39900 27.72400
O  -3.16600 11.19500 27.89300
C  -3.26100 13.49300 28.89100
C  -2.03900 13.12200 29.71500
O  -0.86100 13.31500 29.42900
O  -2.47800 12.56700 30.90900
C  -1.47700 12.48000 31.93200
H  -4.35400 20.26100 28.66700
H  -3.39400 20.10100 22.24000
H  -2.81000 13.91600 22.55600
H  -4.23500 15.84400 30.62100
H  -3.37400 18.65500 30.64300
H  -5.93700 17.59300 31.10100
H  -6.08900 18.70900 29.78700
H  -5.43500 19.23000 31.35000
H  -1.34000 16.51800 30.08200
H  -2.02100 15.24700 30.97500
H  -2.28500 17.83400 32.27900
H  -0.52100 17.43600 31.83400
H  -4.88100 22.04300 28.02100
H  -5.25900 22.96600 26.54200
H  -3.58700 23.06600 27.26300
H  -3.50800 24.80800 23.73900
H  -2.60300 24.07500 25.03700
H  -4.38600 24.22700 25.18200
H  -1.77000 18.08400 20.85000
H  -3.81800 15.80700 21.17300
H  -4.72300 18.60400 20.59700
H  -3.81500 17.66700 19.28700
H  -3.32500 19.31200 19.82100
H  -1.14900 15.05500 20.98000
H  -1.56400 16.13500 19.64400
H  -3.56800 14.09200 20.05000
H  -1.91100 13.37800 19.70700
H  -2.63600 14.54600 18.59600
H  -4.07300 11.37600 24.17000
H  -2.51500 10.87700 24.93600
H  -2.39000 11.71600 23.57900
H  -4.13100 13.29300 29.51600
H  -0.65300 13.19300 31.95100
H  -1.05500 11.48100 31.82900
H  -2.11300 12.65400 32.80100
Mg 23.90200 -4.85200 45.42000
C  26.25500 -2.66000 43.86000
C  21.43900 -3.66300 43.33900
C  22.10100 -7.51300 46.25700
C  26.81400 -6.37600 46.99600
N  23.81400 -3.21500 43.82400
C  24.93800 -2.58100 43.31900
C  24.44800 -1.85200 41.99000
C  22.91400 -1.95200 42.02000
C  22.64900 -2.94400 43.17900
C  22.32800 -0.59500 42.40600
C  25.09900 -2.52800 40.76200
C  25.75200 -1.50600 39.67000
H  25.49700 -1.83900 38.18400
N  21.94100 -5.42900 45.14300
C  21.04800 -4.78100 44.23700
C  19.76000 -5.47300 44.29300
C  19.96600 -6.55100 45.24300
C  21.36000 -6.55600 45.54800
C  18.56000 -5.10300 43.48000
C  18.87400 -7.42400 45.74100
O  17.75700 -7.34800 45.17000
C  19.04700 -8.45600 46.84100
N  24.31300 -6.67400 46.55400
C  23.40800 -7.63700 46.64900
C  23.88000 -8.82800 47.55800
C  25.41200 -8.39700 47.77200
C  25.52700 -7.06300 47.03100
C  23.02200 -8.86000 48.93300
C  26.41800 -9.48800 47.27900
C  27.46000 -10.05000 48.26000
N  26.08000 -4.46000 45.61000
C  27.07200 -5.20100 46.28100
C  28.32600 -4.49300 46.13600
C  28.05600 -3.51200 45.15000
C  26.72800 -3.45400 44.90900
C  29.58600 -4.75900 46.84400
C  28.67300 -2.42200 44.31200
O  29.85800 -2.01500 44.26300
C  27.54400 -1.94600 43.35200
C  27.48600 -0.39900 43.30900
O  27.41200 0.36800 42.36900
O  27.53700 0.07300 44.59900
C  27.24200 1.52400 44.72300
H  20.71500 -3.25600 42.63000
H  21.54000 -8.42500 46.47100
H  27.58900 -6.88000 47.57600
H  24.82200 -0.83600 42.11800
H  22.40400 -2.10100 41.06800
H  21.98200 -0.00600 41.55700
H  23.11800 0.05400 42.78500
H  21.46200 -0.61900 43.06700
H  24.38500 -3.20800 40.29800
H  25.95000 -3.10500 41.12500
H  26.78200 -1.54400 40.02600
H  25.40100 -0.50100 39.90500
H  18.72200 -4.19300 42.90300
H  17.76800 -4.84800 44.18400
H  18.19700 -5.83700 42.76000
H  19.72800 -9.22300 46.47400
H  18.03800 -8.81700 47.04300
H  19.43600 -7.93900 47.71900
H  23.75700 -9.78100 47.04300
H  25.47600 -8.13100 48.82700
H  22.09600 -8.28800 48.90200
H  23.63500 -8.51700 49.76700
H  22.81300 -9.89600 49.20100
H  26.94700 -9.10100 46.40800
H  25.77000 -10.29000 46.92500
H  28.44800 -9.67300 47.99300
H  27.37800 -11.13700 48.24600
H  27.36600 -9.62100 49.25800
H  30.35700 -4.01700 46.63600
H  29.83800 -5.72900 46.41700
H  29.32500 -4.93800 47.88700
H  27.88000 -2.42900 42.43400
H  27.09000 1.81600 45.76200
H  26.30000 1.77200 44.23400
H  28.04100 2.20400 44.42700

