158

Mg 47.77800 14.34700 27.38400
C  45.69200 14.39600 30.25300
C  50.03700 16.10000 28.97100
C  49.58300 14.41100 24.50600
C  45.03300 13.04200 25.58600
N  47.81800 15.24000 29.42100
C  46.89600 15.09500 30.47300
C  47.37500 15.70400 31.82700
C  48.67800 16.41400 31.27900
C  48.87800 15.89500 29.81600
C  48.55100 17.95400 31.33100
C  47.64500 14.63000 32.91400
C  47.51700 15.13800 34.35600
H  48.75600 14.96400 35.25800
N  49.66600 14.96800 26.89100
C  50.47200 15.64900 27.71300
C  51.79600 15.77800 27.12400
C  51.66600 15.18700 25.77700
C  50.27300 14.87400 25.65300
C  52.98000 16.25400 27.87000
C  52.71400 15.07000 24.69300
O  52.48200 14.59400 23.54400
C  54.02500 15.53400 24.89800
N  47.39200 13.76100 25.30000
C  48.28400 13.95000 24.33200
C  47.75900 13.26200 22.98000
C  46.39200 12.73000 23.39100
C  46.21900 13.21500 24.86200
C  47.81800 14.18000 21.78700
C  46.18200 11.15500 23.20100
C  46.97200 10.38500 24.28500
N  45.80900 13.78300 27.82600
C  44.74500 13.31200 26.94800
C  43.49300 13.13500 27.73100
C  43.89200 13.46900 29.00300
C  45.24000 13.94800 29.03200
C  42.23000 12.36500 27.27300
C  43.39100 13.58300 30.33600
O  42.29500 13.37900 30.76400
C  44.53600 14.23600 31.18800
C  43.99000 15.51800 31.81800
O  43.61000 16.48000 31.18200
O  44.05700 15.46800 33.18800
C  43.71100 16.72700 33.91600
H  50.88500 16.56300 29.48000
H  50.17500 14.35300 23.59000
H  44.21500 12.53800 25.06600
H  46.56800 16.39000 32.08700
H  49.52000 16.11200 31.90300
H  48.67700 18.28400 30.30000
H  49.30700 18.46900 31.92400
H  47.50700 18.20500 31.51400
H  48.67500 14.29000 32.80400
H  47.03200 13.74100 32.76500
H  46.86100 14.46400 34.90600
H  47.04900 16.12100 34.39500
H  53.61300 15.37300 27.97700
H  52.75100 16.37800 28.92900
H  53.42500 17.12400 27.38700
H  54.38800 15.10100 25.83000
H  54.07700 16.61700 25.00500
H  54.72800 15.25900 24.11100
H  48.47400 12.47700 22.73500
H  45.55500 13.02100 22.75700
H  48.33800 15.10900 22.01900
H  46.80300 14.47900 21.52800
H  48.34400 13.69800 20.96200
H  46.71100 11.02300 22.25700
H  45.16800 10.77900 23.06500
H  47.72500 9.79600 23.76100
H  46.34900 9.65100 24.79600
H  47.49400 11.03600 24.98600
H  41.86900 11.81900 28.14500
H  42.62000 11.58100 26.62500
H  41.48600 12.96400 26.74800
H  44.64900 13.54100 32.02100
H  43.08600 17.42900 33.36400
H  44.70500 17.09500 34.17100
H  43.18900 16.58000 34.86100
Mg -11.26100 39.95200 41.75000
C  -10.29000 36.76400 40.87800
C  -8.23000 41.13400 40.88700
C  -12.55600 43.02100 41.77100
C  -14.60200 38.59300 42.22700
N  -9.59100 39.09300 40.76500
C  -9.33800 37.77400 40.54900
C  -7.97500 37.59400 39.91500
C  -7.25700 38.91700 40.25500
C  -8.46700 39.77400 40.62200
C  -6.03800 38.94000 41.20500
C  -8.11000 37.11700 38.44200
C  -7.12000 36.06000 38.04800
H  -5.93600 36.52300 37.16700
N  -10.46600 41.85400 41.49600
C  -9.17900 42.13200 41.18600
C  -9.00700 43.52800 41.16300
C  -10.34500 44.08300 41.23700
C  -11.20200 42.94500 41.50600
C  -7.59600 44.13800 41.00800
C  -10.61800 45.59600 41.19900
O  -9.73000 46.41600 40.97100
C  -11.95500 46.17400 41.38100
N  -13.31300 40.75800 41.94200
C  -13.52300 42.04600 41.92600
C  -15.00300 42.39500 42.25700
C  -15.60200 40.99100 42.55500
C  -14.43900 40.04600 42.23000
C  -15.21100 43.42100 43.31900
C  -16.93700 40.72300 41.90500
C  -17.96900 40.03100 42.89900
N  -12.29300 38.04400 41.65400
C  -13.61200 37.62600 41.91400
C  -13.67600 36.19200 41.90800
C  -12.38400 35.79100 41.45400
C  -11.60100 36.95600 41.34900
C  -14.87700 35.36100 42.27300
C  -11.52400 34.68800 41.12500
O  -11.70700 33.49100 41.24300
C  -10.14700 35.26700 40.64300
C  -8.98200 34.63200 41.43200
O  -8.71000 34.98900 42.54700
O  -8.50400 33.57400 40.76800
C  -7.67400 32.67500 41.60200
H  -7.21200 41.50200 40.74000
H  -12.99400 44.01900 41.69500
H  -15.57100 38.23500 42.58000
H  -7.47700 36.84200 40.52600
H  -6.94200 39.29600 39.28200
H  -6.37800 39.53000 42.05600
H  -5.17900 39.43500 40.75200
H  -5.77800 37.90500 41.42700
H  -8.03900 38.03100 37.85200
H  -9.11400 36.70100 38.35700
H  -7.61600 35.33500 37.40300
H  -6.70600 35.45300 38.85400
H  -7.50300 45.22200 40.94000
H  -7.07700 43.75700 40.12900
H  -6.95300 43.87300 41.84800
H  -12.61200 45.66600 40.67500
H  -11.85800 47.22300 41.10100
H  -12.21300 46.07700 42.43500
H  -15.43700 42.80200 41.34400
H  -15.81300 40.81000 43.60900
H  -15.50800 44.34500 42.82100
H  -14.23800 43.69600 43.72500
H  -15.96000 43.14800 44.06200
H  -16.78200 40.08400 41.03500
H  -17.41200 41.68200 41.70100
H  -18.63000 40.75300 43.37700
H  -17.51900 39.37200 43.64200
H  -18.69100 39.52900 42.25500
H  -15.59700 35.96000 42.83100
H  -14.54600 34.51900 42.88000
H  -15.49100 35.08800 41.41500
H  -9.99600 35.08600 39.57900
H  -7.40300 31.95800 40.82700
H  -8.20900 32.09400 42.35300
H  -6.80200 33.19000 42.00300

