158

Mg 43.27900 3.45200 47.35300
C  41.08000 6.16600 46.63700
C  40.50900 1.32800 46.94500
C  45.40800 0.87500 47.41300
C  46.09500 5.72400 47.14100
N  41.14700 3.73200 46.93700
C  40.41200 4.94100 46.73000
C  38.91100 4.68800 46.44200
C  38.87200 3.19700 46.88400
C  40.27700 2.71300 46.95400
C  38.10500 2.91900 48.23000
C  38.65500 4.91000 44.89900
C  37.33600 5.47900 44.47700
H  37.38500 6.57800 43.42000
N  42.97400 1.38800 47.13700
C  41.76100 0.68100 47.04700
C  41.99800 -0.76700 47.05400
C  43.43500 -0.89700 47.20300
C  44.02000 0.47300 47.22900
C  40.88100 -1.89200 47.14100
C  44.16100 -2.18500 47.33700
O  43.58200 -3.28500 47.13300
C  45.57600 -2.35900 47.57200
N  45.38100 3.32100 47.28600
C  45.94900 2.14100 47.51100
C  47.50000 2.22400 47.53300
C  47.74200 3.76200 47.44900
C  46.32400 4.35800 47.30800
C  48.18000 1.43200 48.69000
C  48.77500 4.19100 46.39600
C  48.57700 3.66100 44.89100
N  43.57900 5.48200 47.01600
C  44.75500 6.31400 46.97900
C  44.29600 7.73800 46.81800
C  42.87200 7.66200 46.77000
C  42.51600 6.29400 46.78600
C  45.17600 9.02600 46.83900
C  41.64800 8.46900 46.66300
O  41.50900 9.70100 46.59100
C  40.42900 7.52300 46.66100
C  39.48900 7.84900 47.79500
O  39.68400 7.52900 48.94900
O  38.26600 8.39500 47.33200
C  37.30100 8.61100 48.43000
H  39.53900 0.83200 46.87300
H  46.10600 0.05500 47.23500
H  46.96500 6.38300 47.10700
H  38.31300 5.34700 47.07100
H  38.27800 2.62200 46.17400
H  37.29600 2.22700 47.99400
H  37.63000 3.87600 48.44700
H  38.70100 2.69300 49.11400
H  38.92200 4.00900 44.34700
H  39.34500 5.65200 44.49600
H  36.89900 5.98800 45.33600
H  36.69200 4.65500 44.16800
H  39.90000 -1.44500 46.98100
H  40.74300 -2.24100 48.16400
H  41.14800 -2.65500 46.40900
H  46.23600 -2.25100 46.71100
H  45.67800 -3.36200 47.98500
H  46.00500 -1.70700 48.33200
H  47.80400 1.78800 46.58200
H  48.00700 4.10600 48.44900
H  47.57300 0.66500 49.17200
H  48.72200 1.99600 49.44900
H  48.87400 0.82300 48.11100
H  49.75700 3.87500 46.74700
H  48.88400 5.27300 46.47200
H  49.33800 2.98600 44.50000
H  48.42500 4.48800 44.19700
H  47.66800 3.06500 44.81400
H  45.42500 9.45100 47.81200
H  44.82100 9.70800 46.06600
H  46.17000 8.69700 46.53800
H  39.76800 7.72900 45.81900
H  36.30700 8.91100 48.09900
H  37.72000 9.25600 49.20200
H  37.16200 7.63500 48.89500
Mg -2.03500 34.50600 27.20200
C  -3.26400 32.06000 29.54800
C  -0.91100 36.27100 29.90500
C  -0.52800 36.63800 24.97700
C  -3.05600 32.52900 24.59100
N  -1.88800 34.07000 29.46500
C  -2.41700 33.01200 30.16800
C  -2.31700 33.21600 31.64600
C  -1.66900 34.61800 31.75200
C  -1.45900 35.05200 30.23700
C  -2.52400 35.68600 32.53900
C  -1.49800 32.11300 32.31600
C  -2.01500 31.47600 33.62500
H  -1.14800 31.71700 34.96200
N  -0.92100 36.23500 27.41300
C  -0.59300 36.80900 28.60300
C  0.32200 37.86700 28.30400
C  0.32400 38.08600 26.88900
C  -0.38300 36.94600 26.36500
C  1.10200 38.70500 29.36300
C  0.90800 39.24200 26.07900
O  0.79400 39.46700 24.90900
C  2.06500 40.11300 26.67300
N  -2.06900 34.69300 25.15500
C  -1.31800 35.63600 24.47600
C  -1.30800 35.40300 22.99000
C  -2.13000 34.08400 22.81100
C  -2.46800 33.74300 24.24900
C  -1.87700 36.62900 22.13000
C  -1.42200 32.89500 21.97000
C  -0.39400 31.92500 22.65800
N  -3.05500 32.73100 27.09300
C  -3.45800 32.10200 25.95600
C  -4.17300 30.85900 26.31900
C  -4.09700 30.80900 27.69800
C  -3.42400 31.95100 28.16600
C  -4.74200 29.88400 25.36400
C  -4.49600 30.07800 28.88900
O  -5.24100 29.12100 28.93200
C  -3.88100 30.73900 30.09300
C  -4.90800 31.06300 31.05600
O  -5.69600 32.02000 30.89600
O  -4.94900 30.19600 32.12500
C  -5.68100 30.83600 33.16100
H  -0.53500 36.76900 30.80100
H  0.05800 37.22700 24.26800
H  -3.34600 31.88800 23.75600
H  -3.31400 33.20900 32.08600
H  -0.64800 34.59600 32.13200
H  -2.77100 35.26900 33.51500
H  -3.41200 36.03300 32.01100
H  -1.93700 36.59300 32.68700
H  -0.53800 32.54200 32.60300
H  -1.15300 31.42100 31.54800
H  -2.14000 30.39400 33.58600
H  -2.91100 31.98500 33.98100
H  1.05900 38.29200 30.37100
H  0.63500 39.68500 29.27300
H  2.17300 38.76000 29.17000
H  1.59300 40.88800 27.27600
H  2.77400 40.47500 25.92800
H  2.68700 39.60800 27.41200
H  -0.29000 35.21800 22.64800
H  -3.05000 34.28800 22.26300
H  -2.94400 36.75300 21.94500
H  -1.36400 36.63700 21.16800
H  -1.36800 37.49400 22.55400
H  -0.93300 33.26000 21.06600
H  -2.24700 32.26600 21.63500
H  -0.14300 32.28100 23.65700
H  0.47100 31.93600 21.99400
H  -0.86100 30.94000 22.65700
H  -4.69700 28.87800 25.78200
H  -4.43700 29.87600 24.31800
H  -5.79100 30.17700 25.31900
H  -3.12200 30.16900 30.62900
H  -5.06300 31.62600 33.58800
H  -5.76500 30.05700 33.91800
H  -6.70100 31.09000 32.87100

