158

Mg 16.94900 51.60300 26.50200
C  18.73400 50.44200 29.27400
C  14.50200 52.78700 28.58900
C  15.48300 52.73800 23.73200
C  19.69600 50.45000 24.45400
N  16.65000 51.53400 28.67100
C  17.50900 51.01200 29.61000
C  17.02300 51.35600 31.01800
C  15.52400 51.74400 30.79800
C  15.46200 51.99800 29.24700
C  14.45700 50.68200 31.37800
C  17.88200 52.48300 31.65000
C  18.16900 52.23900 33.13100
H  17.16400 51.39600 33.99800
N  15.23800 52.59600 26.21600
C  14.39800 53.05800 27.17700
C  13.40900 53.87900 26.42600
C  13.55400 53.64600 25.04700
C  14.81300 52.95700 24.92900
C  12.36000 54.65000 27.13500
C  12.64300 54.12300 23.88400
O  12.94700 53.94300 22.66200
C  11.32900 54.73100 24.01300
N  17.60400 51.72500 24.40600
C  16.77200 52.21400 23.49700
C  17.46600 52.14100 22.05200
C  18.93800 51.70000 22.35300
C  18.68100 51.19600 23.78900
C  16.74900 51.16300 21.06800
C  19.99900 52.88100 22.41000
C  21.23100 52.77700 21.49100
N  18.77700 50.57400 26.72900
C  19.78400 50.22500 25.82000
C  20.85300 49.58200 26.55900
C  20.52300 49.70500 27.88700
C  19.26000 50.25800 27.97000
C  22.19900 48.99500 25.99700
C  20.92200 49.41000 29.21000
O  21.96300 48.88100 29.62000
C  19.80800 49.93700 30.19500
C  19.33400 48.74300 31.00300
O  18.85400 47.70200 30.52500
O  19.60700 48.95700 32.33700
C  19.32300 47.82100 33.12400
H  13.73000 53.24800 29.20900
H  15.09300 52.99200 22.74400
H  20.55800 50.11200 23.87600
H  17.16700 50.48400 31.65600
H  15.25500 52.68600 31.27700
H  14.90700 49.77600 31.78200
H  13.70200 50.37100 30.65600
H  13.86100 51.11200 32.18200
H  17.44100 53.47700 31.56700
H  18.87600 52.55500 31.20900
H  18.27200 53.24200 33.54500
H  19.14900 51.81200 33.33900
H  12.27900 55.62200 26.64800
H  12.50500 54.90900 28.18400
H  11.39100 54.14900 27.13300
H  10.65400 54.11100 23.42300
H  11.35900 55.73900 23.60100
H  10.79800 54.63000 24.95900
H  17.35300 53.12400 21.59300
H  19.20900 50.81300 21.78000
H  15.83500 50.78200 21.52200
H  17.36900 50.31100 20.78900
H  16.41500 51.76100 20.22100
H  20.46800 52.80500 23.39100
H  19.45000 53.82200 22.37500
H  21.39100 53.69700 20.92900
H  21.15200 51.91100 20.83400
H  22.08000 52.69300 22.17000
H  21.90200 47.97400 25.75600
H  22.83200 48.97800 26.88400
H  22.57800 49.66100 25.22200
H  20.26300 50.64600 30.88600
H  19.89400 47.80900 34.05300
H  19.45400 46.84700 32.65400
H  18.30300 47.84500 33.50800
Mg -11.99700 37.68100 42.24900
C  -9.91200 35.02400 41.28200
C  -9.96300 39.97200 40.63500
C  -14.46400 39.97400 42.62700
C  -14.32000 35.25700 43.25000
N  -10.21500 37.45500 41.00700
C  -9.44100 36.31500 40.82600
C  -8.14400 36.57800 40.06000
C  -8.16300 38.17700 39.92200
C  -9.50700 38.62600 40.63700
C  -6.93200 38.99800 40.30500
C  -8.06000 35.79700 38.66700
C  -6.84400 34.95500 38.37200
H  -5.84600 35.52100 37.32900
N  -12.20500 39.70400 41.72200
C  -11.22900 40.49800 41.10600
C  -11.63200 41.86000 41.15800
C  -12.96700 41.91200 41.62900
C  -13.27900 40.49900 41.95500
C  -10.80800 43.04300 40.58800
C  -13.78800 43.19400 41.80500
O  -13.27300 44.23600 41.37500
C  -15.14200 43.14600 42.36400
N  -14.04000 37.59000 42.96700
C  -14.82500 38.67700 43.06300
C  -16.20100 38.37000 43.63200
C  -16.22800 36.83700 43.61600
C  -14.79800 36.51000 43.23500
C  -16.48600 38.98800 45.00200
C  -17.33900 36.33000 42.65900
C  -18.78900 36.43400 43.20800
N  -12.13700 35.54000 42.33100
C  -13.11000 34.75900 42.81300
C  -12.65900 33.36100 42.87500
C  -11.42800 33.40800 42.23500
C  -11.16000 34.77600 41.91000
C  -13.33400 32.09000 43.45500
C  -10.29700 32.63900 41.85700
O  -10.04700 31.46100 41.96700
C  -9.22000 33.72000 41.36100
C  -8.01900 33.67600 42.27000
O  -6.88600 33.29800 41.97900
O  -8.35500 34.01000 43.60800
C  -7.33900 34.08300 44.67000
H  -9.21100 40.70100 40.32500
H  -15.26500 40.70500 42.75500
H  -15.08600 34.50800 43.46100
H  -7.28400 36.39700 40.70500
H  -8.24000 38.38600 38.85500
H  -7.14000 39.82200 40.98900
H  -6.49900 39.45600 39.41600
H  -6.18400 38.29000 40.66100
H  -8.15300 36.42300 37.78000
H  -8.91400 35.12000 38.64800
H  -7.10900 33.91500 38.17900
H  -6.26800 34.95000 39.29800
H  -9.96600 42.64800 40.02100
H  -10.36300 43.75800 41.28000
H  -11.37500 43.61600 39.85400
H  -15.53900 44.14200 42.55900
H  -15.10400 42.79000 43.39300
H  -15.85800 42.60700 41.74300
H  -16.92200 38.79500 42.93400
H  -16.34700 36.46900 44.63500
H  -15.61900 39.53300 45.37400
H  -16.72300 38.25900 45.77700
H  -17.31500 39.68900 44.90500
H  -17.13400 35.31300 42.32500
H  -17.37800 36.86100 41.70800
H  -19.30400 35.47400 43.23900
H  -19.33500 37.26400 42.75900
H  -18.64400 36.56700 44.28000
H  -13.43500 31.33400 42.67700
H  -14.35000 32.31000 43.78200
H  -12.67800 31.71900 44.24300
H  -8.94000 33.44100 40.34500
H  -6.92500 35.08700 44.58600
H  -6.64800 33.24100 44.61500
H  -7.85500 33.89900 45.61200

