158

Mg 44.88600 4.07000 46.33600
C  42.93100 7.09000 46.18900
C  41.73700 2.40600 45.72900
C  46.48200 1.43000 45.86600
C  47.68400 6.07800 45.99500
N  42.57500 4.73600 45.63000
C  42.10200 5.98700 45.81700
C  40.58400 6.04700 45.54700
C  40.17100 4.49100 45.61300
C  41.57300 3.80500 45.65500
C  39.27800 4.00300 46.76600
C  40.00800 6.93500 44.37500
C  40.65000 6.78100 42.93300
H  39.85700 6.86000 41.64400
N  44.20300 2.15500 45.82700
C  42.93100 1.62800 45.79600
C  43.07900 0.16500 45.73500
C  44.43100 -0.13700 45.49300
C  45.09300 1.16800 45.74200
C  41.79600 -0.72900 45.59700
C  45.04400 -1.46400 45.20800
O  44.37900 -2.44400 45.03000
C  46.49700 -1.67900 45.03600
N  46.78700 3.89900 45.69000
C  47.28000 2.63100 45.94500
C  48.81000 2.58300 45.99200
C  49.22600 4.10400 45.88900
C  47.77900 4.79200 45.76700
C  49.44600 1.76200 47.12900
C  50.10400 4.32300 44.67100
C  51.55500 4.53700 45.03400
N  45.26800 6.14500 46.38700
C  46.48600 6.78200 46.24700
C  46.33700 8.14300 46.52200
C  44.97100 8.33800 46.53200
C  44.34000 7.03400 46.41100
C  47.46700 9.11000 46.47000
C  43.96500 9.35000 46.72700
O  44.05500 10.57100 46.83100
C  42.57700 8.56700 46.47400
C  41.87500 8.85100 47.70300
O  41.88100 8.20000 48.71400
O  41.16500 9.99200 47.53300
C  40.57800 10.59900 48.69300
H  40.82300 1.82200 45.60000
H  47.18000 0.59100 45.83600
H  48.56500 6.69700 46.17700
H  40.02800 6.47500 46.38200
H  39.81400 4.16900 44.63400
H  38.55600 3.21200 46.56500
H  38.73800 4.72100 47.38300
H  39.96400 3.47300 47.42700
H  40.02700 8.00100 44.60300
H  38.97400 6.68500 44.13900
H  41.14400 5.81000 42.95600
H  41.35300 7.60900 42.84300
H  41.82100 -1.64700 46.18600
H  41.91300 -1.10600 44.58100
H  40.84100 -0.22700 45.74700
H  46.76600 -2.69600 44.75100
H  46.94000 -1.52900 46.02100
H  46.96900 -1.08200 44.25600
H  49.18700 2.02300 45.13600
H  49.69800 4.45700 46.80600
H  50.27100 1.13600 46.79000
H  48.70200 1.13000 47.61300
H  49.77600 2.40200 47.94700
H  49.58700 5.19200 44.26500
H  50.11900 3.44000 44.03200
H  51.78600 3.99700 45.95300
H  51.70100 5.61000 45.15800
H  52.16200 4.15100 44.21500
H  47.19700 10.06300 46.92400
H  47.78500 9.21000 45.43200
H  48.33700 8.76100 47.02800
H  41.94200 8.99200 45.69700
H  39.65700 10.07200 48.94300
H  40.39300 11.62600 48.37900
H  41.28700 10.62400 49.52100
Mg 9.95000 47.14300 25.80000
C  7.67900 47.42600 28.43200
C  12.36000 48.54500 27.97300
C  12.26400 46.76800 23.37400
C  7.39600 46.40900 23.70000
N  9.99400 47.88400 27.97600
C  8.94500 47.73900 28.92300
C  9.44200 48.25300 30.29000
C  10.90200 48.86800 29.97600
C  11.11300 48.36400 28.56200
C  11.16500 50.34800 30.13500
C  9.48700 47.19000 31.47300
C  10.15600 47.57900 32.82800
H  9.23800 47.28900 34.02100
N  12.01500 47.69200 25.63100
C  12.83700 48.16100 26.66600
C  14.17400 48.10100 26.22100
C  14.19400 47.47400 24.89200
C  12.78200 47.30400 24.56900
C  15.41100 48.52500 27.10900
C  15.34300 46.97000 24.12800
O  15.23100 46.51000 22.96100
C  16.75500 46.93300 24.75100
N  9.86900 46.76400 23.84900
C  10.93300 46.62800 22.99700
C  10.47700 46.08900 21.64900
C  8.95300 46.15200 21.65800
C  8.69700 46.46500 23.16100
C  11.07100 46.81200 20.46700
C  8.21100 44.93100 21.04000
C  7.20500 45.17900 19.84800
N  7.90500 47.01500 25.95400
C  6.96900 46.69300 25.04000
C  5.69200 46.48700 25.64600
C  5.92100 46.90000 26.98100
C  7.31700 47.10300 27.08400
C  4.33500 46.21700 24.98100
C  5.19900 47.11000 28.23400
O  4.06900 46.94900 28.58200
C  6.32100 47.50200 29.21600
C  6.07400 46.51900 30.33900
O  6.53600 45.39900 30.42000
O  5.28700 47.05500 31.29500
C  5.08200 46.38000 32.53900
H  13.09600 48.83900 28.72500
H  12.97700 46.57000 22.57100
H  6.55000 46.22800 23.03400
H  8.77400 49.06500 30.57400
H  11.61600 48.29600 30.56900
H  10.53000 50.84500 30.86800
H  10.94300 50.83800 29.18700
H  12.21800 50.53100 30.34800
H  9.65700 46.14400 31.21500
H  8.45700 46.94600 31.73300
H  10.37900 48.64400 32.75800
H  11.08500 47.01600 32.91800
H  15.09100 49.03500 28.01800
H  16.02300 49.23100 26.54700
H  16.01500 47.72100 27.52800
H  16.61000 46.78700 25.82100
H  17.38000 47.79500 24.51500
H  17.32400 46.08500 24.37000
H  10.84600 45.06800 21.55100
H  8.66400 47.05100 21.11200
H  12.13400 46.59800 20.35800
H  11.03700 47.89100 20.61700
H  10.51300 46.51600 19.58000
H  7.70600 44.44100 21.87200
H  8.94200 44.23600 20.62500
H  7.46800 44.47100 19.06200
H  7.22400 46.20600 19.48400
H  6.14600 45.02500 20.05500
H  4.46500 45.85800 23.96000
H  3.80300 47.16300 24.87500
H  3.90200 45.46900 25.64500
H  6.23100 48.54200 29.52700
H  4.73500 47.05700 33.32100
H  5.99600 45.91000 32.90100
H  4.32800 45.59300 32.53300

