158

Mg 40.32100 8.77600 29.39800
C  42.15600 9.80400 32.21400
C  38.36600 6.98400 31.45900
C  38.62400 8.01200 26.67400
C  42.91700 10.01100 27.37700
N  40.23300 8.55700 31.67200
C  41.04000 9.07600 32.61600
C  40.43300 8.69800 34.02600
C  39.55700 7.37700 33.75800
C  39.34500 7.63500 32.23000
C  40.24000 5.99200 34.16100
C  39.60600 9.86700 34.62200
C  39.92500 10.22900 36.12500
H  40.47400 11.54800 36.53400
N  38.69300 7.71100 29.08400
C  38.04300 6.96600 30.09400
C  37.00000 6.27200 29.38700
C  36.93100 6.63300 28.04900
C  38.07800 7.54300 27.90200
C  36.06900 5.29900 30.18900
C  35.91100 6.18200 26.96800
O  35.88900 6.51100 25.77800
C  34.77600 5.51200 27.36100
N  40.73900 9.01600 27.29900
C  39.80300 8.65200 26.38600
C  40.22600 9.11300 24.98300
C  41.70100 9.63600 25.20000
C  41.79600 9.50500 26.69800
C  40.25300 7.94100 23.97000
C  41.77800 11.13100 24.69600
C  43.29000 11.47300 24.32300
N  42.22100 9.65800 29.70300
C  43.13100 10.06500 28.79500
C  44.27900 10.74200 29.55500
C  43.87800 10.69500 30.89200
C  42.57500 10.02700 30.93900
C  45.36900 11.44700 28.93300
C  44.26700 11.13900 32.26200
O  45.19700 11.86700 32.66100
C  43.20800 10.45700 33.18700
C  44.05100 9.39800 33.82300
O  44.11100 8.21400 33.50100
O  44.74200 9.96200 34.87900
C  45.32900 9.05000 35.85800
H  37.79500 6.26300 32.04700
H  38.01800 7.76300 25.80000
H  43.68000 10.49200 26.76200
H  41.26700 8.58600 34.71900
H  38.53900 7.42000 34.14500
H  39.59400 5.55200 34.92000
H  41.15000 6.13500 34.74400
H  40.39100 5.30400 33.32800
H  38.54000 9.64700 34.58300
H  39.83800 10.79000 34.09000
H  40.56500 9.45200 36.54500
H  38.94800 10.13300 36.59900
H  36.43800 4.91200 31.13900
H  35.85200 4.41700 29.58600
H  35.10600 5.77500 30.37200
H  34.09100 5.47200 26.51400
H  34.19300 6.06200 28.09900
H  34.96600 4.47100 27.62300
H  39.58500 9.92200 24.63500
H  42.49000 8.98100 24.83000
H  40.81200 7.04200 24.22800
H  40.75100 8.32200 23.07900
H  39.33500 7.44000 23.66300
H  41.63600 11.81300 25.53400
H  41.07800 11.39900 23.90400
H  43.20100 11.97000 23.35700
H  44.02200 10.66500 24.32100
H  43.73800 12.19800 25.00300
H  44.93900 11.94000 28.06100
H  46.07900 10.71200 28.55200
H  45.88200 12.05700 29.67700
H  42.68100 11.11000 33.88200
H  45.77800 9.65000 36.64900
H  45.96100 8.24700 35.47900
H  44.51600 8.44600 36.25900
Mg 42.20000 40.97900 26.37300
C  41.43300 43.40900 28.67600
C  42.96600 38.77300 28.90400
C  42.80000 38.80100 24.04900
C  42.15100 43.65000 23.92200
N  42.16200 41.10100 28.56100
C  41.68400 42.18200 29.29600
C  41.74100 41.83000 30.78100
C  42.38300 40.41600 30.84400
C  42.42800 39.99800 29.32700
C  43.71900 40.38900 31.57500
C  40.37200 41.92000 31.54400
C  40.37600 42.78500 32.90200
H  39.67900 42.27000 34.16400
N  42.90700 39.10500 26.47400
C  43.25900 38.35800 27.54700
C  43.63400 36.98100 27.09500
C  43.58600 36.95400 25.70900
C  43.08500 38.32000 25.35000
C  43.91900 35.83500 28.03100
C  44.09500 35.95000 24.70400
O  43.98000 36.03300 23.48800
C  44.68900 34.67100 25.15400
N  42.31700 41.18700 24.23200
C  42.48700 40.06200 23.47900
C  42.70900 40.46100 21.94200
C  42.49000 42.05100 21.98700
C  42.29100 42.35700 23.44800
C  44.11500 40.01800 21.33300
C  41.30500 42.45000 21.17700
C  40.03900 42.91600 21.79700
N  41.86200 43.09600 26.26300
C  41.86500 43.99800 25.21000
C  41.50000 45.29500 25.65000
C  41.22900 45.10100 27.04600
C  41.53300 43.72800 27.35500
C  41.35200 46.57800 24.85900
C  40.89100 45.84900 28.30500
O  40.68400 47.05600 28.57500
C  41.03800 44.69600 29.40600
C  42.15700 45.25100 30.33200
O  43.33300 45.12300 30.00300
O  41.72800 45.79500 31.50000
C  42.81600 46.20600 32.39000
H  43.13200 38.01000 29.66600
H  43.03200 38.11300 23.23400
H  42.26900 44.44300 23.18000
H  42.39100 42.62300 31.15300
H  41.73700 39.71600 31.37400
H  44.47700 40.44700 30.79400
H  43.84000 39.41100 32.04100
H  43.85800 41.18200 32.31000
H  40.24500 40.88900 31.87500
H  39.54300 42.31200 30.95400
H  40.05500 43.80800 32.70600
H  41.37200 42.83000 33.34200
H  44.42700 34.96100 27.62300
H  42.93500 35.43200 28.27300
H  44.41800 36.09900 28.96400
H  45.57400 34.85800 25.76300
H  44.97100 34.07200 24.28800
H  43.88100 34.29800 25.78300
H  41.95400 40.00500 21.30200
H  43.34400 42.57500 21.55700
H  43.89800 39.49200 20.40300
H  44.57300 39.26800 21.97900
H  44.76400 40.82200 20.98600
H  40.95000 41.55800 20.66200
H  41.75900 43.11700 20.44400
H  40.19700 43.88300 22.27500
H  39.83200 42.13900 22.53300
H  39.26200 42.78000 21.04500
H  40.34300 46.98200 24.77500
H  41.86700 46.56500 23.89800
H  41.75600 47.34900 25.51500
H  40.17200 44.70100 30.06800
H  43.36200 45.42900 32.92600
H  42.28300 46.86200 33.07800
H  43.60300 46.78200 31.90300

