158

Mg 47.99600 24.94400 27.50700
C  48.90900 26.95800 30.22800
C  47.06200 22.49400 29.76700
C  47.26700 22.93600 24.88800
C  49.09300 27.35200 25.37500
N  48.18600 24.75100 29.81100
C  48.37000 25.72600 30.66700
C  48.05500 25.23900 32.12000
C  47.59400 23.81900 31.88900
C  47.54700 23.70300 30.36400
C  48.43700 22.65300 32.62100
C  47.15800 26.32400 32.80500
C  47.52000 26.65800 34.26400
H  46.59000 27.42500 35.19900
N  47.31500 22.96900 27.35900
C  46.98700 22.11500 28.38400
C  46.55400 20.81300 27.94500
C  46.51700 20.95400 26.47600
C  47.03500 22.31400 26.15500
C  46.02500 19.70400 28.90000
C  46.08000 19.88800 25.48500
O  46.25300 19.97800 24.27300
C  45.41500 18.64800 26.01800
N  48.44100 24.98400 25.45000
C  47.94400 24.09300 24.60200
C  48.10000 24.58400 23.13400
C  48.62000 26.02900 23.27600
C  48.76000 26.14800 24.80600
C  48.90900 23.70900 22.20400
C  47.66900 27.10400 22.64000
C  48.31800 27.74800 21.38700
N  48.89900 26.75500 27.70700
C  49.23400 27.65100 26.74700
C  49.74800 28.84800 27.29900
C  49.71500 28.57300 28.70200
C  49.19200 27.32300 28.90800
C  50.22100 29.97800 26.57800
C  50.02100 29.21000 29.99400
O  50.64300 30.26300 30.23600
C  49.38500 28.22100 31.02800
C  50.51000 27.86400 31.95100
O  51.41100 27.05000 31.72100
O  50.39800 28.54800 33.14500
C  51.33000 28.04900 34.15200
H  46.71600 21.80000 30.53600
H  47.08600 22.34700 23.98700
H  49.40000 28.18800 24.74300
H  48.99300 25.26100 32.67500
H  46.55000 23.78400 32.20200
H  48.84100 22.06600 31.79700
H  47.76200 21.98500 33.15600
H  49.31800 22.93200 33.19800
H  46.09500 26.08600 32.81700
H  47.20200 27.31500 32.35400
H  48.36600 27.34400 34.20600
H  47.78800 25.76300 34.82500
H  46.20600 18.70800 28.49500
H  44.94800 19.75000 29.05800
H  46.58900 19.78200 29.82900
H  44.53800 18.89600 26.61500
H  46.11400 18.01300 26.56200
H  45.08000 17.99200 25.21500
H  47.12500 24.60400 22.64700
H  49.64800 26.03000 22.91500
H  49.44800 22.95000 22.77000
H  49.72900 24.21300 21.69200
H  48.30300 23.26300 21.41600
H  47.34100 27.79800 23.41400
H  46.69300 26.67100 22.42400
H  49.13600 27.14900 20.98900
H  48.78700 28.70200 21.62600
H  47.46700 27.86000 20.71500
H  51.27200 29.86500 26.31100
H  50.12100 30.79800 27.28800
H  49.65600 30.24800 25.68600
H  48.62000 28.78900 31.55900
H  50.57600 27.71600 34.86600
H  52.00400 28.77900 34.60000
H  51.90200 27.17100 33.85600
Mg 26.85700 51.02000 25.91600
C  24.99800 52.22100 28.59800
C  29.25800 49.85700 28.31900
C  28.73700 49.87100 23.33700
C  24.83300 52.67900 23.62400
N  27.02100 50.79200 28.28200
C  26.12700 51.48200 29.14700
C  26.44900 51.13900 30.68100
C  27.89300 50.43900 30.49200
C  28.12200 50.36100 28.90400
C  29.06800 51.11300 31.27700
C  25.23600 50.38900 31.34800
C  25.53200 49.30900 32.44800
H  24.96100 49.68400 33.90300
N  28.63100 49.90900 25.84200
C  29.50800 49.62300 26.95100
C  30.76100 48.88200 26.48000
C  30.54900 48.75600 25.04100
C  29.23000 49.51500 24.66900
C  31.86900 48.45300 27.32000
C  31.51100 48.17400 23.99000
O  31.28300 48.31600 22.77900
C  32.78000 47.53100 24.49500
N  26.81300 51.27000 23.77900
C  27.64800 50.58400 22.90200
C  27.12100 50.67800 21.42700
C  25.84100 51.60300 21.69400
C  25.81600 51.89600 23.09200
C  28.15800 51.23800 20.41300
C  24.61800 50.89900 21.15000
C  24.37000 49.55400 21.80400
N  25.22700 52.21200 26.01900
C  24.53100 52.87400 25.01600
C  23.36100 53.49900 25.73100
C  23.49300 53.16600 27.07800
C  24.70100 52.49700 27.21000
C  22.24100 54.24900 25.11400
C  22.82200 53.30200 28.26900
O  21.70800 53.79000 28.51600
C  23.78800 52.73200 29.37100
C  24.22700 53.82200 30.32700
O  25.19400 54.55100 30.22600
O  23.36200 53.73800 31.37800
C  23.83900 54.36700 32.62500
H  30.04900 49.57300 29.01500
H  29.33500 49.42100 22.54100
H  24.13900 53.05000 22.86700
H  26.60600 52.08500 31.19800
H  27.86800 49.37800 30.73900
H  28.94400 52.16600 31.52800
H  30.01800 51.16400 30.74500
H  29.13700 50.72500 32.29400
H  24.71200 49.80400 30.59200
H  24.57600 51.14800 31.76700
H  26.61900 49.24900 32.50000
H  25.02400 48.35700 32.29300
H  31.94800 47.37300 27.19700
H  31.65400 48.67700 28.36500
H  32.78600 49.00400 27.11300
H  33.32800 48.16500 25.19300
H  33.51100 47.47600 23.68800
H  32.55800 46.58400 24.98600
H  26.80400 49.70400 21.05300
H  25.97900 52.56200 21.19500
H  27.77300 52.15700 19.96900
H  28.57600 50.62300 19.61600
H  28.91400 51.40300 21.18000
H  24.59600 50.85500 20.06100
H  23.74000 51.48400 21.42600
H  24.59600 49.57400 22.87000
H  24.79900 48.74300 21.21600
H  23.28500 49.49500 21.71300
H  21.50100 53.63900 24.59600
H  22.60300 54.95100 24.36300
H  21.69800 54.80800 25.87600
H  23.25300 51.99400 29.96900
H  24.10700 55.38400 32.33900
H  24.71800 53.85000 33.00800
H  23.01500 54.47200 33.33100

