158

Mg 44.66900 3.95500 46.45900
C  43.06400 7.15800 46.24300
C  41.81900 2.51400 45.72900
C  46.44700 1.23700 46.09100
C  47.77700 5.87500 46.13000
N  42.68800 4.80800 45.98200
C  42.19000 6.06100 45.95700
C  40.67600 6.16100 45.68100
C  40.32200 4.60400 45.65000
C  41.69400 3.87100 45.88100
C  39.28500 4.20100 46.70200
C  40.28400 6.91500 44.37300
C  41.33200 6.92600 43.32100
H  40.76400 6.94100 41.80800
N  44.18800 2.13500 45.87500
C  42.89400 1.67200 45.68700
C  42.96900 0.33300 45.46300
C  44.24500 -0.11800 45.66200
C  45.02100 1.05300 45.96300
C  41.81900 -0.59800 45.09300
C  44.78600 -1.56100 45.50100
O  44.04600 -2.43500 45.12600
C  46.22900 -1.95500 45.69000
N  46.87300 3.64400 46.05400
C  47.27200 2.36200 46.21300
C  48.82400 2.30700 46.25200
C  49.27000 3.72900 46.03800
C  47.93000 4.49300 46.06200
C  49.33400 1.62800 47.50600
C  50.19800 4.05600 44.83700
C  49.50200 4.16000 43.42400
N  45.35000 6.01400 46.40300
C  46.62100 6.63100 46.22200
C  46.53700 8.05600 46.14500
C  45.17700 8.25700 46.29900
C  44.47300 7.03700 46.32000
C  47.73300 8.91200 46.05000
C  44.13800 9.26000 46.55200
O  44.26600 10.45700 46.78200
C  42.75400 8.57800 46.45600
C  41.90600 8.83700 47.61600
O  41.97000 8.29800 48.70700
O  40.90800 9.77200 47.27500
C  39.85900 10.03300 48.25600
H  40.91200 1.92200 45.59800
H  47.01200 0.30900 46.20400
H  48.76800 6.33600 46.12300
H  40.03700 6.58000 46.45800
H  39.87300 4.31500 44.70000
H  38.66500 5.07500 46.90200
H  39.64700 3.98600 47.70700
H  38.66000 3.37200 46.37000
H  39.71700 7.82900 44.55500
H  39.51500 6.35500 43.84100
H  41.94800 6.02700 43.34600
H  41.96300 7.80500 43.45100
H  41.74000 -1.51500 45.67600
H  41.83600 -0.82400 44.02700
H  40.88600 -0.06200 45.26800
H  46.56200 -2.98600 45.57000
H  46.40600 -1.69700 46.73500
H  46.81300 -1.40200 44.95400
H  49.01200 1.69800 45.36800
H  49.83500 4.09200 46.89600
H  49.30700 0.54200 47.41800
H  48.51500 1.69400 48.22200
H  50.29300 1.93400 47.92300
H  50.93200 3.25000 44.84400
H  50.79600 4.89800 45.18600
H  48.45600 3.85400 43.39300
H  49.91900 3.59700 42.58900
H  49.43800 5.20700 43.12700
H  48.21000 8.58400 45.12600
H  48.38800 8.82200 46.91700
H  47.44800 9.95500 45.91500
H  42.12800 8.92000 45.63100
H  39.55800 11.07600 48.35200
H  39.97200 9.59900 49.25000
H  38.98300 9.45700 47.95700
Mg 54.32300 24.15900 43.62500
C  51.72500 26.44000 43.12200
C  52.20100 21.67600 42.33900
C  57.05900 22.20500 43.28900
C  56.38900 26.86500 44.30900
N  52.24000 24.06400 42.91300
C  51.40300 25.14600 42.74900
C  49.91200 24.66600 42.33300
C  50.05300 23.11500 42.29800
C  51.60600 22.97900 42.51400
C  49.35500 22.31100 43.35000
C  49.31200 25.26600 41.01800
C  50.17300 25.46500 39.68800
H  49.91200 24.40700 38.61500
N  54.61300 22.13500 43.06200
C  53.61200 21.33400 42.52900
C  54.18200 20.00900 42.20500
C  55.62500 20.11400 42.49400
C  55.85600 21.49800 42.98000
C  53.41300 18.82400 41.67400
C  56.61600 18.98900 42.21200
O  56.26500 17.97000 41.72000
C  58.08800 19.04100 42.64600
N  56.47700 24.47800 43.62400
C  57.36000 23.52800 43.58900
C  58.83200 23.95100 43.85600
C  58.54600 25.48800 44.29200
C  57.07400 25.68400 44.09200
C  59.40000 23.03100 44.91000
C  59.37700 26.47300 43.37400
C  60.84900 26.43500 43.87400
N  54.20400 26.22200 43.75000
C  55.05800 27.17300 44.16400
C  54.35700 28.42300 44.30500
C  53.07000 28.16000 43.90400
C  53.02700 26.82100 43.56500
C  54.98300 29.75100 44.56800
C  51.79800 28.87400 43.68800
O  51.47900 30.03800 43.87100
C  50.85400 27.74900 43.10900
C  50.33200 28.32100 41.86800
O  51.00500 28.45300 40.82000
O  48.98900 28.60200 41.98900
C  48.22300 29.08700 40.83100
H  51.44100 20.92200 42.11900
H  57.90400 21.53900 43.10100
H  56.99700 27.72800 44.58700
H  49.26400 24.93300 43.16700
H  49.91900 22.73500 41.28500
H  49.95000 22.41500 44.25700
H  49.18200 21.27800 43.05000
H  48.40100 22.84000 43.36800
H  48.83900 26.23000 41.20600
H  48.54100 24.53800 40.76700
H  51.21300 25.39300 40.00700
H  49.90900 26.51000 39.52300
H  53.46000 18.84900 40.58500
H  52.40600 18.96100 42.06800
H  53.81900 17.86800 42.00400
H  58.37000 18.00300 42.82400
H  58.31400 19.66300 43.51200
H  58.57600 19.52100 41.79800
H  59.35200 23.98700 42.89800
H  58.70500 25.66700 45.35500
H  59.56200 23.50700 45.87700
H  60.36400 22.76100 44.47700
H  58.87200 22.08800 45.05000
H  59.10300 27.52600 43.43200
H  59.24300 26.12700 42.34900
H  61.56900 26.14000 43.11000
H  60.88000 25.74100 44.71400
H  61.22200 27.43100 44.11400
H  54.56000 30.01500 45.53700
H  54.75700 30.52700 43.83700
H  56.07200 29.70700 44.57100
H  49.96300 27.63300 43.72600
H  48.40100 28.56200 39.89200
H  48.04900 30.15000 40.66000
H  47.20200 28.83500 41.11800

