158

Mg 8.38700 3.83000 27.45000
C  9.86600 2.36500 30.27000
C  6.50700 5.70700 29.55100
C  6.81000 5.05000 24.70300
C  9.88600 1.34800 25.50200
N  8.08400 3.89700 29.65400
C  8.96100 3.35800 30.60300
C  8.72400 3.93300 32.04400
C  7.49400 4.87200 31.81000
C  7.29500 4.78600 30.29300
C  6.20700 4.40900 32.62000
C  9.96900 4.80400 32.52100
C  9.76100 5.54700 33.89100
H  10.66300 5.13100 35.12800
N  6.94100 5.24800 27.14500
C  6.37100 5.96000 28.17200
C  5.48800 7.01200 27.56200
C  5.60400 6.80600 26.17500
C  6.48800 5.65100 25.95200
C  4.59600 7.94600 28.40700
C  4.96000 7.63800 24.98900
O  5.24300 7.58800 23.79800
C  4.12600 8.77800 25.48400
N  8.19100 3.08900 25.40600
C  7.68100 3.99900 24.45700
C  7.95400 3.48500 23.00200
C  9.09400 2.37300 23.20800
C  9.07000 2.25200 24.79000
C  6.66600 2.93800 22.37200
C  10.46400 2.57600 22.55000
C  11.41000 3.53600 23.31500
N  9.55100 2.11700 27.82200
C  10.10300 1.24700 26.92000
C  11.02100 0.37500 27.62000
C  11.00300 0.80200 28.92700
C  10.04000 1.81800 29.00400
C  11.98900 -0.68700 27.05000
C  11.60100 0.62200 30.25100
O  12.46800 -0.11800 30.64900
C  10.92600 1.69400 31.11700
C  10.50300 1.18500 32.44400
O  9.43000 0.66100 32.64000
O  11.41600 1.51900 33.39600
C  10.94600 1.34600 34.80700
H  5.97400 6.42100 30.18200
H  6.38900 5.46100 23.78400
H  10.64500 0.71600 25.03700
H  8.49300 3.13000 32.74400
H  7.63600 5.85200 32.26600
H  5.62800 5.29800 32.87000
H  6.49700 3.70700 33.40100
H  5.70700 3.72100 31.93800
H  10.02100 5.52500 31.70500
H  10.83900 4.16200 32.66200
H  8.70800 5.52600 34.17200
H  9.80500 6.62900 33.77200
H  3.52900 7.78900 28.24400
H  4.84600 8.97800 28.16200
H  4.84000 7.80000 29.45900
H  3.82700 9.27800 24.56200
H  4.89000 9.28400 26.07400
H  3.29100 8.51300 26.13100
H  8.36000 4.26800 22.36200
H  8.72200 1.41200 22.85400
H  5.91600 2.75900 23.14200
H  7.02200 2.00800 21.92900
H  6.27900 3.54400 21.55300
H  10.28900 3.07600 21.59700
H  10.91300 1.62100 22.27600
H  11.81100 4.34700 22.70700
H  12.26000 2.95300 23.67000
H  10.81500 3.85900 24.16900
H  12.95300 -0.33800 27.42200
H  12.08300 -0.78800 25.96900
H  11.73300 -1.65600 27.47800
H  11.67900 2.45700 31.31500
H  10.13300 0.62000 34.81400
H  10.61900 2.22700 35.36000
H  11.74600 0.82400 35.33100
Mg 26.86600 49.31100 26.42800
C  24.80500 50.08600 29.03500
C  29.29400 48.45600 28.76500
C  29.24100 49.20100 23.91000
C  24.59300 50.36600 24.12400
N  27.00200 49.33700 28.71100
C  26.03700 49.61400 29.52700
C  26.27000 49.36700 30.95400
C  27.74400 48.73600 30.83800
C  28.04000 48.84000 29.33000
C  28.87900 49.47100 31.71600
C  25.18700 48.51600 31.76000
C  25.62500 47.92700 33.09700
H  25.77700 48.89100 34.27400
N  28.92900 48.84500 26.38300
C  29.72200 48.40400 27.40900
C  31.06700 48.03100 26.84800
C  31.03700 48.24000 25.42600
C  29.69400 48.82000 25.18100
C  32.22400 47.59200 27.70800
C  32.11600 47.95300 24.43700
O  31.96700 48.06800 23.23200
C  33.40800 47.30900 24.78200
N  26.86800 49.69200 24.32900
C  27.92200 49.50200 23.47300
C  27.52300 49.66500 21.98500
C  26.02700 49.70600 22.06100
C  25.76500 49.90000 23.56700
C  28.16700 50.89200 21.21200
C  25.23700 48.54300 21.58100
C  23.73600 48.55800 21.38600
N  25.08100 50.14000 26.50400
C  24.26400 50.61700 25.49200
C  23.11800 51.16900 26.07800
C  23.25700 50.91700 27.48600
C  24.50200 50.36200 27.66500
C  21.94200 51.82200 25.40800
C  22.61800 51.06300 28.74000
O  21.49100 51.56800 28.87500
C  23.54300 50.53300 29.84100
C  23.88900 51.54600 30.82900
O  24.83900 52.30600 30.80200
O  22.93700 51.60500 31.79700
C  23.29300 52.56600 32.94900
H  30.05700 47.98100 29.38500
H  29.94900 49.09200 23.08700
H  23.79400 50.60000 23.41800
H  26.17900 50.27300 31.55300
H  27.64000 47.67400 31.05800
H  29.58600 48.81100 32.21900
H  28.49700 50.07400 32.54000
H  29.47500 50.16000 31.11800
H  24.83900 47.66900 31.17000
H  24.31200 49.12000 32.00100
H  26.54900 47.34900 33.09000
H  24.88900 47.22000 33.47900
H  32.19400 46.50300 27.72200
H  32.18600 47.99900 28.71800
H  33.12700 47.98800 27.24400
H  34.00700 48.11700 25.20400
H  33.99000 46.94300 23.93600
H  33.28200 46.44700 25.43600
H  27.84100 48.72400 21.53600
H  25.58800 50.58300 21.58500
H  29.01800 51.26600 21.78100
H  27.41400 51.64500 20.97800
H  28.80000 50.52000 20.40600
H  25.52100 47.69000 22.19800
H  25.58500 48.23600 20.59500
H  23.29800 49.55000 21.49300
H  23.33300 47.95700 22.20200
H  23.47800 48.11700 20.42300
H  21.91400 52.81300 25.86100
H  20.99100 51.30300 25.28900
H  22.17000 52.01700 24.36000
H  23.08000 49.66800 30.31600
H  23.10200 53.58200 32.60200
H  24.31000 52.46500 33.32700
H  22.51400 52.52000 33.71000

