158

Mg 35.30300 2.90100 30.12700
C  33.06600 4.12700 32.45300
C  37.89600 3.28500 32.41300
C  37.66100 2.13900 27.72500
C  32.83200 3.16400 27.71800
N  35.41400 3.65700 32.15300
C  34.38200 4.01200 32.98700
C  34.80600 4.29300 34.41900
C  36.41200 4.30000 34.17100
C  36.60400 3.70500 32.81100
C  37.08000 5.77400 34.23500
C  34.39600 3.24400 35.44400
C  33.78800 3.80900 36.76600
H  34.69800 3.77000 37.96100
N  37.47100 2.53500 30.14600
C  38.29100 2.69600 31.20600
C  39.66800 2.28200 30.83800
C  39.58400 1.88000 29.49500
C  38.21100 2.22500 29.05600
C  40.73200 2.29000 31.93000
C  40.68600 1.43400 28.59000
O  40.48800 1.18900 27.43400
C  42.08900 1.23500 29.11700
N  35.25300 2.51500 28.09100
C  36.36600 2.31400 27.26900
C  35.91500 2.40300 25.84600
C  34.34200 2.21500 25.93800
C  34.08000 2.70300 27.35700
C  36.36900 3.74800 25.10100
C  33.94500 0.69500 25.76800
C  32.50800 0.36300 25.67700
N  33.30800 3.50600 30.02700
C  32.44200 3.59600 28.99300
C  31.15800 4.01000 29.44800
C  31.33300 4.06300 30.82200
C  32.68100 3.84400 31.10800
C  29.86100 4.19200 28.77000
C  30.64800 4.41900 32.07400
O  29.48000 4.77200 32.32400
C  31.78400 4.47100 33.15400
C  31.79300 5.80200 33.70900
O  32.10700 6.81300 33.10700
O  31.45200 5.76100 35.05000
C  31.55500 7.04500 35.78800
H  38.61300 3.56000 33.19000
H  38.39100 1.95100 26.93500
H  32.03600 3.17600 26.97000
H  34.57400 5.33000 34.66300
H  37.01300 3.69200 34.84700
H  36.35700 6.56700 34.42600
H  37.51800 5.99100 33.26000
H  37.85100 5.73100 35.00400
H  35.16500 2.60600 35.87900
H  33.73500 2.58100 34.88600
H  32.80400 3.42200 37.02900
H  33.55600 4.86200 36.60400
H  40.24100 2.49000 32.88300
H  41.49400 3.00900 31.62700
H  41.25400 1.33300 31.94700
H  42.59600 2.19700 29.20300
H  42.62400 0.69200 28.33900
H  42.32300 0.61200 29.98000
H  36.30500 1.58800 25.23700
H  33.81000 2.75300 25.15300
H  35.50400 4.38300 24.91000
H  36.75600 3.49900 24.11300
H  37.03800 4.37300 25.69200
H  34.41500 0.22900 26.63400
H  34.36900 0.36200 24.82100
H  32.25000 -0.32700 26.48000
H  32.10800 -0.08000 24.76400
H  31.89900 1.26300 25.76900
H  29.62200 5.24500 28.62000
H  29.16300 3.65300 29.41000
H  30.03300 3.71900 27.80200
H  31.48100 3.75800 33.92000
H  32.17600 7.85500 35.40800
H  32.03900 6.88600 36.75200
H  30.59600 7.51500 36.00600
Mg 49.08300 46.82800 42.81000
C  45.70000 47.03600 42.15500
C  49.10100 43.50600 42.10400
C  52.47800 46.85400 43.12800
C  49.11200 50.33300 43.29900
N  47.63100 45.55300 41.99600
C  46.25700 45.80300 41.84000
C  45.57300 44.56800 41.25200
C  46.61400 43.41800 41.42000
C  47.85500 44.24100 41.91000
C  46.29000 42.33700 42.47500
C  45.09700 44.93000 39.80400
C  43.86500 44.10500 39.19200
H  44.17700 43.04100 38.07600
N  50.62800 45.37500 42.53400
C  50.43900 44.03200 42.18900
C  51.70900 43.38600 41.97200
C  52.72900 44.31500 42.37700
C  51.98400 45.61700 42.67500
C  51.88500 41.86500 41.58000
C  54.19400 44.04300 42.47100
O  54.58300 42.87500 42.28700
C  55.33300 45.09200 42.78300
N  50.58200 48.43000 43.00300
C  51.86600 48.15100 43.30200
C  52.69900 49.47700 43.59900
C  51.61900 50.61400 43.54400
C  50.39400 49.76500 43.26700
C  53.46800 49.53600 44.95000
C  51.89400 51.75400 42.56900
C  51.81400 51.47800 41.01000
N  47.73900 48.39700 42.79200
C  47.87200 49.74500 43.08100
C  46.54800 50.38500 43.11100
C  45.67000 49.35500 42.72000
C  46.40200 48.20800 42.58200
C  46.31700 51.89600 43.39100
C  44.29200 49.05600 42.42000
O  43.35400 49.84100 42.51200
C  44.18000 47.52400 42.02900
C  43.30600 46.84600 43.04200
O  43.63000 46.56300 44.18600
O  42.04000 46.66000 42.50100
C  41.18300 45.96200 43.50600
H  49.09500 42.42200 41.97100
H  53.56700 46.87900 43.19700
H  49.03900 51.41500 43.42900
H  44.62500 44.39900 41.76400
H  46.73400 42.81700 40.51900
H  46.59800 41.30000 42.34100
H  45.21000 42.21800 42.56100
H  46.80300 42.62900 43.39100
H  45.97200 44.96500 39.15500
H  44.80900 45.98100 39.81400
H  43.15800 44.84300 38.81100
H  43.35500 43.52500 39.96100
H  50.98900 41.31800 41.87300
H  52.69300 41.42300 42.16200
H  52.20900 41.73700 40.54700
H  55.15100 45.87200 42.04400
H  56.35300 44.70900 42.77300
H  55.10200 45.50800 43.76400
H  53.50700 49.67200 42.89300
H  51.50100 51.06300 44.53000
H  53.12100 48.71800 45.58100
H  53.44100 50.47300 45.50500
H  54.52500 49.42600 44.70800
H  52.93400 52.03800 42.73200
H  51.37500 52.61400 42.99200
H  51.55000 50.43500 40.83400
H  52.75000 51.86800 40.61000
H  51.04300 52.08500 40.53500
H  45.24700 51.99200 43.57700
H  46.59000 52.40500 42.46700
H  46.81000 52.23000 44.30400
H  43.67700 47.42300 41.06700
H  41.67000 45.03400 43.80700
H  40.22900 45.66000 43.07300
H  41.02400 46.58700 44.38400

