158

Mg 44.32900 3.97600 46.64300
C  42.23500 6.75700 46.03100
C  41.56200 1.90000 46.00800
C  46.48600 1.40800 46.48000
C  47.02500 6.22800 46.52800
N  42.27000 4.26700 45.89200
C  41.66000 5.51200 45.70000
C  40.23700 5.42200 45.14800
C  39.93800 3.89800 45.38000
C  41.32400 3.28400 45.76700
C  38.90800 3.67800 46.52400
C  40.15000 5.77400 43.58900
C  38.88800 5.32800 42.79900
H  38.62100 6.22800 41.60100
N  44.09300 1.86000 46.45700
C  42.87800 1.23600 46.20500
C  43.13600 -0.19200 46.23700
C  44.51900 -0.39600 46.46600
C  45.09800 0.95000 46.51800
C  42.06900 -1.27500 46.00900
C  45.22100 -1.75600 46.46600
O  44.60700 -2.75600 46.42900
C  46.74400 -1.97200 46.78500
N  46.52300 3.84100 46.23200
C  47.13900 2.63800 46.48800
C  48.71600 2.80600 46.51700
C  48.88000 4.35800 46.56600
C  47.39400 4.85800 46.45700
C  49.39200 2.11100 47.67300
C  49.78400 4.96300 45.47700
C  51.24300 4.85900 45.71700
N  44.62500 6.08800 46.46000
C  45.74000 6.81800 46.53000
C  45.48200 8.22200 46.56500
C  44.07600 8.24900 46.35800
C  43.62600 6.96400 46.26600
C  46.46200 9.34700 46.57200
C  42.90900 9.16100 46.19800
O  42.80400 10.36300 46.33600
C  41.63400 8.17300 46.04100
C  40.74900 8.30600 47.22000
O  40.45700 7.43000 48.01400
O  40.02800 9.47200 47.25900
C  39.11000 9.71800 48.41100
H  40.67400 1.26800 45.92800
H  47.34900 0.74000 46.51300
H  47.85400 6.92900 46.64700
H  39.59000 6.03800 45.77300
H  39.69000 3.32300 44.48800
H  38.23900 2.86700 46.23500
H  38.27600 4.50600 46.84500
H  39.56200 3.33100 47.32400
H  41.09300 5.48000 43.13000
H  40.33300 6.84800 43.54200
H  38.00300 5.44000 43.42600
H  39.03400 4.32000 42.41000
H  42.33600 -1.95100 45.19700
H  41.11300 -0.94700 45.60100
H  41.97800 -1.93200 46.87400
H  47.41500 -1.72000 45.96400
H  46.76500 -3.03400 47.03200
H  46.97900 -1.38500 47.67200
H  49.18700 2.40400 45.62000
H  49.27500 4.63900 47.54200
H  48.69700 1.56200 48.30700
H  49.99100 2.76400 48.30800
H  50.07600 1.37800 47.24400
H  49.52900 5.98400 45.19400
H  49.64400 4.46300 44.51900
H  51.88400 5.73600 45.81300
H  51.57800 4.30300 44.84100
H  51.36100 4.14200 46.52900
H  47.05100 9.57700 47.46000
H  46.06700 10.28700 46.18600
H  47.15400 9.19800 45.74300
H  41.15100 8.50000 45.12000
H  38.68300 10.72100 48.43800
H  39.81100 9.71300 49.24600
H  38.27800 9.01500 48.37700
Mg 40.60200 8.18800 29.05400
C  42.55800 9.47200 31.74800
C  38.33600 7.11500 31.33700
C  39.02600 6.70000 26.51900
C  43.27000 9.07100 26.86800
N  40.58800 8.27500 31.27000
C  41.31100 8.99400 32.18900
C  40.69600 8.99500 33.60700
C  39.35000 8.27300 33.37800
C  39.42900 7.88400 31.90700
C  38.99700 7.21200 34.43200
C  40.45400 10.46800 34.09100
C  39.69000 10.70600 35.37400
H  40.34400 11.64700 36.35000
N  38.86900 7.00400 28.95500
C  38.06100 6.65500 30.06400
C  36.98400 5.87200 29.52800
C  37.02300 5.88900 28.05200
C  38.34100 6.56000 27.77500
C  35.91500 5.17000 30.50500
C  35.99900 5.30100 27.14000
O  36.20300 5.36100 25.93900
C  34.63300 4.82200 27.67800
N  41.18200 7.62200 27.10000
C  40.30900 7.20600 26.17200
C  40.85700 7.15600 24.77000
C  42.24000 7.89700 24.94800
C  42.22400 8.28200 26.45800
C  41.12700 5.76800 24.09800
C  42.41800 9.24600 24.08700
C  41.30600 10.30500 24.15100
N  42.59700 9.01900 29.21200
C  43.47000 9.39300 28.25800
C  44.62300 9.93700 28.95000
C  44.25400 10.00500 30.26400
C  43.08200 9.39200 30.44000
C  45.93100 10.34400 28.18700
C  44.76600 10.49100 31.53200
O  45.79200 10.98200 31.86200
C  43.67100 10.15500 32.54500
C  44.23500 9.29900 33.60700
O  44.63200 8.19500 33.44900
O  44.06700 9.85800 34.84000
C  44.49200 9.15700 36.06800
H  37.45800 6.97300 31.97100
H  38.36500 6.42900 25.69300
H  44.09000 9.31600 26.18900
H  41.30600 8.50500 34.36600
H  38.51000 8.96100 33.47200
H  37.97900 7.40600 34.77100
H  39.74000 7.19900 35.23000
H  39.05100 6.19200 34.05100
H  39.95800 10.94600 33.24600
H  41.40900 10.97300 34.23600
H  39.34700 9.77900 35.83400
H  38.80600 11.24200 35.03000
H  36.47700 4.99500 31.42300
H  35.61900 4.19700 30.11200
H  35.06600 5.83900 30.64100
H  34.75300 3.98400 28.36600
H  34.00200 4.63700 26.80900
H  34.26300 5.64500 28.28900
H  40.15100 7.65300 24.10500
H  43.06600 7.22300 24.72000
H  40.68400 5.90300 23.11100
H  40.55200 4.97200 24.57100
H  42.17100 5.52400 23.90000
H  42.24100 8.79900 23.10900
H  43.44900 9.59700 24.13000
H  40.98800 10.42100 25.18700
H  40.45900 10.11000 23.49300
H  41.86600 11.20200 23.88500
H  45.77300 11.39400 27.93600
H  46.17400 9.62500 27.40400
H  46.65400 10.29600 29.00100
H  43.31700 11.09400 32.97000
H  45.35500 9.71400 36.43300
H  44.73100 8.09400 36.05800
H  43.69700 9.20800 36.81200

