158

Mg 9.68900 48.32600 25.85900
C  7.15100 48.39400 28.35000
C  11.81600 49.71700 28.29200
C  11.98200 48.61500 23.50300
C  7.21900 47.69300 23.52600
N  9.42400 48.94300 28.11000
C  8.38400 48.67700 28.91000
C  8.70900 49.01300 30.38300
C  10.21400 49.50300 30.26900
C  10.52600 49.43600 28.81600
C  10.59500 50.76100 31.03000
C  8.52900 47.77300 31.29500
C  9.55700 47.41100 32.48400
H  8.88600 46.78300 33.70900
N  11.70100 49.05100 25.83600
C  12.31500 49.57700 26.93700
C  13.65200 49.89400 26.50500
C  13.78600 49.44800 25.10600
C  12.45500 49.06600 24.72700
C  14.73100 50.45100 27.47300
C  14.97000 49.52600 24.25200
O  14.99600 49.20300 23.09300
C  16.29800 49.88500 24.85200
N  9.59700 48.21400 23.79100
C  10.69900 48.28800 23.04800
C  10.37100 47.89200 21.62400
C  8.83400 47.58800 21.64800
C  8.51800 47.87800 23.06900
C  10.97900 48.95300 20.62700
C  8.53000 46.14300 21.26900
C  8.98000 45.03700 22.20300
N  7.53900 48.20600 25.87200
C  6.72400 47.92000 24.84000
C  5.40200 47.62900 25.34100
C  5.47100 47.84100 26.73000
C  6.82900 48.22700 26.97400
C  4.25100 47.05700 24.49100
C  4.78300 47.90700 27.99000
O  3.58300 47.68900 28.16800
C  5.79900 48.23800 29.05600
C  5.68100 47.05000 30.05400
O  6.21800 45.93900 29.92300
O  4.91600 47.54200 31.12300
C  4.70400 46.71300 32.26600
H  12.55400 49.98200 29.05100
H  12.67600 48.72100 22.66600
H  6.49700 47.38800 22.76500
H  8.02300 49.74500 30.81000
H  10.83700 48.73400 30.72400
H  10.82900 51.52300 30.28700
H  11.47400 50.68400 31.67100
H  9.74500 51.08500 31.63000
H  8.35600 46.90200 30.66300
H  7.56800 47.92100 31.78800
H  10.13300 48.32400 32.63600
H  10.22200 46.60900 32.16500
H  14.42100 50.71600 28.48300
H  15.22800 51.32100 27.04300
H  15.45900 49.65000 27.60200
H  16.45300 50.95700 24.97200
H  17.05600 49.56100 24.13900
H  16.47300 49.26100 25.72900
H  11.01000 47.03800 21.40000
H  8.22000 48.30600 21.10400
H  10.29400 49.33500 19.87100
H  11.84000 48.51600 20.12000
H  11.29100 49.84800 21.16500
H  9.11200 46.06500 20.35100
H  7.47200 45.98600 21.05900
H  9.34900 45.49200 23.12300
H  9.77900 44.46000 21.73800
H  8.19500 44.35100 22.52200
H  3.43000 46.73500 25.13200
H  4.56600 46.17300 23.93600
H  3.82700 47.88000 23.91600
H  5.54500 49.20100 29.50000
H  5.09800 45.69900 32.19400
H  3.65600 46.58700 32.53500
H  5.23400 47.23400 33.06300
Mg 0.31500 43.36600 26.54200
C  2.40400 43.19500 29.41800
C  -2.31600 42.83200 28.52700
C  -1.36200 42.62700 23.85100
C  3.28300 43.54200 24.67900
N  0.14600 43.02200 28.63100
C  1.02300 43.15200 29.68200
C  0.38600 43.16000 31.03900
C  -1.02600 42.61600 30.71400
C  -1.09400 42.72800 29.20200
C  -1.45500 41.21700 31.30500
C  0.32700 44.56200 31.68900
C  0.94500 44.52300 33.10100
H  0.54400 43.34000 33.92600
N  -1.55500 42.97900 26.18300
C  -2.53400 42.76400 27.18000
C  -3.77500 42.57900 26.53600
C  -3.58800 42.58800 25.14600
C  -2.13400 42.74800 25.03300
C  -5.11600 42.36500 27.26900
C  -4.54900 42.45800 23.94600
O  -4.28100 42.29000 22.76600
C  -6.04000 42.45700 24.34700
N  0.85900 43.17500 24.51700
C  -0.02900 42.87700 23.58600
C  0.62600 42.53600 22.25500
C  1.98700 43.29600 22.38600
C  2.07000 43.36200 23.91200
C  0.87500 41.03800 22.05700
C  2.05600 44.79200 21.85700
C  2.54900 44.93500 20.40200
N  2.43100 43.43100 26.90700
C  3.53500 43.62600 26.05900
C  4.77300 43.78600 26.72700
C  4.39200 43.48700 28.03900
C  2.96100 43.30100 28.11300
C  6.12700 44.13100 26.09100
C  4.85600 43.22600 29.44000
O  5.95400 43.08400 29.94200
C  3.58500 43.26900 30.33400
C  3.65200 42.19800 31.27600
O  3.17000 41.03500 31.10500
O  4.23700 42.54700 32.37000
C  4.34700 41.54600 33.51600
H  -3.17500 42.70100 29.18800
H  -1.82200 42.39800 22.88800
H  4.19500 43.78800 24.13200
H  0.87700 42.34800 31.57600
H  -1.85000 43.24800 31.04500
H  -0.75300 40.67300 31.93700
H  -1.56400 40.48800 30.50200
H  -2.39100 41.38500 31.83800
H  -0.70800 44.90300 31.73200
H  0.93100 45.25200 31.10000
H  0.49100 45.33800 33.66600
H  2.01300 44.66000 32.93200
H  -5.59800 43.34200 27.30400
H  -4.91400 42.00900 28.27900
H  -5.82300 41.61600 26.91100
H  -6.29500 43.19600 25.10700
H  -6.22300 41.44600 24.71200
H  -6.64500 42.59600 23.45100
H  -0.05600 42.91000 21.49200
H  2.85900 42.76700 21.99900
H  1.87900 40.74600 21.74800
H  0.15700 40.57000 21.38300
H  0.77500 40.53300 23.01700
H  2.69200 45.41700 22.48500
H  1.01700 45.12000 21.87500
H  1.88900 45.58800 19.83100
H  2.69900 43.94600 19.96900
H  3.49700 45.47300 20.43700
H  6.20000 45.18700 25.83100
H  6.31900 43.61100 25.15300
H  6.86900 43.85400 26.84100
H  3.69200 44.26300 30.77000
H  4.01600 40.54300 33.24700
H  3.70000 41.79100 34.35800
H  5.39500 41.52100 33.81500

