158

Mg 9.04200 4.24300 27.93500
C  10.23200 2.41300 30.55000
C  7.09100 6.19000 29.99200
C  7.92300 6.00700 25.14200
C  10.46000 1.82200 25.74800
N  8.67100 4.29200 30.04700
C  9.37100 3.49800 30.94400
C  8.93400 3.94100 32.42300
C  7.80000 5.03200 32.21300
C  7.84700 5.17400 30.63600
C  6.38900 4.58100 32.72000
C  10.16300 4.41600 33.29300
C  9.83500 5.08800 34.70900
H  10.28200 4.37900 36.00300
N  7.65700 5.93000 27.63700
C  7.05900 6.64200 28.58200
C  6.33300 7.74500 28.02200
C  6.51700 7.70500 26.63200
C  7.43800 6.55100 26.37400
C  5.58800 8.72100 28.83100
C  5.94800 8.65100 25.61700
O  6.24400 8.62600 24.44000
C  4.93500 9.70000 25.95100
N  9.02700 3.88200 25.82100
C  8.61400 4.74200 24.89700
C  9.05700 4.35600 23.47200
C  9.57400 2.99600 23.69800
C  9.73000 2.87300 25.22500
C  7.91300 4.40500 22.45600
C  10.79600 2.61500 22.83100
C  10.65100 1.36600 21.93900
N  10.05800 2.51200 28.05400
C  10.65700 1.68300 27.10700
C  11.45900 0.66100 27.71900
C  11.46400 0.99300 29.08300
C  10.54800 2.08100 29.24400
C  12.17600 -0.55900 26.99600
C  11.94500 0.55500 30.38100
O  12.70100 -0.30400 30.68400
C  11.20500 1.49500 31.36900
C  10.51100 0.73600 32.46000
O  9.42000 0.13500 32.40800
O  11.27700 0.81600 33.56600
C  10.60300 0.33200 34.73600
H  6.53400 6.63900 30.81800
H  7.70500 6.71800 24.34200
H  10.87000 1.13000 25.01000
H  8.41100 3.07100 32.82200
H  7.99100 6.04600 32.56300
H  6.41900 3.55000 33.07100
H  5.65900 4.68300 31.91700
H  6.05000 5.25400 33.50900
H  10.69900 5.03900 32.57700
H  10.81900 3.55000 33.37700
H  8.79300 5.39500 34.79200
H  10.29500 6.07600 34.75500
H  5.74400 9.75200 28.51400
H  5.85900 8.70000 29.88700
H  4.54300 8.42800 28.73600
H  4.57600 10.05900 24.98600
H  5.44900 10.48200 26.51100
H  4.16800 9.24500 26.57700
H  9.94400 4.95900 23.28000
H  8.73800 2.36700 23.39100
H  7.17300 5.18600 22.63200
H  7.45700 3.47800 22.10900
H  8.39500 4.73100 21.53400
H  11.64200 2.48700 23.50600
H  10.93900 3.45900 22.15700
H  11.34700 0.56200 22.17900
H  10.62200 1.63400 20.88300
H  9.68900 0.87800 22.09900
H  12.95500 -1.03300 27.59300
H  12.47700 -0.16600 26.02500
H  11.38500 -1.30100 26.88100
H  11.99700 2.12800 31.77100
H  9.74100 0.87300 35.12600
H  11.22900 0.48000 35.61500
H  10.34800 -0.72700 34.71600
Mg 47.46300 24.32100 28.09600
C  48.54000 26.68500 30.44000
C  47.12400 21.99200 30.45300
C  46.86500 22.24700 25.64800
C  48.49000 26.70300 25.50800
N  47.71500 24.36500 30.27800
C  48.01500 25.48300 31.08700
C  47.95400 25.03300 32.55800
C  47.52000 23.54000 32.51700
C  47.52100 23.24800 30.98600
C  48.30500 22.55700 33.44300
C  47.11800 26.00000 33.29800
C  46.50600 25.52700 34.58000
H  46.33600 26.58800 35.66400
N  46.93900 22.39700 28.08400
C  46.84600 21.54800 29.14800
C  46.53000 20.19300 28.68400
C  46.43900 20.28600 27.34500
C  46.75600 21.73100 26.98300
C  46.49600 19.03600 29.63000
C  46.29300 19.07800 26.35300
O  46.38900 19.19200 25.13100
C  45.87900 17.63200 26.86400
N  47.78000 24.48900 25.90200
C  47.28300 23.49800 25.16600
C  47.42300 23.68800 23.57800
C  47.85900 25.18900 23.56500
C  48.07800 25.41400 25.03700
C  48.55500 22.68100 22.94400
C  46.87500 26.15400 22.87500
C  47.54300 27.32900 22.12600
N  48.38500 26.29400 27.95200
C  48.58300 27.10100 26.85800
C  49.06200 28.33700 27.42600
C  49.15200 28.25300 28.82500
C  48.68400 26.95400 29.09300
C  49.57200 29.51400 26.56200
C  49.44600 28.95700 30.10400
O  49.91500 30.11600 30.33200
C  48.97200 27.92300 31.14200
C  49.94800 27.77600 32.37100
O  50.87900 27.03000 32.52400
O  49.71700 28.80700 33.30000
C  49.98000 28.51300 34.69500
H  46.95700 21.21800 31.20500
H  46.66800 21.59200 24.79700
H  48.61700 27.56000 24.84300
H  48.96400 25.08100 32.96300
H  46.52300 23.40800 32.93700
H  47.69900 21.72900 33.81100
H  48.73100 23.08400 34.29700
H  49.15300 22.17700 32.87400
H  46.29900 26.31100 32.64800
H  47.77500 26.85500 33.45700
H  47.18800 24.80500 35.03000
H  45.53900 25.13600 34.26500
H  47.44100 18.49300 29.65100
H  45.61100 18.41500 29.49000
H  46.49700 19.47300 30.62900
H  45.97500 16.90300 26.05900
H  44.85800 17.61700 27.24600
H  46.58300 17.29400 27.62400
H  46.41600 23.49500 23.20500
H  48.84600 25.38900 23.14700
H  48.84500 21.97600 23.72300
H  49.40300 23.19500 22.49100
H  48.00500 22.29800 22.08400
H  46.09400 26.50300 23.55100
H  46.43200 25.54900 22.08400
H  47.46500 27.10800 21.06200
H  48.58400 27.61700 22.27500
H  46.94800 28.20100 22.40000
H  49.02800 29.57500 25.62000
H  50.63100 29.34300 26.36600
H  49.55600 30.47800 27.07100
H  48.06400 28.35700 31.56100
H  49.10100 28.71800 35.30400
H  50.70300 29.27500 34.98600
H  50.36400 27.51800 34.91800

