158

Mg 25.98000 0.29900 28.98300
C  27.77400 -0.01500 31.91900
C  23.16000 0.75900 31.02600
C  24.04300 0.31600 26.20600
C  28.64500 -0.83200 27.11200
N  25.53500 0.30900 31.31500
C  26.50000 0.37100 32.18600
C  25.92600 0.63700 33.53700
C  24.37000 0.71100 33.36500
C  24.33200 0.54900 31.84800
C  23.49500 -0.30900 34.21500
C  26.62400 1.84200 34.27700
C  25.82800 2.71600 35.17900
H  26.40000 2.93100 36.58500
N  23.98200 0.65100 28.68200
C  22.97400 0.81800 29.60900
C  21.67300 1.20000 28.97700
C  21.97000 1.11700 27.61300
C  23.37900 0.65600 27.45800
C  20.32200 1.45400 29.77100
C  20.96000 1.34300 26.48000
O  21.25300 1.14500 25.33500
C  19.60700 1.85500 26.68400
N  26.33600 -0.08800 26.95500
C  25.37000 -0.06500 26.00400
C  25.93400 -0.28500 24.60700
C  27.40000 -0.66100 24.87500
C  27.53300 -0.44200 26.38500
C  25.30100 -1.39600 23.71300
C  28.55900 0.05700 24.04700
C  28.93100 1.49500 24.43100
N  27.85100 -0.29300 29.35900
C  28.84800 -0.70400 28.52200
C  30.00300 -0.98000 29.30100
C  29.65300 -0.71300 30.64800
C  28.29700 -0.34200 30.66200
C  31.25300 -1.40200 28.60600
C  30.12900 -0.61400 31.96700
O  31.20200 -0.84900 32.42400
C  28.90200 -0.13400 32.88600
C  28.58900 -1.25200 33.81900
O  28.22500 -2.37600 33.54700
O  28.68100 -0.70200 35.14300
C  28.47500 -1.56800 36.32700
H  22.30000 1.08600 31.61500
H  23.37500 0.37800 25.34400
H  29.47000 -1.11200 26.45400
H  26.14700 -0.27300 34.09400
H  24.03600 1.74400 33.46100
H  22.69900 0.23000 34.73000
H  24.09400 -0.81400 34.97200
H  23.04100 -1.02900 33.53400
H  27.03700 2.48700 33.50200
H  27.48800 1.62200 34.90400
H  24.88300 2.24300 35.44800
H  25.55300 3.66600 34.72100
H  19.79300 2.32300 29.38000
H  20.34200 1.55200 30.85600
H  19.79000 0.51500 29.62100
H  19.02700 1.16700 27.29900
H  19.07700 1.91500 25.73300
H  19.72200 2.84900 27.11600
H  25.99500 0.61700 23.99900
H  27.67600 -1.71000 24.77000
H  25.98100 -2.21800 23.48600
H  24.84200 -1.01000 22.80300
H  24.48000 -1.86000 24.25900
H  28.11700 -0.03800 23.05500
H  29.47700 -0.53100 24.03800
H  30.01100 1.57600 24.55200
H  28.44000 1.98600 25.27100
H  28.69700 2.21600 23.64900
H  31.96500 -0.81600 29.18600
H  31.45400 -1.05800 27.59100
H  31.43200 -2.46500 28.44500
H  29.13200 0.78500 33.42400
H  27.70900 -1.18100 37.00000
H  29.41400 -1.58700 36.88000
H  28.28300 -2.60700 36.05700
Mg 6.93200 55.55800 39.80500
C  5.00600 52.58000 39.80700
C  9.78200 53.58300 38.97000
C  8.67200 58.48200 39.40300
C  3.86900 57.36800 39.59800
N  7.25600 53.42900 39.19300
C  6.34900 52.38800 39.33400
C  6.97900 51.03800 39.02100
C  8.56400 51.30800 39.02400
C  8.51900 52.87500 39.05400
C  9.32800 50.62100 40.17200
C  6.55700 50.37300 37.72200
C  5.93300 51.24300 36.55900
H  6.47300 51.16100 35.14400
N  8.99000 56.01700 39.30600
C  9.96900 55.05000 39.01900
C  11.26300 55.81700 38.95300
C  10.94700 57.16200 39.02900
C  9.47900 57.28700 39.29300
C  12.60600 55.19500 38.74600
C  11.94900 58.28000 38.97800
O  13.15500 58.02100 38.90900
C  11.50400 59.58800 39.18400
N  6.31200 57.57800 39.50800
C  7.25300 58.60300 39.41900
C  6.50600 59.92000 39.79200
C  4.99500 59.58200 39.37200
C  5.04400 58.07500 39.51900
C  6.65500 60.53600 41.19200
C  4.43500 60.24600 38.12900
C  3.03700 60.86100 38.09200
N  4.87900 55.17600 39.95100
C  3.77000 56.00100 39.77800
C  2.58800 55.16100 39.91600
C  3.07200 53.83500 40.13300
C  4.46500 53.89000 40.05200
C  1.15400 55.65700 39.73600
C  2.55500 52.50200 40.33000
O  1.42900 52.16100 40.55300
C  3.85600 51.67100 40.21900
C  3.73300 50.42500 39.39300
O  3.26400 50.39800 38.24700
O  4.13800 49.32400 40.15800
C  4.02900 47.98400 39.57400
H  10.70000 53.01600 38.80000
H  9.05200 59.50200 39.48100
H  3.00600 58.03200 39.51300
H  6.70100 50.29000 39.76300
H  9.05700 50.97900 38.11000
H  9.48000 51.32800 40.98800
H  10.30000 50.30300 39.79300
H  8.90900 49.70100 40.57700
H  5.87800 49.58500 38.04600
H  7.43900 49.85800 37.34200
H  5.90300 52.31600 36.75000
H  4.94100 50.79300 36.60700
H  13.08600 55.58800 37.85000
H  12.41900 54.12600 38.64800
H  13.16600 55.38800 39.66100
H  12.34300 60.27600 39.07500
H  11.22400 59.72400 40.22800
H  10.79000 59.81100 38.39100
H  6.98300 60.55900 39.05000
H  4.38800 59.91600 40.21300
H  7.39200 60.00400 41.79300
H  5.82400 60.62200 41.89200
H  7.07200 61.53700 41.08300
H  4.42400 59.47100 37.36300
H  5.24900 60.91000 37.84100
H  2.51600 60.39400 37.25600
H  3.24700 61.91800 37.92400
H  2.49100 60.74100 39.02700
H  0.62500 55.60700 40.68800
H  0.74400 55.14500 38.86500
H  1.26700 56.69900 39.43700
H  3.97100 51.27800 41.22900
H  3.86100 47.98800 38.49700
H  3.20600 47.45000 40.04900
H  4.93400 47.40900 39.77200

