158

Mg 36.10000 50.30500 25.64400
C  35.96700 48.33200 28.55400
C  34.42300 52.72900 27.59800
C  36.00200 52.07900 22.93800
C  37.19400 47.40900 23.85600
N  35.19600 50.45100 27.83000
C  35.46200 49.59100 28.82500
C  35.00800 50.15800 30.13700
C  34.15300 51.37200 29.74400
C  34.52500 51.47200 28.23700
C  32.59800 51.24800 30.13800
C  36.19900 50.63500 30.99600
C  36.46700 49.75300 32.25800
H  35.16800 49.38300 33.05500
N  35.31800 52.19000 25.28100
C  34.75900 53.05200 26.21500
C  34.65000 54.34500 25.62200
C  35.08400 54.24100 24.21300
C  35.48600 52.80600 24.07000
C  34.20300 55.52800 26.42500
C  35.08100 55.28100 23.09900
O  35.54300 54.97200 21.97900
C  34.60300 56.69500 23.38800
N  36.30600 49.76600 23.61600
C  36.32800 50.74200 22.73200
C  36.91100 50.25600 21.40400
C  37.46200 48.85600 21.73200
C  36.91900 48.58300 23.16400
C  35.99900 50.34400 20.16100
C  38.95000 48.62200 21.58900
C  39.39000 47.92800 20.31700
N  36.53500 48.29400 26.02900
C  36.97000 47.22900 25.24300
C  37.26900 46.07300 26.06200
C  36.81300 46.45500 27.33800
C  36.46100 47.82800 27.31900
C  37.77400 44.67000 25.64200
C  36.63500 46.02200 28.70700
O  36.74200 44.86500 29.07100
C  36.15300 47.21200 29.56800
C  34.96500 46.75700 30.30800
O  33.81000 46.79600 29.88100
O  35.33900 46.24100 31.51300
C  34.36200 45.33400 32.14500
H  34.02700 53.54400 28.20800
H  36.23300 52.65400 22.03800
H  37.73300 46.65500 23.27900
H  34.31000 49.49400 30.64600
H  34.63000 52.28400 30.10200
H  32.25100 50.22200 30.25900
H  32.01600 51.65500 29.31100
H  32.37400 51.91100 30.97400
H  36.15600 51.65600 31.37700
H  37.07300 50.53500 30.35200
H  37.19800 50.23800 32.90600
H  36.98900 48.92900 31.77200
H  33.60500 55.15600 27.25700
H  33.46000 56.09600 25.86500
H  35.04300 56.12100 26.78600
H  35.31300 57.24800 24.00300
H  33.60800 56.69600 23.83400
H  34.47000 57.23100 22.44800
H  37.74000 50.94700 21.25200
H  36.95100 48.10400 21.13100
H  36.48100 51.08300 19.52100
H  35.06900 50.71700 20.59000
H  35.96900 49.40400 19.61200
H  39.27800 47.98400 22.40900
H  39.48800 49.52900 21.86300
H  39.28200 48.69700 19.55200
H  38.84100 46.99500 20.19200
H  40.43000 47.61200 20.40300
H  38.50100 44.35600 26.39100
H  38.25700 44.71200 24.66600
H  37.03700 43.86800 25.65200
H  36.91900 47.38500 30.32400
H  34.92700 44.76100 32.88000
H  33.98100 44.60600 31.42800
H  33.51200 45.85100 32.58900
Mg -1.85000 33.67900 27.57700
C  -3.86800 32.04100 30.08100
C  -0.70000 35.76400 30.05400
C  -0.39800 35.42500 25.22700
C  -3.70000 31.92100 25.12900
N  -2.22900 33.81700 29.80300
C  -3.01300 33.01800 30.66600
C  -2.76800 33.33600 32.12700
C  -1.95100 34.66300 32.02800
C  -1.69600 34.85600 30.44400
C  -2.57300 35.89300 32.65600
C  -2.10900 32.14900 32.97100
C  -3.09100 31.61600 34.08200
H  -2.53300 31.55500 35.45500
N  -0.54000 35.30700 27.64700
C  -0.16500 36.05700 28.76700
C  0.76900 37.03200 28.30400
C  0.88800 36.96200 26.84000
C  -0.14200 35.88300 26.49300
C  1.37000 38.03900 29.22300
C  1.65200 37.89200 25.85900
O  1.56000 37.94300 24.65800
C  2.48000 38.99000 26.47600
N  -2.04100 33.65200 25.45000
C  -1.25400 34.50300 24.65600
C  -1.34000 34.21200 23.16200
C  -2.21600 32.87600 23.22600
C  -2.70000 32.80900 24.67300
C  -2.01800 35.46200 22.40900
C  -1.29800 31.59400 22.98300
C  -1.93000 30.43200 22.09700
N  -3.44600 32.18600 27.54300
C  -4.07200 31.55600 26.48100
C  -5.06600 30.68000 27.00300
C  -4.91800 30.72400 28.37900
C  -3.94400 31.71900 28.69700
C  -5.84600 29.74200 26.21500
C  -5.33800 30.10700 29.66700
O  -6.23100 29.27800 29.83400
C  -4.68400 30.94800 30.79800
C  -5.74900 31.48100 31.65200
O  -6.38100 32.48800 31.36800
O  -5.96200 30.75100 32.78300
C  -6.77800 31.39800 33.86000
H  -0.26400 36.23200 30.93900
H  0.15700 35.98800 24.47400
H  -4.29500 31.31800 24.44000
H  -3.71000 33.65100 32.57700
H  -1.00400 34.43700 32.51900
H  -2.33500 36.79700 32.09600
H  -2.37000 36.10900 33.70500
H  -3.66000 35.80800 32.63900
H  -1.17400 32.42600 33.45700
H  -1.95300 31.24400 32.38400
H  -3.41200 30.58000 33.97900
H  -3.92300 32.31300 34.17500
H  1.23100 37.91800 30.29700
H  1.06400 39.05900 28.98800
H  2.42600 37.85300 29.02900
H  1.93500 39.54800 27.23800
H  2.89600 39.63900 25.70600
H  3.35800 38.58800 26.98100
H  -0.30200 34.04100 22.87400
H  -3.07500 32.81000 22.55900
H  -2.45500 36.19300 23.08900
H  -2.72000 35.06600 21.67500
H  -1.20700 35.98800 21.90600
H  -0.89500 31.26700 23.94200
H  -0.36500 31.97200 22.56700
H  -2.91800 30.76000 21.77300
H  -1.98900 29.58200 22.77700
H  -1.35500 30.18700 21.20500
H  -5.79300 28.69200 26.50200
H  -5.56500 29.78100 25.16200
H  -6.86900 30.11700 26.24600
H  -4.10700 30.26700 31.42400
H  -6.14700 31.76500 34.67000
H  -7.54100 30.75600 34.30000
H  -7.34700 32.30100 33.63600

