158

Mg 26.11300 -0.91500 29.36600
C  27.74000 -0.76700 32.55200
C  23.19200 -0.81000 31.15900
C  24.49200 -1.16700 26.50500
C  29.17100 -1.63600 27.95600
N  25.57000 -0.74600 31.61200
C  26.42000 -0.69800 32.70900
C  25.65800 -0.52400 34.08300
C  24.15800 -0.59800 33.58600
C  24.25500 -0.70900 32.06400
C  23.19800 -1.73300 34.16100
C  26.05700 0.87900 34.76300
C  26.37200 0.85400 36.22400
H  26.22400 2.08100 37.08200
N  24.11000 -0.98200 28.88900
C  23.06600 -0.98900 29.75000
C  21.76800 -0.85100 28.98400
C  22.15100 -0.80800 27.59600
C  23.60000 -1.07100 27.62100
C  20.36900 -0.65800 29.50700
C  21.24200 -0.50600 26.41800
O  21.62900 -0.75000 25.25100
C  19.83100 0.08400 26.64300
N  26.78700 -1.29300 27.47700
C  25.87100 -1.31000 26.46200
C  26.58800 -1.62800 25.14200
C  28.08500 -1.83400 25.57400
C  28.06600 -1.60100 27.11200
C  26.06200 -2.75600 24.29300
C  29.13700 -0.94600 24.79700
C  29.27200 0.58900 25.14600
N  27.99400 -1.04000 30.03500
C  29.12600 -1.39400 29.32400
C  30.22300 -1.54100 30.20400
C  29.73100 -1.21400 31.47800
C  28.43200 -0.99800 31.33700
C  31.60000 -1.87700 29.84000
C  30.15000 -1.02000 32.90600
O  31.20400 -1.13200 33.49300
C  28.82000 -0.73500 33.63800
C  28.66600 -1.74300 34.71800
O  27.94900 -2.68400 34.55600
O  29.37900 -1.43600 35.86800
C  29.45800 -2.49600 36.89400
H  22.18300 -0.76800 31.57300
H  23.96200 -1.08300 25.55400
H  30.14600 -1.87900 27.52800
H  25.79000 -1.38800 34.73500
H  23.62200 0.33700 33.75100
H  23.56300 -2.03700 35.14200
H  23.18800 -2.58600 33.48300
H  22.15400 -1.45300 34.30200
H  25.26100 1.61700 34.66200
H  26.86000 1.37800 34.22100
H  27.38400 0.48800 36.39900
H  25.73600 0.07400 36.64200
H  20.07700 0.39000 29.57500
H  20.21100 -1.01500 30.52500
H  19.60800 -1.05600 28.83600
H  19.20900 -0.77700 26.88700
H  19.59700 0.65500 25.74500
H  19.83500 0.84200 27.42700
H  26.51100 -0.71400 24.55200
H  28.45000 -2.84400 25.38300
H  25.11000 -3.15200 24.64700
H  26.80400 -3.54500 24.17500
H  25.77800 -2.36200 23.31700
H  28.71200 -0.77600 23.80800
H  30.12200 -1.39300 24.65800
H  28.48300 0.91400 25.82500
H  29.25000 1.22400 24.26100
H  30.21100 0.77900 25.66600
H  31.69200 -2.38800 28.88100
H  31.89100 -2.62200 30.58100
H  32.36800 -1.11500 29.97100
H  28.84500 0.27100 34.05500
H  28.58800 -2.35500 37.53400
H  30.28700 -2.24100 37.55400
H  29.48000 -3.55100 36.62100
Mg 44.32000 3.18200 48.20200
C  42.11300 5.79900 47.37600
C  41.58500 1.05000 47.58400
C  46.42200 0.56700 48.14600
C  47.08400 5.44400 47.67700
N  42.06700 3.45800 47.41300
C  41.37700 4.59500 47.37700
C  39.87800 4.29100 46.99700
C  39.72600 2.81900 47.38500
C  41.22900 2.37900 47.41000
C  38.98500 2.55600 48.78000
C  39.61300 4.63800 45.50900
C  38.68600 5.80600 45.20900
H  39.03100 6.79400 44.01600
N  44.03400 1.04700 48.11600
C  42.84800 0.38100 47.88500
C  43.16200 -1.00700 47.88900
C  44.51500 -1.20100 47.97700
C  45.08600 0.15600 48.09600
C  42.10900 -2.02500 47.70500
C  45.34100 -2.49800 47.94100
O  44.80500 -3.60700 47.80600
C  46.81900 -2.55400 48.16100
N  46.39400 3.09900 48.07300
C  47.03800 1.89000 48.11600
C  48.59600 2.01600 47.87700
C  48.82800 3.54400 47.99300
C  47.37100 4.06100 47.89700
C  49.43000 1.27900 48.94300
C  49.86900 4.17400 47.06300
C  51.05100 3.24300 46.53900
N  44.57400 5.23100 47.70200
C  45.76400 6.06300 47.61000
C  45.27700 7.39400 47.38000
C  43.89200 7.31600 47.26500
C  43.54000 5.96200 47.43600
C  46.33400 8.51400 47.08800
C  42.82000 8.17600 47.04400
O  42.76500 9.42900 46.98100
C  41.57400 7.18900 47.07700
C  40.70000 7.74700 48.16000
O  40.70500 7.29000 49.29400
O  39.88400 8.75200 47.64500
C  38.66800 9.01900 48.47200
H  40.72600 0.40200 47.39900
H  47.28200 -0.10500 48.09400
H  47.89600 6.16100 47.53600
H  39.34100 4.98200 47.64600
H  39.24500 2.10800 46.71400
H  38.67900 3.46000 49.30800
H  39.72500 2.04000 49.39200
H  38.22900 1.77300 48.71800
H  39.20700 3.77300 44.98500
H  40.61300 4.69900 45.08100
H  38.55000 6.41400 46.10300
H  37.75100 5.36400 44.86200
H  41.17400 -1.64300 47.29600
H  41.99500 -2.61400 48.61500
H  42.32100 -2.83400 47.00500
H  47.42900 -2.05300 47.41000
H  47.10100 -3.60700 48.17400
H  47.03500 -2.16000 49.15400
H  48.93100 1.81700 46.85900
H  49.16000 3.75700 49.00900
H  48.81800 1.02800 49.80900
H  50.21500 1.91500 49.35200
H  49.93200 0.45800 48.43200
H  50.32200 4.97800 47.64300
H  49.39100 4.68200 46.22600
H  51.33900 2.59500 47.36700
H  51.95900 3.78700 46.27800
H  50.72000 2.75400 45.62300
H  47.22900 8.19500 46.55400
H  46.59200 9.00300 48.02700
H  45.82300 9.26300 46.48300
H  41.10600 7.33100 46.10200
H  38.53100 8.66800 49.49500
H  37.81500 8.54700 47.98600
H  38.36800 10.06600 48.42400

