158

Mg 30.21400 58.95200 39.60500
C  27.76200 56.53000 39.16700
C  32.54200 56.61800 38.64500
C  32.53900 61.39300 39.59000
C  27.71800 61.27400 40.24300
N  30.09200 56.80100 39.01000
C  28.98500 56.00600 38.86500
C  29.29600 54.71700 38.34200
C  30.90400 54.66300 38.39300
C  31.19300 56.11700 38.74000
C  31.51000 53.71100 39.37300
C  28.75500 54.78500 36.86500
C  27.93500 53.54800 36.55100
H  27.41500 53.48100 35.09800
N  32.30400 58.95200 39.27100
C  33.07300 57.91400 38.89500
C  34.45000 58.27100 38.64800
C  34.46300 59.70700 38.76300
C  33.11700 60.06800 39.29500
C  35.51500 57.20900 38.29400
C  35.63700 60.50300 38.41800
O  36.68000 59.98800 37.91900
C  35.63300 61.97300 38.69400
N  30.14800 60.94700 39.88300
C  31.25600 61.73800 39.90200
C  30.88900 63.22900 40.10900
C  29.39300 63.17600 40.38800
C  29.05800 61.68500 40.07600
C  31.58200 63.96700 41.26400
C  28.58300 64.26000 39.51700
C  27.94900 65.37000 40.34100
N  28.11400 58.98600 39.79500
C  27.26600 59.96900 40.08800
C  25.94100 59.44300 40.29700
C  26.08300 58.09300 39.85400
C  27.41800 57.87500 39.55300
C  24.74000 60.26200 40.61900
C  25.34200 56.88200 39.49700
O  24.19300 56.60400 39.51300
C  26.43700 55.82300 39.14100
C  26.51000 54.84500 40.25700
O  26.81100 55.13500 41.38800
O  25.99500 53.66600 39.82400
C  26.07100 52.63700 40.87200
H  33.15300 55.89200 38.10400
H  33.36500 62.10400 39.65200
H  26.97000 62.04400 40.44100
H  28.88400 53.90100 38.93600
H  31.37600 54.48900 37.42600
H  30.79900 52.88400 39.36500
H  31.69600 54.15100 40.35200
H  32.45900 53.45600 38.90200
H  29.59500 54.67000 36.17900
H  28.15200 55.65200 36.59600
H  27.00300 53.41300 37.09900
H  28.52900 52.64600 36.70000
H  35.27600 56.23200 38.71300
H  36.54700 57.38500 38.59900
H  35.39400 57.04100 37.22400
H  34.83000 62.43600 38.12100
H  36.56600 62.47500 38.43600
H  35.50400 62.22500 39.74700
H  31.12700 63.67500 39.14300
H  29.16200 63.25500 41.45000
H  31.78700 63.29300 42.09600
H  31.09900 64.88100 41.60900
H  32.58800 64.31000 41.02100
H  27.84700 63.72300 38.91800
H  29.20600 64.80100 38.80400
H  28.12300 65.19300 41.40200
H  26.87900 65.39900 40.13400
H  28.29900 66.31100 39.91400
H  24.68200 61.09600 39.91900
H  24.70400 60.71700 41.60900
H  23.91400 59.57300 40.44800
H  26.17600 55.41100 38.16600
H  25.16200 52.80200 41.45000
H  26.97400 52.71500 41.47800
H  26.05700 51.61900 40.48300
Mg -12.32600 39.04600 42.25300
C  -10.54600 36.20600 41.34800
C  -9.90800 40.96600 40.83200
C  -14.36200 41.73900 42.84100
C  -15.02100 36.88400 43.10600
N  -10.56900 38.58600 40.92400
C  -10.00600 37.34600 40.81200
C  -8.71100 37.48400 39.96000
C  -8.28900 38.99700 40.15600
C  -9.63400 39.58400 40.59500
C  -7.18000 39.16000 41.23100
C  -8.96700 37.09000 38.38900
C  -7.92900 36.09700 37.78900
H  -6.72000 36.66800 37.14400
N  -12.11700 41.13000 41.97600
C  -11.02000 41.67900 41.43700
C  -11.07400 43.07700 41.67400
C  -12.39700 43.38400 42.08900
C  -13.05200 42.08900 42.31500
C  -9.88600 43.96300 41.31300
C  -12.93900 44.78700 42.25700
O  -12.26300 45.73700 41.86700
C  -14.38400 45.06200 42.83800
N  -14.37000 39.26400 43.02000
C  -14.99900 40.48000 43.02300
C  -16.47100 40.33900 43.51100
C  -16.60700 38.77700 43.78800
C  -15.29500 38.28400 43.23600
C  -16.77600 41.18500 44.76000
C  -17.88200 38.06100 43.19700
C  -18.44000 36.85000 43.95200
N  -12.70100 36.96300 42.34800
C  -13.87800 36.24300 42.67900
C  -13.61300 34.84500 42.53500
C  -12.28600 34.77000 42.16900
C  -11.78700 36.07000 42.01500
C  -14.66100 33.80400 42.76300
C  -11.22500 33.88200 41.79800
O  -11.13700 32.64700 41.85500
C  -10.01200 34.76800 41.22000
C  -8.73100 34.44500 42.07300
O  -8.48000 34.89900 43.21800
O  -7.91100 33.62400 41.40400
C  -6.84200 33.12500 42.18700
H  -8.99400 41.41000 40.43200
H  -15.03100 42.58100 43.02500
H  -15.86500 36.19700 43.20200
H  -7.96700 36.81500 40.39300
H  -8.00700 39.39700 39.18200
H  -7.42300 40.03700 41.83100
H  -6.16200 39.16100 40.84200
H  -7.33100 38.31400 41.90100
H  -8.97800 37.95000 37.71900
H  -9.95200 36.63100 38.29600
H  -8.42000 35.54100 36.99000
H  -7.55400 35.52200 38.63500
H  -10.14900 44.28100 40.30400
H  -8.96000 43.40500 41.17600
H  -9.74700 44.80900 41.98600
H  -14.98800 44.56600 42.07900
H  -14.58400 46.13300 42.86800
H  -14.47400 44.55700 43.80000
H  -17.05300 40.66800 42.65000
H  -16.47900 38.35600 44.78600
H  -16.81500 42.23100 44.45400
H  -15.98400 41.11400 45.50400
H  -17.67200 40.75400 45.20600
H  -17.52800 37.76800 42.20900
H  -18.77600 38.63400 42.95100
H  -19.47400 36.71200 43.63500
H  -18.49000 36.99700 45.03100
H  -17.99700 35.90000 43.65400
H  -14.41900 32.81100 42.38300
H  -15.50500 34.24800 42.23500
H  -14.76300 33.67700 43.84100
H  -9.95900 34.63200 40.13900
H  -7.25100 32.78900 43.14000
H  -5.98300 33.77100 42.37300
H  -6.55000 32.17000 41.75200

