158

Mg 8.52900 3.28200 27.98700
C  9.93300 1.57300 30.71900
C  6.34300 4.74100 30.02300
C  7.31800 4.55500 25.17400
C  10.74200 1.18200 25.96700
N  8.11600 3.05200 30.08100
C  8.83100 2.44900 31.02500
C  8.45900 2.85100 32.45400
C  7.09100 3.63800 32.21100
C  7.17300 3.82000 30.65400
C  5.75300 2.81800 32.56900
C  9.57800 3.64100 33.23600
C  9.24700 4.71400 34.29200
H  9.99700 4.46000 35.64200
N  6.99400 4.44900 27.63100
C  6.27600 5.11900 28.63200
C  5.48500 6.10900 28.03500
C  5.75000 6.11400 26.65300
C  6.66300 4.94500 26.40100
C  4.54000 7.09700 28.81300
C  5.25700 7.02200 25.50700
O  5.61800 6.86300 24.32200
C  4.34300 8.16200 25.80600
N  8.89800 2.77200 25.87700
C  8.26800 3.57500 24.92000
C  8.91800 3.35400 23.51000
C  9.94100 2.33700 23.81400
C  9.86000 2.08000 25.30400
C  7.85100 2.95100 22.45700
C  11.26300 2.69200 23.23900
C  12.33300 3.41100 24.09300
N  9.93200 1.58400 28.21100
C  10.74400 0.85500 27.34900
C  11.55600 -0.10600 27.96500
C  11.36000 0.23600 29.31800
C  10.33300 1.19900 29.42200
C  12.50100 -1.12300 27.44000
C  11.79200 -0.11200 30.60300
O  12.64000 -0.88800 31.00400
C  10.92000 0.90200 31.60800
C  10.27200 0.10000 32.71900
O  9.23400 -0.57700 32.56600
O  10.95600 0.23300 33.95700
C  10.27800 -0.44500 35.14300
H  5.76700 5.30600 30.75900
H  7.06200 5.22200 24.34800
H  11.61700 0.74600 25.48100
H  8.24900 1.94100 33.01700
H  7.19600 4.66900 32.54900
H  5.21900 2.60000 31.64500
H  5.08400 3.40700 33.19700
H  6.01000 1.91800 33.12900
H  10.36400 4.01800 32.58000
H  10.23000 2.95300 33.77400
H  8.16500 4.68900 34.42700
H  9.57200 5.66000 33.85800
H  5.07700 8.04100 28.91300
H  4.24400 6.52700 29.69300
H  3.56400 7.27100 28.35900
H  3.37300 7.74600 26.08100
H  4.05300 8.81500 24.98300
H  4.77100 8.80100 26.57800
H  9.29000 4.33500 23.21500
H  9.68400 1.40200 23.31600
H  6.84500 3.30700 22.68300
H  7.68700 1.90300 22.20700
H  8.12000 3.50800 21.56000
H  11.09400 3.33400 22.37400
H  11.74000 1.76600 22.91700
H  11.99700 3.66600 25.09800
H  12.55200 4.37600 23.63400
H  13.25800 2.86200 24.27000
H  13.32400 -0.62800 26.92400
H  12.04100 -1.76300 26.68700
H  12.94300 -1.75300 28.21200
H  11.61200 1.54900 32.14700
H  10.17600 -1.53000 35.17100
H  9.24800 -0.13600 35.31900
H  10.84000 -0.23300 36.05300
Mg -5.41800 26.20600 26.01500
C  -3.89600 27.51000 28.91200
C  -7.07000 24.02800 27.92800
C  -6.54900 24.65300 23.26100
C  -3.32500 28.28200 24.08400
N  -5.34400 25.75700 28.14700
C  -4.75100 26.46900 29.14800
C  -5.24100 26.03200 30.57200
C  -6.05500 24.75100 30.20700
C  -6.19700 24.83700 28.67200
C  -5.31600 23.48800 30.82800
C  -6.11500 27.12500 31.29600
C  -6.16500 26.99400 32.82700
H  -5.54100 25.79700 33.46500
N  -6.80600 24.71700 25.59200
C  -7.39400 23.95500 26.50700
C  -8.28000 22.92000 25.90300
C  -8.08200 23.07800 24.52100
C  -7.13000 24.15100 24.40500
C  -9.14700 22.00600 26.72200
C  -8.66600 22.35700 23.31900
O  -8.29900 22.45800 22.15900
C  -9.78500 21.40200 23.65500
N  -4.95300 26.39100 23.97300
C  -5.57200 25.64000 23.07100
C  -5.13800 26.10300 21.66900
C  -4.12000 27.27200 21.87100
C  -4.17000 27.42800 23.38300
C  -4.72000 25.06500 20.63500
C  -4.49600 28.54700 21.14500
C  -4.21100 28.59700 19.65600
N  -3.93900 27.58300 26.33500
C  -3.13100 28.26000 25.43100
C  -2.19700 29.16800 26.22300
C  -2.46300 28.86300 27.59100
C  -3.54000 27.90800 27.60100
C  -1.33000 30.22400 25.66400
C  -2.12800 29.16300 28.95100
O  -1.26300 29.87200 29.43300
C  -3.03500 28.26800 29.88600
C  -2.17000 27.38800 30.79700
O  -1.86600 26.22500 30.58000
O  -1.96500 27.93400 31.98900
C  -1.28400 27.16700 33.02300
H  -7.44300 23.25100 28.59900
H  -6.98200 24.31200 22.31900
H  -2.75700 29.03200 23.52900
H  -4.39200 25.78100 31.20700
H  -7.05300 24.73000 30.64400
H  -4.33200 23.75600 31.21300
H  -5.08700 22.78200 30.02900
H  -5.95300 22.99500 31.56200
H  -7.14800 26.83500 31.10200
H  -5.88000 28.10600 30.88500
H  -7.22000 27.09900 33.08000
H  -5.68500 27.89700 33.20400
H  -10.10400 21.96900 26.20200
H  -9.29400 22.39900 27.72800
H  -8.75000 20.99300 26.65900
H  -10.57000 21.96600 24.16000
H  -9.45600 20.54300 24.23900
H  -10.14800 20.95100 22.73100
H  -6.01600 26.58600 21.23900
H  -3.16700 26.84000 21.56400
H  -3.66200 25.13100 20.38100
H  -5.24300 25.10200 19.67900
H  -4.92500 24.08000 21.05400
H  -3.84400 29.29700 21.59400
H  -5.56300 28.72600 21.28000
H  -5.03700 28.60200 18.94500
H  -3.62100 27.74200 19.32400
H  -3.65800 29.53500 19.60200
H  -2.04500 31.04200 25.74600
H  -0.99100 29.93100 24.67000
H  -0.35800 30.43700 26.11000
H  -3.68300 28.87200 30.52200
H  -0.21500 27.11200 32.82000
H  -1.77000 26.21600 33.23900
H  -1.39600 27.82500 33.88500

