158

Mg 1.42800 -0.79400 43.78000
C  4.68900 0.09500 43.16300
C  0.35000 1.92400 41.96100
C  -1.81500 -2.16700 43.41000
C  2.57700 -3.95400 44.88500
N  2.42300 0.69200 42.58500
C  3.76600 0.98200 42.58200
C  4.02800 2.35100 41.90000
C  2.63700 3.04900 41.85000
C  1.70500 1.81600 42.21900
C  2.47500 4.38900 42.67700
C  4.73900 2.19300 40.44300
C  5.97200 3.06200 40.25300
H  5.88900 3.97500 39.11300
N  -0.53500 -0.17200 42.87400
C  -0.70700 1.01600 42.23400
C  -2.14100 1.15100 41.85000
C  -2.82300 0.00300 42.41300
C  -1.77300 -0.85700 42.99400
C  -2.73400 2.45300 41.22500
C  -4.33200 -0.26600 42.34400
O  -5.06800 0.56800 41.84600
C  -4.93500 -1.28300 43.34300
N  0.54200 -2.80300 44.17800
C  -0.77900 -3.03600 43.95000
C  -1.17800 -4.44500 44.37600
C  0.22400 -5.01300 44.82000
C  1.20100 -3.92700 44.61400
C  -2.20000 -4.61000 45.46400
C  0.70300 -6.39300 44.27400
C  0.82700 -7.55400 45.27700
N  3.24900 -1.68600 44.16400
C  3.51700 -2.96100 44.56800
C  4.94700 -3.14200 44.62600
C  5.49200 -1.91400 44.06600
C  4.39100 -1.08900 43.77900
C  5.72300 -4.28900 45.12300
C  6.74900 -1.14700 43.82500
O  7.93200 -1.34800 44.12200
C  6.19200 0.25000 43.24600
C  6.61800 1.37300 44.05600
O  5.90400 1.98200 44.82700
O  7.94800 1.66200 43.76700
C  8.59300 2.90000 44.22000
H  0.02000 2.90400 41.61000
H  -2.74400 -2.72100 43.56100
H  3.05200 -4.85100 45.28700
H  4.66400 2.95600 42.54700
H  2.36500 3.20800 40.80700
H  2.07300 5.11400 41.97000
H  3.34700 4.83100 43.16000
H  1.66300 4.31100 43.40000
H  4.03300 2.51700 39.67900
H  4.92800 1.12200 40.37000
H  6.81000 2.39500 40.05200
H  6.09500 3.62700 41.17800
H  -3.61900 2.64300 41.83300
H  -2.96200 2.27400 40.17400
H  -2.04600 3.28900 41.34800
H  -5.95300 -0.90000 43.40800
H  -4.37000 -1.28500 44.27500
H  -4.97600 -2.27000 42.88200
H  -1.57500 -5.05400 43.56400
H  0.20800 -5.01200 45.91000
H  -2.17000 -3.67900 46.02900
H  -1.96100 -5.34500 46.23300
H  -3.19000 -4.76900 45.03700
H  1.68200 -6.29600 43.80500
H  0.03600 -6.68300 43.46200
H  1.70100 -8.15700 45.03200
H  -0.04500 -8.20800 45.26200
H  1.08600 -7.15500 46.25700
H  5.27600 -4.71100 46.02300
H  6.75600 -4.08000 45.39900
H  5.66600 -5.03700 44.33100
H  6.83500 0.19800 42.36700
H  8.14800 3.29900 45.13200
H  8.42100 3.68000 43.47800
H  9.65700 2.81400 44.43800
Mg 35.77100 2.40200 30.19400
C  33.44100 3.84600 32.32800
C  38.07000 2.24200 32.73700
C  38.05400 1.29700 27.88600
C  33.26200 2.43100 27.65800
N  35.72800 3.03000 32.21300
C  34.66200 3.58000 32.90700
C  35.05000 3.64400 34.44200
C  36.55900 3.49100 34.49900
C  36.78000 2.84400 33.10000
C  37.42700 4.69200 34.72300
C  34.25500 2.64700 35.33500
C  34.08600 3.03500 36.75500
H  34.71100 4.30700 37.33100
N  37.74400 1.90000 30.30900
C  38.54400 1.86600 31.44400
C  39.78200 1.25800 31.16800
C  39.74000 0.88400 29.80200
C  38.45300 1.39300 29.26100
C  40.82300 1.06900 32.30000
C  40.83600 0.21000 29.06200
O  40.68500 -0.20900 27.92700
C  42.18800 -0.09200 29.71700
N  35.68200 1.92900 28.12400
C  36.77300 1.52300 27.42400
C  36.39400 1.26200 25.97100
C  34.81400 1.32400 26.00900
C  34.57900 2.02700 27.32700
C  36.98700 2.36800 25.03100
C  34.16600 -0.09900 25.93100
C  32.74700 -0.12600 25.36900
N  33.79100 3.12000 29.91600
C  32.92100 3.16500 28.84500
C  31.65200 3.73300 29.24300
C  31.80900 3.96200 30.59600
C  33.10400 3.64400 30.96400
C  30.43300 3.93900 28.41800
C  31.10000 4.44300 31.76900
O  29.94300 4.72600 31.92400
C  32.12400 4.46600 32.98800
C  32.33600 5.83200 33.48800
O  33.15400 6.61800 33.08200
O  31.51300 6.01200 34.58600
C  31.70200 7.20900 35.41000
H  38.74400 2.20900 33.59600
H  38.83500 0.91000 27.22800
H  32.58000 2.20200 26.83600
H  34.88600 4.66000 34.80300
H  36.80500 2.75300 35.26200
H  37.65200 4.79500 35.78500
H  36.76000 5.54600 34.60100
H  38.31900 4.72200 34.09700
H  34.69100 1.64800 35.35500
H  33.28500 2.47700 34.86600
H  34.33000 2.19400 37.40400
H  33.00500 2.99900 36.88600
H  41.89100 0.93100 32.13600
H  40.45000 0.26300 32.93300
H  40.69500 1.99300 32.86300
H  42.52900 0.73400 30.34100
H  42.95000 -0.44700 29.02300
H  42.19300 -0.96000 30.37600
H  36.54600 0.25000 25.59500
H  34.34600 1.90400 25.21400
H  37.59400 2.00200 24.20300
H  37.48900 3.14700 25.60400
H  36.20800 2.97600 24.57000
H  34.12100 -0.39400 26.98000
H  34.84000 -0.80100 25.43900
H  32.58800 0.47000 24.47000
H  31.98800 0.07200 26.12600
H  32.69500 -1.09500 24.87300
H  29.71100 3.13000 28.52200
H  30.68800 4.06400 27.36500
H  30.14700 4.92600 28.78100
H  31.72200 3.83600 33.78200
H  32.75600 7.42900 35.57800
H  31.11700 7.01500 36.30900
H  31.24900 8.02600 34.84800

