158

Mg 30.46200 57.64900 40.05000
C  27.70100 55.79000 39.01200
C  32.50300 55.01800 39.31200
C  33.07400 59.78300 40.25700
C  28.37200 60.42600 40.56400
N  30.13800 55.71500 39.09900
C  28.92800 55.06100 38.89700
C  29.10500 53.63300 38.51600
C  30.52200 53.33500 39.12500
C  31.12300 54.75700 39.17500
C  30.39900 52.74200 40.53300
C  29.09500 53.42000 36.96400
C  27.98800 52.56700 36.29000
H  27.05300 53.22500 35.28700
N  32.51300 57.46500 39.81500
C  33.16200 56.27700 39.63500
C  34.52800 56.45700 39.58000
C  34.79600 57.85100 39.80700
C  33.42000 58.44700 40.02700
C  35.43500 55.40900 39.20200
C  36.17100 58.54200 39.83800
O  37.26500 58.02300 39.59000
C  36.23800 60.04200 40.29700
N  30.66500 59.83900 40.38200
C  31.90300 60.42600 40.36500
C  31.75100 61.95000 40.67700
C  30.24700 62.11200 40.83400
C  29.69800 60.74700 40.59500
C  32.63400 62.55300 41.84700
C  29.69600 63.30100 39.94500
C  29.03500 64.44900 40.67100
N  28.40800 58.04400 39.96700
C  27.70400 59.18900 40.28600
C  26.26000 58.78500 40.21800
C  26.25300 57.52600 39.65000
C  27.55600 57.13700 39.44800
C  25.00200 59.62800 40.70800
C  25.36700 56.39500 39.34800
O  24.12800 56.34400 39.32000
C  26.26600 55.17400 38.88500
C  25.86600 54.04200 39.82700
O  26.54300 53.59100 40.65600
O  24.70900 53.44800 39.36600
C  24.43800 52.08800 39.84200
H  33.14900 54.13800 39.30100
H  33.85300 60.53400 40.40800
H  27.67300 61.19800 40.89200
H  28.35100 53.09100 39.08600
H  31.09200 52.66800 38.47800
H  31.05900 51.87400 40.51700
H  29.39500 52.34800 40.69000
H  30.62200 53.32600 41.42500
H  30.03400 52.98600 36.62200
H  29.22100 54.39800 36.49900
H  27.35600 52.11000 37.05200
H  28.51000 51.76400 35.76900
H  35.09200 54.91300 38.29400
H  35.36000 54.62700 39.95800
H  36.49400 55.65600 39.12800
H  35.86400 60.20500 41.30800
H  35.66100 60.69900 39.64600
H  37.31200 60.23000 40.28600
H  32.04300 62.50700 39.78700
H  29.90600 62.36700 41.83800
H  33.48400 63.02400 41.35300
H  33.00700 61.74500 42.47700
H  32.10700 63.29200 42.45100
H  28.84000 62.97900 39.35300
H  30.40800 63.71800 39.23200
H  27.94500 64.44600 40.69200
H  29.35900 65.39800 40.24400
H  29.34100 64.51600 41.71500
H  24.39800 59.78600 39.81400
H  25.28100 60.48700 41.31900
H  24.42900 58.96100 41.35200
H  26.23200 54.85000 37.84400
H  23.36800 51.98900 40.02300
H  24.86200 51.90700 40.82900
H  24.75000 51.30400 39.15300
Mg 36.62000 49.21900 24.73400
C  36.56800 47.43800 27.84700
C  35.36200 51.89300 26.20900
C  36.20600 50.72900 21.66500
C  37.40300 46.25100 23.13200
N  35.93200 49.56500 26.80300
C  36.13000 48.78300 27.90200
C  35.84000 49.58000 29.19100
C  35.22200 50.93000 28.65300
C  35.45500 50.82300 27.13100
C  33.74800 51.45400 29.08800
C  37.15300 49.69500 30.01900
C  37.10200 49.49900 31.53600
H  35.78800 49.53800 32.35300
N  35.92200 51.05900 23.98700
C  35.55000 52.08800 24.83500
C  35.37600 53.30000 24.07400
C  35.62700 52.97500 22.68200
C  35.91200 51.53400 22.69600
C  35.18100 54.67100 24.75600
C  35.77300 53.93400 21.53100
O  35.95600 53.50700 20.40100
C  35.55900 55.47200 21.68000
N  36.85300 48.63500 22.71700
C  36.58600 49.40100 21.65900
C  36.88600 48.73100 20.31200
C  37.21500 47.28000 20.81300
C  37.14500 47.40100 22.35200
C  35.69100 48.72400 19.36200
C  38.47900 46.69900 20.22100
C  39.82000 47.20400 20.81000
N  37.07800 47.22700 25.36400
C  37.35100 46.19100 24.56600
C  37.71800 45.09000 25.44800
C  37.38500 45.48700 26.78600
C  36.99600 46.83700 26.63800
C  38.26300 43.82500 24.85400
C  37.31500 45.11900 28.16600
O  37.60400 44.02100 28.60800
C  36.82500 46.42000 28.94600
C  35.77600 46.02400 29.90500
O  34.57100 45.98200 29.69400
O  36.42400 45.60800 31.01300
C  35.60100 45.19600 32.18900
H  34.95300 52.71600 26.80000
H  36.30300 51.27300 20.72300
H  37.74900 45.42700 22.50400
H  35.05300 48.97000 29.63400
H  35.86500 51.71400 29.05100
H  33.12200 50.60300 29.35500
H  33.15800 51.97700 28.33500
H  33.83700 52.19200 29.88600
H  37.61900 50.67000 29.87900
H  37.89000 48.99600 29.62300
H  37.88100 50.09000 32.01600
H  37.34000 48.44200 31.65600
H  36.02100 55.35900 24.66800
H  35.18000 54.58200 25.84300
H  34.21000 55.12700 24.56300
H  34.56300 55.58900 22.10700
H  35.76800 55.99800 20.74800
H  36.34300 55.76000 22.38000
H  37.76400 49.29100 19.99100
H  36.43600 46.54000 20.62700
H  34.89300 49.16600 19.95900
H  35.34300 47.75200 19.01500
H  36.00900 49.34200 18.52200
H  38.50100 47.04700 19.18900
H  38.49700 45.61000 20.27100
H  40.41500 47.52600 19.95500
H  40.27000 46.37200 21.35200
H  39.70100 48.06800 21.46300
H  38.91100 44.15700 24.04300
H  37.41500 43.25700 24.47100
H  38.94600 43.34200 25.55300
H  37.65600 46.66700 29.60800
H  35.45600 46.11600 32.75600
H  36.21600 44.43300 32.66600
H  34.64400 44.76900 31.88900

