158

Mg 47.95400 34.72400 26.73600
C  46.01700 33.03800 29.38600
C  48.05900 37.41300 28.60700
C  49.33800 36.16400 24.12000
C  47.05900 31.75400 24.71400
N  47.01300 35.15200 28.75700
C  46.41200 34.34900 29.66200
C  46.57600 35.03400 31.05400
C  46.66800 36.59100 30.76700
C  47.21100 36.42500 29.26200
C  45.42100 37.45800 30.92100
C  47.66900 34.44900 31.99700
C  47.72800 35.05900 33.42000
H  46.50400 35.82000 33.96800
N  48.60300 36.58400 26.41300
C  48.68500 37.49300 27.38400
C  49.51000 38.61100 26.88400
C  49.80900 38.36500 25.58100
C  49.25800 36.97400 25.30600
C  50.03200 39.85200 27.65200
C  50.44700 39.21600 24.54100
O  50.60600 38.85300 23.39200
C  50.89400 40.55600 24.83400
N  48.10700 34.06600 24.75700
C  48.76400 34.91900 23.90800
C  49.11300 34.03100 22.60600
C  48.45500 32.64800 22.75000
C  47.86100 32.78800 24.12800
C  48.85000 34.85500 21.23500
C  49.36900 31.37700 22.54600
C  49.10700 30.54900 21.35100
N  46.86800 32.73300 26.99700
C  46.58100 31.72900 26.04900
C  45.82600 30.67000 26.64300
C  45.61400 31.17200 27.95500
C  46.19700 32.45700 28.08100
C  45.29400 29.46700 25.94000
C  44.87700 30.88700 29.21500
O  44.11900 29.94100 29.45000
C  45.25100 31.99400 30.22000
C  46.11200 31.35000 31.28500
O  47.31300 31.13700 31.25800
O  45.38300 31.19900 32.38100
C  45.91000 30.67700 33.65800
H  48.14700 38.28600 29.25700
H  49.85600 36.50200 23.22000
H  46.82900 30.95400 24.00800
H  45.65600 34.71300 31.54300
H  47.43800 36.97500 31.43700
H  44.64000 36.89200 31.42900
H  45.01600 37.78600 29.96400
H  45.66600 38.39300 31.42400
H  48.65600 34.65600 31.58400
H  47.53000 33.37800 32.14500
H  48.60800 35.69500 33.51800
H  47.90400 34.19100 34.05600
H  51.09100 39.90900 27.40100
H  50.13800 39.84100 28.73700
H  49.36500 40.67000 27.38000
H  50.03500 41.04900 25.28800
H  51.13600 41.02600 23.88000
H  51.78200 40.55100 25.46500
H  50.18300 33.87800 22.74400
H  47.54200 32.64400 22.15400
H  48.78200 34.01100 20.54800
H  49.58800 35.56000 20.85300
H  47.88400 35.34800 21.12800
H  49.28600 30.81000 23.47300
H  50.43700 31.59600 22.53900
H  49.93200 30.63300 20.64400
H  48.11900 30.64100 20.90100
H  49.23500 29.54000 21.74100
H  46.11500 28.78800 25.71000
H  44.69000 29.81000 25.10000
H  44.58200 28.92700 26.56500
H  44.44400 32.54100 30.70800
H  45.17400 29.92600 33.94300
H  45.85800 31.48800 34.38500
H  46.89800 30.23800 33.51700
Mg -10.14600 17.24500 41.28400
C  -6.61600 16.65700 41.48600
C  -9.38300 20.56800 40.22400
C  -13.41500 17.73200 40.66500
C  -10.54400 13.79400 41.52100
N  -8.22400 18.50000 40.89400
C  -6.91400 18.00600 41.05600
C  -6.02400 19.06800 40.46700
C  -6.84700 20.33000 40.72700
C  -8.22100 19.76400 40.46500
C  -6.68700 20.96500 42.07900
C  -5.58700 18.91900 39.06200
C  -4.13400 18.52100 38.88200
H  -3.83200 17.24400 38.04500
N  -11.21400 18.91200 40.57600
C  -10.75500 20.16500 40.25600
C  -11.85800 21.01600 39.92200
C  -13.08400 20.21200 40.09100
C  -12.62100 18.91000 40.51500
C  -11.81300 22.47700 39.41900
C  -14.55700 20.79500 39.84500
O  -14.79100 21.95100 39.42800
C  -15.76100 19.97600 40.18200
N  -11.68300 15.95400 40.85900
C  -12.96300 16.42300 40.88000
C  -14.01000 15.30400 40.98300
C  -13.06700 14.06100 41.17400
C  -11.66000 14.65200 41.04900
C  -15.06000 15.41100 42.11900
C  -13.31000 12.95400 40.14600
C  -12.88300 13.20700 38.67500
N  -8.91000 15.57500 41.59300
C  -9.21700 14.27000 41.73800
C  -7.98000 13.47600 41.88800
C  -6.94200 14.42200 41.91300
C  -7.55800 15.67700 41.68800
C  -7.92800 11.97300 42.01100
C  -5.44200 14.53000 41.86100
O  -4.58300 13.64800 41.80900
C  -5.14900 16.02100 41.66500
C  -4.36900 16.60900 42.74900
O  -3.72600 17.65500 42.66300
O  -4.52100 15.93000 43.93700
C  -3.75600 16.45700 45.06900
H  -9.02700 21.58600 40.05200
H  -14.50000 17.76200 40.54500
H  -10.71500 12.71700 41.57700
H  -5.16700 19.22100 41.12300
H  -6.77400 21.19800 40.07100
H  -6.35200 22.00100 42.03600
H  -5.92500 20.52900 42.72400
H  -7.60800 21.07200 42.65200
H  -5.78300 19.84100 38.51300
H  -6.17100 18.17300 38.52400
H  -3.66800 18.31000 39.84400
H  -3.42200 19.21100 38.42800
H  -11.01300 23.06200 39.87200
H  -12.73700 23.04600 39.51500
H  -11.46200 22.34300 38.39600
H  -15.62400 19.49400 41.15100
H  -15.95900 19.20200 39.44000
H  -16.65000 20.59900 40.27700
H  -14.47800 15.22000 40.00200
H  -13.24200 13.59000 42.14100
H  -14.88300 16.38000 42.58700
H  -15.04800 14.58000 42.82400
H  -16.00500 15.55600 41.59400
H  -14.37100 12.70400 40.13700
H  -12.78400 12.08300 40.53900
H  -13.75900 13.38200 38.05000
H  -12.28500 12.39600 38.25900
H  -12.27900 14.11200 38.72900
H  -8.58200 11.73200 42.84800
H  -6.95900 11.51700 42.21400
H  -8.31700 11.69900 41.03000
H  -4.63500 15.95800 40.70500
H  -3.11100 17.31800 44.89400
H  -3.06900 15.64000 45.29500
H  -4.29700 16.56200 46.01000

