158

Mg 0.14700 7.43700 25.46500
C  1.11200 9.54900 28.13600
C  0.54400 4.75400 27.44100
C  -0.46300 5.57600 22.82700
C  0.60900 10.28100 23.31200
N  0.89900 7.20200 27.58900
C  1.07300 8.15000 28.48800
C  1.23400 7.55600 29.90500
C  1.36300 6.03300 29.57500
C  0.98700 5.94200 28.09700
C  2.81000 5.42400 29.66800
C  -0.05600 7.92200 30.76500
C  -0.46300 7.04800 31.99000
H  0.68400 6.63400 32.98800
N  -0.02900 5.39000 25.21500
C  0.09600 4.42800 26.11400
C  -0.27600 3.14200 25.54300
C  -0.36600 3.40200 24.12000
C  -0.22300 4.83200 24.00500
C  -0.17300 1.88500 26.39900
C  -0.56200 2.33600 22.99100
O  -0.66200 2.67300 21.78200
C  -0.51700 0.83200 23.32900
N  0.05100 7.86300 23.35500
C  -0.46300 6.98600 22.52400
C  -0.74600 7.46600 21.16300
C  -0.51600 9.06200 21.39500
C  0.20500 9.08800 22.73900
C  0.01700 6.97800 19.96400
C  -1.84100 9.86900 21.51200
C  -2.01900 10.80900 20.30300
N  0.72300 9.52700 25.66500
C  0.78700 10.51500 24.67500
C  1.20000 11.73600 25.32400
C  1.32600 11.43700 26.72500
C  1.11700 10.05300 26.82600
C  1.13900 13.08800 24.69000
C  1.66600 11.88200 28.01400
O  1.89500 13.02100 28.38100
C  1.43100 10.69800 29.05400
C  2.65700 10.61800 29.75000
O  3.72800 10.24300 29.32500
O  2.39900 10.82100 31.10800
C  3.44700 10.22300 31.98900
H  0.61000 3.88800 28.10300
H  -0.91100 4.92900 22.07100
H  0.53300 11.14900 22.65400
H  2.13500 7.92400 30.39500
H  0.73100 5.39600 30.19300
H  2.81300 4.46400 30.18300
H  3.36800 6.14300 30.26800
H  3.29800 5.17700 28.72500
H  -0.89300 8.07800 30.08400
H  0.22400 8.88300 31.19500
H  -0.90200 6.16600 31.52500
H  -1.23100 7.67000 32.44900
H  0.31100 1.11900 25.79200
H  -1.18700 1.52100 26.56800
H  0.34500 2.08400 27.33700
H  -0.57500 0.31700 22.36900
H  -1.32200 0.66600 24.04600
H  0.45600 0.62700 23.77500
H  -1.81300 7.39800 20.95200
H  0.16100 9.35300 20.59200
H  0.48300 6.04000 20.26700
H  0.72800 7.70000 19.56300
H  -0.74000 6.75500 19.21200
H  -1.80000 10.42400 22.44900
H  -2.75800 9.28800 21.60600
H  -1.88800 10.14800 19.44700
H  -1.21300 11.52700 20.14900
H  -3.00400 11.27300 20.35400
H  2.14900 13.29600 24.33600
H  0.82700 13.74400 25.50300
H  0.43200 13.10800 23.86100
H  0.52900 10.98000 29.59800
H  4.46300 10.55300 31.77300
H  3.43800 9.13500 32.04200
H  3.36100 10.43100 33.05600
Mg 43.76400 3.77600 46.68100
C  41.50200 6.70500 46.48800
C  40.98700 1.78100 46.40100
C  45.80000 1.21400 46.14200
C  46.37700 6.01400 46.77100
N  41.52600 4.28800 46.36000
C  40.80500 5.48200 46.49200
C  39.31500 5.20100 46.61100
C  39.26100 3.63400 46.78300
C  40.70500 3.15400 46.51800
C  38.71900 3.00800 48.08100
C  38.38400 5.75200 45.43100
C  38.83700 5.25500 44.01300
H  39.17100 6.39500 42.96700
N  43.44000 1.71800 46.19900
C  42.23400 1.11200 46.14600
C  42.50600 -0.29800 45.99900
C  43.81600 -0.52400 45.72300
C  44.44300 0.82900 45.95500
C  41.37100 -1.38300 45.90000
C  44.47000 -1.85500 45.27000
O  43.81900 -2.89200 45.22100
C  45.91200 -1.93600 44.89400
N  45.84200 3.59600 46.25500
C  46.43000 2.39400 46.38700
C  47.97200 2.52200 46.70600
C  48.09100 4.12000 46.83400
C  46.71600 4.66600 46.60300
C  48.44200 1.77500 47.94400
C  49.16000 4.74400 46.08100
C  50.56100 4.99900 46.68500
N  43.96400 5.93700 46.47100
C  45.08100 6.65100 46.61700
C  44.78500 8.05500 46.56200
C  43.37100 8.15500 46.58500
C  42.91000 6.83000 46.44700
C  45.77800 9.15700 46.72300
C  42.21400 9.04900 46.60000
O  42.12100 10.30100 46.57300
C  40.91000 8.08900 46.64000
C  40.30900 8.31700 47.90200
O  40.65500 7.69400 48.91200
O  39.28300 9.23400 47.76700
C  38.51300 9.28900 49.04500
H  40.05900 1.20500 46.40100
H  46.56100 0.44800 45.98100
H  47.24800 6.65900 46.90800
H  39.03700 5.65600 47.56200
H  38.64200 3.29500 45.95200
H  38.22500 3.77700 48.67500
H  39.48700 2.53000 48.69100
H  37.96500 2.25900 47.84000
H  38.28200 6.83100 45.54500
H  37.37700 5.42200 45.68700
H  38.06600 4.57800 43.64400
H  39.70800 4.60500 44.09500
H  41.21500 -1.38900 44.82200
H  40.44100 -1.06400 46.37000
H  41.68200 -2.38400 46.20000
H  46.60600 -2.06200 45.72500
H  46.09500 -0.96100 44.44200
H  46.09500 -2.69900 44.13800
H  48.57000 2.25300 45.83500
H  48.38700 4.29900 47.86800
H  49.02300 0.90100 47.65100
H  47.56400 1.34000 48.42300
H  49.04300 2.33700 48.65900
H  48.70300 5.66600 45.72300
H  49.31900 4.14900 45.18100
H  50.78200 4.15800 47.34300
H  50.61300 5.88400 47.31900
H  51.36300 5.09900 45.95400
H  46.59500 9.04200 46.01000
H  46.27100 8.94200 47.67100
H  45.49000 10.19600 46.56100
H  40.40200 8.23900 45.68700
H  39.08300 9.23700 49.97200
H  37.69300 8.57400 49.11700
H  37.91800 10.19000 49.19300

