158

Mg -1.62300 17.99700 27.57800
C  -2.10900 15.63400 30.13500
C  -1.86000 20.46200 29.96200
C  -1.75600 20.23900 25.02000
C  -1.61600 15.34600 25.26100
N  -1.74900 17.99700 29.84200
C  -2.01500 16.95900 30.68300
C  -2.32500 17.42900 32.12100
C  -2.58300 18.89500 31.81200
C  -2.02300 19.17400 30.47500
C  -4.12500 19.22900 32.04700
C  -1.19500 17.11300 33.15600
C  -1.46800 16.36800 34.42800
H  -0.18600 16.34600 35.34700
N  -1.57700 20.02500 27.47700
C  -1.62500 20.86300 28.62000
C  -1.45300 22.21600 28.14400
C  -1.57100 22.26300 26.72500
C  -1.68700 20.80600 26.31700
C  -1.25000 23.41000 29.05900
C  -1.40800 23.29800 25.76100
O  -1.49700 23.17300 24.57200
C  -1.02800 24.69200 26.28900
N  -1.67800 17.80500 25.45500
C  -1.75300 18.89200 24.69200
C  -1.54800 18.53200 23.19300
C  -1.24800 16.99400 23.27200
C  -1.51200 16.66500 24.74800
C  -2.75400 18.96000 22.30800
C  0.14600 16.49300 22.90500
C  1.24400 16.88400 23.86700
N  -1.76600 15.93300 27.61000
C  -1.76300 14.99500 26.57300
C  -1.97100 13.66500 27.08000
C  -2.11900 13.86500 28.48900
C  -2.06600 15.25100 28.75600
C  -1.99300 12.42300 26.32500
C  -2.39900 13.20700 29.74300
O  -2.53900 12.04000 29.94000
C  -2.31800 14.38100 30.88400
C  -1.24300 14.02900 31.76700
O  -0.05100 14.34200 31.67300
O  -1.70500 13.14000 32.76200
C  -0.70600 12.80100 33.72300
H  -2.17200 21.23700 30.66500
H  -1.65400 20.96600 24.21200
H  -1.39200 14.48600 24.62500
H  -3.25600 16.96200 32.44000
H  -2.03600 19.56800 32.47100
H  -4.67000 18.35800 32.40900
H  -4.55900 19.62300 31.12800
H  -4.20200 20.00500 32.80900
H  -0.71700 18.06600 33.38000
H  -0.39600 16.64000 32.58500
H  -1.77500 15.32900 34.31400
H  -2.34700 16.76400 34.93700
H  -0.38400 24.00300 28.76400
H  -1.25500 23.21000 30.13100
H  -2.16300 23.98100 28.89200
H  -1.15900 25.38800 25.46100
H  -0.02600 24.66400 26.71600
H  -1.83300 24.94900 26.97800
H  -0.71500 19.07500 22.74500
H  -1.85300 16.47400 22.52900
H  -2.46300 19.37700 21.34400
H  -3.33600 19.69900 22.85800
H  -3.29700 18.06500 22.00500
H  0.38300 16.85800 21.90500
H  -0.08500 15.42800 22.92000
H  0.96500 17.16300 24.88300
H  1.76600 17.72400 23.41100
H  1.77500 15.93500 23.94200
H  -1.45000 12.55100 25.38800
H  -3.04100 12.19400 26.13500
H  -1.50700 11.65700 26.92900
H  -3.25300 14.55600 31.41700
H  -0.12400 12.00800 33.25300
H  -1.22100 12.42300 34.60600
H  0.06000 13.52000 34.01200
Mg 30.02500 57.82100 39.47800
C  27.44500 55.77500 38.13500
C  32.36100 55.47500 38.14300
C  32.43000 60.13800 39.78800
C  27.66100 60.32200 39.85700
N  29.92800 55.80000 38.22800
C  28.74400 55.21800 37.83200
C  29.10400 53.80400 37.29900
C  30.57900 53.64500 37.70300
C  31.02700 55.05200 38.00600
C  30.76800 52.74200 38.91100
C  28.73300 53.58200 35.85100
C  29.34500 54.41900 34.79000
H  28.45700 54.95000 33.76900
N  32.10600 57.71100 39.27400
C  32.88100 56.69200 38.74100
C  34.22000 57.10000 38.80200
C  34.35300 58.45600 39.40100
C  32.92700 58.85700 39.50200
C  35.34600 56.20300 38.35100
C  35.52200 59.26600 39.71500
O  36.65500 58.77800 39.43300
C  35.49500 60.65900 40.35400
N  29.99400 59.87100 39.99200
C  31.14200 60.59200 39.92600
C  30.97500 62.08500 40.15200
C  29.39500 62.16800 40.36100
C  29.00300 60.72100 40.04500
C  31.84900 62.80900 41.21000
C  28.73900 63.27400 39.47100
C  27.64600 64.05900 40.21300
N  27.95700 58.00500 39.24200
C  27.15600 59.05800 39.52000
C  25.76100 58.61800 39.26200
C  25.83700 57.31700 38.76400
C  27.17800 57.02600 38.71500
C  24.50300 59.45900 39.35900
C  25.04800 56.23900 38.20900
O  23.86100 56.21000 37.98900
C  26.05600 55.13600 37.90400
C  25.82600 53.87100 38.68900
O  26.37400 53.51500 39.74000
O  24.70700 53.21200 38.09400
C  24.09200 52.09000 38.86700
H  33.09600 54.80400 37.69200
H  33.12700 60.97900 39.79400
H  26.97500 61.15800 40.01400
H  28.47200 53.13600 37.88400
H  31.11800 53.28900 36.82600
H  31.01100 51.78900 38.44300
H  29.90600 52.49000 39.52900
H  31.50600 53.16500 39.59300
H  27.64700 53.60100 35.76100
H  28.78400 52.51000 35.65800
H  30.17000 53.84800 34.36500
H  29.76100 55.31800 35.24600
H  35.93200 55.79600 39.17600
H  35.90100 56.87200 37.69300
H  35.13500 55.28900 37.79500
H  36.38700 61.15700 40.73500
H  34.78000 60.72500 41.17400
H  35.28700 61.31000 39.50500
H  31.24900 62.54900 39.20400
H  29.01700 62.30000 41.37500
H  31.15800 63.16500 41.97400
H  32.30900 63.66900 40.72500
H  32.59200 62.15200 41.66400
H  28.25700 62.74000 38.65200
H  29.48000 64.03700 39.23200
H  28.02100 65.01500 40.57800
H  27.34000 63.43500 41.05200
H  26.78300 64.28800 39.58700
H  24.51500 60.15100 38.51700
H  24.42100 59.97300 40.31700
H  23.66400 58.78500 39.18900
H  25.86100 54.87100 36.86500
H  24.26900 52.33900 39.91300
H  24.64700 51.20100 38.56700
H  23.02200 52.08200 38.66000

