158

Mg 43.99700 4.72400 48.20800
C  41.88500 7.52200 47.59600
C  41.21400 2.71200 47.59900
C  46.08700 2.30700 47.93700
C  46.81300 7.13800 48.07300
N  41.84100 5.07600 47.43200
C  41.22500 6.30200 47.51800
C  39.70300 6.18900 47.32800
C  39.43300 4.63900 47.40200
C  40.85400 4.10700 47.64100
C  38.44700 4.15900 48.50700
C  39.11200 6.90600 46.06900
C  37.83000 6.39400 45.32800
H  38.10400 5.83800 43.95200
N  43.67800 2.70000 47.93400
C  42.47600 2.02200 47.72900
C  42.82000 0.64300 47.56200
C  44.18500 0.50500 47.80200
C  44.74200 1.87500 47.96800
C  41.76400 -0.45800 47.38700
C  44.93700 -0.83400 47.79000
O  44.31400 -1.90800 47.61700
C  46.39300 -0.80900 48.08200
N  46.13800 4.77200 47.94300
C  46.75900 3.55500 47.86400
C  48.25000 3.69000 47.90500
C  48.55900 5.17900 48.18500
C  47.10900 5.70900 48.09900
C  49.01100 2.76600 48.89400
C  49.48000 5.84000 47.23000
C  50.94100 5.99300 47.67000
N  44.31600 6.88600 47.95000
C  45.54900 7.64500 47.91400
C  45.15500 9.11200 47.80500
C  43.76300 9.07100 47.66600
C  43.31000 7.72300 47.75000
C  46.06300 10.24200 47.73100
C  42.60300 9.87800 47.56300
O  42.52100 11.07700 47.45700
C  41.35400 8.95800 47.52800
C  40.44500 9.31900 48.66100
O  40.09300 8.56400 49.51300
O  39.88700 10.56600 48.51700
C  38.77700 10.85000 49.47000
H  40.40200 1.98300 47.57600
H  46.79700 1.52100 47.67100
H  47.66600 7.82000 48.07700
H  39.23700 6.73300 48.15000
H  39.14800 4.37600 46.38300
H  37.66400 3.51100 48.11300
H  37.82400 5.00000 48.81100
H  38.94600 3.67800 49.34800
H  39.98900 6.90000 45.42100
H  38.85100 7.93000 46.33500
H  37.09400 7.19900 45.32100
H  37.42500 5.64000 46.00300
H  41.38200 -0.73000 48.37100
H  42.09900 -1.38200 46.91600
H  40.97800 -0.02400 46.76900
H  46.91100 -0.64300 47.13700
H  46.69100 -1.83300 48.30500
H  46.71800 -0.18800 48.91700
H  48.54000 3.42500 46.88900
H  48.93000 5.36600 49.19300
H  48.47300 2.30500 49.72300
H  49.99600 3.14400 49.16800
H  49.29300 1.95800 48.22000
H  49.11800 6.79000 46.83900
H  49.53600 5.20400 46.34700
H  51.56700 5.42900 46.97900
H  50.97000 5.63600 48.70000
H  51.26900 7.03300 47.69000
H  46.77700 10.23800 48.55500
H  45.47900 11.16200 47.74100
H  46.67200 10.24900 46.82700
H  40.82800 9.24000 46.61600
H  39.04300 10.64800 50.50700
H  37.86800 10.32000 49.18300
H  38.55300 11.91600 49.43600
Mg 35.10300 3.02200 30.07000
C  32.77400 3.94600 32.58200
C  37.62100 3.36800 32.48600
C  37.31700 2.20200 27.79300
C  32.64100 3.58900 27.73500
N  35.16700 3.91800 32.19500
C  34.11700 3.94600 33.10200
C  34.61800 3.87200 34.53700
C  36.13100 4.10100 34.40700
C  36.34500 3.82200 32.91600
C  36.58100 5.55900 34.66100
C  34.24300 2.47900 35.14300
C  33.74000 2.47600 36.59300
H  34.42900 3.42800 37.56600
N  37.17300 2.71100 30.10700
C  37.99500 2.83800 31.17700
C  39.27900 2.32700 30.85600
C  39.19000 1.96100 29.46800
C  37.87600 2.27200 29.02300
C  40.36400 2.25700 31.84600
C  40.30600 1.38100 28.49800
O  40.12900 1.10200 27.33600
C  41.73500 1.27600 29.06700
N  34.99600 3.01000 28.02500
C  36.06100 2.58300 27.31000
C  35.62000 2.44300 25.81100
C  34.07900 2.76100 25.88200
C  33.85600 3.11800 27.32800
C  36.38200 3.35300 24.74500
C  33.20400 1.50100 25.60200
C  32.87100 1.30000 24.08000
N  33.04500 3.64300 30.08300
C  32.14900 3.78500 29.05600
C  30.83000 4.09800 29.60500
C  31.03100 4.14000 31.02200
C  32.39100 3.87400 31.24000
C  29.57800 4.36800 28.79200
C  30.40200 4.37200 32.34400
O  29.26000 4.61500 32.65000
C  31.47400 4.13500 33.44300
C  31.57100 5.26100 34.34500
O  32.04200 6.37500 34.19100
O  31.13900 4.74900 35.58200
C  31.22400 5.84700 36.65400
H  38.37600 3.37700 33.27500
H  37.97800 2.13800 26.92600
H  31.91000 3.67500 26.92900
H  34.14100 4.66600 35.11100
H  36.72900 3.40700 34.99800
H  37.27400 5.61400 35.50000
H  35.66500 6.15000 34.64300
H  37.14600 5.94800 33.81400
H  35.07800 1.78100 35.20600
H  33.43000 2.11800 34.51300
H  33.75400 1.47000 37.01200
H  32.72500 2.87200 36.61300
H  39.91800 1.83500 32.74600
H  40.69400 3.28300 32.00800
H  41.13600 1.51700 31.63400
H  42.31800 1.09400 28.16500
H  41.72700 0.40400 29.72100
H  42.12000 2.15800 29.57900
H  35.83100 1.40200 25.56800
H  33.90900 3.55400 25.15400
H  37.03000 4.14100 25.13000
H  35.62700 3.90400 24.18400
H  36.90800 2.92600 23.89100
H  32.25800 1.72700 26.09500
H  33.67100 0.59800 25.99600
H  33.26800 0.32300 23.80600
H  33.19900 2.15500 23.48900
H  31.78800 1.23900 23.97600
H  28.80200 4.19600 29.53800
H  29.59600 3.54700 28.07600
H  29.75600 5.35200 28.35800
H  31.20300 3.21700 33.96500
H  32.27900 5.99100 36.88700
H  30.76800 5.75900 37.64000
H  30.79000 6.76700 36.26300

