158

Mg 8.19500 3.50600 27.81900
C  9.82300 1.98400 30.53300
C  5.98000 5.03200 30.20000
C  6.36400 4.71900 25.38900
C  9.68500 1.33100 25.77900
N  7.86000 3.39400 30.12000
C  8.72800 2.78500 30.96500
C  8.46000 3.28400 32.39200
C  7.29800 4.27500 32.31200
C  6.98100 4.18100 30.76700
C  6.07900 4.16100 33.26300
C  9.70600 3.84400 33.23600
C  9.41700 4.55600 34.56200
H  10.27900 4.33700 35.75600
N  6.45500 4.75200 27.80100
C  5.76200 5.27700 28.81200
C  4.68000 6.12500 28.33200
C  4.73200 6.05500 26.87600
C  5.84200 5.21400 26.58200
C  3.87500 7.00700 29.20900
C  3.86800 6.72100 25.82200
O  4.01900 6.65200 24.62800
C  2.65300 7.54400 26.16000
N  7.95400 3.00100 25.84000
C  7.19300 3.65900 25.02800
C  7.47900 3.36700 23.54200
C  8.71100 2.40000 23.64800
C  8.83600 2.19600 25.16100
C  6.19900 3.04700 22.61700
C  10.06600 2.90500 23.11900
C  10.98200 3.91900 24.01300
N  9.60100 1.96500 28.06400
C  10.13500 1.20200 27.10400
C  11.16700 0.34400 27.66100
C  11.12800 0.75900 29.04700
C  10.09000 1.65300 29.21600
C  12.17700 -0.48400 26.85700
C  11.64500 0.43700 30.30700
O  12.56600 -0.31200 30.60600
C  10.78100 1.11500 31.33500
C  10.03600 0.16500 32.20300
O  9.22000 -0.67200 31.83000
O  10.36400 0.32100 33.51900
C  9.68500 -0.64200 34.38300
H  5.40700 5.63700 30.90600
H  5.94800 5.11200 24.45900
H  10.33800 0.68100 25.19200
H  8.13100 2.31200 32.76000
H  7.67000 5.28400 32.49100
H  5.18600 3.94600 32.67700
H  5.85600 5.00900 33.91100
H  6.13800 3.33100 33.96700
H  10.42400 4.37000 32.60700
H  10.25300 2.95100 33.54100
H  8.35300 4.38000 34.71500
H  9.52100 5.62300 34.36500
H  3.83900 7.93200 28.63300
H  4.34900 7.31600 30.14000
H  2.91200 6.55300 29.44500
H  2.07300 7.00000 26.90500
H  1.96200 7.72500 25.33700
H  3.12900 8.48800 26.42700
H  7.89700 4.27800 23.11300
H  8.36100 1.46400 23.21400
H  5.28700 3.26900 23.17200
H  6.30800 1.99600 22.34800
H  6.25600 3.73000 21.77000
H  9.86900 3.40100 22.16800
H  10.64000 1.99200 22.95600
H  10.30100 4.52300 24.61100
H  11.53400 4.58100 23.34500
H  11.62900 3.33200 24.66500
H  12.79200 -1.02400 27.57600
H  12.66800 0.24800 26.21500
H  11.65900 -1.20500 26.22600
H  11.48200 1.61800 32.00000
H  10.48500 -1.35500 34.58300
H  8.87000 -1.18800 33.90700
H  9.32000 -0.23300 35.32500
Mg 25.50500 1.17900 28.99400
C  27.41100 0.80500 32.04700
C  22.66100 1.51800 31.09400
C  23.56300 1.13500 26.37400
C  28.30300 0.31300 27.22800
N  25.16300 1.19900 31.31100
C  26.08000 1.12000 32.30800
C  25.43300 1.35500 33.67100
C  23.95700 1.38300 33.26700
C  23.90100 1.32300 31.80400
C  22.89500 0.31400 33.85900
C  25.99800 2.55500 34.41400
C  26.73900 2.31800 35.78400
H  26.43900 3.22300 36.96500
N  23.40600 1.29400 28.75500
C  22.44400 1.50500 29.70600
C  21.17500 1.75000 29.01300
C  21.48200 1.81100 27.59900
C  22.83900 1.38700 27.49900
C  19.90100 1.90500 29.74600
C  20.56800 2.18100 26.40100
O  20.91600 2.07100 25.27400
C  19.24600 2.70200 26.69100
N  25.87900 0.57500 27.08700
C  24.92900 0.85500 26.13500
C  25.51700 0.80500 24.69600
C  27.04400 0.42000 25.02600
C  27.08700 0.47100 26.53100
C  24.90100 -0.23600 23.74300
C  28.09100 1.37700 24.39700
C  28.77100 0.85300 23.11100
N  27.48200 0.63400 29.49200
C  28.52000 0.36200 28.60900
C  29.71500 0.19200 29.35900
C  29.37600 0.39400 30.76900
C  27.93900 0.56300 30.73700
C  31.11900 0.02600 28.75000
C  29.85000 0.48000 32.18300
O  30.99300 0.29100 32.62400
C  28.59300 0.83700 33.06700
C  28.48400 -0.28500 34.07700
O  28.10700 -1.37800 33.76200
O  28.94200 0.18300 35.31500
C  28.84300 -0.74000 36.46200
H  21.77300 1.59100 31.72600
H  23.03200 0.96300 25.43600
H  29.24000 0.00700 26.75700
H  25.63500 0.43100 34.21200
H  23.50900 2.35700 33.46500
H  23.22000 0.15700 34.88800
H  22.87300 -0.58400 33.24100
H  21.92200 0.79200 33.97400
H  25.13600 3.14600 34.72100
H  26.44900 3.26100 33.71700
H  27.75100 2.64400 35.54400
H  26.63300 1.25000 35.97800
H  19.80000 1.16400 30.54000
H  18.97500 1.59700 29.26100
H  19.71300 2.85900 30.23800
H  18.78800 3.14000 25.80500
H  19.38400 3.41100 27.50700
H  18.58400 1.93200 27.08800
H  25.49400 1.78600 24.22000
H  27.49800 -0.53100 24.74800
H  25.67300 -0.96500 23.49500
H  24.62300 0.36600 22.87800
H  24.04100 -0.67700 24.24600
H  28.89400 1.68700 25.06600
H  27.68900 2.36300 24.16300
H  28.53200 -0.16900 22.81800
H  29.85900 0.84000 23.17100
H  28.45500 1.47500 22.27300
H  31.25000 0.49300 27.77400
H  31.22900 -1.05300 28.64100
H  31.80700 0.32700 29.54100
H  28.79800 1.76900 33.59500
H  29.12300 -1.73000 36.10100
H  27.87500 -0.82000 36.95600
H  29.45500 -0.46500 37.32000

