158

Mg 24.23900 -5.64300 45.45600
C  26.61300 -3.81700 43.84200
C  21.84200 -4.39400 43.36100
C  22.25400 -8.31000 46.32800
C  26.79600 -7.03800 47.45000
N  24.32100 -4.38400 43.79100
C  25.34300 -3.57200 43.39600
C  24.93700 -2.58300 42.34300
C  23.34200 -2.58200 42.43300
C  23.14800 -3.85100 43.25600
C  22.65300 -1.33300 43.04800
C  25.51800 -3.00100 40.96000
C  26.15900 -1.86600 40.14900
H  25.89300 -1.88700 38.63500
N  22.23400 -6.11200 45.12700
C  21.43900 -5.50900 44.16300
C  20.13400 -6.17200 44.16700
C  20.24200 -7.38100 44.95200
C  21.61700 -7.36100 45.48400
C  18.97100 -5.72800 43.23200
C  19.19400 -8.37000 45.24900
O  18.07600 -8.24800 44.64400
C  19.29900 -9.57300 46.16200
N  24.55200 -7.50100 46.55200
C  23.56700 -8.39800 46.81300
C  24.04900 -9.51700 47.74000
C  25.45100 -9.03000 48.12000
C  25.67000 -7.80200 47.36200
C  23.19900 -9.79600 48.98800
C  26.54000 -10.07400 47.93000
C  27.60400 -10.46300 49.08800
N  26.27500 -5.44400 45.70800
C  27.14900 -5.98800 46.53500
C  28.38600 -5.31500 46.42500
C  28.25800 -4.42000 45.35000
C  26.91900 -4.60000 44.93600
C  29.58200 -5.48200 47.31400
C  28.94600 -3.48600 44.53400
O  30.09000 -3.06500 44.52500
C  27.89000 -3.07000 43.48400
C  27.75600 -1.60800 43.63700
O  27.32200 -1.04900 44.64900
O  28.34300 -0.93800 42.59900
C  28.46600 0.51300 42.94800
H  21.10900 -3.82100 42.78800
H  21.72000 -9.20400 46.66000
H  27.41700 -7.29400 48.31100
H  25.32800 -1.58000 42.51600
H  22.94900 -2.70700 41.42400
H  22.14400 -1.62300 43.96800
H  22.00500 -0.83000 42.33000
H  23.44000 -0.58500 43.13600
H  24.69800 -3.41800 40.37600
H  26.20200 -3.84400 41.05700
H  27.22100 -1.97300 40.37100
H  25.78400 -0.90100 40.49000
H  19.21500 -4.68000 43.05900
H  17.92000 -5.79900 43.51200
H  19.05600 -6.15300 42.23100
H  18.33700 -10.06200 46.31200
H  19.53600 -9.18000 47.15100
H  20.10000 -10.20700 45.78400
H  24.12500 -10.44600 47.17500
H  25.31700 -8.54300 49.08600
H  22.82900 -10.80500 48.80300
H  22.35100 -9.14900 49.21100
H  23.76100 -9.91200 49.91500
H  27.12600 -9.88200 47.03200
H  26.09700 -11.04100 47.69200
H  27.86600 -9.60600 49.70800
H  28.52700 -10.93500 48.75100
H  27.08800 -11.18000 49.72700
H  29.78500 -4.60500 47.92900
H  30.44600 -5.61500 46.66300
H  29.48100 -6.37100 47.93800
H  28.14000 -3.18700 42.43000
H  29.38500 0.63500 43.52200
H  27.65900 0.97700 43.51500
H  28.44300 1.02400 41.98600
Mg 40.55800 8.83700 29.48100
C  42.45800 9.97600 32.19100
C  38.35900 7.52900 31.78000
C  39.02000 7.48600 26.84300
C  43.27600 9.68900 27.32400
N  40.49300 8.55400 31.74000
C  41.30400 9.23100 32.64000
C  40.84300 8.99200 34.02900
C  39.64000 8.01300 33.87900
C  39.45900 8.02800 32.41100
C  39.75200 6.51900 34.51000
C  40.47700 10.33200 34.77500
C  40.17100 10.21000 36.19100
H  41.12000 11.04900 37.15100
N  38.96400 7.75000 29.35900
C  38.22200 7.29300 30.42200
C  36.95000 6.76200 29.84100
C  37.13500 6.68500 28.43100
C  38.41000 7.37100 28.11600
C  35.73300 6.24800 30.63300
C  36.15500 6.10800 27.44200
O  36.35300 6.08500 26.20700
C  34.79700 5.58900 27.84900
N  41.15900 8.61500 27.35000
C  40.25900 8.02900 26.47100
C  40.86200 7.84900 25.09300
C  42.30200 8.59900 25.26100
C  42.34300 8.96800 26.68700
C  40.90600 6.31400 24.60200
C  42.39100 9.66200 24.14000
C  41.67000 10.97300 24.42300
N  42.41300 9.80900 29.65100
C  43.35100 10.08800 28.67500
C  44.47900 10.67100 29.32400
C  44.12000 10.76400 30.68700
C  42.90500 10.13100 30.81000
C  45.76300 10.98900 28.74300
C  44.59400 11.15800 31.91900
O  45.65600 11.76600 32.22200
C  43.59800 10.75100 33.06400
C  44.37700 10.10400 34.21000
O  45.32700 9.29700 34.11100
O  43.85800 10.47000 35.38400
C  44.50900 9.84100 36.57700
H  37.58700 7.28200 32.51200
H  38.50500 7.08900 25.96600
H  44.14300 9.97800 26.72700
H  41.55300 8.46400 34.66500
H  38.71600 8.51600 34.16400
H  39.37100 5.77800 33.80800
H  39.17500 6.34900 35.41900
H  40.80200 6.22900 34.56700
H  39.60700 10.79800 34.31200
H  41.36300 10.96100 34.69100
H  40.23800 9.17700 36.53600
H  39.19800 10.66400 36.37700
H  35.77900 5.17000 30.78800
H  34.83300 6.64000 30.16000
H  35.80700 6.70800 31.61800
H  34.74900 4.80400 28.60400
H  34.38600 5.21600 26.91100
H  34.11000 6.38100 28.14500
H  40.28000 8.40300 24.35600
H  43.12800 7.89000 25.31100
H  40.48200 6.33100 23.59800
H  40.37400 5.64900 25.28300
H  41.95900 6.03900 24.54500
H  42.16300 9.21700 23.17100
H  43.44900 9.90700 24.04500
H  40.94100 10.91800 25.23200
H  41.14700 11.26800 23.51300
H  42.39100 11.77200 24.59300
H  45.63800 11.45800 27.76700
H  46.42600 10.13200 28.62900
H  46.20800 11.72800 29.41000
H  43.06400 11.65000 33.37500
H  43.98600 10.08600 37.50200
H  45.52500 10.13500 36.84000
H  44.50400 8.76300 36.41700

