158

Mg 2.59300 -0.98300 44.19300
C  5.98800 -0.17000 43.40500
C  1.55800 1.60400 42.36200
C  -0.55000 -2.20500 44.41500
C  3.77000 -4.16400 45.17000
N  3.67600 0.47900 42.94700
C  5.04100 0.67400 42.83200
C  5.30700 2.00000 42.08000
C  3.84900 2.61700 41.88200
C  2.95200 1.48600 42.37900
C  3.54700 4.06100 42.38400
C  6.25200 1.77500 40.88200
C  7.10400 2.95400 40.45700
H  6.71300 3.63200 39.09500
N  0.76400 -0.28300 43.59400
C  0.53700 0.79600 42.84700
C  -0.86300 0.96400 42.59200
C  -1.51100 -0.05900 43.25200
C  -0.37900 -0.94400 43.79700
C  -1.44300 2.16200 41.80600
C  -3.04900 -0.23700 43.32700
O  -3.85500 0.54800 42.84800
C  -3.59800 -1.36300 44.11500
N  1.73800 -2.90300 44.75600
C  0.42100 -3.14800 44.82500
C  0.16100 -4.60100 45.15100
C  1.56000 -5.22200 45.27700
C  2.42900 -4.01700 45.09200
C  -0.81800 -4.81500 46.28500
C  1.76200 -6.41500 44.27500
C  1.43200 -7.82400 44.76000
N  4.41900 -1.91700 44.41100
C  4.74600 -3.19600 44.89500
C  6.14400 -3.42700 44.90400
C  6.71700 -2.16300 44.45900
C  5.60700 -1.34200 44.11400
C  6.79200 -4.75000 45.32000
C  8.00100 -1.47300 44.20500
O  9.15300 -1.87500 44.42200
C  7.53300 -0.15100 43.45900
C  8.05900 1.02600 44.34200
O  7.46300 1.40900 45.36400
O  9.14500 1.64500 43.76000
C  9.71600 2.74400 44.59600
H  1.35200 2.54400 41.84700
H  -1.51900 -2.65700 44.63700
H  4.15400 -5.18400 45.23300
H  5.90700 2.60900 42.75700
H  3.73100 2.59900 40.79800
H  3.26000 4.65600 41.51600
H  4.46800 4.42100 42.84200
H  2.67300 4.22300 43.01500
H  5.62300 1.56400 40.01700
H  7.04100 1.03700 41.02600
H  8.14500 2.67100 40.30400
H  7.21400 3.70800 41.23600
H  -1.86300 1.76000 40.88400
H  -0.77900 2.99300 41.56600
H  -2.18100 2.66900 42.42700
H  -4.68400 -1.31000 44.04800
H  -3.24100 -1.23200 45.13700
H  -3.24500 -2.30500 43.69500
H  -0.28500 -4.94000 44.21500
H  1.67100 -5.49000 46.32800
H  -1.41500 -3.90600 46.34800
H  -0.31300 -4.95400 47.24100
H  -1.39000 -5.69900 46.00100
H  2.75000 -6.36400 43.81900
H  1.22100 -6.23500 43.34600
H  0.57700 -8.23100 44.22000
H  1.16700 -7.92600 45.81200
H  2.23600 -8.54500 44.60900
H  6.53800 -5.10000 46.32100
H  7.86700 -4.66200 45.16900
H  6.55200 -5.54600 44.61500
H  8.07200 -0.14700 42.51100
H  10.77000 2.88200 44.35500
H  9.67200 2.47800 45.65200
H  9.12800 3.65000 44.45600
Mg 17.81500 -2.34400 28.08600
C  16.61100 -0.10000 30.39900
C  19.80700 -3.67500 30.54600
C  19.08400 -4.32100 25.72600
C  15.96900 -0.53900 25.48800
N  18.03600 -2.03200 30.28200
C  17.48800 -1.06800 31.00800
C  17.80300 -1.15100 32.49900
C  18.90700 -2.23000 32.50100
C  18.95300 -2.74600 31.01200
C  20.31000 -1.72300 32.90100
C  16.57700 -1.53400 33.37600
C  16.47000 -0.91400 34.80700
H  17.64200 -0.11500 35.37600
N  19.22600 -3.88200 28.14600
C  19.92300 -4.28300 29.27700
C  20.72000 -5.38600 28.90100
C  20.50600 -5.60800 27.48500
C  19.54300 -4.64100 27.02300
C  21.61200 -6.06000 29.90600
C  21.23000 -6.74500 26.64200
O  20.83200 -6.99800 25.46500
C  22.20900 -7.59800 27.27700
N  17.56900 -2.37600 26.03200
C  18.22900 -3.36400 25.30300
C  17.95300 -3.21600 23.85500
C  17.05500 -1.99700 23.69800
C  16.82300 -1.61800 25.16100
C  19.23000 -3.06300 23.04500
C  15.79400 -2.23500 22.81600
C  15.25200 -1.05500 22.14400
N  16.51900 -0.69000 27.91200
C  15.78600 -0.07900 26.85200
C  15.00200 1.04800 27.31700
C  15.26400 1.05900 28.71200
C  16.18700 0.00700 29.02900
C  14.04800 1.92700 26.66700
C  14.91600 1.67600 29.95000
O  14.08400 2.55100 30.14300
C  15.81400 0.95200 31.06500
C  16.69700 1.98700 31.73900
O  17.81400 2.29100 31.53400
O  15.94200 2.62900 32.69100
C  16.49700 3.92700 33.22200
H  20.38500 -4.17200 31.32700
H  19.47700 -5.02800 24.99300
H  15.60300 0.08900 24.67300
H  18.17800 -0.19900 32.87500
H  18.74000 -3.04300 33.20700
H  21.15100 -2.16100 32.36300
H  20.59900 -1.93700 33.93000
H  20.39200 -0.65500 32.69700
H  16.74300 -2.61000 33.43900
H  15.68200 -1.27300 32.81200
H  16.27900 -1.78100 35.44000
H  15.63200 -0.21900 34.75100
H  21.82500 -5.49900 30.81600
H  22.57900 -6.17300 29.41500
H  21.17700 -7.01000 30.21700
H  21.93000 -8.09900 28.20400
H  23.10100 -7.02500 27.53000
H  22.44900 -8.34200 26.51800
H  17.37600 -4.12100 23.66500
H  17.61300 -1.18000 23.23900
H  19.92900 -3.89900 23.07500
H  19.85400 -2.21700 23.33600
H  18.89000 -3.09300 22.01000
H  15.05900 -2.75100 23.43400
H  16.05500 -2.93100 22.01900
H  14.17400 -0.90300 22.18500
H  15.49300 -1.17600 21.08800
H  15.70500 -0.11400 22.45500
H  13.30300 1.39800 26.07300
H  14.66600 2.50000 25.97600
H  13.53400 2.60300 27.35100
H  15.04100 0.65600 31.77500
H  17.16300 3.62000 34.02800
H  15.81500 4.70000 33.57600
H  17.11500 4.39400 32.45500

