158

Mg 35.85300 1.06100 29.53400
C  33.70200 2.27000 32.19400
C  38.48700 1.50400 31.70600
C  37.97000 0.39000 27.03000
C  33.24600 1.66400 27.31500
N  36.03500 1.88200 31.75100
C  35.05500 2.18700 32.64900
C  35.64900 2.24700 34.04900
C  37.20500 2.31000 33.79000
C  37.25800 1.90500 32.29600
C  37.87100 3.69200 34.08700
C  35.18300 1.04800 34.97100
C  35.23100 1.32000 36.53000
H  36.29100 2.27400 37.11800
N  37.92500 0.86600 29.40300
C  38.82300 1.02500 30.44100
C  40.08500 0.52300 29.95900
C  39.99000 0.18400 28.56000
C  38.60800 0.57700 28.26300
C  41.23100 0.25500 30.92800
C  41.09100 -0.29300 27.50900
O  40.79100 -0.39300 26.31500
C  42.45400 -0.57200 27.98900
N  35.63400 1.07200 27.59200
C  36.58700 0.57400 26.64500
C  36.01600 0.48100 25.18900
C  34.59400 0.56500 25.47800
C  34.47600 1.23000 26.86200
C  36.61200 1.55500 24.22800
C  33.80700 -0.76200 25.33700
C  32.65500 -0.82500 24.36900
N  33.87100 1.62900 29.71900
C  32.97900 1.94900 28.69500
C  31.68200 2.34900 29.26100
C  31.90000 2.44300 30.62500
C  33.23100 2.04600 30.84900
C  30.40600 2.45400 28.50900
C  31.24500 2.67100 31.88800
O  30.10500 3.04400 32.11300
C  32.42000 2.50400 33.00100
C  32.41800 3.68200 33.89200
O  32.36600 4.85700 33.47600
O  32.47600 3.29300 35.18300
C  32.88800 4.35900 36.08200
H  39.27200 1.41000 32.46000
H  38.53500 0.17300 26.12100
H  32.39000 1.69100 26.63800
H  35.25600 3.20600 34.38600
H  37.60600 1.55900 34.47100
H  37.08900 4.45100 34.05700
H  38.53600 3.83200 33.23500
H  38.32600 3.64000 35.07700
H  35.62100 0.09300 34.67800
H  34.12600 0.86900 34.77800
H  35.19700 0.34200 37.01000
H  34.28500 1.82400 36.72800
H  41.37600 -0.82500 30.95100
H  40.85700 0.39400 31.94200
H  42.08400 0.89300 30.69400
H  42.43700 -1.41000 28.68600
H  42.94700 0.33200 28.34700
H  42.91900 -1.01000 27.10700
H  36.25300 -0.49900 24.77400
H  34.19500 1.27500 24.75500
H  37.61000 1.86300 24.53700
H  35.85700 2.33400 24.12000
H  36.72600 1.04400 23.27200
H  33.40100 -0.95800 26.32900
H  34.44300 -1.63700 25.20700
H  31.74600 -0.70400 24.95800
H  32.71400 -1.76900 23.82600
H  32.58400 -0.01400 23.64400
H  30.42500 1.58100 27.85700
H  30.32300 3.32800 27.86300
H  29.59200 2.48200 29.23400
H  32.14400 1.62500 33.58300
H  32.03000 5.01400 36.23300
H  33.62400 5.02500 35.63100
H  33.39100 3.92300 36.94500
Mg -5.49100 25.27000 25.84800
C  -4.04400 26.17500 28.96800
C  -7.73500 23.30400 27.72400
C  -6.51300 23.87900 23.06500
C  -3.18400 27.22300 24.23300
N  -5.82300 24.77900 28.12600
C  -5.08100 25.28300 29.14000
C  -5.61300 24.77300 30.54000
C  -6.64100 23.70500 30.02000
C  -6.67800 23.87200 28.52300
C  -6.48400 22.24100 30.60900
C  -6.25000 25.97700 31.35100
C  -5.78800 26.08300 32.81500
H  -5.10500 24.90000 33.57200
N  -6.95800 23.92700 25.42300
C  -7.81500 23.27100 26.30300
C  -8.79200 22.50700 25.55900
C  -8.52100 22.66800 24.18600
C  -7.20300 23.41000 24.13400
C  -9.99700 21.81000 26.19500
C  -9.28000 22.31900 23.00200
O  -8.84100 22.38000 21.85800
C  -10.67300 21.74000 23.10000
N  -4.76700 25.41300 23.96900
C  -5.37000 24.69500 22.97200
C  -4.75500 25.12500 21.61900
C  -3.98600 26.40500 21.98700
C  -3.94900 26.37000 23.50700
C  -4.15200 23.92300 20.91200
C  -4.44900 27.71500 21.32100
C  -3.35000 28.40600 20.43000
N  -3.91500 26.48700 26.40100
C  -3.03400 27.25200 25.62200
C  -2.07000 27.98100 26.45000
C  -2.45400 27.56500 27.71100
C  -3.56700 26.65300 27.69000
C  -0.98300 28.96300 25.97600
C  -1.98600 27.78600 29.09800
O  -1.12100 28.50000 29.61900
C  -2.98300 26.85100 29.90800
C  -2.10600 26.05000 30.83000
O  -1.78400 24.89600 30.64000
O  -1.94000 26.72100 31.99200
C  -1.14800 26.01200 32.95700
H  -8.44800 22.65200 28.23100
H  -6.74600 23.52900 22.05700
H  -2.53600 27.92400 23.70300
H  -4.88400 24.19100 31.10300
H  -7.62800 23.97900 30.39300
H  -6.47600 21.47600 29.83200
H  -7.27500 22.07700 31.34000
H  -5.56000 22.11500 31.17300
H  -7.33200 26.09900 31.30900
H  -5.80500 26.86800 30.91000
H  -6.57400 26.51100 33.43700
H  -5.09200 26.90800 32.66200
H  -9.69800 21.46200 27.18400
H  -10.27500 20.97600 25.54900
H  -10.85300 22.47300 26.31800
H  -10.55500 20.68600 23.35000
H  -11.19900 21.77300 22.14600
H  -11.27900 22.39300 23.72900
H  -5.68500 25.45200 21.15400
H  -2.92900 26.21600 21.79400
H  -3.07600 23.98600 20.74300
H  -4.57500 23.76900 19.91900
H  -4.20700 23.08200 21.60300
H  -4.86000 28.31600 22.13200
H  -5.32800 27.53600 20.70200
H  -3.62900 28.38500 19.37600
H  -2.44100 27.85200 20.66300
H  -3.19500 29.45600 20.67800
H  -0.20100 28.50300 25.37200
H  -0.59300 29.29700 26.93800
H  -1.27000 29.94200 25.59200
H  -3.54800 27.39400 30.66600
H  -0.12900 26.37700 32.82600
H  -1.09800 24.92500 33.02500
H  -1.28300 26.34800 33.98500

