158

Mg 9.02800 3.91100 27.64400
C  10.59000 2.22100 30.45800
C  7.42900 5.92500 29.76200
C  7.35100 5.17900 25.05000
C  10.39000 1.37700 25.65800
N  8.86000 3.91800 29.88700
C  9.73200 3.33100 30.77700
C  9.56700 3.97200 32.18200
C  8.38000 4.98400 31.96600
C  8.16200 4.95500 30.46700
C  7.14200 4.69900 32.77400
C  10.88500 4.51300 32.78800
C  10.71000 5.13200 34.24600
H  11.58000 4.68000 35.37000
N  7.47200 5.26200 27.41800
C  7.00100 6.03400 28.44100
C  6.09900 7.01900 27.91500
C  6.25400 6.91400 26.51100
C  7.08400 5.78100 26.23500
C  5.27700 7.93000 28.82100
C  5.59300 7.77900 25.42000
O  5.93900 7.74600 24.22600
C  4.40100 8.54500 25.72200
N  9.04500 3.41700 25.58800
C  8.19100 4.05100 24.73900
C  8.20400 3.36100 23.35500
C  9.16300 2.17600 23.56600
C  9.57200 2.30800 25.02900
C  6.82900 3.02000 22.80600
C  10.38900 2.17600 22.61100
C  10.66600 0.84700 21.78200
N  10.31200 2.18700 27.95700
C  10.77600 1.29700 27.03400
C  11.67600 0.36300 27.62200
C  11.67300 0.67000 29.02400
C  10.83500 1.77700 29.18200
C  12.51400 -0.70400 26.92900
C  12.07800 0.22900 30.29800
O  12.64400 -0.79200 30.60400
C  11.59500 1.37400 31.29600
C  11.01600 0.61700 32.56500
O  9.99200 -0.08200 32.62100
O  11.82700 0.83500 33.67000
C  11.44100 0.27500 34.99500
H  7.07200 6.77400 30.34800
H  6.77500 5.57400 24.21100
H  10.69000 0.56700 24.98900
H  9.36400 3.17800 32.90000
H  8.86200 5.89700 32.31700
H  6.29200 4.44400 32.14200
H  6.87200 5.60500 33.31600
H  7.30200 3.84900 33.43700
H  11.24000 5.29400 32.11500
H  11.67000 3.75800 32.76200
H  9.65400 5.11300 34.51500
H  10.98700 6.15600 33.99500
H  5.54000 8.94600 28.52400
H  5.47700 7.91500 29.89300
H  4.20600 7.78600 28.67700
H  3.91000 8.75500 24.77200
H  4.64700 9.48300 26.22000
H  3.76700 8.01800 26.43500
H  8.64400 4.01300 22.60100
H  8.57800 1.27600 23.37800
H  6.14100 2.99700 23.65100
H  6.77400 2.00300 22.41700
H  6.48600 3.77200 22.09600
H  11.30700 2.44700 23.13200
H  10.29900 3.05600 21.97400
H  9.85600 0.15900 22.02500
H  11.60700 0.41200 22.11900
H  10.78300 0.91900 20.70000
H  13.19000 -1.07200 27.70000
H  12.99500 -0.17300 26.10700
H  11.93300 -1.45100 26.38800
H  12.47800 1.88800 31.67700
H  11.71000 1.02800 35.73500
H  12.17100 -0.50000 35.23000
H  10.39100 0.00900 35.11900
Mg 6.62400 53.53300 41.71400
C  6.02200 50.11500 41.33800
C  9.87900 52.98700 40.94500
C  6.90200 56.81200 41.30300
C  3.17100 53.91100 42.51100
N  7.84100 51.70500 41.29700
C  7.39900 50.45600 41.07000
C  8.54600 49.43700 40.70800
C  9.85200 50.33000 41.07600
C  9.19100 51.79000 41.05900
C  10.61000 50.05100 42.43300
C  8.63300 48.85000 39.26200
C  8.32400 49.89700 38.19500
H  7.28000 49.52000 37.09800
N  8.19600 54.75200 41.28400
C  9.42700 54.29300 40.86900
C  10.19900 55.43300 40.45000
C  9.34500 56.59800 40.54700
C  8.08000 56.06800 41.03200
C  11.66600 55.42700 39.96900
C  9.76100 58.03400 40.17100
O  10.84100 58.30300 39.58100
C  8.98900 59.11700 40.67000
N  5.25400 55.14000 41.97200
C  5.63300 56.43000 41.73800
C  4.43000 57.28900 41.78400
C  3.28700 56.44200 42.46700
C  3.88400 55.05100 42.29900
C  4.50300 58.71100 42.41200
C  1.79000 56.61800 41.97900
C  0.75800 56.64600 43.11300
N  4.95100 52.34000 41.95700
C  3.66300 52.62600 42.38500
C  2.85900 51.42200 42.42800
C  3.74900 50.42800 42.08700
C  5.02600 51.02400 41.74700
C  1.37100 51.20600 42.79000
C  3.84000 49.02000 41.80900
O  3.02400 48.08600 41.86100
C  5.40200 48.78800 41.43200
C  5.39100 47.97300 40.22000
O  4.81500 48.26000 39.19100
O  5.92300 46.74800 40.46800
C  6.24600 45.85400 39.34800
H  10.91300 53.03200 40.59700
H  6.90800 57.82900 40.90500
H  2.11200 53.92600 42.77700
H  8.34500 48.70700 41.49200
H  10.66900 50.40400 40.35800
H  10.47800 48.99600 42.67200
H  10.37600 50.67900 43.29200
H  11.65700 50.30800 42.26800
H  7.96600 47.99300 39.16700
H  9.61100 48.37500 39.18100
H  9.23000 50.20700 37.67400
H  8.06200 50.81700 38.71700
H  12.19000 54.50000 40.20200
H  12.23200 56.23000 40.44100
H  11.72100 55.63000 38.90000
H  8.52600 59.74000 39.90600
H  9.62800 59.90600 41.06600
H  8.49500 58.91000 41.62000
H  4.24400 57.44100 40.72000
H  3.29400 56.59200 43.54700
H  5.37900 58.88800 43.03700
H  3.68200 58.99000 43.07200
H  4.47500 59.48300 41.64300
H  1.47600 55.89400 41.22700
H  1.67100 57.58500 41.49100
H  0.09500 57.50900 43.06000
H  1.28800 56.73300 44.06200
H  0.13000 55.75500 43.14300
H  0.93400 52.13400 43.15900
H  1.32100 50.54900 43.65900
H  0.82600 50.68000 42.00700
H  5.92800 48.25200 42.22200
H  7.28500 45.83700 39.02000
H  5.56600 45.88700 38.49700
H  6.01300 44.84500 39.68700

