158

Mg -2.12400 16.84500 25.87800
C  -2.50300 14.68200 28.61500
C  -2.74500 19.43100 27.96100
C  -2.19900 18.75400 23.18600
C  -1.88400 14.04700 23.82400
N  -2.76800 16.97200 28.04900
C  -2.68800 16.01600 29.00200
C  -2.98600 16.50500 30.43700
C  -3.34100 18.03600 30.11300
C  -3.00400 18.17800 28.67100
C  -4.78200 18.47600 30.48000
C  -1.73500 16.35400 31.37900
C  -2.00000 15.58700 32.71300
H  -2.51000 16.38700 33.94200
N  -2.35000 18.82000 25.61500
C  -2.60800 19.75800 26.59300
C  -2.52600 21.11200 25.97500
C  -2.23800 20.94400 24.59200
C  -2.29400 19.48200 24.38900
C  -2.69900 22.38600 26.81700
C  -1.88700 22.01200 23.59300
O  -1.58400 21.80700 22.42800
C  -1.80600 23.42700 24.05600
N  -2.14800 16.47600 23.84100
C  -2.27900 17.42600 22.89200
C  -2.14000 16.94700 21.46800
C  -1.82700 15.42100 21.68700
C  -1.94100 15.29900 23.23100
C  -3.44900 17.18500 20.65200
C  -0.40100 15.07100 21.18600
C  0.90900 15.51800 22.00200
N  -2.17100 14.76200 26.14800
C  -2.06900 13.70900 25.20500
C  -2.14600 12.45000 25.83200
C  -2.36700 12.79100 27.21300
C  -2.35800 14.20500 27.31600
C  -2.08400 11.17200 24.97700
C  -2.50600 12.27800 28.50400
O  -2.70700 11.11900 28.86000
C  -2.50900 13.40300 29.52800
C  -1.19100 13.21200 30.21400
O  -0.06500 13.48900 29.76200
O  -1.33700 12.63800 31.45500
C  -0.18200 12.17600 32.16900
H  -2.90300 20.25000 28.66600
H  -2.08700 19.38400 22.30100
H  -1.72400 13.17800 23.18200
H  -3.77700 15.82500 30.75400
H  -2.71500 18.78600 30.59800
H  -5.40800 17.63600 30.77800
H  -5.30800 18.97300 29.66500
H  -4.65500 19.14500 31.33100
H  -1.37100 17.28000 31.82400
H  -1.00400 15.82000 30.77100
H  -0.98500 15.26400 32.94600
H  -2.69500 14.76200 32.55600
H  -2.95500 22.25300 27.86800
H  -3.55200 22.81200 26.28800
H  -1.88100 23.09900 26.71100
H  -2.81400 23.63800 24.41300
H  -1.48700 24.07700 23.24200
H  -1.01800 23.39200 24.80900
H  -1.35000 17.45000 20.91000
H  -2.52300 14.70200 21.25700
H  -3.56500 18.14100 20.14000
H  -4.31100 17.11800 21.31500
H  -3.32000 16.40600 19.90000
H  -0.34600 15.39800 20.14800
H  -0.46100 13.98900 21.30300
H  0.55400 16.29200 22.68300
H  1.72100 15.90500 21.38600
H  1.34900 14.73600 22.62100
H  -1.64800 10.47500 25.69300
H  -1.58700 11.23700 24.01000
H  -3.07900 10.83100 24.69000
H  -3.35600 13.22600 30.19100
H  0.66200 11.90000 31.53600
H  -0.37700 11.36900 32.87500
H  0.15100 13.08200 32.67600
Mg 47.23600 35.53100 28.45900
C  45.54600 33.65500 31.10000
C  47.36900 38.08200 30.70000
C  48.03900 37.44400 25.89300
C  46.49600 32.88200 26.25200
N  46.42200 35.85100 30.71700
C  46.03900 34.88800 31.55300
C  46.24100 35.35800 33.00200
C  46.35200 36.93600 32.72600
C  46.83500 36.97000 31.36500
C  45.02700 37.64600 32.95500
C  47.39400 34.75400 33.75100
C  47.22600 34.67500 35.31100
H  46.00600 35.44900 35.90500
N  47.67300 37.49800 28.25700
C  47.77100 38.39600 29.36300
C  48.36000 39.64000 28.89100
C  48.60300 39.43800 27.49400
C  48.20000 38.09700 27.16300
C  48.68800 40.78800 29.73300
C  49.34300 40.43700 26.50500
O  49.64200 40.11200 25.41100
C  49.76200 41.82900 26.96000
N  47.19300 35.18900 26.35900
C  47.61200 36.18000 25.52400
C  47.43000 35.70000 24.05500
C  47.16200 34.24000 24.19800
C  47.00500 34.07700 25.69400
C  46.28000 36.54400 23.47300
C  48.20300 33.25000 23.60100
C  47.54500 32.15700 22.73200
N  46.37000 33.58900 28.61900
C  46.20100 32.63700 27.64900
C  45.64800 31.42600 28.26100
C  45.35100 31.76900 29.56600
C  45.73700 33.13800 29.72300
C  45.23100 30.24300 27.55000
C  44.77900 31.30200 30.85800
O  44.27000 30.20000 31.08300
C  44.84100 32.46600 31.82800
C  45.46500 31.99100 33.08200
O  46.65500 31.69800 33.20300
O  44.50900 31.66300 34.07900
C  44.99400 31.12500 35.35400
H  47.42900 39.00700 31.27700
H  48.29500 38.13600 25.08800
H  46.23700 32.03300 25.61700
H  45.38200 35.00600 33.57300
H  47.12000 37.40400 33.34300
H  45.07200 38.10900 33.94100
H  44.18200 36.95900 32.97900
H  44.97900 38.44200 32.21100
H  48.24600 35.38200 33.49200
H  47.74200 33.77200 33.43100
H  48.10700 35.19100 35.69200
H  47.20100 33.63800 35.64500
H  48.05700 41.63300 29.45700
H  49.76100 40.97700 29.76200
H  48.54800 40.63000 30.80300
H  49.06900 42.34000 27.62700
H  49.93600 42.40500 26.05100
H  50.72900 41.68800 27.44200
H  48.34700 35.97400 23.53400
H  46.23400 33.91700 23.72600
H  46.04100 37.21700 24.29500
H  45.33400 36.01700 23.34600
H  46.64300 37.01100 22.55700
H  48.76500 32.70200 24.35700
H  48.96900 33.68800 22.96100
H  46.55000 32.42700 22.37700
H  47.53100 31.20200 23.25600
H  48.15000 32.03700 21.83300
H  46.05100 29.94300 26.89800
H  44.34200 30.37300 26.93200
H  45.05300 29.36200 28.16600
H  43.78900 32.62700 32.06000
H  45.95000 31.56100 35.64500
H  45.04400 30.04700 35.50600
H  44.27800 31.49800 36.08600

