158

Mg 35.89700 2.51900 29.86700
C  33.59600 3.31500 32.31200
C  38.30100 2.36400 32.25900
C  37.95500 1.68500 27.48800
C  33.21100 2.66000 27.50300
N  35.90300 2.79800 31.98300
C  34.86300 3.01500 32.82900
C  35.25500 3.03200 34.29500
C  36.79100 2.92500 34.29900
C  36.97100 2.62300 32.76100
C  37.55700 4.14900 34.85500
C  34.51500 1.97900 35.22100
C  33.90500 2.51500 36.47700
H  34.55800 3.62400 37.17100
N  37.92200 2.10500 29.85500
C  38.77200 2.07800 30.93800
C  40.18300 1.83700 30.46000
C  40.09900 1.58800 29.03100
C  38.62100 1.75700 28.73800
C  41.36400 1.74400 31.35200
C  41.17200 1.04600 28.01100
O  40.89600 0.71900 26.88800
C  42.57600 0.75600 28.53800
N  35.59100 2.09500 27.84500
C  36.62400 1.93200 27.04400
C  36.26100 1.82200 25.57800
C  34.78500 2.06100 25.58800
C  34.45200 2.30100 27.08600
C  36.97900 2.71200 24.55100
C  33.80400 1.13600 24.72800
C  33.20000 -0.04600 25.43100
N  33.80200 2.95800 29.88500
C  32.82600 2.93500 28.85200
C  31.49800 3.38700 29.40500
C  31.76600 3.61000 30.73000
C  33.14100 3.31100 30.98300
C  30.20400 3.56900 28.61000
C  31.14600 4.04500 31.98000
O  30.01500 4.37900 32.26500
C  32.32800 3.80000 33.07000
C  32.41800 5.00400 33.84200
O  32.99100 6.00400 33.52900
O  31.69900 4.87400 34.98100
C  31.68100 6.03000 35.92000
H  39.12200 2.38200 32.97800
H  38.53900 1.24300 26.67900
H  32.39400 2.70100 26.78000
H  34.96900 4.01900 34.66000
H  37.16000 2.02800 34.79700
H  37.18300 4.71200 35.71000
H  37.59800 4.87500 34.04300
H  38.55600 3.76800 35.06800
H  35.15800 1.13500 35.47100
H  33.73000 1.53900 34.60500
H  33.79700 1.65800 37.14100
H  32.85300 2.73400 36.29800
H  41.89700 0.80000 31.23600
H  41.19300 2.02000 32.39200
H  41.99800 2.47200 30.84600
H  43.16300 0.63000 27.62900
H  42.78700 -0.09000 29.19300
H  42.99600 1.50100 29.21400
H  36.54500 0.81800 25.26200
H  34.49800 3.00300 25.12100
H  36.32600 3.52700 24.24000
H  37.43000 2.07400 23.79000
H  37.84400 3.19100 25.00800
H  34.46300 0.73300 23.95900
H  33.00800 1.81600 24.42400
H  33.72700 -0.43200 26.30300
H  33.24900 -0.87900 24.72900
H  32.17200 0.15700 25.73300
H  29.39900 3.14900 29.21200
H  30.12400 3.11700 27.62200
H  29.98800 4.63000 28.47900
H  31.93900 3.02000 33.72400
H  30.91000 6.75800 35.66700
H  32.63600 6.55500 35.96600
H  31.35300 5.59100 36.86100
Mg 48.14100 35.29900 26.86100
C  46.20800 33.99300 29.48100
C  48.54200 38.12700 28.70200
C  49.36400 36.60500 24.05600
C  47.16700 32.40100 24.95800
N  47.64900 35.87100 28.97500
C  46.96300 35.10800 29.88200
C  47.13800 35.65500 31.25900
C  47.61200 37.22400 30.98600
C  47.93300 37.08400 29.40600
C  46.63400 38.33100 31.44300
C  48.26800 34.77700 31.86600
C  48.21200 34.50600 33.30200
H  47.26300 35.36900 34.11800
N  48.86800 37.12100 26.39700
C  49.10800 38.14500 27.36100
C  49.89800 39.16900 26.70800
C  50.01700 38.81000 25.32100
C  49.36300 37.49400 25.16100
C  50.35400 40.40400 27.37900
C  50.71000 39.55400 24.20900
O  50.87400 39.13400 23.07800
C  51.22200 40.94500 24.46600
N  48.23400 34.61000 24.76700
C  48.86000 35.40600 23.79500
C  48.98200 34.64100 22.41700
C  48.50000 33.16400 22.83300
C  47.91200 33.38000 24.27100
C  48.35800 35.32900 21.20300
C  49.52400 31.96300 22.76600
C  49.56400 31.10600 21.46800
N  47.03700 33.54200 27.11700
C  46.61100 32.53400 26.24600
C  45.68500 31.65500 26.93500
C  45.44400 32.23000 28.16800
C  46.32100 33.32900 28.23100
C  45.13800 30.37800 26.35100
C  44.69300 32.14200 29.40400
O  43.78800 31.42500 29.74400
C  45.13300 33.34100 30.25200
C  45.49400 32.78100 31.57800
O  46.45300 32.17700 31.84800
O  44.41300 33.00400 32.40800
C  44.37800 32.33400 33.68700
H  48.86300 39.02700 29.23100
H  49.83600 37.10500 23.20800
H  47.02000 31.47300 24.40100
H  46.21200 35.57600 31.82900
H  48.57400 37.41300 31.46200
H  45.67500 37.95100 31.79600
H  46.44800 39.02300 30.62200
H  47.09300 38.78400 32.32200
H  49.19700 35.33300 31.73500
H  48.38300 33.78600 31.42700
H  49.23800 34.66400 33.63500
H  48.00400 33.44200 33.41400
H  50.25400 40.23300 28.45000
H  49.69400 41.23800 27.13800
H  51.41100 40.66000 27.30000
H  50.58700 41.59700 25.06500
H  51.19200 41.44600 23.49800
H  52.21900 40.85800 24.89700
H  50.04500 34.66100 22.17600
H  47.65500 32.82400 22.23400
H  47.59100 34.75000 20.68900
H  49.22100 35.55500 20.57800
H  47.94000 36.28400 21.52200
H  49.19800 31.24700 23.52000
H  50.46000 32.48900 22.95100
H  49.15000 30.11800 21.67000
H  50.62000 31.06300 21.20300
H  49.00700 31.50700 20.62200
H  44.37200 29.97700 27.01500
H  45.96700 29.67000 26.33500
H  44.72900 30.48200 25.34600
H  44.28600 34.00900 30.40400
H  45.29900 32.29800 34.26900
H  44.00100 31.32900 33.49800
H  43.62800 32.91900 34.21900

