158

Mg 40.78800 8.20000 29.80700
C  42.38400 9.82200 32.39800
C  38.53000 6.85200 32.04200
C  39.31500 6.64700 27.16000
C  43.44500 9.15300 27.64400
N  40.55300 8.29700 32.00500
C  41.17200 9.17500 32.80800
C  40.67900 9.05600 34.31900
C  39.43300 8.10900 34.19700
C  39.48100 7.71200 32.65500
C  39.41400 6.81000 35.11000
C  40.42500 10.41500 35.00500
C  39.72200 10.32400 36.33100
H  40.49600 10.32200 37.67400
N  39.16700 6.91200 29.60800
C  38.36800 6.54900 30.64700
C  37.22700 5.83500 30.08200
C  37.43800 5.74100 28.71100
C  38.71400 6.46200 28.40100
C  36.09600 5.31100 31.06100
C  36.47600 5.22200 27.63900
O  36.76900 5.08100 26.46800
C  35.18600 4.77200 28.09800
N  41.35000 7.78500 27.78300
C  40.51200 7.26500 26.86000
C  41.08500 7.35400 25.44300
C  42.15400 8.46000 25.63000
C  42.33500 8.44600 27.13200
C  41.69900 6.02700 24.92000
C  41.84200 9.95000 25.18500
C  40.42500 10.38500 25.52700
N  42.62600 9.25400 29.93300
C  43.65600 9.49900 28.98600
C  44.73700 10.27900 29.70000
C  44.30600 10.42700 31.02900
C  43.03400 9.77900 31.08400
C  45.96500 10.77500 28.98700
C  44.56900 11.07900 32.26000
O  45.44700 11.82500 32.60500
C  43.37800 10.74900 33.19000
C  43.94000 10.13200 34.45100
O  44.35400 8.96500 34.52700
O  43.98400 11.12300 35.41800
C  44.63600 10.76600 36.71600
H  37.83200 6.40700 32.75500
H  38.87800 6.16200 26.28500
H  44.12800 9.51200 26.87100
H  41.55700 8.59300 34.77000
H  38.46200 8.60200 34.23600
H  38.52600 6.65000 35.72200
H  40.19100 6.95900 35.86000
H  39.57000 5.93100 34.48500
H  39.85300 11.05100 34.32900
H  41.41300 10.83600 35.19300
H  39.16000 9.39000 36.29700
H  38.94600 11.08600 36.25800
H  35.10100 5.42500 30.63000
H  36.14000 5.79800 32.03500
H  36.31300 4.25800 31.24000
H  34.61600 5.61400 28.48900
H  35.43000 4.02800 28.85600
H  34.66800 4.25600 27.28900
H  40.17200 7.62600 24.91400
H  43.02600 8.14000 25.05900
H  41.30400 5.11800 25.37400
H  42.74600 5.98200 25.21800
H  41.48800 5.92900 23.85500
H  41.89600 10.07400 24.10300
H  42.59000 10.63700 25.58000
H  40.48900 11.43900 25.79800
H  39.84600 9.83200 26.26600
H  39.98000 10.30100 24.53600
H  45.68100 10.73300 27.93600
H  46.67500 9.95200 29.07300
H  46.38200 11.71500 29.34900
H  43.08100 11.76300 33.45700
H  45.27100 9.88000 36.69600
H  43.83800 10.42300 37.37600
H  45.11100 11.67200 37.09200
Mg 8.98900 48.15800 28.46800
C  7.06800 47.79200 31.48400
C  11.76400 48.48900 30.38500
C  10.60600 49.42100 25.76600
C  5.89500 48.35400 26.80000
N  9.26200 48.45100 30.68000
C  8.38800 48.10300 31.65800
C  9.22300 48.03100 33.04900
C  10.66000 48.41000 32.62700
C  10.58600 48.48600 31.07800
C  11.30100 49.72200 33.26800
C  9.08500 46.72900 33.96000
C  10.15500 46.63300 35.06000
H  9.83200 45.64400 36.15600
N  10.94000 48.77500 28.12500
C  11.98000 48.59700 29.02400
C  13.22500 48.63700 28.28000
C  12.88100 49.05700 26.92300
C  11.43200 49.12400 26.88100
C  14.64400 48.55500 28.86200
C  13.78700 49.24900 25.68300
O  13.28200 49.53100 24.62500
C  15.26300 48.92100 25.80700
N  8.32700 48.95600 26.58200
C  9.21600 49.40300 25.58300
C  8.39600 49.75000 24.33700
C  6.99900 49.35500 24.69500
C  7.04600 48.78500 26.11300
C  8.65400 51.27400 23.86900
C  6.33000 48.46600 23.68300
C  5.98400 49.05400 22.28000
N  6.85900 47.97000 28.95600
C  5.75800 48.04200 28.20200
C  4.54700 47.82300 28.98900
C  5.01300 47.54000 30.29100
C  6.41300 47.76000 30.23400
C  3.20800 47.89800 28.40700
C  4.71400 47.15200 31.65400
O  3.60800 46.74500 32.08000
C  6.04100 47.25900 32.47700
C  6.35500 45.88800 32.93500
O  6.86400 45.00100 32.16200
O  5.84100 45.72100 34.23300
C  6.18200 44.37700 34.76600
H  12.61700 48.52700 31.06600
H  10.94400 49.66500 24.75700
H  4.93200 48.41200 26.28800
H  8.85400 48.86700 33.64400
H  11.36400 47.58900 32.76200
H  12.27300 50.08400 32.93400
H  11.41400 49.60500 34.34600
H  10.60400 50.54400 33.10500
H  9.10600 45.86400 33.29700
H  8.13000 46.84900 34.47100
H  10.39900 47.61700 35.46200
H  11.05500 46.23800 34.58900
H  15.17200 47.74100 28.36700
H  14.54300 48.31100 29.91900
H  15.11700 49.53000 28.74400
H  15.38700 47.91300 26.20100
H  15.69400 49.73700 26.38800
H  15.76900 48.95800 24.84200
H  8.76500 49.12700 23.52300
H  6.52400 50.33600 24.71600
H  7.75100 51.88400 23.85600
H  9.15500 51.33100 22.90300
H  9.30500 51.83200 24.54200
H  5.38700 48.13500 24.11700
H  6.90300 47.55600 23.50800
H  6.58800 48.55000 21.52500
H  6.16200 50.12900 22.32000
H  4.96800 48.89000 21.92100
H  3.07600 48.86700 27.92700
H  2.47000 47.95700 29.20600
H  2.99400 47.11700 27.67700
H  6.11500 47.96900 33.30100
H  5.32900 44.06400 35.36800
H  7.12200 44.49300 35.30500
H  6.16000 43.67400 33.93300

