158

Mg 9.43800 3.81600 27.71200
C  10.75800 2.26500 30.58100
C  7.77400 6.08200 29.77800
C  7.94700 5.11300 24.96000
C  10.62400 1.23300 25.86600
N  9.31800 4.10200 29.85900
C  9.96400 3.42400 30.93600
C  9.51600 3.98600 32.28800
C  8.60000 5.16700 31.90000
C  8.51900 5.09700 30.38800
C  7.17600 5.05700 32.55900
C  10.64900 4.36100 33.28400
C  10.49100 5.51000 34.27800
H  10.85200 5.16500 35.67100
N  8.09600 5.33100 27.42700
C  7.57100 6.21200 28.41900
C  6.89400 7.29400 27.71100
C  6.85800 6.98000 26.35300
C  7.67000 5.78700 26.16800
C  6.19600 8.50000 28.39800
C  6.26900 7.80500 25.22000
O  6.46900 7.41300 24.04500
C  5.52500 9.12600 25.46300
N  9.22500 3.20700 25.67800
C  8.57000 3.88500 24.78500
C  8.69000 3.13000 23.39600
C  9.63700 1.98200 23.65600
C  9.92600 2.18600 25.09100
C  7.30200 2.71800 22.81400
C  10.97300 2.06000 22.77300
C  10.90200 0.99400 21.61000
N  10.53100 2.20200 28.04200
C  10.93100 1.23000 27.19700
C  11.74200 0.26200 27.94800
C  11.68700 0.68400 29.28300
C  10.93500 1.81000 29.27000
C  12.24800 -1.00500 27.37900
C  12.08100 0.29100 30.60500
O  12.67100 -0.65000 31.00500
C  11.52900 1.37100 31.49100
C  10.83600 0.78000 32.58800
O  9.87200 0.02400 32.55000
O  11.52000 1.06500 33.75200
C  11.06700 0.42500 34.99300
H  7.26200 6.72500 30.49600
H  7.58900 5.37300 23.96200
H  10.85400 0.32600 25.30400
H  8.85200 3.24500 32.73300
H  9.02300 6.15300 32.09200
H  6.52500 4.37000 32.01800
H  6.66800 6.02100 32.54000
H  7.25200 4.66700 33.57300
H  11.61200 4.22200 32.79400
H  10.55800 3.46100 33.89200
H  9.43600 5.77300 34.36700
H  11.13000 6.31000 33.90400
H  5.13300 8.51500 28.15800
H  6.56100 9.48500 28.10700
H  6.25400 8.39800 29.48200
H  6.25200 9.82700 25.87500
H  4.61500 8.93500 26.03200
H  5.29000 9.61300 24.51700
H  9.18000 3.85200 22.74400
H  9.11300 1.02800 23.61100
H  7.50400 1.81200 22.24400
H  6.97000 3.58000 22.23400
H  6.56200 2.57700 23.60200
H  11.83200 1.89000 23.42200
H  11.14000 3.08000 22.42800
H  10.06600 0.31800 21.78700
H  11.82100 0.41900 21.49600
H  10.80700 1.53000 20.66600
H  11.84300 -1.39400 26.44500
H  11.95500 -1.86000 27.98800
H  13.32600 -0.95100 27.22500
H  12.40500 1.86000 31.91600
H  10.46400 -0.47600 34.87500
H  10.61000 1.12400 35.69300
H  11.93700 0.05400 35.53600
Mg 15.46600 51.72500 25.08400
C  17.47200 50.79800 27.88500
C  12.85700 52.18700 27.27800
C  13.52500 52.42200 22.41000
C  17.85400 50.43000 23.00700
N  15.25400 51.61000 27.30300
C  16.24200 51.30400 28.27700
C  15.70200 51.68900 29.66300
C  14.14100 51.83200 29.40100
C  14.07100 51.87700 27.90400
C  13.26700 50.74100 29.96900
C  16.46000 52.89700 30.17100
C  16.47100 53.24900 31.69500
H  15.67600 52.34000 32.66100
N  13.49000 52.34500 24.86600
C  12.56100 52.35500 25.84600
C  11.26800 52.68100 25.38200
C  11.40700 52.64900 23.97200
C  12.85000 52.48600 23.69300
C  10.07600 52.87400 26.24700
C  10.36900 52.70200 22.85400
O  10.56400 52.78700 21.64900
C  8.88900 52.66500 23.28200
N  15.68900 51.56600 23.00100
C  14.79500 52.05100 22.11600
C  15.44300 52.19400 20.72100
C  16.80100 51.36500 20.89400
C  16.77200 51.02400 22.35700
C  14.70600 51.66400 19.45700
C  18.13000 51.96800 20.37100
C  18.77000 51.37000 19.18000
N  17.33300 50.86600 25.38200
C  18.16700 50.36500 24.43600
C  19.33500 49.78300 25.08200
C  19.11200 49.89700 26.44800
C  17.87900 50.56500 26.58000
C  20.46200 49.07000 24.34200
C  19.58400 49.56500 27.72000
O  20.61000 49.01800 28.06600
C  18.57100 50.19600 28.73400
C  18.10500 49.09900 29.48900
O  17.27700 48.28400 29.19600
O  18.74900 49.16800 30.71700
C  18.46800 48.23500 31.79900
H  12.06000 52.26600 28.02000
H  13.01700 52.72500 21.49200
H  18.63000 50.07000 22.32900
H  15.90100 50.92500 30.41500
H  13.83100 52.81300 29.76000
H  12.72900 51.21100 30.79200
H  13.93300 49.91800 30.22900
H  12.62900 50.42800 29.14300
H  16.07700 53.77800 29.65600
H  17.48300 52.68900 29.85600
H  16.20300 54.30300 31.77400
H  17.51800 53.06700 31.93700
H  10.43700 53.28100 27.19200
H  9.50000 51.95800 26.38200
H  9.41700 53.66900 25.89900
H  8.91900 51.75200 23.87600
H  8.35900 52.31700 22.39500
H  8.67000 53.56000 23.86300
H  15.66100 53.24300 20.52200
H  16.69900 50.36100 20.48100
H  15.31600 50.97900 18.86900
H  14.48000 52.50500 18.80100
H  13.82000 51.11100 19.76800
H  18.83100 52.20700 21.17100
H  17.89800 52.95900 19.98100
H  18.83200 52.06200 18.34100
H  18.19000 50.54100 18.77600
H  19.76700 50.96000 19.34700
H  20.97500 49.79800 23.71400
H  20.03200 48.29200 23.71200
H  21.08100 48.62000 25.11900
H  19.16300 50.89700 29.32300
H  19.04900 48.39900 32.70700
H  18.64800 47.22200 31.44000
H  17.43800 48.26200 32.15500

