158

Mg 52.88800 23.71600 44.15400
C  49.93000 25.60700 44.04100
C  51.06800 20.94500 43.71800
C  55.78100 21.89600 43.99600
C  54.77000 26.67800 44.12900
N  50.67700 23.38900 43.84200
C  49.66200 24.22400 43.88400
C  48.35800 23.48400 43.59400
C  48.77900 22.03200 43.81200
C  50.32200 22.13100 43.70300
C  48.26600 21.44500 45.17400
C  47.70900 23.83200 42.18400
C  48.65100 23.89700 40.97400
H  48.03200 24.25100 39.64800
N  53.38200 21.70900 43.90800
C  52.41900 20.77000 43.71900
C  52.99600 19.46700 43.79500
C  54.43200 19.66200 43.78400
C  54.63600 21.13800 43.97700
C  52.19800 18.22800 43.58000
C  55.45800 18.53500 43.45000
O  55.01300 17.41700 43.42800
C  56.92800 18.66000 43.25200
N  54.93100 24.22800 43.90500
C  55.96600 23.28800 43.88400
C  57.33600 23.91100 43.88900
C  56.95700 25.44800 44.14900
C  55.46900 25.45900 44.08600
C  58.26000 23.34500 45.05400
C  57.50700 26.32800 43.06800
C  57.97700 27.69500 43.57700
N  52.55800 25.77000 44.14500
C  53.36400 26.86700 44.15400
C  52.61300 28.04800 44.37800
C  51.29000 27.64600 44.30600
C  51.28200 26.22900 44.10600
C  53.16800 29.42400 44.55800
C  49.96400 28.08400 44.28100
O  49.52200 29.21900 44.58600
C  49.05800 26.83900 44.06800
C  48.30900 26.93700 42.84500
O  48.78400 26.92900 41.72200
O  47.04900 27.17900 43.23900
C  46.20700 27.76300 42.21200
H  50.48500 20.04600 43.50500
H  56.68600 21.34000 44.24800
H  55.23700 27.66500 44.13700
H  47.62000 23.77000 44.34500
H  48.31200 21.45700 43.01400
H  47.66200 22.19900 45.67800
H  49.12600 21.15000 45.77600
H  47.76000 20.50800 44.94400
H  47.04700 24.69000 42.29800
H  47.06900 22.96900 41.99800
H  49.20700 22.97800 40.78800
H  49.37200 24.68500 41.18900
H  52.62100 17.22800 43.67800
H  51.85200 18.16100 42.54800
H  51.33800 18.32000 44.24400
H  57.31500 17.91400 42.55800
H  57.47800 18.63600 44.19300
H  57.07800 19.61300 42.74300
H  57.82200 23.68700 42.94000
H  57.28400 25.86100 45.10300
H  58.85700 22.56300 44.58500
H  57.67700 22.97100 45.89600
H  58.93400 24.13100 45.39300
H  56.74700 26.54100 42.31500
H  58.31100 25.78700 42.57000
H  59.02200 27.67000 43.27000
H  57.83300 27.89200 44.63900
H  57.56900 28.51600 42.98700
H  54.01200 29.31400 45.23900
H  52.35100 30.00800 44.98300
H  53.50000 29.82500 43.60000
H  48.41800 26.88800 44.94900
H  45.48700 26.96700 42.02400
H  46.74800 28.00000 41.29600
H  45.62900 28.54600 42.70300
Mg -2.75200 33.99600 26.61100
C  -3.92400 32.16500 29.44200
C  -1.17700 36.07000 28.57400
C  -2.12400 35.71000 23.83700
C  -4.76800 31.77600 24.74400
N  -2.60300 34.09100 28.80000
C  -2.98300 33.20900 29.74600
C  -2.54200 33.57100 31.13800
C  -1.63500 34.83700 30.80700
C  -1.84700 35.07700 29.29900
C  -1.96400 36.15900 31.63400
C  -1.91800 32.32500 31.94400
C  -2.52300 32.10500 33.29600
H  -1.52700 31.96200 34.43300
N  -1.70800 35.60200 26.23500
C  -1.05500 36.37700 27.21000
C  -0.30900 37.43500 26.59200
C  -0.61000 37.40200 25.17500
C  -1.52800 36.23200 25.01500
C  0.60900 38.35700 27.32800
C  -0.28500 38.32800 24.04800
O  -0.79100 38.41900 22.92000
C  0.80400 39.37600 24.34200
N  -3.46200 33.79500 24.61100
C  -2.96200 34.61700 23.59400
C  -3.28000 34.04200 22.15700
C  -3.97300 32.68200 22.54200
C  -4.08300 32.76000 24.06600
C  -4.14700 34.98900 21.26100
C  -3.17900 31.50400 22.04100
C  -1.76500 31.39700 22.71400
N  -4.16300 32.34800 26.95100
C  -4.85400 31.52800 26.13000
C  -5.64000 30.57900 26.86800
C  -5.30800 30.85400 28.15500
C  -4.34400 31.85500 28.16100
C  -6.53000 29.56400 26.28700
C  -5.59600 30.39300 29.46900
O  -6.33400 29.53600 29.95000
C  -4.64700 31.22600 30.35700
C  -5.46700 31.90000 31.38200
O  -6.06600 32.97700 31.24200
O  -5.69700 31.11800 32.48000
C  -6.57800 31.71900 33.47900
H  -0.56100 36.64100 29.27200
H  -1.92600 36.17300 22.86800
H  -5.39500 31.04900 24.22400
H  -3.38400 34.01200 31.67200
H  -0.59200 34.68000 31.08000
H  -2.59100 36.77900 30.99400
H  -1.05700 36.66500 31.96500
H  -2.48300 36.04700 32.58600
H  -0.85400 32.53400 32.04900
H  -1.91200 31.46000 31.28100
H  -3.07600 31.16700 33.24100
H  -3.20300 32.86300 33.68400
H  0.42900 38.44100 28.40000
H  0.43500 39.37700 26.98600
H  1.64500 38.09600 27.11200
H  1.67500 38.86200 24.74700
H  0.54800 40.17600 25.03800
H  1.02100 39.82900 23.37500
H  -2.32200 33.88300 21.66000
H  -5.01100 32.58800 22.22300
H  -3.89300 36.02200 21.49800
H  -5.17700 34.77200 21.54400
H  -3.91500 34.87900 20.20200
H  -2.94700 31.53500 20.97700
H  -3.70700 30.61000 22.37300
H  -1.62900 32.25000 23.37900
H  -1.06700 31.35500 21.87900
H  -1.82500 30.49100 23.31700
H  -6.37600 29.42200 25.21700
H  -7.50100 29.98600 26.54900
H  -6.47300 28.54100 26.66000
H  -3.97100 30.58800 30.92600
H  -7.49500 32.04900 32.99200
H  -6.22900 32.55200 34.08900
H  -6.72500 30.83000 34.09300

