158

Mg -1.22900 6.25500 26.10900
C  -0.49900 8.64200 28.72200
C  -0.73500 3.74800 28.38800
C  -1.71900 4.30600 23.58300
C  -1.29500 9.13800 23.90700
N  -0.79500 6.24600 28.37800
C  -0.62700 7.30300 29.21000
C  -0.40200 6.88200 30.66200
C  -0.38200 5.33400 30.58500
C  -0.66800 5.05000 29.00100
C  0.89300 4.56600 31.03900
C  -1.41700 7.38300 31.66000
C  -1.10400 7.32700 33.17300
H  0.11000 6.46100 33.78600
N  -1.24000 4.31600 25.96200
C  -1.07100 3.42100 27.02900
C  -1.38800 2.08800 26.48300
C  -1.60200 2.18900 25.08000
C  -1.50100 3.65600 24.78200
C  -1.43600 0.85100 27.37200
C  -2.01000 1.07400 24.02400
O  -2.17600 1.23700 22.79200
C  -2.38000 -0.42000 24.58000
N  -1.42000 6.67600 23.98900
C  -1.79400 5.63300 23.17600
C  -2.18700 6.13100 21.76500
C  -2.10800 7.67600 22.02500
C  -1.55800 7.87500 23.37000
C  -1.30100 5.48000 20.66000
C  -3.47700 8.43100 21.97500
C  -3.48200 9.78800 21.13800
N  -0.91800 8.45500 26.24900
C  -0.91900 9.42200 25.25000
C  -0.46400 10.63400 25.80600
C  -0.30200 10.35200 27.17800
C  -0.58900 9.02900 27.38700
C  -0.29700 11.97700 25.11900
C  -0.01300 10.97100 28.38600
O  0.37100 12.17700 28.51100
C  -0.18500 9.87800 29.49300
C  1.05700 9.80400 30.34400
O  2.13200 9.21600 30.12200
O  0.72100 10.48100 31.57700
C  1.76800 10.50500 32.59300
H  -0.51900 2.89800 29.03800
H  -1.87800 3.52800 22.83300
H  -1.35700 9.97400 23.20800
H  0.56500 7.30300 30.93700
H  -1.23900 4.92800 31.12300
H  1.25600 3.89500 30.25900
H  0.53000 4.00500 31.90000
H  1.71200 5.24500 31.27800
H  -2.41800 7.00300 31.45300
H  -1.55000 8.42300 31.36200
H  -2.00900 6.97800 33.67000
H  -0.91400 8.35000 33.49600
H  -1.40500 1.11500 28.43000
H  -0.51000 0.30500 27.19100
H  -2.29000 0.24400 27.07100
H  -1.65000 -0.69900 25.33900
H  -2.34700 -1.11100 23.73800
H  -3.39100 -0.28300 24.96400
H  -3.21600 5.79500 21.63400
H  -1.46700 8.11500 21.26000
H  -0.60100 4.77800 21.11300
H  -0.69100 6.21700 20.13700
H  -2.02700 4.98000 20.01900
H  -3.84600 8.57100 22.99100
H  -4.34700 7.91200 21.57200
H  -2.46800 9.87400 20.74700
H  -3.75100 10.65800 21.73800
H  -4.11400 9.77800 20.25000
H  -1.23500 12.21200 24.61500
H  0.56200 11.87200 24.45600
H  -0.11500 12.77800 25.83500
H  -1.08100 10.12700 30.06100
H  2.79300 10.36900 32.24800
H  1.43900 9.66700 33.20800
H  1.75000 11.43200 33.16700
Mg 17.12100 50.91700 26.12300
C  18.79100 49.91900 29.02900
C  14.64100 52.09100 28.00200
C  15.70800 51.81700 23.23000
C  19.81900 49.57100 24.32500
N  16.73000 50.73700 28.32000
C  17.54600 50.38700 29.32000
C  16.95400 50.69700 30.72700
C  15.48700 51.14700 30.38500
C  15.53600 51.26700 28.80600
C  14.37000 50.18500 30.84400
C  17.87800 51.81200 31.46100
C  18.18500 51.50900 32.99500
H  17.29600 50.55100 33.77800
N  15.45700 51.84900 25.72300
C  14.57900 52.32700 26.64000
C  13.59800 53.20200 25.99100
C  13.88000 53.12000 24.58200
C  15.01300 52.19200 24.46100
C  12.45800 53.90000 26.75900
C  13.27600 53.87800 23.36600
O  13.65800 53.71000 22.21900
C  12.12800 54.84100 23.68000
N  17.65700 50.59700 24.03200
C  16.88800 51.09200 23.01600
C  17.51000 50.78400 21.62100
C  18.82700 50.13500 22.06400
C  18.75800 50.08400 23.55800
C  16.54800 50.03300 20.71100
C  20.07000 50.92400 21.54900
C  20.28800 52.36500 22.11000
N  18.90500 50.02200 26.49000
C  19.91800 49.48600 25.68900
C  20.98600 48.82600 26.47000
C  20.54300 49.02500 27.77700
C  19.29600 49.73900 27.74900
C  22.25400 48.17600 25.94600
C  20.96600 48.75800 29.11600
O  21.97900 48.19500 29.46400
C  19.86400 49.38300 30.05400
C  19.31500 48.21800 30.97200
O  18.55100 47.38500 30.50700
O  19.75000 48.24900 32.28900
C  19.48900 46.95800 32.95200
H  13.79400 52.53100 28.53100
H  15.26600 52.21800 22.31500
H  20.70700 49.29900 23.75100
H  16.88000 49.78000 31.31100
H  15.25500 52.18100 30.63900
H  14.37900 49.90200 31.89700
H  14.40500 49.34900 30.14500
H  13.48900 50.81300 30.71200
H  17.37400 52.77200 31.35000
H  18.75200 51.88500 30.81400
H  18.11000 52.48200 33.47900
H  19.21800 51.18000 33.11200
H  11.54000 54.02900 26.18600
H  12.73200 54.90500 27.08100
H  12.07700 53.24300 27.54100
H  12.34300 55.60600 24.42700
H  11.18700 54.38100 23.98200
H  11.95000 55.41300 22.76900
H  17.56500 51.72300 21.07000
H  18.94100 49.16500 21.57900
H  16.78300 49.18400 20.06900
H  15.94900 50.59900 19.99800
H  15.72200 49.66200 21.31800
H  19.83600 51.01900 20.48900
H  21.02000 50.40800 21.69000
H  21.33200 52.50400 22.38900
H  19.70200 52.50500 23.01800
H  19.88300 53.07400 21.38800
H  22.71700 48.74700 25.14100
H  21.83700 47.22400 25.61800
H  23.04700 48.04300 26.68200
H  20.33000 50.14800 30.67500
H  19.83200 46.11400 32.35300
H  18.47600 46.77900 33.31300
H  20.04000 46.85100 33.88700

