158

Mg 47.75200 16.43800 28.29000
C  45.70400 16.05100 31.04800
C  49.86100 18.48400 30.21900
C  49.49400 17.20700 25.55800
C  45.23800 14.83200 26.35200
N  47.74900 17.28200 30.38200
C  46.86000 16.82200 31.32000
C  47.30500 17.25200 32.69600
C  48.45300 18.22700 32.42800
C  48.79700 17.94200 30.91000
C  48.10700 19.69100 32.80800
C  47.83800 16.06600 33.60600
C  47.78000 16.26400 35.14500
H  47.41100 17.57400 35.70000
N  49.56900 17.53200 27.95200
C  50.23200 18.28500 28.83500
C  51.41200 18.78500 28.18100
C  51.39900 18.38600 26.84100
C  50.18600 17.63500 26.72800
C  52.53400 19.39900 28.95600
C  52.33700 18.64400 25.73400
O  52.09900 18.21000 24.59000
C  53.53100 19.58000 25.92600
N  47.42300 16.00700 26.31800
C  48.31900 16.42500 25.39000
C  47.72800 16.10200 23.94600
C  46.56300 14.99400 24.23500
C  46.40300 15.26500 25.74300
C  47.26500 17.34700 23.12200
C  46.78900 13.52800 23.81900
C  45.57400 12.99300 23.06600
N  45.74800 15.71200 28.55000
C  44.91400 15.00600 27.70300
C  43.82100 14.52700 28.41500
C  44.04600 14.90700 29.75100
C  45.24400 15.58600 29.78500
C  42.66900 13.76300 27.83600
C  43.48400 14.89700 31.10000
O  42.44900 14.51500 31.55900
C  44.58200 15.61300 31.99100
C  43.86100 16.74800 32.71900
O  43.47700 17.77400 32.20600
O  43.68700 16.47500 34.02000
C  43.03700 17.55800 34.86400
H  50.46900 19.18400 30.79600
H  49.93400 17.46900 24.59300
H  44.57800 14.28900 25.67300
H  46.46100 17.64800 33.26000
H  49.36000 18.17200 33.03000
H  48.66900 19.92600 33.71200
H  47.06100 19.81600 33.08700
H  48.47200 20.34900 32.01900
H  48.82200 15.70300 33.30800
H  47.27800 15.15500 33.39900
H  48.70100 15.99000 35.66100
H  47.09600 15.47900 35.46800
H  52.61900 20.46800 28.76000
H  53.43600 18.87700 28.63500
H  52.34700 19.18000 30.00700
H  53.16700 20.46000 26.45600
H  53.74000 19.91600 24.91100
H  54.34800 19.04200 26.40700
H  48.46800 15.56100 23.35500
H  45.66300 15.36000 23.74200
H  46.35700 17.36200 22.51900
H  48.07500 17.58800 22.43400
H  47.10000 18.13400 23.85800
H  46.93100 13.01700 24.77100
H  47.76700 13.52800 23.33700
H  44.65700 13.57000 22.95100
H  45.25000 12.01100 23.41000
H  45.96000 12.84500 22.05800
H  42.37200 14.19000 26.87800
H  41.87700 13.74000 28.58500
H  43.02100 12.76500 27.57700
H  44.85200 14.82300 32.69200
H  43.79300 18.33800 34.94500
H  42.81400 17.06700 35.81100
H  42.12900 18.01500 34.47000
Mg -5.03900 26.31500 26.55200
C  -3.75200 27.59700 29.51400
C  -7.13000 24.28800 28.57800
C  -6.13900 24.69400 23.79800
C  -2.78000 28.22300 24.69700
N  -5.18700 25.82100 28.78800
C  -4.57500 26.54100 29.77500
C  -5.07500 26.01000 31.20500
C  -5.88600 24.72800 30.89700
C  -6.12700 24.92700 29.30600
C  -5.33000 23.34100 31.32800
C  -5.90700 27.12200 31.99400
C  -5.98000 27.10300 33.54500
H  -5.68300 25.76200 34.19400
N  -6.27600 24.61100 26.24200
C  -7.18400 24.10400 27.16700
C  -8.21300 23.30000 26.47000
C  -7.84700 23.21900 25.09100
C  -6.74000 24.17800 24.96900
C  -9.29200 22.62600 27.27800
C  -8.41300 22.43500 23.93200
O  -7.92700 22.44900 22.80100
C  -9.48100 21.57100 24.14000
N  -4.49600 26.40500 24.59500
C  -5.16300 25.71200 23.61300
C  -4.68300 26.16300 22.21200
C  -3.61200 27.25300 22.49900
C  -3.62100 27.33600 24.01800
C  -4.16000 25.04200 21.30100
C  -3.85800 28.59600 21.67100
C  -2.84100 28.88700 20.53600
N  -3.48000 27.66400 26.96900
C  -2.71200 28.39500 26.11200
C  -1.92800 29.34200 26.84500
C  -2.31500 29.09700 28.17900
C  -3.24700 28.01800 28.19700
C  -0.93500 30.34000 26.27000
C  -2.03900 29.42200 29.57100
O  -1.29800 30.29200 30.05700
C  -3.03800 28.51500 30.44600
C  -2.14600 27.69800 31.27200
O  -1.37100 26.89400 30.75200
O  -2.09500 28.09400 32.53200
C  -0.90300 27.63400 33.23900
H  -7.93700 23.88000 29.19000
H  -6.55000 24.28300 22.87400
H  -2.09900 28.89800 24.17300
H  -4.24000 25.76600 31.86200
H  -6.84200 24.81200 31.41400
H  -5.19800 22.69400 30.46100
H  -6.03300 22.85200 32.00200
H  -4.37600 23.29000 31.85300
H  -6.94700 27.01300 31.68500
H  -5.51800 28.11000 31.75000
H  -7.02800 27.38000 33.65400
H  -5.39000 27.85100 34.07600
H  -8.91100 21.83700 27.92600
H  -10.03600 22.11700 26.66500
H  -9.85200 23.34300 27.87900
H  -10.25500 22.32600 24.27200
H  -9.27800 21.02500 25.06100
H  -9.76000 20.96900 23.27500
H  -5.54800 26.68600 21.80400
H  -2.65400 26.88700 22.13100
H  -4.44800 24.10400 21.77600
H  -3.07400 25.11300 21.23900
H  -4.56300 24.97700 20.29100
H  -3.92300 29.44100 22.35600
H  -4.87200 28.67000 21.27900
H  -3.38400 28.73200 19.60400
H  -1.99100 28.20600 20.58700
H  -2.57400 29.94100 20.46900
H  -1.31000 31.36100 26.34300
H  -0.60600 30.11400 25.25600
H  -0.00800 30.34800 26.84400
H  -3.75900 29.02100 31.08800
H  -1.14600 26.58200 33.38700
H  -0.76100 28.26100 34.11900
H  0.02000 27.67200 32.66100

