158

Mg 17.68600 -1.94800 28.44000
C  16.74700 0.31300 31.08400
C  19.47900 -3.76000 30.58300
C  18.29700 -4.01400 25.90400
C  16.35200 0.39600 26.33100
N  18.24400 -1.54800 30.52700
C  17.72900 -0.64800 31.41300
C  18.20400 -1.04500 32.80500
C  19.14500 -2.24300 32.61900
C  18.85300 -2.61700 31.14700
C  20.67100 -1.88100 32.98000
C  17.04700 -1.31400 33.80400
C  17.09000 -0.72600 35.21300
H  18.35500 -0.65800 35.94800
N  18.66100 -3.76300 28.34600
C  19.38800 -4.30700 29.31500
C  19.99200 -5.55600 28.83600
C  19.72500 -5.66700 27.44500
C  18.81300 -4.49000 27.15900
C  20.56600 -6.54400 29.78900
C  20.17700 -6.75200 26.36000
O  19.79400 -6.73800 25.19200
C  21.05400 -7.88700 26.82400
N  17.44700 -1.78600 26.37900
C  17.71600 -2.79200 25.54500
C  17.50000 -2.38300 24.03900
C  16.77200 -0.97800 24.19400
C  16.92300 -0.70400 25.70400
C  18.61500 -2.48700 23.03800
C  15.31100 -0.85800 23.61600
C  15.24900 -0.19300 22.25800
N  16.73200 0.02300 28.57100
C  16.15800 0.73800 27.61100
C  15.43700 1.84500 28.13100
C  15.67500 1.78500 29.51100
C  16.48000 0.60100 29.76300
C  14.64000 2.81700 27.26200
C  15.45900 2.40900 30.79100
O  14.80600 3.38500 31.16900
C  16.11400 1.42000 31.82500
C  17.10700 2.16600 32.66400
O  18.32100 2.33800 32.41600
O  16.42700 2.79400 33.64400
C  17.33100 3.77000 34.39700
H  19.94600 -4.39500 31.33900
H  18.53600 -4.59100 25.00800
H  15.97900 1.10900 25.59300
H  18.75400 -0.13000 33.02600
H  18.77600 -3.01000 33.30100
H  20.95200 -2.02500 34.02400
H  20.90100 -0.82900 32.80700
H  21.32900 -2.50000 32.37000
H  17.11500 -2.37100 34.06300
H  16.09300 -1.13800 33.30800
H  16.43300 -1.20900 35.93600
H  16.53800 0.21400 35.19000
H  21.48000 -6.07400 30.15300
H  20.95600 -7.51100 29.47100
H  20.00300 -6.67300 30.71300
H  21.38200 -8.53400 26.01000
H  20.41900 -8.42900 27.52400
H  21.89300 -7.41000 27.32900
H  16.76300 -3.10200 23.68200
H  17.32900 -0.27100 23.57900
H  19.54700 -2.74500 23.54100
H  18.85900 -1.51300 22.61400
H  18.36400 -3.24000 22.29200
H  14.74100 -0.32100 24.37300
H  14.80000 -1.81800 23.54400
H  16.21900 -0.00400 21.79800
H  14.79400 0.79400 22.34300
H  14.72900 -0.90100 21.61300
H  15.24300 3.58800 26.78400
H  14.06400 3.33000 28.03200
H  13.95400 2.39700 26.52600
H  15.23500 1.14700 32.40900
H  16.97100 4.78200 34.21600
H  18.40300 3.74000 34.20400
H  17.16200 3.68100 35.47000
Mg -2.76700 34.94700 26.47500
C  -3.60300 33.40000 29.50500
C  -0.88500 37.20400 28.26900
C  -2.45500 36.83300 23.67800
C  -5.20700 32.94900 24.81300
N  -2.36400 35.19300 28.68500
C  -2.87200 34.52800 29.74700
C  -2.31000 35.18200 31.09600
C  -1.37200 36.32400 30.66100
C  -1.58100 36.30200 29.11900
C  -1.55900 37.66300 31.30000
C  -1.61700 34.17000 32.10200
C  -2.26200 34.22000 33.59200
H  -1.36400 34.16800 34.80700
N  -1.64700 36.60800 25.98700
C  -0.98300 37.39300 26.89600
C  -0.39700 38.52300 26.24500
C  -0.80200 38.48700 24.80200
C  -1.69000 37.27200 24.78100
C  0.39000 39.49400 27.02100
C  -0.49500 39.34800 23.57200
O  -0.83100 39.09300 22.42300
C  0.30300 40.62500 23.77400
N  -3.64900 34.78700 24.57400
C  -3.29500 35.73700 23.53600
C  -4.18300 35.47200 22.23600
C  -4.69600 34.00300 22.54100
C  -4.57300 33.95800 24.07500
C  -5.25400 36.59400 21.99800
C  -3.89100 32.83800 21.84800
C  -4.28600 32.63700 20.39400
N  -4.12800 33.47800 26.98100
C  -4.98800 32.70100 26.19000
C  -5.53000 31.62700 26.98900
C  -5.05200 31.88700 28.28100
C  -4.16400 32.99700 28.22700
C  -6.51400 30.56600 26.55800
C  -5.05200 31.40200 29.59800
O  -5.51900 30.40500 30.09900
C  -4.35300 32.47700 30.51300
C  -5.37800 33.11700 31.47500
O  -6.07000 34.06800 31.21800
O  -5.34100 32.42900 32.65300
C  -6.10200 32.98600 33.78800
H  -0.23300 37.80200 28.90900
H  -2.39800 37.27100 22.67900
H  -5.91800 32.28300 24.32100
H  -3.16600 35.54400 31.66600
H  -0.34200 36.13900 30.96600
H  -1.63500 38.48900 30.59300
H  -0.81300 37.97100 32.03300
H  -2.42000 37.68900 31.96800
H  -0.54400 34.31200 32.23100
H  -1.73500 33.15200 31.73100
H  -3.01500 33.43200 33.59900
H  -2.73400 35.20100 33.64500
H  1.00700 40.09800 26.35400
H  1.10700 39.15600 27.77000
H  -0.31100 40.25600 27.35900
H  0.03900 41.28000 24.60500
H  0.53100 41.15300 22.84800
H  1.23500 40.16200 24.09900
H  -3.58200 35.46200 21.32600
H  -5.77200 34.04200 22.36900
H  -5.16500 37.26800 22.85000
H  -6.26600 36.18900 22.01300
H  -5.07400 37.12600 21.06400
H  -3.89300 31.90900 22.41700
H  -2.84600 33.11400 21.70800
H  -5.13200 33.27300 20.13200
H  -4.72300 31.64000 20.32900
H  -3.43900 32.81100 19.73100
H  -6.10300 29.55600 26.53400
H  -7.06800 30.78600 25.64600
H  -7.28900 30.63600 27.32200
H  -3.55700 32.01900 31.10000
H  -7.01300 33.43100 33.38800
H  -5.44600 33.79900 34.10000
H  -6.37100 32.24800 34.54400

