158

Mg 17.47500 -1.87700 27.03400
C  16.50400 0.15600 29.83400
C  19.44600 -3.69500 29.31800
C  18.66300 -3.53800 24.43100
C  15.81500 0.31600 24.99400
N  17.98400 -1.73800 29.33600
C  17.35100 -0.92300 30.23100
C  17.77800 -1.24900 31.64300
C  18.84600 -2.40000 31.46800
C  18.73000 -2.63900 29.97300
C  20.29700 -2.09100 31.78800
C  16.54300 -1.57400 32.50800
C  16.43500 -0.85900 33.81500
H  17.78400 -0.69500 34.48700
N  18.84100 -3.37700 26.92000
C  19.46900 -4.08100 27.94200
C  20.20600 -5.12700 27.30400
C  20.02800 -5.11100 25.91600
C  19.12400 -3.94500 25.68500
C  21.03900 -6.10200 28.14200
C  20.63900 -6.05000 24.87800
O  20.32900 -6.03300 23.71000
C  21.61700 -7.10300 25.25700
N  17.28900 -1.65400 25.03100
C  17.88500 -2.37300 24.07500
C  17.56400 -2.03200 22.65100
C  16.47100 -0.96700 22.91300
C  16.49700 -0.73800 24.40400
C  18.71800 -1.51400 21.74100
C  15.03800 -1.27200 22.34500
C  13.95600 -1.64100 23.34800
N  16.30600 -0.15700 27.32900
C  15.63200 0.55800 26.45800
C  14.84100 1.59500 26.97300
C  15.12800 1.47700 28.37100
C  16.01200 0.41700 28.51500
C  13.91000 2.48100 26.28500
C  14.86400 2.00600 29.72200
O  14.21700 3.01000 30.02900
C  15.76900 1.16500 30.69900
C  16.57300 2.14400 31.41100
O  17.71000 2.49100 31.14000
O  15.78600 2.67200 32.41500
C  16.35300 3.72900 33.26600
H  19.99500 -4.31400 30.03100
H  19.09300 -4.16500 23.64700
H  15.27200 0.99700 24.33500
H  18.15600 -0.31600 32.06000
H  18.49200 -3.29600 31.97800
H  20.44500 -1.18300 32.37300
H  20.93800 -1.87000 30.93400
H  20.74400 -2.95600 32.27700
H  16.57500 -2.64400 32.71000
H  15.65400 -1.48400 31.88400
H  15.89800 -1.54300 34.47300
H  15.85100 0.05900 33.74600
H  21.19000 -7.12100 27.78500
H  20.56000 -6.28100 29.10500
H  22.01300 -5.63800 28.29300
H  22.32400 -6.86400 26.05100
H  22.19000 -7.51200 24.42500
H  20.96500 -7.88900 25.63700
H  17.23200 -2.98300 22.23400
H  16.79600 0.01500 22.57000
H  19.60800 -1.48500 22.36900
H  18.44800 -0.56900 21.27100
H  18.84500 -2.19500 20.90000
H  15.11000 -2.10400 21.64500
H  14.66500 -0.37900 21.84200
H  13.38600 -0.74300 23.58700
H  14.45500 -2.09300 24.20500
H  13.40300 -2.43900 22.85300
H  13.44400 1.76100 25.61200
H  14.64400 3.05800 25.72300
H  13.17200 3.06000 26.84100
H  15.17200 0.65700 31.45600
H  15.70500 4.57300 33.03000
H  17.37100 4.04000 33.03100
H  16.20800 3.58800 34.33700
Mg 26.80200 50.34000 27.07400
C  24.73900 51.82200 29.69000
C  29.02400 49.66200 29.51300
C  28.72900 49.15600 24.65600
C  24.51400 51.69100 24.73700
N  26.90200 50.85600 29.37300
C  25.92100 51.29200 30.23000
C  26.27800 51.00900 31.69900
C  27.71900 50.33900 31.58800
C  27.91600 50.30700 30.06500
C  28.88500 51.06000 32.29900
C  25.20200 50.19100 32.56100
C  25.55000 49.23400 33.72800
H  24.91200 49.55100 35.16000
N  28.55900 49.44400 27.07400
C  29.36100 49.22300 28.20900
C  30.61400 48.59100 27.80300
C  30.54100 48.54000 26.39200
C  29.23600 49.01400 25.97800
C  31.76700 48.29800 28.74400
C  31.70600 48.07600 25.43800
O  31.56600 48.01000 24.21400
C  33.11100 47.89000 25.87900
N  26.67700 50.42800 24.98100
C  27.50500 49.73300 24.21600
C  26.93900 49.70900 22.77200
C  25.46400 50.30400 22.93800
C  25.58500 50.87800 24.25700
C  27.80500 50.52900 21.82900
C  24.33700 49.21000 22.77500
C  23.10700 49.58200 21.91800
N  25.07400 51.57000 27.10600
C  24.23600 51.97800 26.07100
C  23.13200 52.81900 26.63700
C  23.30400 52.70100 28.00900
C  24.47800 52.00300 28.31100
C  21.94300 53.49400 25.89900
C  22.63200 53.06800 29.29200
O  21.59800 53.67800 29.62200
C  23.59400 52.43200 30.46200
C  24.06900 53.65600 31.19900
O  25.15400 54.24500 31.05800
O  23.15400 53.83900 32.23000
C  23.54600 54.86400 33.19800
H  29.82200 49.29100 30.15900
H  29.24600 48.62200 23.85600
H  23.84900 52.04700 23.94700
H  26.36800 52.02500 32.08200
H  27.75800 49.27100 31.80200
H  28.48200 51.76100 33.03000
H  29.42800 51.58900 31.51500
H  29.47200 50.33700 32.86500
H  24.67400 49.59500 31.81600
H  24.43800 50.90100 32.87700
H  26.61100 49.36300 33.94500
H  25.29600 48.20100 33.49100
H  31.80000 47.25300 29.05100
H  31.84500 48.98700 29.58500
H  32.78200 48.34700 28.35200
H  33.34700 48.87000 26.29300
H  33.77800 47.69600 25.03900
H  33.15400 47.08000 26.60800
H  26.73100 48.72000 22.36400
H  25.22400 51.05400 22.18400
H  28.74500 50.58100 22.37800
H  27.44400 51.54300 21.66300
H  27.81700 50.05300 20.84800
H  23.96700 49.08300 23.79200
H  24.70700 48.23100 22.47000
H  23.09600 48.98600 21.00600
H  22.98700 50.60700 21.56700
H  22.26100 49.27000 22.53200
H  21.93700 53.40700 24.81200
H  21.64900 54.52500 26.09800
H  21.11100 52.89500 26.26800
H  23.15000 51.66400 31.09600
H  23.82800 55.81800 32.75200
H  24.30500 54.42300 33.84400
H  22.79000 55.00500 33.97100

