158

Mg 43.08700 42.36900 27.18900
C  42.19000 44.58900 29.66200
C  43.92200 40.01200 29.48200
C  44.54500 40.49900 24.80600
C  42.75500 45.05600 24.89500
N  43.13900 42.38100 29.25300
C  42.51100 43.29000 30.06200
C  42.49100 42.85500 31.58500
C  43.17600 41.46100 31.49600
C  43.39400 41.22000 29.97900
C  44.47800 41.22200 32.31400
C  41.02700 42.81600 32.12200
C  40.74900 43.72800 33.34200
H  40.48000 43.06200 34.71500
N  43.93500 40.50500 27.17300
C  44.21800 39.67000 28.21800
C  44.95900 38.48700 27.76900
C  45.05800 38.59500 26.31200
C  44.49200 39.89800 26.03900
C  45.47900 37.40900 28.64900
C  45.63500 37.59500 25.36100
O  45.87100 37.79300 24.19100
C  45.80900 36.20600 25.86500
N  43.45400 42.69500 25.16600
C  44.13000 41.76900 24.41600
C  44.02600 42.17000 22.93400
C  43.50700 43.63500 22.99800
C  43.15400 43.84300 24.40100
C  45.39100 42.02800 22.10100
C  42.55000 44.10400 21.93800
C  41.07100 44.31100 22.30800
N  42.55800 44.44600 27.19500
C  42.44800 45.37800 26.23200
C  41.91100 46.60100 26.77200
C  41.83300 46.32800 28.14700
C  42.25100 44.96700 28.32700
C  41.46100 47.88000 26.01900
C  41.64200 46.95700 29.43800
O  41.38800 48.09400 29.78300
C  41.73400 45.75300 30.52200
C  42.70000 46.13000 31.56900
O  43.93900 46.17700 31.51200
O  42.02600 46.48600 32.66300
C  42.79500 47.05200 33.78200
H  44.15800 39.20600 30.18000
H  45.11700 39.98400 24.03100
H  42.60500 45.86500 24.17600
H  42.99300 43.65400 32.13200
H  42.50200 40.68500 31.86000
H  44.64200 42.18000 32.80800
H  45.30600 40.94200 31.66300
H  44.42800 40.32200 32.92700
H  40.77900 41.78300 32.36700
H  40.39300 43.01500 31.25800
H  39.93600 44.41000 33.09400
H  41.61400 44.33100 33.61700
H  45.46400 37.58700 29.72400
H  46.51100 37.39100 28.29900
H  45.09000 36.40000 28.51400
H  46.06000 35.49200 25.08000
H  44.83700 35.87900 26.23400
H  46.58400 36.26300 26.63000
H  43.31500 41.61000 22.32600
H  44.36400 44.29800 22.88700
H  46.14700 41.89700 22.87600
H  45.66900 42.87500 21.47400
H  45.55100 41.21500 21.39200
H  42.54100 43.38700 21.11600
H  42.95600 45.02300 21.51500
H  40.92500 43.96400 23.33000
H  40.36500 43.83300 21.62900
H  40.78700 45.36200 22.24800
H  41.48100 47.80200 24.93200
H  42.05500 48.76700 26.23900
H  40.44100 48.08600 26.34500
H  40.75400 45.60300 30.97300
H  43.12600 48.05900 33.52500
H  43.66400 46.45700 34.06000
H  42.21100 47.04400 34.70200
Mg -6.27800 24.76900 25.32200
C  -4.58600 26.26200 28.15700
C  -7.63300 22.52200 27.49200
C  -7.09300 23.06800 22.72200
C  -3.90100 26.61100 23.44900
N  -6.11900 24.37200 27.63900
C  -5.49400 25.20800 28.55000
C  -6.06200 24.86700 29.98100
C  -6.79500 23.46900 29.70700
C  -6.90600 23.46400 28.20800
C  -6.09700 22.16500 30.28700
C  -6.90200 26.04800 30.53300
C  -6.98800 26.28300 32.05200
H  -6.42700 25.20500 32.96100
N  -7.36300 23.11400 25.16300
C  -7.90400 22.32800 26.06800
C  -8.78000 21.34500 25.50100
C  -8.67200 21.59000 24.09000
C  -7.65800 22.67900 23.94500
C  -9.77600 20.36300 26.26200
C  -9.30200 20.84300 22.96100
O  -9.08300 21.15700 21.75600
C  -10.21900 19.64300 23.15600
N  -5.49700 24.80300 23.39500
C  -6.14000 24.04500 22.45500
C  -5.43600 24.17600 21.08500
C  -4.77500 25.58500 21.22700
C  -4.67700 25.67300 22.78400
C  -4.46700 23.05100 20.69400
C  -5.63400 26.80900 20.80400
C  -5.29400 27.16000 19.29700
N  -4.69100 26.33700 25.66800
C  -3.77200 26.94500 24.80600
C  -2.85800 27.86300 25.53800
C  -3.18200 27.60200 26.92500
C  -4.22800 26.64000 26.88900
C  -1.81400 28.76800 24.96900
C  -2.77600 27.95000 28.32100
O  -1.85400 28.61900 28.83200
C  -3.76500 27.11000 29.16300
C  -2.98600 26.25000 30.07800
O  -2.32100 25.32700 29.68700
O  -2.97900 26.71900 31.34100
C  -2.24600 26.08700 32.41700
H  -8.12000 21.74900 28.08900
H  -7.42800 22.52200 21.83800
H  -3.28400 27.18300 22.75300
H  -5.15900 24.72300 30.57500
H  -7.82300 23.53500 30.06300
H  -5.80000 21.57000 29.42300
H  -6.85300 21.61300 30.84400
H  -5.16500 22.29900 30.83500
H  -7.93600 25.93100 30.20700
H  -6.55700 27.01200 30.15800
H  -8.05800 26.32000 32.25800
H  -6.63300 27.28500 32.29400
H  -9.41700 19.36100 26.02700
H  -10.80000 20.60200 25.97200
H  -9.62200 20.28800 27.33800
H  -11.13900 20.00600 23.61400
H  -9.67800 18.92100 23.76700
H  -10.49200 19.25500 22.17400
H  -6.25500 24.24100 20.37000
H  -3.77900 25.61300 20.78600
H  -3.45700 23.39800 20.91100
H  -4.57000 22.70300 19.66700
H  -4.66700 22.13600 21.25300
H  -5.37500 27.63600 21.46500
H  -6.71700 26.72200 20.89200
H  -5.02900 26.24500 18.76700
H  -4.41700 27.79700 19.40900
H  -6.15300 27.61700 18.80600
H  -1.28600 29.36300 25.71400
H  -2.26800 29.33800 24.15800
H  -1.15100 28.03100 24.51500
H  -4.40800 27.69900 29.81700
H  -1.40300 26.72200 32.69000
H  -1.85900 25.13300 32.06100
H  -2.90700 25.88100 33.25900

