158

Mg 49.65400 45.95200 42.73200
C  46.20500 46.68400 41.99100
C  49.24200 42.94700 41.31400
C  52.98900 45.56700 43.10300
C  49.77000 49.24000 44.04700
N  47.86400 44.99500 41.81400
C  46.65200 45.38200 41.54700
C  45.77600 44.34000 40.90200
C  46.70300 43.17200 40.61800
C  48.03800 43.75600 41.28200
C  46.37800 41.79900 41.20800
C  44.94100 44.77200 39.66100
C  43.81900 43.81100 39.10900
H  43.98000 43.03500 37.81000
N  50.94000 44.49500 42.18700
C  50.59500 43.22600 41.74000
C  51.76600 42.45100 41.78300
C  52.83700 43.16300 42.40000
C  52.28800 44.48900 42.54500
C  51.71600 40.93400 41.38200
C  54.23000 42.64800 42.73900
O  54.39400 41.47500 42.56600
C  55.42100 43.53800 43.08600
N  51.25600 47.25600 43.31200
C  52.56600 46.88900 43.39500
C  53.46900 48.10800 43.85400
C  52.39700 49.15300 44.33900
C  50.99900 48.52300 43.91000
C  54.61500 47.75500 44.86400
C  52.67900 50.65300 43.85700
C  52.72500 51.87000 44.85500
N  48.36400 47.63100 42.97800
C  48.55000 48.78700 43.64300
C  47.33700 49.51900 43.77000
C  46.35600 48.66300 43.16900
C  47.05800 47.54600 42.66900
C  47.01600 50.96700 44.25000
C  44.95900 48.59400 42.82400
O  44.03800 49.33800 42.92100
C  44.85700 47.27600 41.97900
C  43.76000 46.50400 42.64900
O  43.85300 45.87000 43.66600
O  42.63500 46.57900 41.81200
C  41.33600 46.21000 42.40600
H  49.10600 41.90700 41.00800
H  54.06000 45.54000 43.31400
H  49.71100 50.20700 44.55000
H  45.09800 43.99500 41.68300
H  47.01800 43.16000 39.57400
H  46.76700 41.67500 42.21800
H  46.97300 41.06400 40.66600
H  45.36500 41.40500 41.11700
H  45.61600 44.77500 38.80400
H  44.52000 45.76600 39.81400
H  42.96700 44.45100 38.87800
H  43.45000 43.13400 39.87900
H  52.60800 40.64800 40.82300
H  50.84600 40.97900 40.72700
H  51.51900 40.33000 42.26700
H  55.36700 43.91600 44.10700
H  55.60000 44.22100 42.25500
H  56.36300 42.99100 43.08600
H  53.84400 48.51100 42.91400
H  52.20900 49.15200 45.41300
H  55.48400 47.95900 44.23700
H  54.66400 46.73100 45.23300
H  54.70300 48.42400 45.72000
H  51.95600 50.86600 43.06900
H  53.67900 50.69500 43.42700
H  52.27100 52.75600 44.41000
H  53.75400 52.13100 45.10400
H  52.10500 51.57800 45.70200
H  47.68100 51.07400 45.10600
H  45.99600 51.26800 44.49000
H  47.41600 51.58500 43.44600
H  44.51100 47.67700 41.02600
H  41.25200 46.75100 43.34900
H  41.23900 45.14300 42.60600
H  40.53800 46.47700 41.71300
Mg 27.04200 51.64300 26.03200
C  24.70400 52.76100 28.68000
C  29.14900 50.65800 28.52800
C  29.03500 50.85300 23.67300
C  24.58600 53.00600 23.74500
N  26.91400 51.76700 28.39900
C  25.82500 52.02300 29.19000
C  26.14200 51.56300 30.59900
C  27.70000 51.30000 30.56000
C  27.94600 51.21600 29.05900
C  28.63300 52.32500 31.13200
C  25.23400 50.31600 31.11100
C  24.67400 50.48000 32.49300
H  25.24900 51.38200 33.59600
N  28.86000 50.84200 26.10500
C  29.59500 50.51900 27.21200
C  30.91500 49.90900 26.75700
C  30.87400 49.93300 25.30000
C  29.59400 50.57100 24.94700
C  31.94700 49.38100 27.74300
C  31.91700 49.55500 24.26800
O  31.69200 49.70900 23.06900
C  33.18400 48.92900 24.75800
N  26.79300 51.83100 24.01800
C  27.80300 51.34700 23.24300
C  27.46200 51.48000 21.79000
C  25.98300 52.09000 21.82600
C  25.78400 52.35000 23.29400
C  28.48200 52.44200 21.10200
C  24.81000 51.28200 21.22100
C  24.37400 50.07800 22.02500
N  25.11000 52.72800 26.09000
C  24.28600 53.13600 25.07900
C  23.07700 53.75600 25.69700
C  23.25300 53.67200 27.07600
C  24.46600 52.97600 27.27700
C  21.96000 54.39500 24.88200
C  22.73500 54.00700 28.38500
O  21.77400 54.69900 28.74500
C  23.56300 53.21900 29.48300
C  23.89500 54.23700 30.53200
O  24.82400 55.04400 30.60100
O  22.92500 54.27400 31.45500
C  23.24400 55.06500 32.65300
H  29.86700 50.23100 29.23200
H  29.59800 50.58500 22.77700
H  23.84800 53.38400 23.03400
H  25.97800 52.44800 31.21400
H  27.90300 50.32100 30.99500
H  29.06000 52.81400 30.25700
H  29.46700 51.94300 31.72200
H  28.10500 53.00800 31.79800
H  25.86100 49.44200 30.93200
H  24.42300 50.23300 30.38700
H  24.50600 49.51700 32.97400
H  23.73800 51.00500 32.29700
H  32.50000 50.24100 28.11900
H  32.60600 48.56900 27.43400
H  31.50400 48.91800 28.62500
H  33.68200 48.52400 23.87800
H  33.04000 48.12200 25.47600
H  33.84600 49.68000 25.18900
H  27.44500 50.47200 21.37500
H  26.08300 53.09000 21.40600
H  29.17100 52.80900 21.86300
H  27.98100 53.30800 20.66900
H  29.03400 51.86400 20.36100
H  25.11700 50.98400 20.21900
H  23.93600 51.92500 21.11500
H  25.02800 49.25400 21.74000
H  23.32400 49.95700 21.76000
H  24.40800 50.10400 23.11500
H  22.20700 54.64100 23.84900
H  21.62000 55.36600 25.24400
H  21.11200 53.72100 24.75700
H  22.97300 52.40500 29.90400
H  22.42400 54.96100 33.36300
H  23.34200 56.09800 32.31900
H  24.12500 54.70800 33.18600

