158

Mg 41.39500 41.92900 26.14300
C  40.73800 44.22900 28.63700
C  42.44800 39.65700 28.56100
C  42.63700 39.98500 23.69400
C  40.60200 44.46500 23.80200
N  41.41600 41.86300 28.32800
C  41.13900 42.97400 29.10600
C  41.28100 42.69100 30.61600
C  41.84700 41.21100 30.53500
C  41.88100 40.83800 29.07500
C  43.14400 40.93300 31.34800
C  39.97400 42.73800 31.53100
C  40.24400 43.27000 32.99300
H  40.20500 42.29800 34.10500
N  42.33100 40.00300 26.14800
C  42.70200 39.23400 27.25300
C  43.29100 38.02700 26.76500
C  43.39700 38.11400 25.33100
C  42.81200 39.41800 24.98000
C  43.88700 36.95800 27.63200
C  44.16800 37.17400 24.35000
O  44.36200 37.42900 23.15500
C  44.80300 35.87400 24.83600
N  41.67900 42.20600 24.09800
C  42.17200 41.24700 23.24400
C  42.01200 41.59100 21.76300
C  41.24100 42.99700 21.84000
C  41.12700 43.27200 23.34300
C  43.27100 41.58200 20.89000
C  39.82000 43.12100 21.23500
C  39.42900 44.41600 20.50400
N  40.71900 43.90700 26.14300
C  40.42800 44.76600 25.16700
C  40.09200 46.06700 25.72600
C  40.07200 45.89000 27.10100
C  40.53000 44.57800 27.32600
C  39.87000 47.39800 25.02500
C  39.89400 46.56100 28.44400
O  39.56700 47.69200 28.72300
C  40.29500 45.48100 29.50500
C  41.27300 45.99800 30.34200
O  42.43000 46.03100 30.07000
O  40.70000 46.25500 31.59200
C  41.64200 46.85000 32.54700
H  42.69100 38.95600 29.36200
H  42.94600 39.33700 22.87100
H  40.23000 45.20500 23.09100
H  42.05200 43.39500 30.92900
H  41.05900 40.50400 30.79600
H  43.32500 41.69900 32.10200
H  44.09700 40.84300 30.82600
H  43.14200 40.05800 31.99800
H  39.56500 41.73300 31.63800
H  39.12600 43.21100 31.03600
H  39.51300 44.06500 33.14100
H  41.20600 43.76200 32.84700
H  44.93900 37.21400 27.76000
H  43.78900 36.01700 27.09100
H  43.34600 36.99500 28.57800
H  45.45200 35.98800 25.70500
H  45.49200 35.49800 24.08000
H  44.07400 35.13600 25.17100
H  41.42100 40.80900 21.28500
H  41.86600 43.80700 21.46500
H  44.12600 41.39600 21.54100
H  43.40300 42.48700 20.29600
H  43.23100 40.70800 20.24000
H  39.08700 43.12600 22.04200
H  39.69600 42.37800 20.44700
H  38.44900 44.71100 20.87800
H  39.29900 44.25900 19.43300
H  40.19800 45.17800 20.62800
H  38.89200 47.35800 24.54500
H  40.71900 47.52200 24.35300
H  39.81500 48.21600 25.74300
H  39.44600 45.19100 30.12500
H  42.15700 46.03100 33.04900
H  41.08300 47.39400 33.30800
H  42.39000 47.58400 32.24500
Mg -5.03600 26.00200 26.83100
C  -3.43800 27.53500 29.60800
C  -6.53100 23.74900 29.16800
C  -5.91400 24.04100 24.36400
C  -2.92400 27.81000 24.74400
N  -4.95800 25.76000 29.07300
C  -4.35700 26.57200 29.98800
C  -4.75800 26.14900 31.46800
C  -5.39400 24.79200 31.28000
C  -5.68900 24.80700 29.72300
C  -4.54200 23.58900 31.77300
C  -5.74400 27.22300 31.97200
C  -5.76700 27.39100 33.44800
H  -5.41700 26.23800 34.45000
N  -6.23400 24.27800 26.76700
C  -6.85300 23.56000 27.80000
C  -7.74800 22.55500 27.24300
C  -7.59800 22.64500 25.78000
C  -6.56100 23.67900 25.59400
C  -8.62200 21.70800 28.12700
C  -8.38100 21.98800 24.72500
O  -8.24400 22.24300 23.50600
C  -9.44100 21.00100 25.14100
N  -4.39800 25.81700 24.90300
C  -4.97700 24.92300 24.03500
C  -4.41200 25.19700 22.59000
C  -3.54800 26.51600 22.69100
C  -3.60600 26.70700 24.19700
C  -3.69800 24.01100 22.04100
C  -4.08900 27.65800 21.88100
C  -3.03500 28.38700 20.89100
N  -3.61200 27.50700 27.06700
C  -2.87900 28.20100 26.10300
C  -1.92500 29.13900 26.70500
C  -2.23300 28.90000 28.08700
C  -3.22500 27.91400 28.32000
C  -0.89100 29.94900 26.05600
C  -1.76900 29.29800 29.39700
O  -1.02600 30.16100 29.71700
C  -2.69300 28.53300 30.40500
C  -1.73900 27.84600 31.37700
O  -0.78300 27.15200 31.04600
O  -2.29500 28.02900 32.67500
C  -1.65400 27.56300 33.90100
H  -7.25500 23.24300 29.81000
H  -6.32800 23.36900 23.60800
H  -2.24000 28.40000 24.13100
H  -3.87600 26.02500 32.09600
H  -6.35900 24.80200 31.78800
H  -4.79200 22.73200 31.14700
H  -4.70300 23.35100 32.82400
H  -3.45900 23.71400 31.77200
H  -6.72900 26.93300 31.60600
H  -5.51200 28.16300 31.47100
H  -6.77600 27.70500 33.71700
H  -5.05500 28.17100 33.71800
H  -8.22700 20.70500 28.29000
H  -9.67400 21.60100 27.86100
H  -8.68200 22.16300 29.11500
H  -8.95600 20.08400 25.47500
H  -10.02800 20.78800 24.24700
H  -10.17400 21.46000 25.80500
H  -5.29200 25.38600 21.97500
H  -2.49500 26.27700 22.54300
H  -2.63400 24.23400 22.11900
H  -3.89700 24.02500 20.97000
H  -3.97900 23.09700 22.56500
H  -4.48100 28.45700 22.50900
H  -4.90300 27.30800 21.24600
H  -3.36000 28.29300 19.85500
H  -2.00700 28.02300 20.89700
H  -2.97200 29.46200 21.06100
H  -0.53900 30.80100 26.63800
H  -1.25800 30.18400 25.05700
H  0.04300 29.39800 25.95100
H  -3.36600 29.24400 30.88500
H  -1.00300 26.72700 33.64800
H  -2.47500 27.15400 34.48900
H  -1.21100 28.44100 34.37100

