158

Mg 0.80100 7.48600 25.11100
C  1.24800 8.69200 28.38100
C  1.39500 4.25900 26.38900
C  0.67500 6.04800 21.94400
C  0.99800 10.60000 23.82300
N  1.26000 6.57500 27.10700
C  1.26500 7.28800 28.32200
C  1.52800 6.28200 29.47400
C  1.70200 4.94100 28.77400
C  1.54300 5.26000 27.33300
C  3.10400 4.26400 28.98400
C  0.46900 6.32900 30.58300
C  1.01300 6.32600 31.96400
H  2.07200 5.31500 32.37800
N  0.84900 5.49200 24.29200
C  1.04500 4.34700 24.99000
C  0.91400 3.20200 24.14400
C  0.66000 3.72300 22.86400
C  0.72500 5.17400 23.00600
C  0.84100 1.82700 24.61600
C  0.46000 2.88400 21.61500
O  0.29100 3.32300 20.46200
C  0.37300 1.31600 21.52900
N  0.93500 8.17500 23.15500
C  0.65800 7.47600 22.07200
C  0.31500 8.40700 20.86700
C  0.43400 9.78800 21.51600
C  0.80900 9.52100 22.90600
C  1.29700 8.17400 19.63300
C  -0.90600 10.62900 21.49300
C  -0.91300 11.96500 20.69800
N  1.16700 9.25800 25.88700
C  1.23700 10.51100 25.24000
C  1.43300 11.50600 26.21400
C  1.41400 10.87400 27.49400
C  1.23000 9.51800 27.22000
C  1.52000 13.02100 25.90700
C  1.41700 11.09000 28.91100
O  1.58500 12.09300 29.67700
C  1.34400 9.62900 29.48900
C  2.59600 9.47700 30.29000
O  3.61700 8.97300 29.93400
O  2.42300 9.99400 31.58700
C  3.56100 9.82200 32.52600
H  1.63300 3.23300 26.67500
H  0.58900 5.63000 20.93900
H  0.84800 11.58300 23.37000
H  2.47500 6.63100 29.88700
H  0.97800 4.21700 29.14800
H  3.57800 4.83900 29.77900
H  3.82200 4.38600 28.17300
H  3.07600 3.24000 29.35700
H  -0.18300 5.45700 30.53400
H  -0.11800 7.24500 30.51500
H  0.23100 6.24900 32.72000
H  1.35400 7.34600 32.13700
H  -0.09200 1.35800 24.30500
H  0.94100 1.61900 25.68100
H  1.70100 1.30300 24.19800
H  1.05500 0.77400 22.18400
H  0.47200 0.96600 20.50100
H  -0.65200 1.19400 21.87800
H  -0.67800 8.12200 20.52200
H  1.24900 10.32700 21.03100
H  2.09100 7.43600 19.74500
H  1.67600 9.14900 19.32500
H  0.73200 7.93100 18.73300
H  -1.11600 10.84500 22.54000
H  -1.70500 9.96500 21.16500
H  -1.38600 11.94600 19.71600
H  0.12800 12.25600 20.56100
H  -1.37900 12.73900 21.30700
H  1.25000 13.71000 26.70700
H  0.73000 13.17600 25.17200
H  2.48100 13.35700 25.51800
H  0.54200 9.58600 30.22600
H  3.50300 10.51700 33.36300
H  4.52100 9.94900 32.02500
H  3.54000 8.83600 32.99100
Mg 6.87800 54.38200 40.25500
C  7.02100 50.72400 39.70000
C  10.15000 54.42800 39.61700
C  6.60000 57.70000 40.43900
C  3.37100 53.92700 40.43000
N  8.46100 52.67700 39.43000
C  8.27000 51.34800 39.42700
C  9.60500 50.70000 39.11100
C  10.66500 51.84700 39.49600
C  9.72100 53.08500 39.44900
C  11.42800 51.68300 40.85200
C  9.78300 50.29200 37.65800
C  9.31800 51.18200 36.51000
H  7.83700 51.11300 36.09900
N  8.21500 55.85600 40.03100
C  9.53400 55.67400 39.71600
C  10.18500 57.00500 39.81100
C  9.18700 57.91900 40.12600
C  7.90300 57.20600 40.18900
C  11.60600 57.24000 39.64000
C  9.42900 59.42700 40.40100
O  10.55500 59.91700 40.40700
C  8.27200 60.30600 40.72800
N  5.21300 55.63400 40.18800
C  5.36100 56.92100 40.54800
C  4.02200 57.60200 40.93300
C  2.99000 56.48300 40.71100
C  3.91000 55.23700 40.46300
C  4.01100 58.42400 42.34100
C  2.10300 56.76400 39.55300
C  0.60500 56.44300 39.83200
N  5.41700 52.71200 40.12900
C  4.09300 52.73200 40.26500
C  3.61200 51.38200 40.37000
C  4.75500 50.55300 40.23900
C  5.83500 51.40200 39.99800
C  2.30400 50.92200 40.70000
C  5.24400 49.24600 40.30700
O  4.62400 48.26100 40.70000
C  6.67500 49.24200 39.72600
C  6.61100 48.60000 38.24400
O  5.66400 48.63900 37.48800
O  7.74800 47.75500 38.00600
C  7.76000 47.06500 36.68200
H  11.22300 54.43500 39.41400
H  6.40900 58.72200 40.77200
H  2.28600 53.80500 40.43800
H  9.63700 49.82300 39.75700
H  11.37200 52.11800 38.71300
H  11.59500 52.62000 41.38300
H  12.39000 51.36100 40.45400
H  11.00900 50.84800 41.41200
H  9.36300 49.31400 37.42200
H  10.86600 50.18300 37.58800
H  9.83000 50.82800 35.61500
H  9.60600 52.22400 36.64900
H  11.66600 58.14300 39.03300
H  12.06200 56.38800 39.13600
H  12.12400 57.33300 40.59500
H  8.59000 61.28000 41.09800
H  7.87200 59.92300 41.66700
H  7.55200 60.39600 39.91400
H  3.98100 58.43200 40.22600
H  2.47500 56.22100 41.63500
H  3.62600 59.44100 42.26100
H  5.04800 58.43700 42.67800
H  3.45700 57.95400 43.15300
H  2.40400 56.17500 38.68700
H  2.22400 57.78100 39.18100
H  0.51400 55.89600 40.77100
H  0.09700 55.95400 39.00200
H  0.10000 57.40200 39.94600
H  1.89800 50.73900 39.70600
H  1.78400 51.74300 41.19400
H  2.33000 50.01900 41.31100
H  7.36700 48.68700 40.35900
H  8.02600 46.02000 36.83800
H  8.57500 47.54200 36.13700
H  6.84300 47.25400 36.12300

