158

Mg 40.87600 8.93500 29.95700
C  42.85300 9.88600 32.64400
C  38.29300 8.27300 32.20400
C  39.22500 7.54300 27.59300
C  43.59200 9.59500 27.82700
N  40.66000 9.03000 32.22600
C  41.60300 9.56000 33.09800
C  40.87000 9.81000 34.49200
C  39.52300 9.06100 34.32600
C  39.44400 8.76700 32.81800
C  39.36400 7.70500 35.11900
C  40.85800 11.19200 35.07700
C  40.06500 11.42700 36.33400
H  40.99500 12.10300 37.40800
N  38.98200 8.14700 29.87000
C  38.05300 8.00700 30.90400
C  36.91500 7.27100 30.33200
C  37.19200 7.02000 28.93600
C  38.49800 7.55700 28.74500
C  35.62700 7.02300 31.13400
C  36.34100 6.47100 27.81500
O  36.67400 6.37500 26.64500
C  34.99100 6.02000 28.09500
N  41.37800 8.59200 27.97900
C  40.47600 8.05300 27.16100
C  40.97200 7.92200 25.71200
C  42.27600 8.77300 25.74400
C  42.47100 8.95700 27.29700
C  41.22400 6.44800 25.37300
C  42.14600 10.13600 25.03500
C  41.06500 11.16800 25.44800
N  42.77200 9.63600 30.15500
C  43.76200 9.90200 29.17200
C  44.96200 10.41700 29.78500
C  44.67000 10.35700 31.16800
C  43.30300 9.84800 31.32300
C  46.14100 10.84900 29.00800
C  45.18000 10.67600 32.54100
O  46.27200 11.07200 32.79200
C  44.02900 10.42400 33.50100
C  44.37800 9.48800 34.65000
O  44.44100 8.27800 34.62800
O  44.63300 10.27800 35.70700
C  45.15000 9.58700 36.88700
H  37.49600 8.17700 32.94300
H  38.82300 6.89500 26.81100
H  44.41800 10.01300 27.24700
H  41.53700 9.29200 35.18200
H  38.66300 9.68900 34.55900
H  40.17600 7.57000 35.83300
H  39.22500 6.84300 34.46600
H  38.59400 7.75700 35.88900
H  40.55100 11.95000 34.35600
H  41.91100 11.42800 35.23300
H  39.91000 10.40700 36.68400
H  39.15800 12.01900 36.21100
H  34.71400 7.46000 30.72900
H  35.80300 7.31600 32.16900
H  35.39600 5.95700 31.14200
H  34.42700 6.90000 28.40600
H  34.87000 5.22400 28.82900
H  34.48600 5.68100 27.19000
H  40.25400 8.39800 25.04400
H  43.15700 8.26700 25.35100
H  41.14000 5.91100 26.31700
H  42.22300 6.29300 24.96500
H  40.40200 6.00400 24.81300
H  42.11800 9.79400 24.00000
H  43.13600 10.58700 25.09900
H  40.65500 10.81700 26.39500
H  40.22600 11.32700 24.77100
H  41.54500 12.10300 25.73700
H  46.77500 11.45100 29.66000
H  45.68700 11.39800 28.18300
H  46.73100 10.00700 28.64700
H  43.87700 11.44000 33.86400
H  46.14400 9.39400 36.48600
H  44.76500 8.59800 37.13700
H  45.18500 10.23700 37.76100
Mg 26.71200 50.02800 26.27000
C  24.90000 51.36300 28.77400
C  28.92600 48.87200 28.82600
C  28.70200 48.83800 23.93200
C  24.83300 51.59500 23.85500
N  26.96100 50.31900 28.52400
C  25.95600 50.71700 29.32000
C  26.15900 50.40900 30.82100
C  27.58000 49.80000 30.73400
C  27.87500 49.68300 29.26600
C  28.75900 50.39600 31.54400
C  25.12500 49.43800 31.49700
C  24.40900 49.88900 32.83200
H  24.65500 49.23500 34.19500
N  28.51400 48.90500 26.38900
C  29.24000 48.44700 27.50000
C  30.41200 47.76000 26.99400
C  30.37300 47.79000 25.57200
C  29.10400 48.50400 25.21000
C  31.37200 47.13600 28.01600
C  31.38300 47.14000 24.56500
O  31.43100 47.32200 23.37000
C  32.43200 46.27900 25.19000
N  26.80300 50.22900 24.16200
C  27.65800 49.58300 23.44000
C  27.24000 49.64000 21.85000
C  25.97700 50.46400 21.91600
C  25.81700 50.77600 23.39800
C  28.23900 50.37500 20.94500
C  24.62900 49.75400 21.36700
C  24.85100 48.94100 20.06600
N  25.21600 51.32900 26.26400
C  24.47400 51.88100 25.22300
C  23.33900 52.59300 25.82600
C  23.36600 52.28300 27.17900
C  24.55500 51.57000 27.39700
C  22.19100 53.37000 25.07900
C  22.81100 52.51200 28.41100
O  21.82600 53.18700 28.64900
C  23.70500 51.94000 29.53500
C  24.09700 52.92200 30.52900
O  24.81300 53.87200 30.41300
O  23.31800 52.69700 31.63800
C  23.28800 53.72000 32.69000
H  29.47900 48.41400 29.64900
H  29.32000 48.37200 23.16200
H  24.17800 52.17200 23.19900
H  26.21500 51.33500 31.39400
H  27.51400 48.74000 30.98000
H  29.53500 50.73300 30.85600
H  29.34400 49.62400 32.04300
H  28.44900 51.21500 32.19400
H  25.52800 48.45100 31.72600
H  24.36400 49.31500 30.72700
H  23.32100 49.88600 32.76500
H  24.58900 50.93500 33.07700
H  32.39800 47.40600 27.76600
H  31.28500 46.05800 28.14900
H  31.32000 47.62900 28.98700
H  31.92600 45.54100 25.81200
H  33.07800 46.93000 25.78000
H  32.97400 45.66500 24.47100
H  27.08300 48.61400 21.51700
H  26.04500 51.45500 21.46700
H  27.91000 51.26700 20.41300
H  28.66900 49.66200 20.24100
H  29.08700 50.58000 21.59800
H  23.97200 50.62400 21.34800
H  24.24500 49.09600 22.14700
H  24.10400 49.28200 19.35000
H  24.61300 47.88500 20.20000
H  25.85400 49.15000 19.69700
H  21.56000 53.93000 25.77000
H  21.75800 52.74400 24.29900
H  22.60500 54.08000 24.36200
H  22.98500 51.29300 30.03600
H  23.67700 54.68800 32.37200
H  23.75000 53.36200 33.61000
H  22.25100 53.80100 33.01800

