158

Mg 49.51800 35.56600 27.50300
C  47.58800 34.46200 30.17300
C  50.30300 38.35200 29.22900
C  51.21100 36.45000 24.86100
C  48.43600 32.77600 25.64800
N  48.78000 36.44700 29.38000
C  48.10600 35.73600 30.36500
C  48.29800 36.43100 31.74100
C  48.89000 37.85500 31.33500
C  49.35500 37.55700 29.87800
C  47.83100 39.01200 31.27300
C  49.15500 35.74500 32.78600
C  48.83700 35.81000 34.22900
H  48.47000 37.25300 34.56800
N  50.55300 37.17700 27.10100
C  50.84500 38.20800 27.95900
C  51.85800 39.08600 27.34100
C  52.14600 38.52700 26.03600
C  51.25100 37.37900 25.90100
C  52.42400 40.36000 27.99100
C  53.30600 38.96600 25.05400
O  53.46900 38.42800 23.94100
C  54.10700 40.19500 25.37300
N  49.82100 34.64200 25.51100
C  50.53000 35.29700 24.64500
C  50.56200 34.65200 23.30600
C  49.89400 33.28800 23.52700
C  49.33100 33.55300 24.95400
C  49.90800 35.46100 22.09100
C  50.73800 32.03700 23.46100
C  50.04200 30.88900 22.76000
N  48.32300 33.93500 27.78500
C  47.96100 32.86100 27.02200
C  47.05200 31.95700 27.68700
C  46.85000 32.60100 28.92300
C  47.65800 33.77700 28.97000
C  46.49600 30.73200 27.09300
C  46.04400 32.53000 30.12500
O  45.13900 31.81500 30.53100
C  46.47000 33.77800 30.99600
C  46.79200 33.35400 32.38000
O  47.77000 32.65400 32.68100
O  45.73300 33.62300 33.17200
C  45.49200 32.94100 34.50100
H  50.63800 39.20800 29.81900
H  51.73000 36.93500 24.03200
H  48.03900 31.91500 25.10700
H  47.29700 36.61100 32.13300
H  49.81200 38.18400 31.81500
H  48.07700 39.48100 30.32100
H  48.04100 39.70700 32.08600
H  46.87000 38.49700 31.25800
H  50.16600 36.12000 32.62300
H  49.30100 34.71600 32.45800
H  49.56800 35.33900 34.88600
H  47.89600 35.26100 34.27800
H  53.49800 40.22800 28.12500
H  51.95200 40.64800 28.93000
H  52.30000 41.26000 27.38900
H  54.99200 40.23600 24.73800
H  54.49000 39.97700 26.37000
H  53.56000 41.13100 25.26200
H  51.62000 34.44700 23.14600
H  49.10200 33.17600 22.78700
H  49.34900 34.81200 21.41800
H  50.64400 35.91200 21.42600
H  49.31800 36.31000 22.43700
H  51.01000 31.56000 24.40300
H  51.62300 32.26400 22.86600
H  50.07600 30.00300 23.39300
H  50.51200 30.67000 21.80100
H  48.98400 30.97800 22.51300
H  47.18600 30.19500 26.44300
H  45.68600 31.07200 26.44800
H  46.02800 30.04400 27.79800
H  45.68900 34.49100 31.25800
H  46.33700 32.30200 34.76000
H  44.72800 32.16300 34.53700
H  45.15400 33.57500 35.32100
Mg 10.45100 46.87200 25.29500
C  8.24500 47.07600 27.95700
C  12.75900 48.54900 27.19000
C  12.56600 46.57900 22.73200
C  7.70100 46.19500 23.08700
N  10.49000 47.63800 27.33000
C  9.53300 47.56600 28.28300
C  10.10300 48.18200 29.61500
C  11.30100 49.12500 29.15700
C  11.48000 48.42700 27.80800
C  10.92600 50.64000 29.15400
C  10.47400 47.06700 30.67100
C  9.74400 47.18100 32.03900
H  9.74300 45.99700 32.94800
N  12.50500 47.40300 25.00700
C  13.26100 48.05400 25.98800
C  14.59500 47.96400 25.50000
C  14.60900 47.33600 24.19900
C  13.17500 46.97800 23.98800
C  15.76200 48.49700 26.26600
C  15.66500 47.10700 23.30100
O  15.46700 46.60300 22.22300
C  17.07900 47.43300 23.65400
N  10.09000 46.61700 23.10900
C  11.19800 46.47900 22.31400
C  10.79600 46.04000 20.93900
C  9.25600 45.72100 21.02700
C  8.97600 46.18200 22.48800
C  11.21000 46.97500 19.79800
C  8.90000 44.26100 20.62300
C  8.81800 43.31100 21.84100
N  8.38800 46.65700 25.42700
C  7.40900 46.44200 24.45000
C  6.10900 46.55900 25.06800
C  6.39800 46.68600 26.44800
C  7.76900 46.79000 26.65000
C  4.72600 46.46500 24.36600
C  5.80200 46.77100 27.83200
O  4.58900 46.71100 28.08800
C  6.96600 47.03500 28.84500
C  7.06300 45.89100 29.76000
O  7.78600 44.95700 29.67000
O  6.22800 46.12900 30.82900
C  6.22300 45.13400 31.94400
H  13.42200 49.10600 27.85500
H  13.18500 46.39900 21.85000
H  6.87900 45.92800 22.41900
H  9.31700 48.85300 29.96100
H  12.20700 48.97600 29.74500
H  9.89400 50.81000 29.46200
H  11.05200 51.08700 28.16800
H  11.67400 51.04000 29.83700
H  11.53200 47.13500 30.92400
H  10.27000 46.07400 30.27100
H  8.71400 47.53800 32.02600
H  10.27000 47.96700 32.58200
H  16.43200 47.65500 26.43900
H  15.42600 48.77500 27.26400
H  16.13300 49.38500 25.75400
H  17.73200 47.19300 22.81500
H  17.29700 46.71400 24.44400
H  17.19000 48.44700 24.03600
H  11.42700 45.17700 20.72400
H  8.62600 46.36600 20.41600
H  11.77400 47.78800 20.25500
H  10.25900 47.17800 19.30400
H  11.96100 46.41000 19.24600
H  9.57300 43.93200 19.83200
H  7.95200 44.37600 20.09600
H  9.22500 42.36500 21.48600
H  7.79800 43.17900 22.20200
H  9.38100 43.71100 22.68500
H  4.58000 46.99600 23.42600
H  3.96100 46.56500 25.13600
H  4.67100 45.39200 24.18200
H  6.80200 47.91100 29.47300
H  6.17000 45.61200 32.92300
H  6.97400 44.34700 32.00300
H  5.28700 44.61300 31.74200

