158

Mg 16.75400 -3.27900 28.47800
C  15.42100 -1.26500 31.06000
C  18.73100 -4.74900 30.76900
C  18.41200 -4.79700 25.99100
C  15.04600 -1.27400 26.13100
N  17.08800 -2.89200 30.72500
C  16.34400 -2.19800 31.58000
C  16.75000 -2.51200 33.00000
C  17.95200 -3.44700 32.80700
C  17.92600 -3.73900 31.28600
C  19.35500 -2.97300 33.32200
C  15.55700 -3.07200 33.71700
C  15.15100 -2.44300 35.09200
H  16.13100 -1.39100 35.57100
N  18.22900 -4.66900 28.39100
C  18.96100 -5.11700 29.44700
C  19.83500 -6.19100 29.00300
C  19.67700 -6.30000 27.62300
C  18.70800 -5.22000 27.26100
C  20.77100 -6.94000 29.98500
C  20.38900 -7.21000 26.70000
O  20.30900 -7.07200 25.47400
C  21.15900 -8.31100 27.20100
N  16.86100 -2.89000 26.34700
C  17.64100 -3.68800 25.58500
C  17.56200 -3.22900 24.09700
C  16.37500 -2.26300 24.11700
C  16.04800 -2.15500 25.60000
C  18.83500 -2.69800 23.38000
C  15.10100 -2.58700 23.28200
C  14.72700 -1.73100 22.05500
N  15.48200 -1.68400 28.58100
C  14.80400 -1.02600 27.51600
C  13.89500 -0.05500 28.06700
C  14.13800 -0.06700 29.44900
C  15.06100 -1.11600 29.73500
C  12.96000 0.88200 27.30600
C  13.74200 0.49300 30.69900
O  12.95700 1.39000 30.93900
C  14.60700 -0.17800 31.78700
C  15.39200 0.85200 32.54400
O  16.59200 1.02900 32.54200
O  14.55700 1.48400 33.34100
C  15.13100 2.52100 34.18400
H  19.33600 -5.32000 31.47600
H  18.91600 -5.32700 25.18000
H  14.26000 -0.79100 25.54700
H  17.20700 -1.63400 33.45700
H  17.73700 -4.45900 33.15100
H  20.07000 -3.03700 32.50200
H  19.74000 -3.61200 34.11700
H  19.39600 -1.99200 33.79500
H  15.72400 -4.14400 33.82900
H  14.70300 -2.85500 33.07500
H  15.05500 -3.23200 35.83800
H  14.19300 -1.96200 34.89300
H  20.97400 -7.95400 29.64100
H  20.42400 -7.04300 31.01300
H  21.71900 -6.40100 30.01600
H  20.37200 -8.84100 27.73800
H  21.96500 -7.85100 27.77200
H  21.58900 -8.97900 26.45300
H  17.23500 -4.08100 23.50100
H  16.75700 -1.27700 23.85300
H  19.69600 -2.81200 24.03800
H  18.78400 -1.63000 23.16900
H  19.07600 -3.21900 22.45300
H  14.22300 -2.58500 23.92800
H  15.23100 -3.60200 22.90800
H  13.72600 -1.31100 22.15700
H  14.64300 -2.36900 21.17500
H  15.37000 -0.87400 21.85600
H  12.34300 0.20600 26.71500
H  13.46200 1.47200 26.53900
H  12.35700 1.46100 28.00500
H  13.92800 -0.59800 32.53000
H  15.32100 3.27600 33.42100
H  16.07900 2.28400 34.66600
H  14.43200 2.74800 34.98900
Mg 39.42100 9.38500 29.51700
C  41.58200 10.93200 32.03500
C  37.58000 8.13400 31.93700
C  37.81100 7.67700 27.12800
C  42.05000 10.05300 27.26100
N  39.59100 9.67100 31.65300
C  40.40600 10.38300 32.53100
C  39.91200 10.29000 33.97200
C  38.84900 9.18300 33.89700
C  38.62500 8.98300 32.40400
C  39.16600 7.90700 34.69800
C  39.38500 11.62700 34.49000
C  39.12700 11.56400 36.00700
H  40.08100 12.29000 37.03600
N  37.82200 8.19800 29.49600
C  37.14000 7.82300 30.61600
C  35.93900 7.10800 30.23500
C  35.96200 7.06700 28.82800
C  37.25500 7.61900 28.43700
C  34.94400 6.50900 31.17900
C  34.92200 6.52400 27.85400
O  34.89500 6.78700 26.68800
C  33.80400 5.69000 28.38800
N  39.85600 8.93400 27.47300
C  39.04900 8.17800 26.66600
C  39.51400 8.13300 25.18000
C  40.91500 8.94800 25.31100
C  40.93800 9.35800 26.79800
C  39.56800 6.77600 24.54300
C  40.95100 10.15900 24.30600
C  40.34700 11.57200 24.75800
N  41.47300 10.30000 29.58000
C  42.37000 10.50400 28.58300
C  43.46600 11.27400 29.03000
C  43.23300 11.50200 30.43300
C  41.99500 10.86700 30.68200
C  44.60600 11.81100 28.22100
C  43.71400 12.08100 31.71800
O  44.73100 12.73000 31.93100
C  42.62000 11.74300 32.77600
C  43.35800 11.05500 33.92000
O  43.70400 9.89100 34.01000
O  43.59200 11.96100 34.91200
C  44.00900 11.50700 36.22500
H  36.91100 7.82500 32.74200
H  37.50800 6.98300 26.34100
H  42.80700 10.23500 26.49600
H  40.68900 9.96200 34.66200
H  37.89500 9.47800 34.33300
H  39.30100 7.03800 34.05400
H  38.32600 7.70400 35.36200
H  40.08000 8.05100 35.27400
H  38.45600 11.89700 33.98800
H  40.11700 12.39000 34.22700
H  39.07900 10.52700 36.33700
H  38.16700 12.05800 36.15400
H  33.97100 7.00000 31.15200
H  35.29700 6.67400 32.19600
H  34.84600 5.42600 31.10500
H  34.22100 4.98900 29.11200
H  33.43300 5.12400 27.53400
H  33.03000 6.33000 28.81100
H  38.77400 8.73000 24.64700
H  41.77600 8.30000 25.14800
H  39.62500 6.03900 25.34400
H  40.49800 6.68300 23.98000
H  38.66100 6.72200 23.94100
H  40.38600 9.80200 23.44500
H  41.94100 10.06400 23.86100
H  39.61200 11.24000 25.49100
H  39.91100 12.02800 23.86900
H  40.98400 12.33100 25.21400
H  44.31200 12.04400 27.19800
H  45.36000 11.06100 27.98000
H  44.91700 12.74000 28.69800
H  42.26900 12.71200 33.13000
H  43.57200 10.55200 36.51500
H  43.82500 12.23100 37.01900
H  45.09200 11.39800 36.28800

