158

Mg 42.23300 40.79700 26.80900
C  41.30500 43.11400 29.34000
C  42.96500 38.60900 29.38800
C  43.54600 38.80600 24.50900
C  41.69600 43.28600 24.38200
N  42.09000 40.84300 29.17400
C  41.67900 41.89100 29.96000
C  41.77200 41.53900 31.40700
C  42.35200 40.07800 31.42100
C  42.41900 39.81700 29.89400
C  43.63100 39.81300 32.14100
C  40.50600 41.79600 32.34300
C  40.52700 41.05900 33.73400
H  40.46100 41.95200 35.04800
N  43.09900 38.95300 26.93800
C  43.27300 38.14500 28.05900
C  43.70300 36.82500 27.61000
C  43.92200 36.87800 26.22700
C  43.52700 38.23500 25.85200
C  43.88500 35.69800 28.69600
C  44.31300 35.82800 25.23900
O  44.50100 35.94800 24.01100
C  44.32200 34.44200 25.71300
N  42.52700 40.96400 24.76800
C  43.20200 40.07200 24.01400
C  43.22600 40.51300 22.53600
C  42.69100 41.95300 22.57400
C  42.17900 42.06400 23.98400
C  44.66000 40.39400 21.88500
C  41.63900 42.31500 21.55300
C  40.15800 42.00500 21.84800
N  41.52200 42.78000 26.80700
C  41.32200 43.66200 25.72000
C  40.85500 44.93500 26.17400
C  40.82200 44.77100 27.56500
C  41.26200 43.45500 27.92000
C  40.44700 46.07900 25.33900
C  40.41800 45.44500 28.83400
O  39.96200 46.57100 28.99800
C  40.81300 44.41200 30.02700
C  42.07100 44.96300 30.68700
O  43.11000 45.20000 30.12700
O  41.80000 45.39400 31.95600
C  42.80900 46.18800 32.64600
H  43.15300 37.90400 30.20000
H  44.06800 38.18400 23.77800
H  41.42300 44.03400 23.63400
H  42.53500 42.21100 31.79900
H  41.57600 39.38600 31.74900
H  43.74600 40.60300 32.88300
H  44.42600 39.81000 31.39500
H  43.41000 38.86500 32.63000
H  39.61400 41.55900 31.76400
H  40.50300 42.87500 32.50000
H  41.46600 40.51300 33.82400
H  39.72800 40.31700 33.72100
H  43.81400 34.64400 28.43000
H  43.23000 35.77600 29.56400
H  44.89500 35.95300 29.01500
H  45.21400 34.35400 26.33200
H  44.27600 33.67300 24.94100
H  43.37500 34.30500 26.23500
H  42.50500 39.85700 22.04900
H  43.46200 42.72300 22.57000
H  45.36900 39.98000 22.60100
H  45.02000 41.37500 21.57500
H  44.73600 39.66600 21.07800
H  41.95500 41.81200 20.63900
H  41.78800 43.34700 21.23700
H  40.19400 41.50700 22.81700
H  39.74900 41.27200 21.15400
H  39.53100 42.89700 21.87300
H  41.39400 46.54500 25.06600
H  39.83800 46.71200 25.98400
H  39.93900 45.66000 24.47100
H  40.02000 44.34300 30.77100
H  42.56100 46.19600 33.70800
H  42.62500 47.18300 32.24200
H  43.83500 45.84100 32.52300
Mg 35.96000 48.61400 25.72600
C  36.35000 46.89200 28.75600
C  34.51600 51.09500 27.55900
C  35.46200 50.24500 22.91600
C  36.81400 45.80100 23.99700
N  35.50000 48.99100 28.00200
C  35.88100 48.21800 29.01300
C  35.49800 48.78000 30.40200
C  34.69600 50.09000 29.96200
C  34.88500 50.10500 28.45600
C  33.17700 50.18300 30.35600
C  36.75400 49.05400 31.29900
C  36.65500 48.81000 32.79000
H  35.31000 49.02700 33.39400
N  35.15200 50.42200 25.31700
C  34.68600 51.33600 26.22500
C  34.45500 52.57200 25.55600
C  34.68900 52.34100 24.13900
C  35.13500 50.97500 24.08600
C  34.04400 53.87400 26.24400
C  34.43300 53.33200 22.97000
O  34.53900 52.93100 21.86400
C  33.99600 54.73700 23.18100
N  35.97600 48.03800 23.69000
C  35.83300 48.92200 22.67600
C  36.23600 48.29700 21.32600
C  36.87300 46.90900 21.77700
C  36.51900 46.93500 23.25000
C  35.08900 48.11700 20.28400
C  38.33700 46.75900 21.39800
C  39.40400 47.69400 21.92900
N  36.48100 46.73900 26.23600
C  36.82000 45.69300 25.38600
C  37.27600 44.59700 26.21400
C  37.00700 44.95200 27.52900
C  36.59400 46.30800 27.46200
C  37.92700 43.25100 25.83200
C  37.09300 44.55800 28.85900
O  37.43400 43.54800 29.37700
C  36.62100 45.82800 29.73600
C  35.37900 45.52500 30.47600
O  34.31400 45.19900 29.94200
O  35.61200 45.53400 31.87200
C  34.41000 45.11900 32.68200
H  34.18000 51.93600 28.16800
H  35.46200 50.73700 21.94100
H  37.13400 44.94000 23.40500
H  34.80700 48.17400 30.98800
H  35.20000 50.89000 30.50400
H  32.51900 49.74700 29.60500
H  33.01500 51.25600 30.46400
H  33.03800 49.70600 31.32600
H  37.15500 50.05700 31.15000
H  37.45800 48.31700 30.91400
H  37.45400 49.32100 33.32700
H  36.92000 47.75600 32.86800
H  34.93800 54.49700 26.23900
H  33.75500 53.75600 27.28800
H  33.22100 54.40500 25.76400
H  32.92000 54.71300 23.35700
H  34.21300 55.14600 22.19400
H  34.48700 55.34800 23.93800
H  36.99900 48.98700 20.96400
H  36.35300 46.06100 21.33300
H  34.16000 48.26100 20.83400
H  34.96400 47.11000 19.88700
H  35.03200 48.81200 19.44600
H  38.47000 47.01600 20.34700
H  38.69600 45.74000 21.54300
H  39.98000 47.13200 22.66500
H  38.98500 48.63800 22.27500
H  40.02900 48.01400 21.09500
H  38.40900 42.87800 26.73500
H  38.67200 43.58800 25.11100
H  37.23600 42.53000 25.39400
H  37.29800 46.04200 30.56300
H  34.42800 45.51300 33.69800
H  34.35500 44.03900 32.82100
H  33.44900 45.40200 32.25200

