158

Mg 8.56400 2.84900 26.62300
C  9.90600 1.36200 29.53500
C  6.71200 4.98800 28.70100
C  7.22800 4.07700 23.97300
C  10.12600 0.21200 24.70700
N  8.27100 3.09600 28.85600
C  9.04100 2.47700 29.86700
C  8.69900 3.08900 31.24000
C  7.55000 4.06700 30.95400
C  7.51400 4.12900 29.37400
C  6.26000 3.74800 31.67000
C  9.96200 3.61100 31.96000
C  9.81800 4.64000 33.11500
H  10.69000 4.19900 34.31900
N  7.24200 4.35800 26.37900
C  6.52800 5.10200 27.31800
C  5.68700 6.05900 26.63300
C  5.85200 5.84900 25.20000
C  6.82800 4.75200 25.15300
C  4.82400 7.09200 27.35900
C  5.17800 6.63000 24.03400
O  5.44700 6.40900 22.89600
C  4.27500 7.75800 24.30900
N  8.72500 2.23300 24.74000
C  8.01100 2.97000 23.77400
C  8.07200 2.32600 22.45300
C  9.06600 1.23600 22.69000
C  9.29100 1.15100 24.11300
C  6.63600 1.81600 22.06000
C  10.45300 1.30600 21.93000
C  10.87000 0.01600 21.15800
N  9.79400 1.14400 26.99000
C  10.39000 0.22800 26.10700
C  11.21900 -0.68100 26.88500
C  11.03000 -0.31900 28.25200
C  10.17000 0.77000 28.25700
C  12.09600 -1.85400 26.36200
C  11.36500 -0.61900 29.65800
O  12.01400 -1.50600 30.16300
C  10.63500 0.40100 30.49500
C  9.70400 -0.34500 31.34500
O  8.64400 -0.86100 30.97300
O  10.16300 -0.28100 32.68300
C  9.33300 -1.00200 33.65200
H  6.20200 5.74400 29.30100
H  6.75200 4.42200 23.05200
H  10.45900 -0.59300 24.04900
H  8.38800 2.21000 31.80500
H  7.83500 5.06100 31.29800
H  6.19200 2.67300 31.83500
H  5.40200 4.00300 31.04800
H  6.00100 4.34000 32.54800
H  10.62500 4.08400 31.23600
H  10.49400 2.72500 32.30700
H  8.76900 4.64500 33.41400
H  10.13800 5.62500 32.77700
H  4.95000 7.27300 28.42700
H  3.74900 6.97600 27.22200
H  4.98200 8.09500 26.96400
H  3.87800 8.04500 23.33600
H  4.73900 8.58400 24.84800
H  3.50500 7.39800 24.99100
H  8.40400 2.97800 21.64500
H  8.58500 0.27700 22.49800
H  6.53200 0.74500 21.88200
H  6.42800 2.37200 21.14600
H  5.85800 1.99500 22.80100
H  11.23900 1.58200 22.63300
H  10.30100 2.04600 21.14500
H  11.18900 0.23700 20.14000
H  10.01200 -0.62000 20.93800
H  11.66700 -0.48400 21.70900
H  11.55800 -2.44400 25.62000
H  12.52300 -2.47500 27.15000
H  13.04700 -1.52300 25.94300
H  11.32700 1.00300 31.08400
H  9.61800 -2.04900 33.55000
H  8.24900 -0.89200 33.65500
H  9.63800 -0.67800 34.64700
Mg -12.00300 16.24500 41.33700
C  -9.07000 14.50700 40.59100
C  -10.64100 18.98900 39.84100
C  -15.12300 17.50300 41.07900
C  -13.46100 13.15200 42.38800
N  -10.07100 16.57000 40.16100
C  -8.95800 15.81500 40.16300
C  -7.79400 16.62100 39.63600
C  -8.33400 18.06200 39.46100
C  -9.77800 17.88600 39.82100
C  -7.61300 19.21000 40.23700
C  -7.31900 16.02200 38.26000
C  -5.75700 15.94200 38.16500
H  -5.16400 16.78900 36.99500
N  -12.76300 18.00200 40.59700
C  -12.03100 19.00500 40.00400
C  -12.91200 20.09700 39.66000
C  -14.22400 19.70300 40.05700
C  -14.10100 18.36600 40.58500
C  -12.41900 21.36500 38.88800
C  -15.42700 20.55700 39.93300
O  -15.28700 21.59200 39.36300
C  -16.77800 20.27300 40.49200
N  -14.08900 15.31200 41.53000
C  -15.17900 16.15000 41.45100
C  -16.43800 15.42900 41.92900
C  -15.90700 14.07300 42.62300
C  -14.41000 14.16100 42.16500
C  -17.52000 16.15700 42.77900
C  -16.61400 12.77800 42.25500
C  -16.63100 11.66600 43.33800
N  -11.42000 14.31500 41.60400
C  -12.09600 13.17500 42.04200
C  -11.20300 12.02600 42.10500
C  -10.04200 12.56200 41.58800
C  -10.20400 13.92000 41.23700
C  -11.47000 10.63700 42.53900
C  -8.73300 12.13200 41.17600
O  -8.14900 11.02600 41.22700
C  -8.05100 13.44400 40.52400
C  -6.88200 13.71400 41.35700
O  -6.89400 14.27500 42.46700
O  -5.70100 13.42300 40.68000
C  -4.57900 14.05500 41.28600
H  -10.13700 19.92500 39.58900
H  -16.11800 17.94400 40.99400
H  -13.90700 12.24100 42.79300
H  -6.96900 16.49100 40.33600
H  -8.32600 18.50300 38.46500
H  -8.02500 20.17500 39.94200
H  -6.53100 19.14600 40.11900
H  -7.82500 19.07100 41.29600
H  -7.67200 16.54700 37.37200
H  -7.73500 15.02500 38.11400
H  -5.50200 14.89900 37.97500
H  -5.26800 16.21400 39.10100
H  -13.06300 22.20900 39.13700
H  -12.34700 21.20200 37.81300
H  -11.38300 21.53300 39.18300
H  -17.48400 20.99100 40.07500
H  -16.72200 20.10100 41.56700
H  -17.06600 19.39000 39.92100
H  -16.78500 15.18900 40.92300
H  -16.01000 14.15300 43.70500
H  -17.32800 17.22700 42.86300
H  -17.60800 15.76200 43.79100
H  -18.47300 16.02200 42.26800
H  -16.26600 12.21600 41.38800
H  -17.63900 13.02900 41.98500
H  -16.45300 12.13800 44.30400
H  -15.94100 10.85900 43.09200
H  -17.62500 11.22200 43.27200
H  -11.73200 9.95500 41.73000
H  -12.26400 10.51800 43.27800
H  -10.53200 10.36700 43.02400
H  -7.71500 13.26400 39.50300
H  -4.69500 15.13800 41.30900
H  -3.75100 13.88900 40.59700
H  -4.28300 13.74100 42.28700

