158

Mg 30.39200 57.31700 39.05700
C  27.66300 55.38700 38.17700
C  32.57100 54.81100 38.36200
C  32.94100 59.58500 39.24600
C  28.12700 60.06700 39.44700
N  30.12300 55.34600 38.44800
C  28.97100 54.79400 38.06100
C  29.23700 53.42400 37.51500
C  30.73900 53.12000 37.73000
C  31.25400 54.50200 38.20000
C  31.13100 51.98100 38.68700
C  28.76300 52.99700 36.11200
C  29.17000 53.81800 34.85400
H  28.08500 54.50700 34.03000
N  32.45700 57.26900 38.73300
C  33.17900 56.11900 38.54400
C  34.51300 56.39400 38.54200
C  34.67800 57.78000 38.91100
C  33.31300 58.26800 38.99900
C  35.65700 55.43100 38.34100
C  36.06600 58.53900 39.11000
O  37.11600 57.94300 38.88100
C  36.18700 59.98800 39.40700
N  30.53000 59.49400 39.07600
C  31.69800 60.17500 39.37200
C  31.50700 61.64600 39.79700
C  29.95900 61.62600 40.06200
C  29.48500 60.31300 39.44900
C  32.37000 62.23800 41.07100
C  29.29700 62.88100 39.50600
C  28.10600 63.52900 40.25400
N  28.27600 57.68300 38.92400
C  27.51400 58.83300 39.13200
C  26.07600 58.51400 39.00200
C  26.09900 57.18000 38.63500
C  27.41500 56.74200 38.54900
C  24.78800 59.45000 39.06400
C  25.25300 56.05000 38.35200
O  24.01500 55.99900 38.36700
C  26.29100 54.84100 37.92200
C  26.05200 53.73700 38.82000
O  26.65400 53.47900 39.87900
O  25.05000 52.91500 38.28600
C  24.70700 51.65900 39.11300
H  33.26100 53.96600 38.32400
H  33.66400 60.37700 39.45400
H  27.47100 60.83300 39.86500
H  28.67500 52.74600 38.15800
H  31.32400 52.93900 36.82800
H  30.26800 51.38900 38.99300
H  31.51400 52.34000 39.64200
H  31.89800 51.34400 38.24600
H  27.67600 52.95600 36.18900
H  29.06800 51.96500 35.93700
H  29.50600 52.98600 34.23500
H  29.98600 54.47300 35.15700
H  36.47700 55.89400 37.79400
H  35.30500 54.65300 37.66200
H  36.03900 55.18500 39.33100
H  35.88400 60.37800 40.37900
H  35.49400 60.47500 38.72200
H  37.19600 60.36600 39.24800
H  31.76900 62.24000 38.92200
H  29.73900 61.66800 41.12900
H  31.77300 62.62300 41.89700
H  33.00100 63.02700 40.66100
H  33.08300 61.45700 41.33700
H  28.95300 62.61300 38.50700
H  30.05500 63.66000 39.42700
H  27.30700 63.90100 39.61300
H  28.52100 64.43800 40.69100
H  27.68800 62.93300 41.06600
H  24.99200 60.50500 38.88600
H  24.24300 59.40400 40.00700
H  24.11500 59.11900 38.27300
H  26.01000 54.49800 36.92700
H  23.87300 51.81400 39.79700
H  25.56700 51.13400 39.52700
H  24.37900 50.96900 38.33500
Mg 16.43300 52.04100 26.40000
C  18.42100 50.40400 28.85600
C  14.31900 53.06400 28.83300
C  14.57100 53.32100 23.99600
C  18.61200 50.76200 23.97000
N  16.47200 51.65800 28.62100
C  17.34600 51.09700 29.43600
C  17.11800 51.45500 30.94200
C  15.61000 51.92800 30.89700
C  15.46300 52.28100 29.37100
C  14.65600 50.72000 31.27200
C  18.10100 52.53600 31.49900
C  18.43400 52.49600 32.98300
H  17.58800 51.63000 33.88300
N  14.64600 53.07200 26.40400
C  13.99700 53.44200 27.50100
C  13.04400 54.42200 27.14800
C  12.96300 54.48800 25.73000
C  14.01500 53.54100 25.30200
C  12.23000 55.17500 28.27600
C  12.04300 55.21500 24.75900
O  12.13000 55.11900 23.57900
C  11.05100 56.18500 25.24100
N  16.60200 51.98800 24.36100
C  15.69400 52.60400 23.56700
C  16.05300 52.54600 22.07400
C  17.44000 51.86000 22.11900
C  17.50800 51.54800 23.54800
C  14.94300 51.83200 21.25000
C  18.59300 52.64400 21.45900
C  19.66100 53.45700 22.26400
N  18.18200 50.89100 26.32400
C  18.93400 50.42000 25.33900
C  20.15400 49.71800 25.81000
C  19.99900 49.73300 27.19300
C  18.76400 50.39600 27.48700
C  21.30400 49.08100 25.10300
C  20.60100 49.37700 28.47100
O  21.67000 48.82800 28.68100
C  19.59000 49.80600 29.60700
C  19.15000 48.55200 30.34300
O  18.18000 47.85400 29.99000
O  19.96800 48.43600 31.48200
C  19.45900 47.70100 32.65200
H  13.69700 53.45500 29.64100
H  13.97300 53.74700 23.18800
H  19.26200 50.34900 23.19700
H  17.30200 50.52700 31.48200
H  15.43400 52.71000 31.63700
H  13.79900 50.63600 30.60400
H  14.32500 51.02200 32.26600
H  15.09700 49.72600 31.34400
H  17.81600 53.57400 31.32900
H  19.04500 52.25500 31.03300
H  18.45800 53.49700 33.41500
H  19.39000 51.98900 33.11500
H  12.93300 55.73100 28.89700
H  11.60500 54.44800 28.79500
H  11.54700 55.92900 27.88600
H  10.76100 56.83600 24.41600
H  11.39800 56.89400 25.99200
H  10.18600 55.63000 25.60300
H  16.03500 53.55200 21.65700
H  17.35200 50.86900 21.67500
H  15.41100 51.05400 20.64800
H  14.42900 52.53100 20.59100
H  14.15200 51.36000 21.83200
H  18.23100 53.39800 20.76000
H  19.11100 51.86000 20.90600
H  19.43000 53.35500 23.32400
H  19.62600 54.53700 22.12300
H  20.68100 53.13100 22.06100
H  21.38200 49.72800 24.23000
H  21.21500 48.08600 24.66700
H  22.18700 49.07900 25.74400
H  20.03900 50.39500 30.40700
H  19.65500 48.30600 33.53700
H  20.07500 46.80300 32.70300
H  18.40300 47.44100 32.58000

