158

Mg -2.27400 18.09200 27.72500
C  -2.62500 15.66000 30.20700
C  -3.05100 20.53800 29.92900
C  -2.37200 20.22500 25.11800
C  -1.92100 15.34400 25.30500
N  -2.74100 18.12600 29.82200
C  -2.86200 17.01300 30.65600
C  -3.18200 17.38200 32.11600
C  -3.41400 18.95200 31.92100
C  -3.06700 19.22100 30.47600
C  -4.87600 19.51600 32.34900
C  -2.10200 16.88600 33.12800
C  -1.51100 17.89500 34.08200
H  -1.07400 17.23200 35.43500
N  -2.55400 20.07600 27.54300
C  -2.77800 20.92400 28.66900
C  -2.78700 22.32600 28.12900
C  -2.55900 22.21000 26.65700
C  -2.45600 20.80600 26.36300
C  -3.06500 23.57000 29.03100
C  -2.53900 23.34300 25.68000
O  -2.56600 23.14300 24.45400
C  -2.51200 24.69200 26.22200
N  -2.15500 17.80700 25.52400
C  -2.11200 18.85800 24.72100
C  -1.86200 18.55500 23.28600
C  -1.54500 17.04600 23.39700
C  -1.91000 16.66700 24.81500
C  -2.97900 18.91800 22.30700
C  -0.08200 16.69600 23.07700
C  1.03400 17.35500 23.85100
N  -2.21400 15.89100 27.70600
C  -2.16000 15.00900 26.67600
C  -2.20100 13.68100 27.27600
C  -2.34900 13.83400 28.65500
C  -2.34900 15.23000 28.87600
C  -2.38100 12.41600 26.61500
C  -2.60200 13.12300 29.87500
O  -2.69500 11.89500 30.04700
C  -2.74500 14.37400 30.97600
C  -1.84500 14.05400 32.03700
O  -0.68400 14.36200 32.09100
O  -2.46600 13.31500 33.03500
C  -1.77100 12.88600 34.27000
H  -3.20000 21.31900 30.67700
H  -2.42000 20.91700 24.27500
H  -1.90300 14.52500 24.58300
H  -4.07200 16.83800 32.43300
H  -2.68300 19.50400 32.51100
H  -5.27200 18.86900 33.13100
H  -5.61900 19.56700 31.55300
H  -4.91700 20.53500 32.73200
H  -1.18100 16.54900 32.65200
H  -2.56100 16.00000 33.56600
H  -2.24400 18.56200 34.53600
H  -0.70400 18.46900 33.62600
H  -2.25500 24.30000 29.04900
H  -3.19100 23.35100 30.09100
H  -4.01000 23.95700 28.65000
H  -1.63400 24.89100 26.83700
H  -3.45800 24.94700 26.70000
H  -2.47100 25.41800 25.41000
H  -0.96000 19.15400 23.16100
H  -2.19000 16.36800 22.83800
H  -2.72800 19.67700 21.56600
H  -3.95000 19.15700 22.74100
H  -3.11700 18.01900 21.70600
H  0.00300 17.11700 22.07500
H  -0.07300 15.60600 23.05300
H  0.57500 18.01500 24.58700
H  1.78100 17.83700 23.21900
H  1.43900 16.60500 24.53100
H  -3.43800 12.22600 26.42600
H  -2.04700 11.57000 27.21700
H  -1.81800 12.36900 25.68300
H  -3.77000 14.30200 31.33900
H  -0.91700 12.27100 33.98700
H  -2.48500 12.25000 34.79200
H  -1.43100 13.72200 34.88200
Mg 28.24300 56.46900 40.40200
C  25.85900 53.85900 39.53200
C  30.79400 54.38000 39.32300
C  30.28900 59.03500 40.41800
C  25.54300 58.73000 40.41800
N  28.27300 54.42500 39.25600
C  27.22300 53.52100 39.17600
C  27.67600 52.17600 38.59800
C  29.24600 52.28900 38.91400
C  29.50400 53.79400 39.18400
C  29.73800 51.39700 40.18600
C  27.32100 52.01100 37.15000
C  26.72400 53.20500 36.35500
H  26.93100 53.19900 34.87800
N  30.29300 56.61600 40.19100
C  31.12300 55.67100 39.70100
C  32.47900 56.16600 39.77300
C  32.37200 57.48900 40.24100
C  30.96300 57.76900 40.36800
C  33.66600 55.38500 39.38900
C  33.45200 58.50900 40.53600
O  34.59200 58.17200 40.26700
C  33.34300 59.80600 41.18000
N  27.95200 58.60900 40.42800
C  28.94200 59.47300 40.42300
C  28.49400 60.91100 40.61300
C  26.95600 60.81300 40.54100
C  26.78000 59.31000 40.47700
C  29.14400 61.66600 41.92400
C  26.42500 61.55000 39.22300
C  26.28800 63.04300 39.29600
N  26.25200 56.30200 40.27400
C  25.25600 57.32300 40.32000
C  23.93500 56.71300 40.27300
C  24.17100 55.35800 40.08800
C  25.56100 55.14500 40.04600
C  22.65500 57.45500 40.46200
C  23.48700 54.07100 40.09100
O  22.36700 53.72300 40.36200
C  24.58300 53.07400 39.61900
C  24.67300 52.01400 40.67000
O  24.02700 50.95500 40.67400
O  25.37100 52.49700 41.82200
C  25.63400 51.44700 42.85600
H  31.65300 53.70700 39.28400
H  30.88400 59.94200 40.28800
H  24.70400 59.42900 40.42300
H  27.21400 51.34100 39.12400
H  29.81600 52.01700 38.02600
H  30.04000 51.99000 41.05000
H  30.64600 50.84800 39.93500
H  28.97700 50.74500 40.61300
H  26.59900 51.19700 37.08100
H  28.21900 51.73200 36.59800
H  26.88600 54.17100 36.83300
H  25.64800 53.13900 36.51400
H  33.49500 54.66900 38.58600
H  34.02700 54.75400 40.20100
H  34.43500 56.10000 39.09800
H  32.42800 59.76800 41.77300
H  33.18100 60.53200 40.38300
H  34.23200 60.09500 41.74000
H  28.94600 61.47200 39.79500
H  26.44500 61.27200 41.38700
H  29.87600 62.43300 41.67000
H  29.69600 60.95300 42.53600
H  28.45500 62.05000 42.67700
H  25.47100 61.11000 38.93100
H  27.14500 61.34300 38.43200
H  26.86800 63.40200 40.14600
H  25.23500 63.31000 39.38200
H  26.77800 63.39400 38.38800
H  22.51700 57.73800 39.41800
H  22.58800 58.32800 41.11100
H  21.84800 56.78400 40.75700
H  24.18600 52.58400 38.73000
H  24.80800 50.73800 42.90600
H  25.65800 51.97600 43.80900
H  26.62000 50.99100 42.76900

