158

Mg 8.54200 3.52300 27.48400
C  9.57900 1.96400 30.41700
C  6.48100 5.61300 29.33200
C  7.32800 4.81000 24.55500
C  9.97900 0.91200 25.58100
N  7.99700 3.76900 29.62200
C  8.65600 2.99900 30.61900
C  8.40300 3.56300 32.02500
C  7.33100 4.68400 31.66200
C  7.22200 4.70400 30.09700
C  6.01700 4.53800 32.41000
C  9.62000 4.22000 32.69700
C  9.59100 4.29200 34.25400
H  10.70200 3.53100 35.02100
N  7.16400 5.16800 27.00000
C  6.44700 5.88500 27.90200
C  5.80400 6.95900 27.15400
C  5.96300 6.75600 25.77000
C  6.87300 5.53200 25.72300
C  5.06300 8.05300 27.85900
C  5.39600 7.46100 24.59200
O  5.57100 7.17400 23.39100
C  4.50000 8.62500 24.85500
N  8.63400 2.85400 25.32700
C  8.03400 3.60800 24.37900
C  8.34500 2.99200 22.97600
C  9.40500 1.92300 23.36400
C  9.25800 1.81600 24.82800
C  7.10100 2.43600 22.23300
C  10.82500 2.21700 22.94500
C  11.45400 1.08800 22.07800
N  9.63700 1.87500 27.86200
C  10.09700 0.89500 27.00200
C  10.86100 -0.09700 27.81200
C  10.73500 0.38400 29.12900
C  9.93700 1.49300 29.16400
C  11.67300 -1.27300 27.36200
C  11.13800 0.12900 30.49300
O  11.90200 -0.68900 30.97700
C  10.31100 1.08500 31.40800
C  9.40600 0.16700 32.25100
O  8.59600 -0.65300 31.84600
O  9.66200 0.41300 33.56600
C  9.12300 -0.58700 34.49800
H  6.04400 6.43900 29.89600
H  6.99400 5.25400 23.61500
H  10.43400 0.04200 25.10300
H  7.94000 2.84600 32.70300
H  7.75200 5.66300 31.88700
H  5.23000 4.71700 31.67700
H  5.87300 5.29800 33.17800
H  6.01800 3.59700 32.96100
H  9.74300 5.25700 32.38400
H  10.45200 3.61400 32.33900
H  8.58200 4.10100 34.61900
H  9.79600 5.32100 34.54800
H  5.35000 9.09400 27.70900
H  5.12000 7.90200 28.93700
H  4.01100 7.98700 27.58100
H  3.50800 8.34100 25.20500
H  4.52100 9.29400 23.99500
H  4.89600 9.28400 25.62800
H  8.82300 3.69300 22.29000
H  9.15700 0.93600 22.97300
H  6.26800 2.66000 22.89900
H  7.13100 1.37700 21.97700
H  6.93900 3.04900 21.34700
H  11.40700 2.40300 23.84700
H  11.05000 3.13500 22.40200
H  10.94300 0.12500 22.10100
H  12.42400 0.72600 22.41800
H  11.45800 1.36600 21.02400
H  11.59200 -1.51000 26.30100
H  11.55200 -2.13500 28.01700
H  12.72700 -1.00100 27.42200
H  11.01900 1.59400 32.06300
H  9.95400 -1.22600 34.79500
H  8.35300 -1.22400 34.06400
H  8.68200 -0.17900 35.40700
Mg 29.67600 59.49100 40.86700
C  26.67600 58.00100 39.66700
C  31.35800 56.83000 39.38100
C  32.46800 61.23400 41.17200
C  27.71900 62.30800 41.57000
N  29.07200 57.67100 39.63900
C  27.79800 57.27200 39.32000
C  27.76600 55.99600 38.36600
C  29.27700 55.58500 38.35600
C  29.94600 56.74800 39.16900
C  29.57400 54.21000 38.95600
C  27.24700 56.24600 36.87600
C  25.92600 55.54800 36.37300
H  26.06800 54.78200 35.03900
N  31.67700 59.05200 40.48700
C  32.14800 57.86700 39.94900
C  33.57200 57.89300 39.99400
C  33.96800 59.17400 40.47300
C  32.68100 59.90900 40.70400
C  34.38100 56.70200 39.58700
C  35.39300 59.55300 40.63600
O  36.32000 58.81300 40.32200
C  35.72900 60.84800 41.35100
N  30.04700 61.50900 41.32100
C  31.31800 62.03200 41.42000
C  31.26000 63.51000 41.86400
C  29.74500 63.86500 41.86600
C  29.11700 62.48100 41.64500
C  32.05400 63.89900 43.12900
C  29.53200 64.99400 40.81300
C  29.32200 66.40900 41.33500
N  27.57800 60.00000 40.98700
C  26.97700 61.23200 41.23000
C  25.53000 61.01800 41.17300
C  25.35800 59.80300 40.55600
C  26.64000 59.20700 40.43100
C  24.44900 61.99300 41.51100
C  24.39800 58.82000 39.94700
O  23.19700 58.90300 39.84300
C  25.24000 57.66300 39.34800
C  24.69200 56.44800 39.96200
O  24.89900 56.06900 41.08600
O  24.00600 55.79800 38.96900
C  23.49200 54.46000 39.29500
H  31.77800 55.88600 39.03000
H  33.27900 61.95800 41.27200
H  27.18600 63.20700 41.88700
H  27.21100 55.28000 38.97100
H  29.75600 55.56900 37.37700
H  29.89600 54.39800 39.98100
H  30.41700 53.73800 38.45200
H  28.68800 53.57700 38.93200
H  28.05200 56.13100 36.15100
H  27.06600 57.31800 36.80000
H  25.12300 56.27000 36.22200
H  25.61800 54.75500 37.05400
H  35.25700 56.61700 40.23000
H  34.74900 56.84600 38.57100
H  33.93300 55.72600 39.77300
H  36.77400 60.79300 41.65800
H  35.08200 60.68100 42.21200
H  35.57800 61.71400 40.70800
H  31.82900 63.98000 41.06300
H  29.46400 64.28600 42.83100
H  31.55800 64.66900 43.72100
H  32.99400 64.28800 42.73800
H  32.19800 62.97300 43.68500
H  28.76000 64.71100 40.09800
H  30.43100 65.14900 40.21700
H  29.21000 66.31500 42.41600
H  28.44900 66.89400 40.89800
H  30.19100 67.00100 41.04700
H  24.72100 62.93200 41.02900
H  24.46600 62.02500 42.60000
H  23.46200 61.74800 41.11800
H  25.07700 57.62800 38.27100
H  23.70500 53.83800 38.42600
H  22.43300 54.71200 39.35900
H  23.83300 54.03800 40.24000

