158

Mg 42.16500 41.43500 27.03700
C  41.44600 43.73800 29.53200
C  43.01600 39.14200 29.54000
C  43.42800 39.42100 24.59800
C  41.92500 44.08200 24.66800
N  42.16200 41.43800 29.21200
C  41.68600 42.40200 29.96600
C  41.54600 41.96700 31.49400
C  42.23800 40.59300 31.46400
C  42.51200 40.34300 29.99500
C  43.52300 40.40500 32.35000
C  40.07700 41.99200 32.02100
C  39.72100 43.15300 32.98100
H  38.90200 42.75400 34.26100
N  42.95100 39.43800 27.05300
C  43.18100 38.63900 28.16300
C  43.51900 37.28100 27.69900
C  43.49500 37.34300 26.26400
C  43.25600 38.76500 25.93900
C  43.76600 36.16700 28.65100
C  43.67300 36.21900 25.24500
O  43.70000 36.35200 24.01900
C  43.73600 34.70500 25.72000
N  42.76100 41.72900 25.02900
C  43.20300 40.76400 24.21500
C  43.56800 41.29200 22.82800
C  42.57200 42.49100 22.84100
C  42.39800 42.83200 24.27000
C  45.03300 41.63200 22.49400
C  41.22000 42.18600 22.13900
C  40.36200 40.95000 22.54400
N  41.81900 43.52800 27.05200
C  41.68100 44.42100 26.02000
C  41.41800 45.68600 26.60600
C  41.36700 45.50900 27.98600
C  41.57600 44.15900 28.20400
C  41.18400 46.93100 25.89700
C  41.17300 46.15500 29.23900
O  40.97700 47.31900 29.60700
C  41.11500 45.00200 30.25500
C  42.05000 45.47700 31.30100
O  43.25600 45.54400 31.07500
O  41.48500 45.90100 32.47300
C  42.47800 46.45500 33.45200
H  43.27400 38.45600 30.34800
H  43.88200 38.78900 23.83200
H  41.72500 44.86400 23.93100
H  42.24400 42.66900 31.95100
H  41.52600 39.83500 31.79000
H  44.10900 39.60000 31.90500
H  43.16800 40.22300 33.36400
H  44.14100 41.29800 32.44800
H  39.83100 41.11100 32.61400
H  39.34800 42.00500 31.21100
H  39.01900 43.94400 32.71700
H  40.64000 43.58900 33.37300
H  44.58800 35.56100 28.27000
H  42.87500 35.54100 28.64400
H  44.01000 36.52400 29.65200
H  44.67600 34.59800 26.26100
H  43.71800 34.04000 24.85600
H  42.91600 34.46900 26.39800
H  43.14400 40.63900 22.06500
H  43.03800 43.34100 22.34300
H  45.31700 42.64400 22.78300
H  45.12100 41.48700 21.41700
H  45.78400 40.95700 22.90400
H  41.54100 42.08800 21.10200
H  40.59200 43.07400 22.21300
H  40.29900 40.29100 21.67800
H  39.45700 41.44800 22.88900
H  40.87700 40.47200 23.37800
H  40.14600 47.26300 25.92800
H  41.54000 46.81100 24.87300
H  41.74700 47.77100 26.30200
H  40.12700 44.92500 30.71000
H  43.37800 46.88000 33.00800
H  42.69300 45.65400 34.16000
H  42.08700 47.29800 34.02100
Mg 36.58100 49.21300 25.55000
C  36.49400 47.24900 28.52700
C  35.25800 51.84700 27.41700
C  36.32200 50.98700 22.68700
C  37.45300 46.36700 23.81400
N  35.88100 49.42000 27.64600
C  36.14700 48.55200 28.70000
C  35.96200 49.29000 30.06300
C  35.31500 50.65400 29.69800
C  35.50800 50.64200 28.18600
C  33.84100 50.86300 30.10300
C  37.32500 49.46400 30.92900
C  37.20200 49.65500 32.48200
H  35.81300 49.70000 33.01000
N  35.93400 51.16200 25.09600
C  35.43400 52.10200 25.99300
C  35.33300 53.35200 25.28800
C  35.65300 53.15800 23.90800
C  36.05900 51.73800 23.84000
C  34.87200 54.55000 26.00100
C  35.80200 54.24000 22.72600
O  36.19600 53.89600 21.64100
C  35.64200 55.72000 22.86500
N  36.66900 48.66100 23.52300
C  36.63700 49.64100 22.50900
C  36.99500 49.03300 21.16500
C  37.57600 47.66700 21.67300
C  37.23200 47.54500 23.04700
C  35.77800 49.14600 20.15300
C  39.10900 47.55300 21.31300
C  40.16600 48.34400 22.06100
N  36.86500 47.14300 26.01700
C  37.24700 46.14200 25.17600
C  37.59900 44.99900 26.04000
C  37.31800 45.38500 27.36800
C  36.82300 46.67000 27.31100
C  38.28400 43.77200 25.66800
C  37.29300 44.89900 28.71900
O  37.74500 43.83800 29.25700
C  36.65100 46.07200 29.51400
C  35.25700 45.80000 30.01600
O  34.28700 45.72500 29.31000
O  35.24200 45.83900 31.39500
C  33.94400 45.37600 31.97300
H  34.87100 52.67000 28.02100
H  36.27500 51.48900 21.71800
H  37.87700 45.41000 23.50500
H  35.30800 48.69000 30.69600
H  35.91000 51.48900 30.06700
H  33.81100 51.78600 30.68300
H  33.50800 50.03100 30.72300
H  33.14800 50.98300 29.27000
H  37.90100 50.29900 30.53100
H  37.92900 48.56500 30.80700
H  37.84900 50.47600 32.79000
H  37.66000 48.79100 32.96400
H  35.63400 55.30600 26.19400
H  34.33500 54.37600 26.93300
H  34.11000 55.06600 25.41700
H  35.16800 56.19100 23.72600
H  35.04100 56.00300 22.00100
H  36.66600 56.08600 22.79300
H  37.86300 49.58100 20.79800
H  37.03400 46.81700 21.25800
H  35.67300 48.17800 19.66400
H  36.03900 49.88800 19.39800
H  34.92400 49.46200 20.75200
H  39.04500 47.74000 20.24100
H  39.27500 46.48000 21.40300
H  39.82100 49.13800 22.72400
H  40.93100 48.75600 21.40200
H  40.71700 47.65100 22.69700
H  38.80100 43.97500 24.73100
H  37.58200 42.94200 25.59000
H  39.14000 43.58100 26.31600
H  37.19200 46.47000 30.37200
H  33.85400 45.71800 33.00400
H  34.02000 44.29200 32.05500
H  33.10300 45.74100 31.38300

