158

Mg 47.33500 25.57500 27.42300
C  48.39900 27.58200 29.79600
C  45.99300 23.40700 29.75400
C  46.46600 23.34600 24.91800
C  49.05400 27.42100 25.03100
N  47.10200 25.58200 29.51200
C  47.52300 26.61900 30.28300
C  47.33900 26.31200 31.79400
C  46.66900 24.88400 31.80500
C  46.55200 24.57900 30.25300
C  47.49800 23.86700 32.61000
C  46.48000 27.42400 32.50400
C  46.99400 27.90700 33.94000
H  46.00100 28.15700 35.00300
N  46.39500 23.57000 27.38400
C  45.88700 22.93400 28.42000
C  45.28100 21.66500 28.01200
C  45.37300 21.66300 26.57200
C  46.09400 22.91000 26.22300
C  44.57400 20.74400 29.02900
C  44.97200 20.62700 25.62300
O  45.13500 20.64800 24.38800
C  44.31300 19.36100 26.16500
N  47.53000 25.48700 25.30800
C  47.22700 24.49000 24.48200
C  47.52600 24.75500 23.02400
C  48.13700 26.12300 23.06500
C  48.35700 26.34700 24.59300
C  48.33300 23.66700 22.26700
C  47.27300 27.18900 22.48800
C  47.86300 27.60100 21.10000
N  48.42200 27.27600 27.42300
C  49.10600 27.92900 26.37500
C  49.78700 29.13000 26.89900
C  49.55900 28.99200 28.30600
C  48.73400 27.82900 28.49700
C  50.45900 30.20900 26.14900
C  49.82800 29.58000 29.60900
O  50.55600 30.51500 29.94900
C  48.99500 28.77100 30.62200
C  49.88800 28.28900 31.70600
O  50.58300 27.26200 31.66100
O  49.84000 29.09000 32.80900
C  50.66900 28.63500 33.94800
H  45.66400 22.78200 30.58700
H  46.29100 22.81800 23.97800
H  49.50000 28.04600 24.25500
H  48.31800 26.16500 32.25200
H  45.72800 24.92300 32.35400
H  46.90200 23.46100 33.42700
H  48.26400 24.36700 33.20300
H  47.80700 23.12800 31.87100
H  45.45400 27.09800 32.67900
H  46.43400 28.29200 31.84700
H  47.70900 28.72400 33.84300
H  47.57700 27.04100 34.25600
H  45.02900 19.75400 29.00600
H  43.53800 20.61800 28.71500
H  44.54800 21.17300 30.03100
H  43.85900 18.72700 25.40300
H  43.42300 19.49800 26.78000
H  45.03400 18.74400 26.70000
H  46.50200 24.82700 22.66000
H  49.17700 26.09800 22.74000
H  47.64600 23.19100 21.56700
H  48.82200 23.08100 23.04500
H  49.18500 24.06300 21.71300
H  47.32600 28.07000 23.12700
H  46.21900 26.95800 22.33300
H  47.37900 27.02200 20.31300
H  48.95200 27.63800 21.07600
H  47.51300 28.62800 20.99500
H  50.60900 31.14000 26.69600
H  49.88200 30.35800 25.23600
H  51.44500 29.88600 25.81500
H  48.24000 29.53700 30.79800
H  50.89000 29.47500 34.60700
H  51.64400 28.30700 33.58600
H  50.23100 27.84400 34.55700
Mg -12.12300 16.78700 40.49200
C  -8.89300 15.47600 40.13000
C  -10.70200 19.90200 40.22600
C  -15.19600 18.03200 40.21000
C  -13.38900 13.55600 40.53600
N  -10.04500 17.65700 40.08300
C  -8.90800 16.90000 39.99700
C  -7.59400 17.80000 40.00200
C  -8.18800 19.28100 40.14300
C  -9.71200 18.96100 40.18800
C  -7.73800 20.20600 41.32800
C  -6.76800 17.69900 38.67100
C  -5.36500 17.08700 38.73400
H  -4.80700 15.73200 38.17200
N  -12.85600 18.74400 40.11600
C  -12.11400 19.84900 40.05800
C  -13.08800 20.95100 39.82700
C  -14.37400 20.42100 39.78400
C  -14.23200 18.99800 40.01900
C  -12.54500 22.34000 39.67000
C  -15.57400 21.21400 39.56000
O  -15.51600 22.43800 39.34800
C  -16.95400 20.56300 39.47600
N  -14.01500 15.87200 40.24900
C  -15.14200 16.60200 40.31100
C  -16.40500 15.74900 40.42700
C  -15.86200 14.34000 40.26500
C  -14.27400 14.58100 40.51800
C  -17.13100 15.99700 41.81800
C  -16.08200 13.60000 38.84600
C  -17.51100 13.31800 38.51300
N  -11.38000 14.90600 40.31300
C  -11.98800 13.66700 40.50600
C  -11.06500 12.61500 40.48700
C  -9.79000 13.22900 40.26300
C  -10.04700 14.65900 40.22700
C  -11.47100 11.19500 40.62800
C  -8.35200 13.08600 40.19300
O  -7.67400 12.08000 40.34800
C  -7.74700 14.49000 40.14300
C  -6.82000 14.53100 41.26400
O  -7.09900 14.99800 42.34000
O  -5.55100 14.18000 40.89000
C  -4.57300 14.35500 41.96300
H  -10.23500 20.88300 40.12100
H  -16.23300 18.36500 40.13800
H  -13.80200 12.54500 40.55600
H  -6.99400 17.51000 40.86400
H  -8.10000 19.88400 39.24000
H  -8.60100 20.45500 41.94600
H  -7.40000 21.11900 40.83800
H  -6.95800 19.67900 41.87800
H  -6.74800 18.61700 38.08300
H  -7.29200 17.05300 37.96700
H  -5.11500 17.15500 39.79300
H  -4.63000 17.75800 38.29000
H  -13.08800 22.92200 38.92500
H  -11.53100 22.36200 39.26900
H  -12.49400 22.93700 40.58000
H  -16.80800 19.75000 38.76400
H  -17.73900 21.25300 39.17000
H  -17.20400 20.24700 40.48900
H  -17.06800 16.04200 39.61200
H  -16.18800 13.63700 41.03200
H  -18.05400 16.57500 41.86300
H  -16.41300 16.29000 42.58300
H  -17.55700 15.02800 42.08100
H  -15.39100 12.78000 38.65100
H  -15.68600 14.36500 38.17700
H  -17.69900 12.24500 38.49000
H  -17.82900 13.60100 37.50900
H  -18.18500 13.81100 39.21400
H  -11.84800 10.76200 39.70100
H  -12.11100 10.91400 41.46400
H  -10.46500 10.79300 40.75200
H  -7.14500 14.60000 39.24000
H  -4.40200 15.43000 42.02400
H  -3.58100 13.99200 41.69400
H  -4.83300 13.98500 42.95400

