158

Mg 53.71200 25.14500 44.63400
C  51.01400 27.58400 43.90700
C  51.69500 22.86100 43.27400
C  56.51800 23.23400 44.28200
C  55.68700 27.91500 45.52500
N  51.70500 25.27900 43.56400
C  50.76700 26.31300 43.39200
C  49.44900 25.83500 42.73400
C  49.63000 24.23400 42.76900
C  51.11700 24.11100 43.26200
C  48.71800 23.42800 43.66200
C  49.07800 26.39700 41.32500
C  50.18500 26.41900 40.25400
H  49.88700 25.69500 38.98200
N  54.01000 23.28300 44.06500
C  53.00200 22.49100 43.61900
C  53.53100 21.11200 43.64400
C  54.95400 21.22700 43.75000
C  55.23800 22.61100 44.08200
C  52.78400 19.89800 43.18200
C  55.97200 20.08800 43.63500
O  55.60700 18.95100 43.28700
C  57.36500 20.28400 43.96100
N  55.77500 25.49100 44.87000
C  56.72600 24.56400 44.61700
C  58.11400 25.19300 44.87100
C  57.90200 26.72000 45.07500
C  56.35200 26.71500 45.15600
C  59.15100 24.60800 45.85400
C  58.32800 27.63400 43.90000
C  59.17000 28.90400 44.17400
N  53.41800 27.23000 44.91500
C  54.29800 28.20500 45.36700
C  53.59800 29.40600 45.62900
C  52.31600 29.16600 45.07800
C  52.26300 27.90100 44.52200
C  54.13900 30.72100 46.23500
C  51.10100 29.85100 44.73000
O  50.80800 31.01700 44.99600
C  50.19900 28.88600 43.91800
C  49.97900 29.51300 42.65400
O  50.90000 29.84300 41.96200
O  48.65400 29.68300 42.37700
C  48.28100 30.16000 41.03600
H  51.08800 22.00500 42.97100
H  57.45600 22.76900 43.97100
H  56.29300 28.81100 45.67700
H  48.59700 26.22600 43.29100
H  49.56700 23.79900 41.77200
H  47.70800 23.81600 43.52800
H  48.86400 23.44000 44.74200
H  48.72000 22.36300 43.42900
H  48.73500 27.42200 41.46800
H  48.14500 25.95200 40.98200
H  51.10400 25.90700 40.54000
H  50.45100 27.47400 40.19200
H  53.05500 18.99800 43.73300
H  52.90700 19.60800 42.13800
H  51.73000 19.91800 43.46000
H  57.98400 19.39400 43.85000
H  57.53800 20.63500 44.97800
H  57.77400 20.93900 43.19100
H  58.58300 25.01100 43.90400
H  58.25100 27.08100 46.04200
H  60.08900 25.05300 45.52200
H  59.14100 23.52500 45.72700
H  58.89100 24.89600 46.87200
H  57.51500 28.14700 43.38400
H  58.89800 27.10800 43.13400
H  58.65900 29.86200 44.08400
H  60.09000 28.91800 43.59000
H  59.53800 28.75200 45.18900
H  53.94400 30.60200 47.30100
H  53.55200 31.53100 45.80100
H  55.20200 30.82600 46.01600
H  49.21800 28.61500 44.30900
H  47.73900 31.10500 41.07000
H  47.58000 29.46300 40.57700
H  49.23200 30.29500 40.52000
Mg 26.61800 49.69400 26.17000
C  24.56200 50.77700 28.83100
C  29.02400 48.78200 28.30400
C  28.42600 48.67500 23.37700
C  24.21200 50.90000 24.04200
N  26.66700 49.71000 28.31300
C  25.78200 50.18400 29.27200
C  26.26400 49.87100 30.66200
C  27.74900 49.29800 30.45700
C  27.86100 49.27600 28.94900
C  28.83300 50.10300 31.22300
C  25.29600 48.75800 31.32700
C  24.80800 49.23900 32.72000
H  25.66000 49.69300 33.89900
N  28.49800 48.86600 25.85200
C  29.30200 48.54900 26.87500
C  30.51700 47.91600 26.34200
C  30.39700 47.90300 24.90100
C  29.05300 48.48100 24.65200
C  31.70700 47.59600 27.26900
C  31.42500 47.46900 23.84000
O  31.26700 47.57100 22.61100
C  32.74300 46.82000 24.38500
N  26.45400 49.84300 23.97700
C  27.22600 49.18000 23.04500
C  26.69500 49.32100 21.66200
C  25.33400 49.99000 21.82800
C  25.32800 50.23800 23.40000
C  27.70500 49.95300 20.66800
C  24.24900 49.16600 21.27400
C  23.12700 49.88700 20.44700
N  24.80400 50.63300 26.38200
C  23.94400 51.12000 25.39100
C  22.86400 51.75600 26.00000
C  22.98000 51.62200 27.37100
C  24.21400 50.97700 27.55000
C  21.78800 52.43100 25.25800
C  22.45600 51.94600 28.62500
O  21.57700 52.69700 28.86600
C  23.39800 51.22000 29.62500
C  23.80700 52.24500 30.58500
O  24.57600 53.19400 30.35200
O  22.98400 52.14700 31.72000
C  23.44300 52.92600 32.92900
H  29.83700 48.57300 29.00300
H  29.05100 48.38200 22.53100
H  23.43500 51.23200 23.34900
H  26.29200 50.82000 31.19600
H  27.85300 48.23700 30.68500
H  28.42300 50.89000 31.85600
H  29.40800 50.77800 30.58900
H  29.40300 49.45000 31.88400
H  25.80100 47.79900 31.44900
H  24.36500 48.61000 30.78000
H  24.19800 48.38400 33.00900
H  24.18900 50.09400 32.44600
H  32.14200 46.66400 26.90900
H  31.43800 47.60400 28.32500
H  32.49700 48.32400 27.08500
H  33.36800 46.37600 23.61000
H  32.46300 46.01200 25.06200
H  33.37000 47.54900 24.89800
H  26.57600 48.33000 21.22300
H  25.40800 50.94200 21.30300
H  28.62600 50.28200 21.15000
H  27.23200 50.78800 20.15200
H  27.96400 49.26900 19.86000
H  23.76500 48.60500 22.07400
H  24.71100 48.44600 20.59800
H  23.18000 50.94600 20.70000
H  22.05700 49.71300 20.56200
H  23.30900 49.77300 19.37800
H  21.34400 51.68200 24.60300
H  22.20200 53.14600 24.54800
H  21.08500 52.90400 25.94500
H  22.80100 50.44400 30.10400
H  24.06400 52.31000 33.57800
H  22.49800 53.14000 33.42900
H  23.87700 53.91400 32.78000

