158

Mg 47.66100 34.42400 27.00600
C  46.05800 33.33800 30.00400
C  48.54900 37.19900 28.57500
C  49.03800 35.22800 24.12700
C  46.43800 31.43100 25.50600
N  47.34800 35.07300 29.09600
C  46.75100 34.55500 30.17200
C  46.96800 35.45500 31.44200
C  47.35500 36.82000 30.74300
C  47.81600 36.34100 29.39300
C  46.19000 37.88300 30.51800
C  48.12900 34.86600 32.37200
C  47.72700 34.56600 33.88900
H  48.52800 35.40500 34.90700
N  48.58200 36.08200 26.40000
C  48.92200 37.15600 27.19900
C  49.58800 38.15900 26.32600
C  49.65900 37.61400 25.05500
C  49.05500 36.26200 25.12900
C  50.00600 39.46500 26.82800
C  50.12600 38.24300 23.85900
O  50.07000 37.73000 22.75400
C  50.63000 39.63200 23.90100
N  47.67100 33.41300 25.02000
C  48.43400 33.99200 24.04200
C  48.50800 33.01700 22.85500
C  47.64800 31.83200 23.24200
C  47.26700 32.18400 24.68200
C  48.09800 33.72000 21.49600
C  48.36300 30.48900 22.97500
C  49.46300 29.99800 24.02700
N  46.48700 32.75900 27.53700
C  46.15800 31.63700 26.85400
C  45.34200 30.77000 27.75500
C  45.24400 31.46700 28.91700
C  46.07700 32.58600 28.78100
C  44.73000 29.46000 27.50500
C  44.65200 31.34200 30.25300
O  43.98600 30.44400 30.74300
C  45.00400 32.68200 30.88900
C  45.18200 32.55800 32.33600
O  46.19400 32.20800 32.85300
O  43.91600 32.78500 32.92000
C  43.64300 32.34500 34.25000
H  48.89400 38.11300 29.06300
H  49.69500 35.40000 23.27200
H  46.14900 30.49300 25.02700
H  45.98900 35.44400 31.91900
H  48.14800 37.33600 31.28500
H  45.89700 38.02300 29.47700
H  46.60100 38.83900 30.84100
H  45.29000 37.81100 31.12900
H  48.93900 35.59000 32.46100
H  48.53400 33.96200 31.91900
H  47.98000 33.56300 34.23100
H  46.65400 34.71500 34.00700
H  50.95900 39.81100 26.42700
H  50.08400 39.30800 27.90400
H  49.20600 40.19000 26.67500
H  51.65500 39.61500 24.27100
H  49.87000 40.22400 24.41100
H  50.60200 40.01500 22.88100
H  49.54600 32.70000 22.75400
H  46.74400 31.82400 22.63300
H  47.31100 33.09700 21.07200
H  48.96600 33.67500 20.83800
H  47.81100 34.74000 21.75100
H  48.87400 30.55000 22.01400
H  47.62800 29.68400 22.98000
H  49.72000 30.72200 24.79900
H  50.32200 29.53100 23.54300
H  48.99300 29.20600 24.61000
H  43.68100 29.45000 27.80300
H  45.32000 28.61500 27.86100
H  44.69300 29.32500 26.42400
H  44.12000 33.31600 30.83200
H  43.02200 31.45100 34.29500
H  43.18400 33.15000 34.82400
H  44.58800 32.04000 34.70100
Mg -1.45600 34.36900 26.81900
C  -3.15900 32.56700 29.18700
C  0.21800 36.10300 29.39100
C  -0.65800 36.90800 24.63000
C  -3.49500 33.01200 24.41200
N  -1.44100 34.28900 29.01700
C  -2.23400 33.46300 29.76200
C  -1.93200 33.57500 31.20600
C  -0.99400 34.78600 31.25200
C  -0.64000 35.07400 29.78900
C  -1.52100 36.10100 32.08100
C  -1.42700 32.24600 31.84900
C  -2.05800 31.91500 33.21700
H  -1.02500 31.93300 34.41900
N  -0.10800 36.04800 26.90500
C  0.41300 36.59400 28.05100
C  1.24300 37.75100 27.67600
C  1.02200 37.99600 26.28400
C  0.06800 37.00500 25.87100
C  1.88500 38.62000 28.68400
C  1.65000 38.99100 25.39600
O  1.29400 39.16300 24.23400
C  2.84500 39.80800 25.90000
N  -2.10700 34.97500 24.88100
C  -1.61700 36.03600 24.20200
C  -2.20400 36.16100 22.85100
C  -2.91500 34.79800 22.70000
C  -2.79100 34.18100 24.06800
C  -3.17300 37.31700 22.59100
C  -2.28600 33.84300 21.57700
C  -3.22800 33.04000 20.60700
N  -2.97900 32.89200 26.80100
C  -3.59100 32.35700 25.68700
C  -4.46400 31.31200 26.10000
C  -4.37300 31.33400 27.49100
C  -3.42000 32.33000 27.87500
C  -5.22800 30.34400 25.19800
C  -4.87600 30.78700 28.75200
O  -5.67800 29.89500 28.97800
C  -4.06100 31.55400 29.86500
C  -5.12700 32.15100 30.72000
O  -5.92200 33.04300 30.42300
O  -5.12800 31.49600 31.97900
C  -6.22500 31.88000 32.92300
H  0.75500 36.57000 30.22000
H  -0.30400 37.58900 23.85300
H  -4.09200 32.53700 23.63100
H  -2.81300 33.95600 31.72200
H  -0.10400 34.50200 31.81300
H  -1.26300 37.00200 31.52300
H  -0.82800 36.14100 32.92100
H  -2.52500 35.99100 32.49000
H  -0.35700 32.41400 31.97600
H  -1.46400 31.46300 31.09200
H  -2.45300 30.90000 33.24100
H  -2.88100 32.61700 33.34900
H  1.15500 38.53300 29.48900
H  1.92500 39.66000 28.35800
H  2.85700 38.26200 29.02000
H  3.40000 40.33700 25.12500
H  3.58200 39.16900 26.38600
H  2.43800 40.58000 26.55200
H  -1.40900 36.28800 22.11600
H  -3.97600 34.92300 22.48300
H  -3.17700 37.84600 23.54400
H  -4.16800 37.02500 22.25500
H  -2.85800 37.84400 21.69000
H  -1.67600 33.18000 22.19200
H  -1.58000 34.48800 21.05300
H  -2.98100 33.28400 19.57400
H  -4.27100 33.33200 20.73600
H  -3.21900 31.95300 20.69200
H  -4.62600 30.02200 24.34800
H  -6.10300 30.94900 24.96100
H  -5.54400 29.49700 25.80800
H  -3.53800 30.85100 30.51400
H  -7.01100 32.51500 32.51300
H  -5.77300 32.42100 33.75400
H  -6.73300 31.00500 33.32700

