158

Mg 36.58100 49.21300 25.55000
C  36.49400 47.24900 28.52700
C  35.25800 51.84700 27.41700
C  36.32200 50.98700 22.68700
C  37.45300 46.36700 23.81400
N  35.88100 49.42000 27.64600
C  36.14700 48.55200 28.70000
C  35.96200 49.29000 30.06300
C  35.31500 50.65400 29.69800
C  35.50800 50.64200 28.18600
C  33.84100 50.86300 30.10300
C  37.32500 49.46400 30.92900
C  37.20200 49.65500 32.48200
H  35.81300 49.70000 33.01000
N  35.93400 51.16200 25.09600
C  35.43400 52.10200 25.99300
C  35.33300 53.35200 25.28800
C  35.65300 53.15800 23.90800
C  36.05900 51.73800 23.84000
C  34.87200 54.55000 26.00100
C  35.80200 54.24000 22.72600
O  36.19600 53.89600 21.64100
C  35.64200 55.72000 22.86500
N  36.66900 48.66100 23.52300
C  36.63700 49.64100 22.50900
C  36.99500 49.03300 21.16500
C  37.57600 47.66700 21.67300
C  37.23200 47.54500 23.04700
C  35.77800 49.14600 20.15300
C  39.10900 47.55300 21.31300
C  40.16600 48.34400 22.06100
N  36.86500 47.14300 26.01700
C  37.24700 46.14200 25.17600
C  37.59900 44.99900 26.04000
C  37.31800 45.38500 27.36800
C  36.82300 46.67000 27.31100
C  38.28400 43.77200 25.66800
C  37.29300 44.89900 28.71900
O  37.74500 43.83800 29.25700
C  36.65100 46.07200 29.51400
C  35.25700 45.80000 30.01600
O  34.28700 45.72500 29.31000
O  35.24200 45.83900 31.39500
C  33.94400 45.37600 31.97300
H  34.87100 52.67000 28.02100
H  36.27500 51.48900 21.71800
H  37.87700 45.41000 23.50500
H  35.30800 48.69000 30.69600
H  35.91000 51.48900 30.06700
H  33.81100 51.78600 30.68300
H  33.50800 50.03100 30.72300
H  33.14800 50.98300 29.27000
H  37.90100 50.29900 30.53100
H  37.92900 48.56500 30.80700
H  37.84900 50.47600 32.79000
H  37.66000 48.79100 32.96400
H  35.63400 55.30600 26.19400
H  34.33500 54.37600 26.93300
H  34.11000 55.06600 25.41700
H  35.16800 56.19100 23.72600
H  35.04100 56.00300 22.00100
H  36.66600 56.08600 22.79300
H  37.86300 49.58100 20.79800
H  37.03400 46.81700 21.25800
H  35.67300 48.17800 19.66400
H  36.03900 49.88800 19.39800
H  34.92400 49.46200 20.75200
H  39.04500 47.74000 20.24100
H  39.27500 46.48000 21.40300
H  39.82100 49.13800 22.72400
H  40.93100 48.75600 21.40200
H  40.71700 47.65100 22.69700
H  38.80100 43.97500 24.73100
H  37.58200 42.94200 25.59000
H  39.14000 43.58100 26.31600
H  37.19200 46.47000 30.37200
H  33.85400 45.71800 33.00400
H  34.02000 44.29200 32.05500
H  33.10300 45.74100 31.38300
Mg 10.05000 47.62700 26.28300
C  8.22300 47.76000 29.21500
C  12.81800 48.96900 27.92200
C  11.66900 47.25000 23.50600
C  7.08200 46.38500 24.77100
N  10.46600 48.35500 28.28700
C  9.57600 48.21100 29.40300
C  10.34100 48.70900 30.64200
C  11.57700 49.49800 30.08400
C  11.67500 48.88000 28.67300
C  11.43300 51.05700 30.00800
C  10.63900 47.55600 31.68100
C  9.88500 47.64300 33.03900
H  9.95400 46.41400 33.90000
N  12.00100 48.11400 25.75200
C  13.01300 48.58400 26.52800
C  14.17000 48.67600 25.72100
C  13.83500 48.28400 24.42100
C  12.44600 47.81100 24.51200
C  15.55800 49.15200 26.24900
C  14.56000 48.35400 23.13200
O  13.96500 48.17600 22.08800
C  15.96500 48.77400 23.03100
N  9.49200 47.06000 24.44900
C  10.34600 46.85600 23.44500
C  9.74800 46.16100 22.15100
C  8.30000 45.95600 22.56700
C  8.26500 46.49700 24.03200
C  9.96900 47.01700 20.85300
C  7.86000 44.43700 22.47200
C  8.55500 43.63600 23.63700
N  7.94900 47.26800 26.81500
C  6.86400 46.80100 26.07900
C  5.72200 46.86400 26.89800
C  6.20200 47.24200 28.20300
C  7.56900 47.35700 28.07400
C  4.34400 46.50700 26.51400
C  5.83400 47.54800 29.57200
O  4.71400 47.56300 30.13100
C  7.25900 47.72900 30.29500
C  7.32800 46.45700 31.14600
O  7.89900 45.43200 30.86700
O  6.49400 46.71100 32.23500
C  6.35000 45.65800 33.25400
H  13.73700 49.24600 28.44200
H  12.17300 47.03300 22.56200
H  6.27100 45.86000 24.26200
H  9.62900 49.42400 31.05500
H  12.46900 49.26600 30.66600
H  10.56900 51.33300 30.61300
H  11.32400 51.38500 28.97400
H  12.24800 51.57600 30.51200
H  11.70500 47.63400 31.89400
H  10.34500 46.54800 31.38900
H  8.82700 47.86800 32.90500
H  10.39000 48.50600 33.47300
H  16.28000 48.40000 25.93200
H  15.48600 49.29300 27.32700
H  15.87600 49.99900 25.64100
H  16.02200 49.78500 23.43600
H  16.26100 48.73400 21.98300
H  16.46400 47.95500 23.54900
H  10.33200 45.25700 21.97800
H  7.57400 46.48200 21.94700
H  10.71100 46.53500 20.21700
H  10.28900 48.01000 21.16700
H  9.01700 47.12100 20.33200
H  8.11800 44.11100 21.46400
H  6.78100 44.31900 22.56800
H  7.82100 43.38700 24.40300
H  9.42800 43.95100 24.20900
H  8.85600 42.71600 23.13600
H  4.27300 45.45500 26.23700
H  4.13500 47.09600 25.62100
H  3.69700 46.75100 27.35700
H  7.15500 48.69600 30.78600
H  6.36400 46.17600 34.21300
H  7.13600 44.90300 33.22800
H  5.37300 45.22000 33.04700

