158

Mg 47.59200 45.41500 43.37400
C  44.19400 44.61600 43.28300
C  48.26400 42.00000 43.19100
C  50.76300 46.15100 42.71300
C  46.72600 48.87200 43.19400
N  46.30900 43.56000 42.96900
C  44.95200 43.46900 42.96000
C  44.48800 42.06200 42.62600
C  45.83100 41.21000 42.82800
C  46.87300 42.31300 43.04200
C  45.81700 40.21400 44.05700
C  43.75500 41.82100 41.29200
C  44.33200 42.56000 40.01000
H  44.81100 41.51100 38.95400
N  49.24300 44.24400 42.94500
C  49.36800 42.89100 43.13700
C  50.71100 42.48700 42.91300
C  51.45000 43.64000 42.75800
C  50.47200 44.78500 42.77600
C  51.31900 41.04500 42.90500
C  52.96100 43.64400 42.66000
O  53.62100 42.61800 42.63600
C  53.71200 44.91500 42.61900
N  48.63500 47.36300 43.29400
C  50.00100 47.29800 42.94400
C  50.45200 48.75800 42.90800
C  49.11900 49.53900 42.66700
C  48.13400 48.60600 43.15800
C  51.23400 49.21100 44.17400
C  48.85100 49.95700 41.19200
C  48.02400 51.28600 41.04500
N  45.81800 46.57900 43.25800
C  45.63200 47.93600 43.27700
C  44.22900 48.18600 43.44600
C  43.61900 46.94700 43.52700
C  44.61000 45.96600 43.35500
C  43.54600 49.46100 43.45700
C  42.38400 46.23900 43.68200
O  41.23400 46.60100 43.84900
C  42.74500 44.72800 43.60600
C  42.40900 44.17600 44.96600
O  43.06600 44.28400 45.96100
O  41.18800 43.59900 44.91100
C  40.74800 43.05900 46.22100
H  48.63400 40.97600 43.10800
H  51.78100 46.39400 42.40200
H  46.40900 49.91700 43.21800
H  43.78400 41.90800 43.44300
H  46.04800 40.60600 41.94700
H  44.89100 40.31500 44.62400
H  46.63400 40.41700 44.74900
H  45.71800 39.14100 43.89000
H  42.71600 42.12900 41.40300
H  43.52900 40.77400 41.09000
H  45.26100 43.11600 40.13300
H  43.70600 43.29500 39.50300
H  51.72300 40.82500 41.91700
H  50.51800 40.39700 43.26200
H  52.07100 40.71000 43.61900
H  53.47700 45.33200 41.63900
H  54.79300 44.77900 42.64700
H  53.31500 45.57100 43.39300
H  51.02700 48.78100 41.98200
H  49.04700 50.47200 43.22600
H  52.26800 49.42500 43.90100
H  51.15600 48.36500 44.85600
H  50.88400 50.11500 44.67100
H  48.18600 49.18700 40.80000
H  49.67000 49.91100 40.47400
H  48.58800 52.01300 40.46000
H  47.76500 51.76000 41.99200
H  47.11700 51.15600 40.45600
H  42.49400 49.24500 43.26900
H  43.84600 50.05200 42.59200
H  43.66600 50.07400 44.35100
H  42.19300 44.18500 42.84000
H  40.55900 43.86900 46.92600
H  41.47600 42.30100 46.50900
H  39.89900 42.43300 45.94600
Mg -11.24000 40.66500 43.32100
C  -10.80900 37.32100 42.11200
C  -8.28800 41.48800 41.67700
C  -12.10700 43.83400 43.62500
C  -14.55300 39.72000 44.07700
N  -9.74200 39.50200 41.94900
C  -9.83500 38.17500 41.56800
C  -8.53000 37.75400 40.75500
C  -7.55500 38.97700 41.11000
C  -8.57100 40.08600 41.63400
C  -6.27500 38.74100 41.92700
C  -8.73100 37.51400 39.27300
C  -7.98400 36.27400 38.61200
H  -6.95400 36.42300 37.47500
N  -10.31500 42.42700 42.74000
C  -9.07700 42.56300 42.17200
C  -8.69900 43.93000 42.13900
C  -9.84700 44.64000 42.67200
C  -10.80400 43.65100 43.03800
C  -7.54300 44.39600 41.49500
C  -10.01100 46.15600 42.74800
O  -9.01500 46.84700 42.57900
C  -11.16000 46.90000 43.21400
N  -13.10400 41.68400 43.82900
C  -13.13700 42.99400 43.94100
C  -14.57000 43.51100 44.31400
C  -15.34400 42.12600 44.51100
C  -14.30600 41.10500 44.08400
C  -14.76000 44.45100 45.50800
C  -16.71000 42.09600 43.75100
C  -17.95800 42.29400 44.60700
N  -12.42800 38.86900 43.32400
C  -13.68700 38.64800 43.73700
C  -14.03500 37.20900 43.61000
C  -12.83800 36.66700 43.04300
C  -11.92400 37.71800 42.84700
C  -15.39400 36.63400 43.90600
C  -12.23200 35.42300 42.61400
O  -12.65000 34.26800 42.65400
C  -10.97600 35.83100 41.83300
C  -9.88000 34.90800 42.21200
O  -9.21700 35.00900 43.26900
O  -9.63800 34.01400 41.22200
C  -8.42800 33.19800 41.45500
H  -7.31000 41.67400 41.22700
H  -12.31900 44.87700 43.86900
H  -15.52000 39.46100 44.51300
H  -8.07600 36.85800 41.17800
H  -7.19700 39.40700 40.17500
H  -6.19700 37.65400 41.93700
H  -6.34200 39.15900 42.93200
H  -5.48300 39.17900 41.31900
H  -8.28000 38.34000 38.72400
H  -9.77600 37.41900 38.98000
H  -8.76300 35.63900 38.19100
H  -7.36600 35.80300 39.37700
H  -7.67300 45.29000 40.88400
H  -7.05600 43.64000 40.87800
H  -6.73800 44.55900 42.21100
H  -12.03800 46.68600 42.60600
H  -10.83300 47.93800 43.14500
H  -11.14800 46.61000 44.26400
H  -14.97500 44.04000 43.45100
H  -15.47200 41.98100 45.58300
H  -15.18000 43.95700 46.38400
H  -15.20800 45.38300 45.16100
H  -13.75200 44.61800 45.88700
H  -16.77400 41.09000 43.33600
H  -16.74900 42.78300 42.90600
H  -18.65900 43.01900 44.19300
H  -17.70300 42.57000 45.63100
H  -18.43600 41.31700 44.66600
H  -16.05300 36.86900 43.07000
H  -15.88800 37.02700 44.79400
H  -15.42200 35.54900 43.99700
H  -11.33100 35.57300 40.83500
H  -7.57400 33.79200 41.12800
H  -8.52000 32.27400 40.88500
H  -8.20000 32.84200 42.46000

