158

Mg -0.24800 7.42500 26.74800
C  0.53900 9.57000 29.51300
C  -0.27400 4.88600 28.94300
C  -0.66000 5.49500 24.14600
C  0.58800 10.17700 24.58800
N  0.11800 7.20500 28.99700
C  0.32100 8.21900 29.90000
C  0.40900 7.77500 31.32900
C  0.49900 6.24800 31.10200
C  0.03700 6.05500 29.64600
C  1.87600 5.60500 31.21600
C  -0.87200 8.26300 32.06700
C  -0.75000 8.94500 33.44100
H  -0.23900 8.04700 34.66600
N  -0.56400 5.55700 26.59900
C  -0.56000 4.57500 27.59500
C  -0.93000 3.34300 27.06800
C  -1.12700 3.51200 25.69300
C  -0.83600 4.90000 25.40000
C  -1.14200 2.11500 27.92000
C  -1.49000 2.45000 24.70000
O  -1.90000 2.72300 23.55100
C  -1.26200 0.95400 25.02700
N  0.01900 7.80900 24.63200
C  -0.34500 6.78500 23.82700
C  -0.15000 7.16100 22.40400
C  -0.07200 8.73700 22.43100
C  0.30500 8.99800 23.95100
C  1.13400 6.49500 21.73300
C  -1.43700 9.42300 22.11100
C  -1.47900 10.75600 21.48300
N  0.36000 9.45800 26.91300
C  0.63000 10.37800 25.93000
C  0.99300 11.61700 26.57900
C  1.05200 11.32000 27.97900
C  0.59500 9.98100 28.13500
C  1.38300 12.81200 25.85600
C  1.35300 11.87200 29.32200
O  1.84200 12.87000 29.71900
C  0.95000 10.73300 30.36900
C  1.99000 10.59200 31.42400
O  3.09400 9.99900 31.30500
O  1.58300 11.17600 32.63300
C  2.41100 11.00000 33.83600
H  -0.25500 3.98300 29.55700
H  -0.73200 4.84900 23.26800
H  0.65900 11.06400 23.95500
H  1.31600 8.16800 31.78800
H  -0.23700 5.64600 31.63400
H  2.59000 6.09000 31.88200
H  2.35200 5.37100 30.26400
H  1.72100 4.59300 31.58800
H  -1.49900 7.40000 32.29300
H  -1.41900 8.94600 31.41600
H  -1.71100 9.26000 33.84700
H  -0.05600 9.77800 33.33100
H  -2.07600 1.55800 27.84600
H  -0.95000 2.27200 28.98200
H  -0.38100 1.35000 27.77000
H  -1.93800 0.46200 25.72500
H  -0.21700 0.71200 25.21800
H  -1.49200 0.40300 24.11500
H  -0.99300 6.83400 21.79500
H  0.72800 9.12000 21.79700
H  1.73500 7.22300 21.18800
H  0.72000 5.75200 21.05200
H  1.76100 6.12300 22.54400
H  -1.98400 9.54500 23.04500
H  -2.01200 8.73500 21.49100
H  -0.53600 11.09700 21.05600
H  -1.81900 11.49300 22.21000
H  -2.28800 10.73000 20.75400
H  2.16500 13.38500 26.35400
H  0.45500 13.38400 25.85500
H  1.62000 12.62800 24.80800
H  0.09200 11.25900 30.78800
H  2.67400 11.88700 34.41200
H  3.32900 10.52300 33.49500
H  1.72200 10.42500 34.45500
Mg -6.52100 24.94900 25.91800
C  -4.68000 26.06500 28.91100
C  -8.21200 22.90400 28.03100
C  -7.61200 23.40200 23.21500
C  -4.00400 26.63900 24.01000
N  -6.48700 24.66100 28.14900
C  -5.74600 25.21700 29.13800
C  -6.21800 24.80600 30.58400
C  -7.04100 23.53400 30.21500
C  -7.29900 23.74200 28.70100
C  -6.25900 22.15300 30.42700
C  -7.01600 25.99300 31.23700
C  -6.90900 26.10100 32.77000
H  -6.51600 24.80600 33.44600
N  -7.97500 23.55100 25.60200
C  -8.53100 22.81700 26.57700
C  -9.47000 21.88200 25.97100
C  -9.34200 22.03200 24.54300
C  -8.34600 23.11200 24.37300
C  -10.40400 21.03600 26.82700
C  -10.03200 21.20100 23.42100
O  -9.80500 21.35000 22.25000
C  -10.97000 20.15400 23.81600
N  -5.88900 24.95800 23.94100
C  -6.51700 24.26100 22.99700
C  -5.82000 24.31200 21.64300
C  -5.01300 25.62100 21.84200
C  -4.92900 25.80200 23.35100
C  -4.88600 23.14600 21.38400
C  -5.56400 26.88100 21.11300
C  -4.73000 27.55700 20.05600
N  -4.70800 26.06500 26.32500
C  -3.87500 26.74400 25.42200
C  -2.86800 27.54700 26.16800
C  -3.08500 27.16400 27.51100
C  -4.19900 26.31200 27.59400
C  -1.83000 28.42700 25.62800
C  -2.67300 27.48100 28.92000
O  -1.73600 28.17600 29.35300
C  -3.67800 26.77700 29.87400
C  -2.91200 25.95100 30.75400
O  -2.54400 24.80200 30.52200
O  -2.55800 26.70600 31.88400
C  -1.77700 26.08800 32.93600
H  -8.81200 22.25400 28.67100
H  -7.89300 22.81700 22.33700
H  -3.34800 27.19600 23.33800
H  -5.33200 24.51400 31.14800
H  -7.97900 23.57800 30.76900
H  -5.27000 22.44700 30.77700
H  -6.13700 21.55100 29.52700
H  -6.73700 21.51300 31.16900
H  -8.06500 25.84000 30.98600
H  -6.60300 26.93000 30.86300
H  -7.85700 26.54700 33.07000
H  -6.08500 26.81100 32.69900
H  -10.76100 21.62400 27.67200
H  -9.87100 20.14500 27.16100
H  -11.29400 20.57400 26.40000
H  -10.30100 19.42800 24.27800
H  -11.40700 19.65500 22.95200
H  -11.76700 20.62200 24.39400
H  -6.56600 24.49400 20.86900
H  -4.01900 25.47800 21.41900
H  -5.01100 22.36900 22.13900
H  -3.84500 23.43600 21.24500
H  -5.17000 22.64300 20.45900
H  -5.69300 27.68400 21.83800
H  -6.51200 26.65600 20.62400
H  -4.88300 28.60800 20.30100
H  -5.08300 27.36400 19.04300
H  -3.70000 27.25400 20.24100
H  -0.89900 28.42600 26.19600
H  -2.24000 29.43100 25.52300
H  -1.60000 28.07000 24.62400
H  -4.26900 27.54600 30.37100
H  -1.61200 26.82000 33.72700
H  -0.82900 25.73200 32.53300
H  -2.35200 25.25000 33.33000

