158

Mg 49.40500 45.20800 43.01100
C  45.93200 45.09700 42.45900
C  49.40900 41.78300 42.68300
C  52.69400 45.32600 43.21600
C  49.10900 48.71300 43.04500
N  47.81200 43.65500 42.62200
C  46.49900 43.85100 42.41600
C  45.67200 42.53600 42.16700
C  46.88200 41.48100 42.43000
C  48.13000 42.33500 42.61500
C  46.61400 40.49600 43.60800
C  45.01100 42.41700 40.73100
C  45.67500 43.00600 39.48800
H  45.77000 42.27700 38.16800
N  50.87000 43.72100 42.97200
C  50.68900 42.42200 42.88000
C  51.93000 41.69600 42.92000
C  52.91300 42.73500 42.99100
C  52.21100 44.00900 43.05200
C  52.06100 40.19000 42.84000
C  54.43600 42.48700 42.99700
O  54.96300 41.37700 43.09800
C  55.50200 43.60900 42.99500
N  50.76600 46.77900 43.08600
C  52.09700 46.61700 43.18100
C  52.76800 47.92800 43.44400
C  51.69700 49.03100 43.07000
C  50.44800 48.11600 43.04900
C  53.33900 48.04200 44.85800
C  51.87800 49.77000 41.71400
C  51.25900 51.20600 41.77500
N  47.88000 46.68300 42.77700
C  47.91400 48.06700 42.86800
C  46.65000 48.60400 42.60500
C  45.81300 47.52800 42.48800
C  46.59300 46.35100 42.58800
C  46.28900 50.01700 42.38900
C  44.45100 47.17600 42.19200
O  43.46600 47.82200 41.89200
C  44.47400 45.54500 42.16800
C  43.35400 44.93500 42.94700
O  42.67300 44.01800 42.50800
O  43.20800 45.51100 44.19800
C  42.11400 44.92900 44.92200
H  49.58300 40.70600 42.69700
H  53.75300 45.32800 43.48100
H  49.04900 49.80400 43.02900
H  44.82500 42.44400 42.84600
H  47.03600 40.92800 41.50300
H  45.54300 40.63000 43.75900
H  47.13300 40.74000 44.53500
H  46.74200 39.46400 43.28200
H  43.95400 42.68200 40.76400
H  44.91800 41.34100 40.57900
H  46.64800 43.37300 39.81500
H  45.18500 43.95200 39.26000
H  53.09200 39.88600 42.65700
H  51.46500 39.73900 42.04600
H  51.73100 39.66700 43.73700
H  55.23600 44.34200 42.23400
H  56.45800 43.18000 42.69300
H  55.63300 44.00900 44.00100
H  53.57900 47.91000 42.71500
H  51.66000 49.81200 43.82900
H  52.81200 48.76700 45.47900
H  54.35900 48.42400 44.81000
H  53.31500 47.03700 45.28000
H  51.43800 49.16100 40.92400
H  52.95200 49.72800 41.53200
H  50.85000 51.59200 40.84100
H  51.98800 51.94300 42.11100
H  50.48300 51.20100 42.54100
H  46.33100 50.62400 43.29300
H  45.34700 50.14100 41.85400
H  47.08300 50.39100 41.74300
H  44.19100 45.29500 41.14600
H  42.06900 45.29300 45.94800
H  42.13800 43.84200 44.84200
H  41.17300 45.22200 44.45600
Mg -10.85000 37.59900 42.51500
C  -8.23700 35.17600 42.06200
C  -8.52600 39.98800 41.40500
C  -13.24800 39.66900 42.78000
C  -13.05700 34.86400 43.12700
N  -8.67000 37.56500 41.73900
C  -7.80700 36.47800 41.79600
C  -6.45700 36.81600 41.22900
C  -6.51300 38.39900 41.20800
C  -7.97700 38.67400 41.39200
C  -5.59200 39.05000 42.28700
C  -6.07200 36.10600 39.85800
C  -4.70800 35.33900 39.83800
H  -3.85600 35.74000 38.61100
N  -10.85900 39.63300 42.16200
C  -9.86100 40.46100 41.69800
C  -10.28800 41.82900 41.77500
C  -11.68300 41.71800 42.13600
C  -12.02900 40.30500 42.41700
C  -9.41100 43.05500 41.24100
C  -12.57400 42.91000 42.20900
O  -12.23800 44.05700 41.85600
C  -13.94500 42.83000 42.77700
N  -12.90000 37.34300 42.78900
C  -13.74000 38.39300 42.96500
C  -15.16900 38.06800 43.32300
C  -15.17000 36.49600 43.33300
C  -13.60400 36.19400 43.07500
C  -15.71100 38.76900 44.58000
C  -15.93100 35.76600 42.23900
C  -17.05300 34.79500 42.82500
N  -10.73400 35.46800 42.66500
C  -11.66200 34.52600 43.00500
C  -11.01800 33.22600 43.24000
C  -9.71700 33.48600 42.87000
C  -9.56200 34.84600 42.50200
C  -11.62200 31.93200 43.75800
C  -8.40900 32.81400 42.69500
O  -7.98500 31.66500 42.78100
C  -7.54600 33.82400 41.99700
C  -6.36500 33.77100 42.91100
O  -6.33800 34.04800 44.11100
O  -5.22500 33.36700 42.21300
C  -4.09700 33.01400 43.09400
H  -7.80500 40.80700 41.36600
H  -14.07500 40.38200 42.81400
H  -13.69700 34.03500 43.43600
H  -5.73600 36.41900 41.94300
H  -6.22000 38.71200 40.20700
H  -4.94100 39.79900 41.83500
H  -5.01100 38.37500 42.91500
H  -6.35600 39.55500 42.87800
H  -6.03800 36.85500 39.06800
H  -6.85000 35.40600 39.55300
H  -4.95600 34.27900 39.86900
H  -4.10500 35.61900 40.70200
H  -9.76400 43.33600 40.24900
H  -8.36900 42.78400 41.07100
H  -9.29400 43.82300 42.00500
H  -14.40400 43.81900 42.78900
H  -13.90200 42.44000 43.79300
H  -14.58100 42.34600 42.03500
H  -15.74700 38.35100 42.44400
H  -15.39600 36.01500 44.28500
H  -14.96300 39.39500 45.06600
H  -16.02000 37.98400 45.27100
H  -16.49500 39.47900 44.31700
H  -15.29600 35.09800 41.65600
H  -16.34100 36.42100 41.47000
H  -17.21400 34.89200 43.89900
H  -16.83600 33.75800 42.56600
H  -18.01500 35.11000 42.42100
H  -12.45300 31.72400 43.08500
H  -12.01100 32.33700 44.69200
H  -10.86400 31.15400 43.85100
H  -7.29300 33.54400 40.97400
H  -3.13400 32.92700 42.59100
H  -4.19900 32.02300 43.53600
H  -4.00800 33.73800 43.90400

