158

Mg 17.74400 -1.49000 27.37700
C  16.72000 0.35500 30.19200
C  19.84200 -3.25100 29.45200
C  19.13100 -2.80200 24.62100
C  16.16300 0.90900 25.35700
N  18.21600 -1.45800 29.54700
C  17.57900 -0.63900 30.48600
C  18.12700 -0.97800 31.94200
C  19.30700 -1.91400 31.67000
C  19.17200 -2.24900 30.17300
C  20.70000 -1.23000 31.86400
C  17.06000 -1.59700 32.84800
C  16.99800 -1.09300 34.35800
H  18.20000 -0.29300 34.79800
N  19.04900 -2.98000 27.12500
C  19.82600 -3.55800 28.07000
C  20.57500 -4.63500 27.43200
C  20.26700 -4.62700 26.05100
C  19.44400 -3.47100 25.87500
C  21.49000 -5.54600 28.18700
C  20.80100 -5.47300 24.88000
O  20.41000 -5.31400 23.71000
C  21.88700 -6.55300 25.08000
N  17.47900 -1.04700 25.23900
C  18.26900 -1.71200 24.33400
C  18.25400 -0.97900 22.96100
C  17.10000 0.06800 23.11100
C  16.91900 0.02800 24.67200
C  19.63700 -0.31500 22.71300
C  15.70300 -0.16300 22.42800
C  15.24800 0.78000 21.26400
N  16.57400 0.16800 27.64500
C  16.00900 0.98800 26.72500
C  15.26800 2.01600 27.41700
C  15.41200 1.80000 28.79900
C  16.24700 0.69400 28.88700
C  14.34500 3.06700 26.84100
C  15.10300 2.27800 30.13200
O  14.40600 3.21400 30.47600
C  16.00800 1.44900 31.08900
C  17.08200 2.38100 31.62700
O  18.07000 2.74800 31.02300
O  16.76500 2.76300 32.90100
C  17.53600 3.83700 33.46900
H  20.53100 -3.76600 30.12500
H  19.75000 -3.04400 23.75400
H  15.70200 1.81100 24.95100
H  18.43800 -0.02600 32.37100
H  19.34100 -2.81200 32.28700
H  21.33200 -1.83200 32.51700
H  20.49200 -0.39500 32.53300
H  21.23300 -1.00900 30.94000
H  17.09000 -2.68600 32.80200
H  16.13800 -1.31700 32.33800
H  16.90300 -2.05100 34.86900
H  16.07400 -0.52200 34.44400
H  21.92900 -5.04600 29.05100
H  22.36000 -5.70300 27.55100
H  21.11300 -6.51300 28.52200
H  21.46600 -7.29300 25.76100
H  22.73400 -6.07900 25.57500
H  21.97700 -7.00700 24.09300
H  17.91400 -1.63300 22.15900
H  17.40700 1.05000 22.75000
H  20.01300 -0.56100 21.72000
H  20.33600 -0.78100 23.40800
H  19.51200 0.76700 22.74700
H  14.92800 -0.06600 23.18800
H  15.54400 -1.17200 22.04700
H  16.08500 1.40900 20.96100
H  14.41200 1.42200 21.54300
H  15.10000 0.07000 20.45100
H  14.59600 3.57600 25.91000
H  14.20700 3.88100 27.55300
H  13.32500 2.68200 26.83800
H  15.30900 1.06700 31.83300
H  17.75300 4.57900 32.70100
H  18.45600 3.46100 33.91700
H  16.89700 4.32400 34.20600
Mg 26.22600 0.67700 28.76700
C  28.18300 0.35900 31.71000
C  23.56800 1.24800 30.98100
C  24.28500 0.93500 26.12100
C  29.01600 -0.24400 26.88000
N  25.93100 0.63600 31.05900
C  26.83100 0.60000 32.07900
C  26.29800 0.79900 33.48100
C  24.82000 0.90700 33.15100
C  24.75200 0.98900 31.64800
C  24.05900 -0.38900 33.70800
C  26.99600 2.01100 34.13800
C  26.25600 2.75500 35.25000
H  27.00400 2.93800 36.65100
N  24.22200 1.06100 28.57600
C  23.32200 1.23800 29.59800
C  21.98600 1.45700 29.01900
C  22.24100 1.30300 27.54400
C  23.63100 1.09500 27.37900
C  20.75700 1.74800 29.82300
C  21.15400 1.28500 26.47400
O  21.32400 0.95300 25.32100
C  19.77700 1.63400 26.86000
N  26.62100 0.20900 26.74600
C  25.62200 0.53200 25.75900
C  26.16800 0.28500 24.32500
C  27.65600 -0.19600 24.64300
C  27.81000 0.00300 26.24200
C  25.35600 -0.66700 23.36300
C  28.80600 0.51600 23.87900
C  29.70600 -0.41100 23.03200
N  28.16500 0.18700 29.14800
C  29.18700 -0.19200 28.26600
C  30.37900 -0.51800 29.05400
C  29.97700 -0.22700 30.40600
C  28.64400 0.15500 30.39800
C  31.80800 -0.98200 28.74400
C  30.48400 -0.32400 31.74400
O  31.54500 -0.65300 32.25200
C  29.29700 0.14400 32.64800
C  28.92700 -0.90600 33.55500
O  28.40100 -1.98400 33.25200
O  29.49300 -0.62900 34.76400
C  29.16900 -1.56300 35.87100
H  22.74900 1.43500 31.67900
H  23.72300 1.04000 25.19100
H  29.92000 -0.44000 26.29900
H  26.47800 -0.05300 34.13600
H  24.32800 1.72400 33.67900
H  24.72600 -1.20200 33.99600
H  23.58900 -0.88700 32.86000
H  23.38500 -0.13600 34.52600
H  27.17900 2.76100 33.36800
H  28.00400 1.74800 34.46000
H  25.38900 2.16300 35.54300
H  25.99200 3.76700 34.94400
H  21.00000 1.69100 30.88400
H  20.00500 0.97000 29.69200
H  20.35500 2.75200 29.68900
H  19.07000 1.34600 26.08200
H  19.66000 2.69800 27.06500
H  19.46100 1.02500 27.70700
H  26.33600 1.26300 23.87300
H  27.62700 -1.24000 24.33000
H  25.88900 -1.59500 23.15500
H  25.26000 -0.11400 22.42900
H  24.38700 -0.95600 23.76900
H  29.50200 0.92900 24.60900
H  28.37100 1.26400 23.21700
H  29.26400 -0.72400 22.08600
H  29.89200 -1.37600 23.50400
H  30.67400 0.01200 22.76200
H  32.33100 -0.20200 28.19100
H  31.80600 -1.85500 28.09100
H  32.46800 -1.33400 29.53800
H  29.67000 0.97800 33.24300
H  29.07600 -2.59300 35.52700
H  28.25700 -1.33400 36.42300
H  30.02900 -1.53500 36.53900

