158

Mg -2.47400 16.98200 26.60800
C  -3.03200 14.73800 29.35100
C  -3.23700 19.64400 28.75800
C  -2.12000 19.04300 24.02500
C  -2.40400 14.26400 24.59000
N  -2.77500 17.23100 28.91700
C  -2.99500 16.09800 29.77900
C  -3.30500 16.62400 31.15300
C  -3.43800 18.23200 30.92900
C  -3.20200 18.37900 29.44100
C  -4.69200 19.07200 31.43300
C  -2.20400 16.06800 32.16300
C  -1.65600 16.88600 33.28200
H  -1.14800 16.23900 34.59300
N  -2.55900 19.03800 26.45400
C  -2.82000 19.96700 27.46600
C  -2.78900 21.25300 26.82900
C  -2.49300 21.11300 25.44300
C  -2.32600 19.68700 25.25600
C  -3.33100 22.40800 27.68500
C  -2.47300 22.20100 24.34700
O  -2.15800 22.04200 23.18000
C  -2.69300 23.65900 24.90900
N  -2.47500 16.71800 24.57000
C  -2.07600 17.74600 23.67600
C  -1.85900 17.21900 22.24400
C  -1.85300 15.68500 22.51000
C  -2.26100 15.51600 23.96900
C  -2.96300 17.69000 21.19900
C  -0.48500 15.03400 21.95100
C  -0.69300 14.10400 20.66900
N  -2.75000 14.92300 26.85500
C  -2.59200 13.93600 25.94000
C  -2.81400 12.63900 26.52700
C  -2.98900 12.89600 27.88600
C  -2.90500 14.29900 28.03200
C  -2.85300 11.31800 25.80500
C  -3.18100 12.27800 29.14800
O  -3.33500 11.11600 29.47700
C  -3.12800 13.45800 30.19100
C  -1.93700 13.20700 31.01400
O  -0.75800 13.22800 30.70700
O  -2.33100 12.89700 32.32700
C  -1.38900 12.53500 33.35900
H  -3.35100 20.49600 29.43100
H  -1.86700 19.67000 23.16800
H  -2.40500 13.42700 23.88900
H  -4.31000 16.24100 31.33400
H  -2.63000 18.70800 31.48400
H  -5.53800 18.41300 31.62800
H  -5.01600 19.83700 30.72700
H  -4.50200 19.61100 32.36100
H  -1.31600 15.60300 31.73600
H  -2.53000 15.19600 32.72900
H  -2.43800 17.56900 33.61300
H  -0.76900 17.34700 32.84700
H  -4.04600 22.98200 27.09600
H  -2.55400 23.12000 27.96400
H  -3.91800 22.12000 28.55700
H  -3.74100 23.71000 25.20700
H  -2.41700 24.31000 24.08000
H  -2.00400 23.87100 25.72600
H  -0.96500 17.80500 22.03000
H  -2.66400 15.15900 22.00700
H  -3.96900 17.33400 21.42400
H  -2.69600 17.37800 20.19000
H  -3.15800 18.76200 21.15900
H  -0.08900 14.43500 22.77100
H  0.25100 15.79800 21.69900
H  -1.71600 14.09100 20.29300
H  -0.53100 13.08900 21.03000
H  -0.04500 14.26100 19.80700
H  -1.84100 11.10100 25.46200
H  -3.53600 11.17100 24.96900
H  -3.12500 10.59600 26.57500
H  -3.92600 13.42000 30.93200
H  -1.51100 12.99900 34.33800
H  -0.38000 12.78800 33.03200
H  -1.53800 11.46000 33.46700
Mg 35.47600 2.45000 29.19700
C  33.55800 3.80800 31.94700
C  38.20500 2.48200 31.15800
C  37.21500 1.77500 26.44700
C  32.56300 2.99900 27.22500
N  35.80600 3.10600 31.32900
C  34.85400 3.38900 32.27900
C  35.56700 3.41500 33.67200
C  37.09500 3.15200 33.38500
C  37.05400 2.91400 31.82000
C  38.14200 4.19700 33.77000
C  34.88800 2.59700 34.87200
C  35.66500 1.63400 35.78500
H  36.65300 2.19300 36.76300
N  37.48400 1.97500 28.91100
C  38.45300 2.03100 29.81300
C  39.67100 1.52100 29.24600
C  39.46000 1.32500 27.83600
C  38.00600 1.71300 27.65900
C  40.85500 1.25500 30.06200
C  40.27000 1.01000 26.66300
O  39.95100 0.99700 25.50100
C  41.66500 0.67900 26.96400
N  34.95900 2.43000 27.16000
C  35.81000 1.99700 26.24500
C  35.19100 1.90300 24.89100
C  33.68600 2.00000 25.16400
C  33.72300 2.48400 26.61700
C  35.76300 2.87900 23.86700
C  32.93900 0.62100 25.12700
C  32.99100 -0.36700 23.90800
N  33.41100 3.16000 29.50700
C  32.44800 3.42300 28.57600
C  31.25100 3.97700 29.27900
C  31.71000 4.13800 30.67000
C  32.99600 3.61900 30.73100
C  29.83700 4.33600 28.74100
C  31.26500 4.43100 31.96000
O  30.17000 4.77700 32.28800
C  32.42800 4.17300 32.88900
C  32.66000 5.39300 33.73000
O  33.44900 6.26200 33.53600
O  31.71500 5.39900 34.75100
C  31.58400 6.70400 35.40200
H  39.09000 2.32100 31.77800
H  37.66000 1.49000 25.49200
H  31.71700 3.04900 26.53600
H  35.57800 4.44700 34.02500
H  37.52900 2.28700 33.88500
H  38.51900 4.80400 32.94700
H  39.04200 3.66000 34.07100
H  37.76900 4.79400 34.60200
H  34.17800 1.97400 34.32700
H  34.21300 3.16700 35.51000
H  36.09300 0.84000 35.17300
H  34.94400 1.06400 36.37200
H  41.00600 0.17800 30.13200
H  40.76900 1.58200 31.09800
H  41.74800 1.71400 29.63600
H  41.79800 -0.10200 27.71300
H  42.21100 1.59600 27.18500
H  42.05200 0.24100 26.04400
H  35.40400 0.90700 24.50300
H  33.18200 2.81300 24.64000
H  36.74800 3.25200 24.14800
H  35.22600 3.82300 23.76500
H  35.99100 2.40900 22.91000
H  31.96000 1.06700 24.95300
H  33.10100 0.09900 26.07000
H  31.98900 -0.76500 23.74400
H  33.66700 -1.18600 24.15400
H  33.45400 0.15400 23.07100
H  29.28400 3.44500 28.44400
H  30.02200 4.94500 27.85700
H  29.21900 4.79000 29.51600
H  32.23400 3.27300 33.47300
H  31.12400 7.30100 34.61500
H  32.45500 7.10200 35.92300
H  30.86800 6.67500 36.22300

