158

Mg 1.11300 7.78600 26.54000
C  1.62900 9.70100 29.45100
C  0.83900 4.93300 28.53000
C  0.62600 5.94400 23.79900
C  1.51700 10.66000 24.56700
N  1.39500 7.40700 28.75500
C  1.44400 8.34100 29.77900
C  1.20300 7.65700 31.18200
C  1.40900 6.21200 30.83800
C  1.18800 6.14600 29.24600
C  2.78100 5.59200 31.28700
C  -0.25300 8.07300 31.65300
C  -0.35700 8.43700 33.14000
H  0.92600 8.31900 33.98400
N  0.76500 5.71200 26.25100
C  0.62800 4.67900 27.17700
C  0.02200 3.53600 26.49400
C  -0.15200 3.87200 25.11500
C  0.44500 5.20600 25.00700
C  -0.51100 2.32100 27.20900
C  -0.65500 2.99500 24.00900
O  -0.50200 3.29600 22.86500
C  -1.43900 1.78300 24.34900
N  1.40900 8.21000 24.42200
C  1.06800 7.25300 23.49900
C  1.16300 7.84600 22.10500
C  1.13700 9.32700 22.33500
C  1.36400 9.44600 23.88500
C  2.34300 7.38300 21.25500
C  -0.24100 10.05900 21.95000
C  -0.04100 11.10600 20.91900
N  1.49600 9.77500 26.84200
C  1.70600 10.81900 25.93400
C  2.02200 12.00100 26.69400
C  2.03000 11.61300 28.04100
C  1.67500 10.29100 28.11000
C  2.44100 13.25800 26.08600
C  2.26900 12.03700 29.38100
O  2.75500 13.08200 29.79100
C  1.89000 10.87300 30.32400
C  3.05600 10.71900 31.19200
O  4.05900 10.11000 30.87300
O  2.86200 11.40200 32.37100
C  4.08500 11.42800 33.16000
H  0.53600 4.05800 29.10900
H  0.35600 5.41600 22.88300
H  1.50700 11.58600 23.98900
H  1.97700 8.00100 31.86900
H  0.60600 5.60300 31.25400
H  2.58300 4.68200 31.85400
H  3.34400 6.39000 31.77200
H  3.39700 5.30300 30.43600
H  -0.96700 7.25000 31.64800
H  -0.71900 8.84400 31.03800
H  -1.10700 7.76100 33.55000
H  -0.74400 9.44200 33.30800
H  -0.21400 1.38100 26.74600
H  -1.59400 2.37100 27.09300
H  -0.07700 2.27200 28.20700
H  -1.83700 1.26000 23.48000
H  -2.20500 1.90000 25.11600
H  -0.58200 1.19600 24.67900
H  0.25800 7.46500 21.63100
H  2.04400 9.81700 21.98000
H  2.25900 6.29700 21.20400
H  3.26800 7.69800 21.73700
H  2.31200 7.79000 20.24400
H  -0.55100 10.52300 22.88600
H  -1.04100 9.42500 21.56700
H  0.95300 10.95400 20.49600
H  -0.00600 12.11600 21.32800
H  -0.73700 11.17400 20.08300
H  3.46000 13.24600 25.69800
H  2.32000 14.02100 26.85500
H  1.67900 13.41600 25.32400
H  1.02700 11.35100 30.78800
H  4.21700 10.43900 33.59800
H  3.96900 12.09500 34.01500
H  4.94500 11.73600 32.56300
Mg 36.19100 49.49100 25.60600
C  36.42600 47.53100 28.73100
C  35.05200 52.03700 27.42800
C  35.70700 50.99600 22.74800
C  36.85300 46.43900 23.94700
N  35.78500 49.66100 27.85300
C  36.04900 48.83600 28.93100
C  35.94900 49.58500 30.28400
C  35.33500 50.89300 29.78800
C  35.34300 50.92100 28.25200
C  33.86900 51.22700 30.22700
C  37.42100 49.76800 31.05500
C  37.56400 49.71900 32.59900
H  36.44500 49.95300 33.59100
N  35.47900 51.28100 25.09100
C  35.05800 52.22700 26.03300
C  34.78200 53.46300 25.32400
C  35.20500 53.26700 23.95900
C  35.50300 51.81800 23.87300
C  34.15800 54.58400 26.00000
C  35.26900 54.19400 22.69800
O  35.55600 53.71200 21.60400
C  35.04200 55.73200 22.81700
N  36.37500 48.79400 23.62600
C  35.97300 49.64000 22.58900
C  36.19600 48.91500 21.15200
C  36.80400 47.54100 21.61400
C  36.73500 47.59700 23.19800
C  34.87400 48.97800 20.25800
C  38.24200 47.20700 21.08100
C  38.34500 45.88100 20.24000
N  36.59200 47.40100 26.13100
C  36.81600 46.32500 25.38300
C  37.06800 45.12100 26.08000
C  36.97900 45.56300 27.45500
C  36.63200 46.94300 27.42600
C  37.47300 43.80400 25.60700
C  37.07100 45.20100 28.86700
O  37.38200 44.09000 29.40200
C  36.77900 46.44700 29.69700
C  35.75600 46.10100 30.70200
O  34.56000 46.08300 30.50900
O  36.36100 46.01800 31.91200
C  35.43300 46.05500 33.06600
H  34.93700 52.98100 27.96500
H  35.69200 51.42000 21.74200
H  37.05200 45.47500 23.47500
H  35.29100 49.06500 30.98100
H  35.88000 51.76500 30.15000
H  33.21600 51.48200 29.39200
H  33.94700 52.09800 30.87700
H  33.43100 50.41700 30.81100
H  37.87300 50.63200 30.56700
H  38.07900 49.03500 30.58900
H  38.42400 50.36900 32.76000
H  37.95100 48.73300 32.85800
H  33.67200 55.26400 25.30100
H  35.01000 55.05700 26.48700
H  33.49100 54.23800 26.79100
H  35.45700 55.99500 23.79000
H  33.96400 55.89100 22.85100
H  35.52900 56.19600 21.96000
H  36.99300 49.52000 20.72000
H  36.21300 46.75200 21.15000
H  34.44300 48.04300 19.89800
H  34.96500 49.53700 19.32700
H  34.16200 49.60900 20.79000
H  38.91500 47.16100 21.93700
H  38.55500 48.07700 20.50400
H  38.89000 46.13100 19.33000
H  37.39900 45.41300 19.96900
H  38.86700 45.18700 20.89900
H  36.60200 43.36500 25.12100
H  37.79600 43.24900 26.48800
H  38.27100 43.77300 24.86500
H  37.67600 46.75000 30.23800
H  35.05500 45.03500 33.12200
H  34.60700 46.74100 32.87800
H  35.88400 46.25100 34.03900

