158

Mg 17.17600 -0.62600 28.09400
C  15.90500 1.11300 30.76300
C  19.35600 -2.16900 30.29100
C  18.34200 -2.37900 25.43300
C  15.39100 1.41100 26.00700
N  17.66200 -0.41600 30.33800
C  16.83900 0.19900 31.21600
C  17.11600 -0.20300 32.66200
C  18.45500 -1.02900 32.49600
C  18.49700 -1.21900 30.93000
C  19.74100 -0.34800 33.07600
C  15.91000 -0.81300 33.35500
C  15.54800 -0.35300 34.77000
H  16.68800 0.00500 35.69100
N  18.65800 -1.99800 27.88300
C  19.39500 -2.62100 28.90200
C  20.06900 -3.73000 28.38900
C  19.94300 -3.75300 26.97800
C  18.97400 -2.69200 26.66300
C  20.94400 -4.63000 29.19400
C  20.51800 -4.60300 25.90700
O  20.31100 -4.42500 24.69300
C  21.46700 -5.74000 26.28500
N  17.07700 -0.35700 26.07400
C  17.48900 -1.32500 25.21600
C  17.10000 -0.89700 23.77500
C  15.96000 0.09700 24.02100
C  16.10600 0.41400 25.46500
C  18.31900 -0.41900 22.91400
C  14.49600 -0.34800 23.58200
C  14.15500 -0.05200 22.15800
N  15.90500 0.85600 28.24000
C  15.27800 1.71100 27.35700
C  14.52500 2.70900 27.97300
C  14.63900 2.45500 29.35600
C  15.57900 1.36200 29.41400
C  13.85500 3.86200 27.28100
C  14.21800 2.97700 30.62500
O  13.38500 3.74800 30.94500
C  14.95100 2.01700 31.59100
C  15.69600 2.94000 32.50100
O  16.80300 3.42400 32.24500
O  14.99300 3.22400 33.66000
C  15.68100 4.01800 34.60900
H  19.95700 -2.74700 30.99600
H  18.60400 -2.86800 24.49300
H  14.77600 2.01600 25.33700
H  17.19900 0.71200 33.24800
H  18.38100 -1.90100 33.14600
H  19.75200 -0.38400 34.16600
H  19.82200 0.67300 32.70300
H  20.51800 -1.01300 32.69800
H  16.13500 -1.88000 33.36800
H  15.14100 -0.66000 32.59800
H  15.06100 -1.13700 35.34900
H  14.81300 0.45100 34.71200
H  21.98700 -4.67900 28.88200
H  20.42500 -5.58400 29.10700
H  21.05900 -4.44400 30.26200
H  21.01900 -6.47600 26.95300
H  22.33500 -5.25600 26.73300
H  21.72900 -6.30500 25.39100
H  16.64200 -1.71400 23.21700
H  16.09500 1.02600 23.46700
H  19.25900 -0.43000 23.46400
H  18.23200 0.62300 22.60500
H  18.40800 -1.14700 22.10800
H  13.72300 0.00300 24.26600
H  14.41800 -1.43200 23.66500
H  13.08800 -0.10500 21.94000
H  14.66700 -0.81900 21.57900
H  14.49000 0.91500 21.78300
H  13.23200 4.36700 28.02000
H  13.14400 3.41800 26.58500
H  14.58000 4.37800 26.65200
H  14.21600 1.42800 32.14100
H  15.57300 5.04800 34.27100
H  16.73000 3.84300 34.84600
H  15.21000 4.06400 35.59100
Mg 25.97700 1.52000 28.75200
C  28.09000 1.33200 31.76800
C  23.30400 1.57800 30.89300
C  24.20400 2.06600 26.08400
C  28.84200 1.28400 26.97200
N  25.77200 1.55800 31.06700
C  26.71700 1.64700 32.08300
C  26.04000 1.73100 33.50300
C  24.49600 1.74700 33.12200
C  24.51100 1.60600 31.62000
C  23.60000 0.66900 33.81600
C  26.59100 3.00300 34.16100
C  27.38300 2.89500 35.53900
H  26.98700 3.80700 36.73100
N  24.05200 1.55400 28.51800
C  23.06100 1.57300 29.50300
C  21.86400 1.58100 28.89000
C  22.04700 1.74200 27.50700
C  23.50200 1.84300 27.30600
C  20.61200 1.45900 29.65200
C  21.02900 1.97800 26.44800
O  21.40900 2.29700 25.30500
C  19.59000 1.82100 26.79300
N  26.45000 1.54400 26.76500
C  25.54000 1.92800 25.81300
C  26.17600 1.83500 24.40900
C  27.72400 1.68900 24.78000
C  27.71100 1.42600 26.25900
C  25.54200 0.70600 23.51700
C  28.52600 2.98200 24.35800
C  30.01300 2.78700 24.02600
N  28.05800 1.18700 29.17000
C  29.05300 1.10600 28.30100
C  30.31000 0.74100 29.07200
C  29.95200 0.93000 30.42500
C  28.56700 1.16700 30.43100
C  31.65400 0.48900 28.43700
C  30.50000 0.88500 31.77600
O  31.56400 0.53100 32.22700
C  29.28500 1.23700 32.66600
C  29.13400 0.06100 33.59600
O  28.39000 -0.87800 33.36200
O  29.87300 0.23900 34.68800
C  29.68000 -0.72900 35.74000
H  22.41900 1.67300 31.52500
H  23.65500 2.46700 25.23000
H  29.76000 1.17800 26.39100
H  26.25700 0.87000 34.13500
H  24.11000 2.74500 33.32900
H  23.34100 -0.13400 33.12600
H  22.74800 1.27800 34.11600
H  24.17700 0.30700 34.66700
H  25.78000 3.69300 34.39900
H  27.17100 3.57100 33.43500
H  28.43800 3.11500 35.37500
H  27.19800 1.88800 35.91300
H  20.12600 2.43500 29.62500
H  20.61800 1.30700 30.73100
H  19.90100 0.76500 29.20400
H  18.96800 1.90000 25.90100
H  19.39400 2.58900 27.54100
H  19.59300 0.80600 27.18900
H  25.87600 2.78500 23.96600
H  28.04700 0.86500 24.14400
H  26.24300 -0.04700 23.15700
H  25.07800 1.17600 22.64900
H  24.85400 0.20100 24.19500
H  28.32000 3.81300 25.03300
H  28.09100 3.33500 23.42200
H  30.24000 2.94500 22.97100
H  30.26800 1.76600 24.30900
H  30.56200 3.51500 24.62300
H  31.92700 1.11500 27.58700
H  31.50300 -0.55500 28.16400
H  32.47200 0.49400 29.15700
H  29.33700 2.14200 33.27100
H  28.86600 -0.27500 36.30600
H  30.59400 -0.70800 36.33400
H  29.44400 -1.74800 35.43600

