158

Mg 41.35200 41.09600 27.23600
C  41.22300 43.72900 29.58900
C  41.98100 38.93300 29.83100
C  42.02800 38.61500 25.01500
C  40.75400 43.29000 24.70000
N  41.72200 41.33800 29.48700
C  41.48400 42.43300 30.20600
C  41.43700 42.08700 31.70200
C  41.82700 40.61500 31.70800
C  41.84400 40.24500 30.24300
C  43.15300 40.25000 32.52000
C  40.17600 42.57400 32.39600
C  39.63700 41.89300 33.63800
H  39.24100 42.75200 34.86900
N  41.81400 39.05500 27.41200
C  42.08800 38.38600 28.59300
C  42.49200 37.00700 28.18800
C  42.41700 36.82500 26.80100
C  42.01700 38.19600 26.34300
C  42.84000 36.01000 29.18000
C  42.53300 35.61800 25.94500
O  42.33500 35.72600 24.73500
C  42.68700 34.25600 26.56100
N  41.41400 40.97400 25.18600
C  41.67100 39.86200 24.47800
C  41.44700 40.13300 22.95400
C  40.72300 41.55500 22.90700
C  40.96500 41.97300 24.36400
C  42.73600 40.14400 22.02700
C  39.21400 41.57800 22.51300
C  38.22600 40.58800 23.13400
N  40.99100 43.02100 27.12800
C  40.82100 43.83900 25.98500
C  40.69600 45.23300 26.42100
C  40.82400 45.18400 27.84300
C  41.06000 43.83600 28.20500
C  40.51700 46.36200 25.43900
C  40.92100 45.98700 28.97400
O  40.85500 47.23800 29.06500
C  41.08000 45.04000 30.21600
C  42.24100 45.41200 31.03800
O  43.40000 45.14800 30.79100
O  41.83500 45.97800 32.23100
C  42.74900 45.96100 33.35500
H  42.14800 38.34500 30.73600
H  42.40900 37.99900 24.19800
H  40.46900 43.95200 23.87900
H  42.23500 42.69200 32.13000
H  40.96100 40.04500 32.04500
H  42.90800 39.43600 33.20100
H  43.63400 41.04000 33.09700
H  43.93600 39.82000 31.89500
H  39.49000 42.39200 31.56800
H  40.21500 43.63600 32.63800
H  40.46100 41.27100 33.98800
H  38.88700 41.26200 33.16100
H  42.19900 35.12900 29.19400
H  42.75500 36.45000 30.17400
H  43.83500 35.57900 29.06800
H  42.56300 33.46500 25.82200
H  41.91300 34.17600 27.32400
H  43.69400 34.41300 26.94800
H  40.66900 39.42900 22.65800
H  41.27000 42.22600 22.24400
H  42.34600 39.78800 21.07400
H  43.41000 39.45000 22.52900
H  43.15900 41.13500 21.85800
H  39.16200 41.50800 21.42700
H  38.85100 42.53400 22.89000
H  37.72400 40.20400 22.24500
H  37.62400 41.09900 23.88500
H  38.74200 39.73000 23.56500
H  40.16400 47.18400 26.06200
H  39.91000 46.12100 24.56600
H  41.51700 46.56300 25.05500
H  40.16500 45.05000 30.80900
H  42.50900 45.24400 34.13900
H  42.81200 46.99900 33.68200
H  43.74900 45.57000 33.16300
Mg -8.22400 40.25300 42.32700
C  -7.10100 36.78000 41.40300
C  -5.74900 41.46700 40.71500
C  -9.87600 43.06400 42.80800
C  -11.14200 38.59400 43.56300
N  -6.63300 39.18700 41.15800
C  -6.31200 37.85500 40.88300
C  -5.02200 37.80200 40.08300
C  -4.58800 39.31900 39.93400
C  -5.71500 40.04500 40.63300
C  -3.24700 39.62400 40.55200
C  -5.32000 37.05000 38.74100
C  -4.30000 35.88100 38.44500
H  -3.31700 35.99800 37.28900
N  -7.82500 42.05900 41.93100
C  -6.73500 42.35500 41.19800
C  -6.70500 43.79800 41.05800
C  -7.88900 44.30500 41.71700
C  -8.58600 43.09400 42.14500
C  -5.60600 44.58000 40.32700
C  -8.21300 45.84200 41.90800
O  -7.51600 46.70600 41.37800
C  -9.36000 46.36900 42.76400
N  -10.30100 40.76600 43.05400
C  -10.62200 42.03600 43.27500
C  -12.08900 42.13200 43.80800
C  -12.47400 40.67700 44.11400
C  -11.26600 39.94800 43.53900
C  -12.49200 43.15100 44.88400
C  -13.84200 40.14400 43.37800
C  -14.67400 39.05700 44.10700
N  -9.01200 38.11800 42.55400
C  -10.22400 37.68300 43.05600
C  -10.33900 36.25400 43.07300
C  -9.11500 35.86600 42.50700
C  -8.34900 37.04700 42.10000
C  -11.33900 35.34100 43.76300
C  -8.32500 34.66700 42.09100
O  -8.53900 33.48600 42.26900
C  -6.97800 35.20900 41.41700
C  -5.82000 34.71000 42.17100
O  -5.69800 34.72000 43.37500
O  -4.87800 34.33500 41.32500
C  -3.55100 33.92900 41.92100
H  -4.93300 42.08400 40.33200
H  -10.30300 44.06000 42.94400
H  -12.02200 38.04500 43.90400
H  -4.35000 37.21500 40.70900
H  -4.52200 39.57300 38.87600
H  -2.51300 40.12100 39.91800
H  -2.89400 38.61200 40.75200
H  -3.53300 40.27000 41.38200
H  -5.18200 37.72000 37.89300
H  -6.33400 36.65000 38.75900
H  -4.88400 35.07700 37.99800
H  -3.78300 35.59200 39.36000
H  -5.85200 45.64000 40.26500
H  -5.62400 44.16100 39.32000
H  -4.65700 44.37300 40.82100
H  -9.34700 47.45200 42.88900
H  -9.15600 45.95700 43.75200
H  -10.29300 45.96500 42.37100
H  -12.62600 42.56600 42.96400
H  -12.44000 40.41000 45.17000
H  -12.55500 42.63800 45.84400
H  -13.48200 43.53000 44.63200
H  -11.65900 43.84700 44.98800
H  -13.50200 39.55900 42.52400
H  -14.44600 41.00200 43.08400
H  -14.63800 39.30500 45.16700
H  -14.14600 38.11500 43.95700
H  -15.69100 38.94400 43.73300
H  -10.86100 34.38700 43.98500
H  -12.27100 35.14400 43.23200
H  -11.70300 35.85200 44.65400
H  -6.99900 34.76900 40.41900
H  -2.89100 34.77100 42.12900
H  -3.09200 33.28300 41.17300
H  -3.63800 33.38800 42.86300

