158

Mg 17.92700 -1.78600 27.70700
C  16.92000 0.28700 30.33300
C  19.98200 -3.55500 29.72400
C  18.94000 -3.55700 24.89200
C  16.26100 0.44800 25.60600
N  18.49500 -1.51800 29.74400
C  17.82900 -0.80700 30.70700
C  18.23000 -1.17300 32.14300
C  19.40600 -2.22900 31.88800
C  19.37900 -2.42300 30.35400
C  20.75900 -1.80700 32.32500
C  17.02700 -1.62500 32.97000
C  16.92500 -1.25200 34.46800
H  18.11000 -0.49100 35.02000
N  19.21400 -3.42600 27.37600
C  19.85000 -4.09200 28.43000
C  20.44300 -5.29000 27.86200
C  20.23500 -5.30300 26.43000
C  19.41200 -4.04700 26.18000
C  21.20700 -6.23300 28.68700
C  20.72600 -6.22700 25.28300
O  20.42800 -6.03400 24.09300
C  21.59300 -7.35100 25.58000
N  17.74500 -1.48100 25.52900
C  18.18200 -2.39000 24.61800
C  17.91600 -1.94600 23.12300
C  16.84300 -0.81100 23.43700
C  16.98200 -0.54900 24.93000
C  19.18400 -1.45000 22.41400
C  15.45700 -1.30100 23.15500
C  14.50300 -0.28300 22.47200
N  16.84600 -0.08500 27.92500
C  16.13300 0.65600 27.01700
C  15.40500 1.77600 27.63100
C  15.73000 1.65700 28.97900
C  16.55800 0.51300 29.06600
C  14.58900 2.82300 27.03000
C  15.60800 2.26100 30.30300
O  15.01500 3.29700 30.67400
C  16.32700 1.32200 31.28700
C  17.31800 2.03200 32.11500
O  18.54500 2.18900 31.89900
O  16.64500 2.67000 33.13400
C  17.29400 3.53600 34.19400
H  20.50100 -4.14200 30.48500
H  19.28600 -4.08200 23.99900
H  15.62700 1.11300 25.01500
H  18.71900 -0.35800 32.67800
H  19.13100 -3.21100 32.27200
H  20.76200 -0.81600 32.77900
H  21.41800 -1.71800 31.46200
H  21.19200 -2.46700 33.07700
H  16.95800 -2.71000 32.89100
H  16.08100 -1.36200 32.49600
H  16.74200 -2.16600 35.03200
H  15.98600 -0.72000 34.62400
H  22.25600 -6.30500 28.40000
H  20.72600 -7.20300 28.56100
H  21.20800 -5.98200 29.74800
H  22.04500 -7.77700 24.68500
H  20.87400 -8.05800 25.99400
H  22.27200 -7.27500 26.42900
H  17.47600 -2.75100 22.53300
H  17.10600 0.03000 22.79600
H  19.14700 -2.01100 21.48100
H  20.05900 -1.72000 23.00500
H  19.06500 -0.40600 22.12500
H  14.92000 -1.62100 24.04800
H  15.38400 -2.14300 22.46700
H  14.54300 -0.27600 21.38300
H  14.47800 0.75300 22.81100
H  13.49600 -0.66800 22.62600
H  14.38300 2.50400 26.00900
H  15.19600 3.72700 26.99500
H  13.75300 3.14800 27.65000
H  15.57500 0.79100 31.87000
H  17.13300 4.58400 33.94000
H  18.37700 3.41100 34.17400
H  16.98300 3.32100 35.21700
Mg 40.91200 41.56600 26.93500
C  40.19000 43.89700 29.44400
C  41.96000 39.28100 29.48200
C  42.09800 39.61500 24.57700
C  40.20300 43.92800 24.51700
N  40.95500 41.59100 29.12800
C  40.64300 42.67900 29.95300
C  40.70500 42.23600 31.39500
C  41.57700 40.92300 31.44500
C  41.43200 40.52300 29.91100
C  43.07900 41.14400 31.84200
C  39.25500 42.17400 31.98000
C  39.09800 43.09500 33.22300
H  38.05100 42.71600 34.35400
N  41.82300 39.66900 27.02800
C  42.10000 38.87600 28.12200
C  42.66500 37.62700 27.64900
C  42.67200 37.65500 26.23100
C  42.18000 39.02300 25.84700
C  43.06500 36.43800 28.57000
C  43.05400 36.65600 25.27400
O  42.99000 36.83000 24.04900
C  43.66100 35.25900 25.69800
N  40.86500 41.61300 24.89300
C  41.54200 40.79400 24.11100
C  41.74500 41.14300 22.69400
C  40.81700 42.43200 22.59400
C  40.63300 42.72400 24.05500
C  43.16000 41.23600 22.08400
C  39.52000 42.13200 21.78300
C  38.33400 41.19600 22.14900
N  40.35000 43.49400 26.87800
C  40.05200 44.34200 25.84200
C  39.59900 45.59800 26.33900
C  39.71100 45.46200 27.74300
C  40.13700 44.14500 28.04400
C  39.11700 46.82500 25.60700
C  39.52100 46.16700 28.95600
O  39.27200 47.33800 29.19700
C  39.78300 45.13300 30.14200
C  40.91600 45.67100 30.92300
O  42.14600 45.57500 30.74900
O  40.44100 46.48400 31.85600
C  41.46900 46.94200 32.78400
H  42.36800 38.76500 30.35400
H  42.59400 39.05800 23.78000
H  39.95100 44.62400 23.71400
H  41.33600 42.95500 31.91800
H  41.08900 40.21700 32.11700
H  43.26600 42.12900 32.26900
H  43.64300 41.12500 30.91000
H  43.48700 40.41800 32.54500
H  39.02600 41.14700 32.26500
H  38.52900 42.39900 31.19900
H  38.75800 44.07100 32.87700
H  39.96800 43.20400 33.87100
H  44.13800 36.46900 28.38100
H  42.51600 35.54900 28.26100
H  42.89600 36.67800 29.62000
H  43.92000 34.75700 24.76600
H  42.94000 34.69500 26.29100
H  44.56400 35.46100 26.27400
H  41.21500 40.35800 22.15500
H  41.29700 43.23900 22.03900
H  43.21300 40.96300 21.03000
H  43.80300 40.54800 22.63200
H  43.47500 42.27700 22.15500
H  39.88800 41.95600 20.77200
H  39.01800 43.08100 21.59900
H  38.62500 40.64100 23.04200
H  38.32400 40.43400 21.37000
H  37.41800 41.78000 22.23600
H  38.66700 46.55900 24.65000
H  39.93900 47.48700 25.33200
H  38.47100 47.50500 26.16200
H  38.86100 44.94800 30.69300
H  42.17100 46.15000 33.04400
H  41.03500 47.32900 33.70600
H  42.02700 47.73200 32.28200

