158

Mg 48.77100 35.20500 27.92100
C  46.77800 33.57000 30.33500
C  48.58400 38.01200 30.00400
C  50.14600 36.98300 25.46900
C  48.43600 32.38400 25.88100
N  47.90900 35.72100 30.01400
C  47.20800 34.82300 30.81900
C  47.15200 35.37800 32.20000
C  47.17000 36.88400 31.86000
C  47.93500 36.92700 30.59100
C  45.72800 37.60400 31.83100
C  48.43200 34.97900 33.08700
C  48.05400 34.80100 34.58600
H  47.21900 35.85600 35.26900
N  49.38000 37.19800 27.75400
C  49.29100 38.12500 28.80600
C  49.91700 39.35200 28.24900
C  50.33900 39.15500 26.89500
C  49.99600 37.71900 26.64000
C  50.07800 40.58800 29.12400
C  51.08100 40.08400 25.78600
O  51.56600 39.75600 24.72400
C  51.37100 41.52400 26.15600
N  49.15900 34.74200 25.96300
C  49.81000 35.65400 25.11100
C  49.94300 35.08300 23.75700
C  49.63000 33.58300 23.94000
C  49.08200 33.52800 25.35500
C  49.00800 35.89400 22.73000
C  50.92500 32.65600 23.86100
C  50.87300 31.75100 22.63600
N  47.76900 33.35300 28.01600
C  47.77200 32.34400 27.10700
C  47.00200 31.20000 27.71900
C  46.48600 31.68200 28.93000
C  47.08800 32.95900 29.12600
C  46.84700 29.81900 27.20700
C  45.79500 31.31700 30.12900
O  45.20700 30.28400 30.41700
C  45.78900 32.60600 30.97200
C  45.93700 32.20100 32.39000
O  46.99400 31.95500 32.92700
O  44.68800 32.19100 33.01800
C  44.74500 32.04200 34.49000
H  48.63100 38.90500 30.63100
H  50.51200 37.52800 24.59700
H  48.50800 31.49000 25.25800
H  46.31300 35.04300 32.80800
H  47.84700 37.40000 32.54000
H  44.87500 36.95500 32.03300
H  45.51600 37.95700 30.82100
H  45.67000 38.55400 32.36200
H  49.27300 35.67000 33.13400
H  48.78000 34.02000 32.70300
H  49.01700 34.65800 35.07800
H  47.44800 33.91200 34.75800
H  49.22200 41.26200 29.08400
H  50.95100 41.20700 28.91900
H  50.10500 40.34500 30.18700
H  52.07900 41.73700 26.95800
H  50.34300 41.83000 26.34800
H  51.78100 42.03500 25.28500
H  50.96200 35.22900 23.40100
H  48.82800 33.31600 23.25100
H  48.45200 36.50900 23.43700
H  48.21700 35.27300 22.31100
H  49.51400 36.49400 21.97400
H  50.96900 31.95200 24.69200
H  51.88400 33.17100 23.82400
H  51.13900 30.72300 22.88300
H  51.70400 32.01500 21.98100
H  49.97400 31.77700 22.02000
H  47.68400 29.48900 26.59100
H  45.95300 29.80000 26.58400
H  46.69700 29.18200 28.07800
H  44.79600 33.03300 30.83100
H  43.75200 32.01000 34.93700
H  45.22800 32.94400 34.86700
H  45.39400 31.21900 34.79300
Mg 16.80900 52.10900 26.95200
C  18.87600 50.68600 29.35300
C  14.58800 52.99600 29.34500
C  14.83000 53.16900 24.54200
C  18.98000 50.79200 24.53800
N  16.81300 51.87100 29.15400
C  17.76300 51.22700 29.95300
C  17.44600 51.48200 31.42700
C  15.90700 51.89500 31.30900
C  15.74400 52.37400 29.87700
C  14.96400 50.79400 31.71100
C  18.39500 52.55600 32.10800
C  18.95200 52.16800 33.48000
H  18.10200 51.40400 34.39000
N  15.04100 53.10600 26.98500
C  14.28300 53.37200 28.02900
C  13.11600 54.12300 27.59800
C  13.10600 54.10800 26.21800
C  14.35800 53.44300 25.83600
C  12.10100 54.78400 28.62800
C  12.12300 54.72400 25.16500
O  12.35600 54.76400 23.95500
C  10.96200 55.41000 25.75500
N  16.96400 52.01800 24.76700
C  16.00400 52.56000 24.01300
C  16.35000 52.46700 22.54200
C  17.73200 51.67000 22.55100
C  17.92200 51.42400 24.04200
C  15.21600 51.76000 21.71100
C  18.94900 52.49700 21.93000
C  19.64600 53.47300 22.85000
N  18.60000 50.94400 26.89400
C  19.37800 50.47400 25.81200
C  20.44400 49.68600 26.32300
C  20.30300 49.76900 27.72100
C  19.16000 50.52100 28.00500
C  21.55600 48.98400 25.60700
C  20.95400 49.36800 28.93200
O  22.00500 48.80400 29.12400
C  19.97800 49.86300 30.05200
C  19.32800 48.75900 30.72800
O  18.44500 48.01000 30.35700
O  19.95400 48.57600 31.98800
C  19.39500 47.48900 32.86600
H  13.92300 53.28500 30.16100
H  14.23700 53.49400 23.68400
H  19.52400 50.33300 23.71000
H  17.54100 50.48500 31.85800
H  15.76300 52.68500 32.04600
H  14.57600 50.32400 30.80700
H  14.07000 51.21300 32.17200
H  15.35800 50.16100 32.50600
H  17.83200 53.48900 32.10800
H  19.29900 52.81900 31.55800
H  19.31700 52.98500 34.10300
H  19.92500 51.70100 33.32700
H  12.42200 54.67200 29.66400
H  11.22800 54.13400 28.67300
H  11.85100 55.83700 28.49600
H  10.28200 55.71600 24.96000
H  11.31400 56.33000 26.22100
H  10.34100 54.77000 26.38200
H  16.67400 53.46900 22.26000
H  17.60700 50.86400 21.82700
H  14.32000 51.47000 22.26000
H  15.52800 50.92000 21.09000
H  14.86300 52.48100 20.97500
H  18.48100 53.03100 21.10200
H  19.85200 52.01200 21.55900
H  20.70800 53.24300 22.93000
H  19.22000 53.53500 23.85100
H  19.41000 54.44200 22.41000
H  21.84800 49.73300 24.87200
H  21.15800 48.18600 24.98000
H  22.32000 48.61500 26.29100
H  20.55000 50.38200 30.82100
H  18.42800 47.11800 32.52600
H  19.24700 47.76200 33.91100
H  19.98300 46.57100 32.89600

