158

Mg 54.29800 24.31100 44.68800
C  51.58600 26.31500 43.75100
C  52.34000 21.61100 43.61900
C  56.97600 22.39200 44.96900
C  56.03900 27.17700 45.53300
N  52.34100 24.03400 43.57100
C  51.41700 25.00000 43.29300
C  50.18500 24.43000 42.51000
C  50.21400 23.04400 43.24400
C  51.73900 22.86300 43.48600
C  49.28300 22.90100 44.51700
C  50.54900 24.36400 40.97000
C  49.42800 24.34600 39.94600
H  49.74000 24.94100 38.52400
N  54.60600 22.33000 44.26100
C  53.71400 21.38500 43.87300
C  54.36800 20.15900 43.90500
C  55.69100 20.22700 44.43900
C  55.84100 21.67000 44.54900
C  53.80400 18.92800 43.39700
C  56.80300 19.08700 44.64900
O  56.59200 17.97800 44.18200
C  57.95000 19.40900 45.44800
N  56.28100 24.77900 45.02400
C  57.17900 23.81200 45.28000
C  58.50600 24.37100 45.81700
C  58.09300 25.88700 46.13300
C  56.68900 25.97600 45.50500
C  59.05000 23.60000 46.95600
C  59.20600 26.95000 45.75800
C  59.02100 27.71300 44.43900
N  53.88500 26.30100 44.79500
C  54.67400 27.36500 45.21100
C  53.93400 28.61400 45.15000
C  52.71100 28.20800 44.62400
C  52.72200 26.82700 44.39100
C  54.34800 30.01500 45.54500
C  51.40000 28.73200 44.02800
O  50.94700 29.85200 43.88400
C  50.58600 27.45700 43.62700
C  50.05200 27.68700 42.24600
O  50.62700 27.66900 41.23100
O  48.71900 27.89100 42.43000
C  47.98700 28.00600 41.18200
H  51.62500 20.79600 43.48600
H  57.90300 21.92200 45.30200
H  56.64700 28.01300 45.88500
H  49.28700 24.99900 42.75200
H  49.89200 22.38500 42.43700
H  48.50200 22.15400 44.37900
H  48.76800 23.85900 44.59300
H  49.65800 22.71000 45.52200
H  51.08400 23.42800 40.81100
H  51.31200 25.07900 40.66200
H  48.70800 25.06100 40.34500
H  48.96900 23.35700 39.93400
H  54.42400 18.37800 42.68900
H  52.88400 18.99500 42.81500
H  53.50200 18.29100 44.22900
H  57.71700 19.98600 46.34300
H  58.74100 19.88000 44.86400
H  58.47300 18.49100 45.71500
H  59.26300 24.42500 45.03400
H  57.99800 26.01500 47.21200
H  58.38700 22.79000 47.25900
H  59.42300 24.26600 47.73300
H  59.90500 23.04500 46.57000
H  60.21100 26.52700 45.78100
H  59.15500 27.65900 46.58300
H  58.04500 27.46900 44.01900
H  59.83100 27.61600 43.71700
H  58.92900 28.79400 44.54300
H  54.92500 30.43700 44.72300
H  55.04100 29.92900 46.38200
H  53.43000 30.53300 45.82300
H  49.76300 27.27300 44.31800
H  48.59700 28.65500 40.55500
H  47.01000 28.46100 41.34400
H  47.87300 27.06100 40.65100
Mg 46.37800 24.48600 28.44300
C  46.72300 26.86500 31.15900
C  46.04200 22.11000 30.98600
C  46.24100 22.32400 26.04300
C  47.57500 26.92700 26.24800
N  46.16900 24.49200 30.80800
C  46.51100 25.57100 31.66400
C  46.46900 25.10500 33.16100
C  46.18400 23.54800 32.99200
C  46.22900 23.36600 31.47400
C  47.19000 22.66400 33.90100
C  45.45500 25.86600 34.02900
C  45.01000 25.19900 35.37500
H  45.80700 25.62900 36.59900
N  46.08600 22.51500 28.47300
C  45.93700 21.73300 29.61100
C  45.74100 20.33900 29.15600
C  45.70900 20.40100 27.69800
C  45.97400 21.80000 27.35800
C  45.66200 19.16100 30.10900
C  45.43100 19.25100 26.76100
O  45.58300 19.34900 25.58400
C  44.99800 18.01400 27.30900
N  46.79000 24.70100 26.39200
C  46.64100 23.61100 25.58800
C  47.03700 23.91000 24.21500
C  47.54000 25.42300 24.24600
C  47.32900 25.72700 25.70400
C  48.04500 22.89900 23.55400
C  46.84100 26.43600 23.30300
C  45.34300 26.79800 23.64100
N  46.93900 26.43000 28.55800
C  47.38500 27.26300 27.61900
C  47.58400 28.58400 28.13100
C  47.34900 28.43100 29.53500
C  46.95700 27.11000 29.75600
C  48.01400 29.84500 27.33000
C  47.41400 29.16100 30.79000
O  47.66500 30.32900 31.06300
C  46.92900 28.20700 31.93000
C  48.06400 27.95200 32.85400
O  49.01300 27.23900 32.59900
O  47.87000 28.70500 33.99900
C  48.92600 28.61700 35.03500
H  46.07700 21.32100 31.74100
H  46.18000 21.55500 25.27100
H  48.06800 27.62300 25.56600
H  47.42000 25.30100 33.65800
H  45.18100 23.35000 33.37000
H  47.95100 23.20200 34.46500
H  47.77300 21.92500 33.35100
H  46.52300 22.17100 34.60900
H  44.61900 26.22100 33.42700
H  45.95100 26.75800 34.40900
H  45.31000 24.15300 35.32400
H  43.94700 25.31600 35.58700
H  45.87800 18.24500 29.56000
H  44.65700 19.10200 30.52700
H  46.41200 19.36700 30.87300
H  45.88800 17.51700 27.69700
H  44.65800 17.42600 26.45700
H  44.20500 18.20400 28.03300
H  46.12500 23.90500 23.61900
H  48.60700 25.56500 24.07800
H  48.72600 23.27600 22.79100
H  47.55000 22.09700 23.00700
H  48.73400 22.46600 24.27800
H  46.82200 26.06200 22.28000
H  47.43000 27.34600 23.42200
H  45.30400 27.87300 23.81400
H  45.02000 26.14300 24.45000
H  44.66600 26.61200 22.80800
H  47.57200 30.68600 27.86300
H  47.54700 29.76300 26.34800
H  49.10200 29.87200 27.28700
H  46.08300 28.60400 32.49100
H  48.59800 29.36700 35.75400
H  49.89300 28.82600 34.57700
H  49.12100 27.61600 35.42100

