158

Mg 8.67500 3.46400 27.79800
C  9.86000 1.85100 30.71700
C  6.74700 5.49200 29.89600
C  7.33300 4.88900 25.09000
C  10.02500 0.90700 25.86300
N  8.14800 3.46000 30.08400
C  8.99900 2.92400 31.00300
C  8.59700 3.41900 32.43700
C  7.34800 4.31800 32.14600
C  7.46800 4.47000 30.63800
C  5.91500 3.73700 32.51200
C  9.83200 4.00500 33.16700
C  10.15300 3.46700 34.53700
H  10.71400 4.23700 35.64500
N  7.31700 5.07500 27.53500
C  6.70000 5.81500 28.52800
C  5.89400 6.86300 27.90900
C  6.11100 6.65500 26.49300
C  6.98000 5.54300 26.32600
C  4.97500 7.94300 28.62600
C  5.30000 7.24100 25.32300
O  5.37000 6.82100 24.18800
C  4.29100 8.39300 25.56100
N  8.52800 2.90800 25.80700
C  7.95600 3.70800 24.82400
C  8.30400 3.27800 23.41300
C  9.32800 2.12700 23.67200
C  9.30400 1.97300 25.22800
C  7.07600 2.81800 22.65300
C  10.72500 2.31000 23.12000
C  11.85100 2.85200 24.10800
N  9.71100 1.62500 28.14200
C  10.24000 0.69000 27.26900
C  11.13500 -0.18000 28.04400
C  11.06600 0.27700 29.35800
C  10.12600 1.29200 29.37000
C  11.83500 -1.32100 27.36900
C  11.56700 0.07200 30.70100
O  12.41000 -0.72100 31.13700
C  10.76700 1.05300 31.65300
C  10.02500 0.22500 32.66500
O  8.91500 -0.23100 32.49100
O  10.70700 0.11200 33.80200
C  9.98300 -0.42300 34.97600
H  6.21900 6.14000 30.59900
H  7.12200 5.39000 24.14300
H  10.62900 0.32000 25.16800
H  8.20700 2.62000 33.06700
H  7.34600 5.20900 32.77400
H  5.92200 2.66900 32.73100
H  5.13200 3.83800 31.76100
H  5.59500 4.28600 33.39800
H  9.70400 5.08300 33.25900
H  10.73100 4.09800 32.55600
H  10.92100 2.72600 34.31500
H  9.27100 3.00400 34.98100
H  5.08600 8.89000 28.09700
H  5.28000 8.00400 29.67100
H  3.95200 7.61800 28.43900
H  3.51200 8.07600 26.25400
H  3.77400 8.52400 24.61000
H  4.82700 9.30900 25.81100
H  8.88900 4.00800 22.85300
H  9.02700 1.18500 23.21300
H  6.25700 2.65000 23.35200
H  7.17100 1.87800 22.11000
H  6.88100 3.56700 21.88500
H  10.79600 3.03700 22.31100
H  11.11900 1.40500 22.65600
H  11.68300 2.75000 25.18000
H  11.89600 3.91100 23.85300
H  12.79300 2.38300 23.82400
H  11.32300 -1.53400 26.43100
H  11.76500 -2.21200 27.99400
H  12.87300 -1.04800 27.18200
H  11.44000 1.75900 32.13900
H  10.73600 -0.86400 35.62900
H  9.25300 -1.21000 34.78100
H  9.46400 0.37700 35.50500
Mg 46.50200 16.16400 27.69100
C  44.62000 15.44700 30.62100
C  48.80500 17.87200 29.72100
C  47.73900 17.55200 24.99300
C  43.93000 14.74100 25.82700
N  46.59500 16.72600 29.95400
C  45.75600 16.33000 30.93500
C  46.26000 16.79400 32.33200
C  47.53600 17.67600 31.93800
C  47.69800 17.38600 30.44400
C  47.43700 19.21000 32.33200
C  46.63500 15.53900 33.22400
C  46.20700 15.62000 34.74300
H  45.73600 17.02600 35.24300
N  48.03900 17.51100 27.39300
C  48.89800 17.92500 28.34700
C  50.01100 18.66100 27.62000
C  49.67700 18.67500 26.23400
C  48.49000 17.84300 26.15200
C  51.25700 19.21800 28.38100
C  50.47100 19.24300 25.07400
O  50.11300 19.14800 23.89200
C  51.85600 19.73500 25.45100
N  45.99400 15.98400 25.61100
C  46.68700 16.72100 24.71700
C  46.01900 16.59100 23.31500
C  44.93600 15.43500 23.62200
C  44.94700 15.32400 25.07100
C  45.45100 17.94800 22.76100
C  45.31600 14.06200 22.96900
C  46.38800 13.08400 23.52800
N  44.76400 15.09300 28.09000
C  43.80100 14.63200 27.21300
C  42.66900 14.16800 27.98000
C  42.96700 14.41800 29.34000
C  44.20400 15.03200 29.36300
C  41.44800 13.47100 27.45500
C  42.49200 14.22600 30.70100
O  41.48000 13.67600 31.12600
C  43.56800 14.94800 31.64900
C  42.88200 16.04600 32.36300
O  42.42000 17.06800 31.85700
O  42.58400 15.63200 33.60700
C  41.52200 16.37700 34.25000
H  49.64700 18.16800 30.35000
H  48.14000 17.89300 24.03600
H  43.02300 14.43100 25.30300
H  45.39000 17.27400 32.77900
H  48.45200 17.42100 32.47000
H  48.34400 19.59000 32.80200
H  46.52800 19.36900 32.91300
H  47.28400 19.75200 31.39900
H  47.70100 15.35200 33.35400
H  46.10700 14.66200 32.85000
H  47.04800 15.33100 35.37500
H  45.43800 14.85700 34.86200
H  51.36200 20.26200 28.08600
H  52.16300 18.74600 28.00100
H  51.13600 19.06400 29.45300
H  51.93500 20.63500 26.06100
H  52.38500 20.06900 24.55900
H  52.48700 18.92400 25.81300
H  46.75400 16.18600 22.61900
H  43.98000 15.76400 23.21400
H  44.91700 17.79800 21.82200
H  46.13600 18.79500 22.79600
H  44.64300 18.02500 23.48900
H  45.57700 14.20000 21.91900
H  44.39800 13.47400 22.95100
H  46.94900 12.66400 22.69400
H  45.87000 12.29100 24.06800
H  47.02800 13.62100 24.22800
H  41.64600 12.45500 27.11400
H  41.13500 14.03400 26.57500
H  40.53900 13.50400 28.05400
H  44.04000 14.29100 32.37900
H  40.84600 15.66300 34.72100
H  40.84100 16.96700 33.63600
H  41.89400 16.98300 35.07500

