158

Mg 8.01800 3.44500 28.46500
C  9.75300 2.21900 31.30100
C  6.31800 5.68400 30.64900
C  6.27500 4.70200 25.84900
C  9.38300 0.92300 26.53800
N  7.93600 3.82500 30.60900
C  8.81000 3.27400 31.53600
C  8.53800 3.80200 32.97800
C  7.38100 4.72600 32.75400
C  7.19500 4.78700 31.17600
C  6.15200 4.50100 33.60300
C  9.89700 4.54600 33.40900
C  9.90300 5.54000 34.58600
H  10.52700 5.09300 35.86500
N  6.64200 5.12400 28.24000
C  6.03200 5.82600 29.26000
C  5.08900 6.78100 28.62900
C  5.19200 6.58500 27.20900
C  6.13300 5.43500 27.02800
C  4.27100 7.71100 29.40000
C  4.38100 7.25800 26.15600
O  4.46900 7.02400 24.97000
C  3.43200 8.38800 26.50300
N  7.74000 2.79700 26.53900
C  7.04000 3.57000 25.61800
C  7.17700 3.02500 24.18400
C  8.21700 1.87100 24.44200
C  8.44400 1.79600 25.91900
C  5.82900 2.44500 23.44500
C  9.58900 1.94900 23.66800
C  10.72500 2.80100 24.39600
N  9.37500 1.88400 28.77500
C  9.81100 0.95900 27.91000
C  10.78200 0.08700 28.51300
C  10.79100 0.53700 29.88000
C  9.89400 1.64700 30.00900
C  11.60300 -0.92500 27.75100
C  11.32300 0.32300 31.21100
O  12.09200 -0.56200 31.47200
C  10.69100 1.35400 32.13100
C  9.95600 0.76700 33.31400
O  8.78700 0.35700 33.33600
O  10.88100 0.62200 34.39900
C  10.40500 -0.33200 35.38000
H  5.83300 6.39200 31.32400
H  5.87100 5.12000 24.92400
H  9.86900 0.17300 25.91100
H  8.28600 2.98100 33.64800
H  7.66200 5.77400 32.85800
H  5.39800 4.14300 32.90200
H  5.65600 5.40400 33.96100
H  6.24300 3.70100 34.33800
H  10.42200 4.99000 32.56300
H  10.62800 3.76100 33.59900
H  8.89600 5.82000 34.89300
H  10.41300 6.45300 34.27700
H  4.36700 8.65700 28.86700
H  4.82900 7.83800 30.32800
H  3.23000 7.48900 29.63300
H  2.87400 8.05400 27.37800
H  2.79500 8.59900 25.64400
H  3.89300 9.34500 26.74900
H  7.50300 3.88000 23.59200
H  7.81300 0.95000 24.02100
H  4.91600 2.96900 23.72800
H  5.73300 1.39000 23.70100
H  6.01200 2.42900 22.37100
H  9.41800 2.20800 22.62300
H  9.93600 0.92700 23.51500
H  10.36600 3.45200 25.19200
H  11.30200 3.42600 23.71500
H  11.54000 2.18300 24.77400
H  11.98000 -0.67200 26.76000
H  11.08200 -1.86500 27.56900
H  12.45700 -1.12800 28.39800
H  11.46000 2.03300 32.50100
H  10.47200 0.15900 36.35100
H  11.01500 -1.23500 35.37000
H  9.34400 -0.56700 35.29300
Mg 36.09700 49.32400 25.07900
C  36.06400 47.48900 27.98100
C  34.84800 52.03800 26.58400
C  35.77900 50.83700 22.00100
C  36.90700 46.32200 23.35700
N  35.62800 49.70400 27.15800
C  35.71800 48.85200 28.18600
C  35.20600 49.59800 29.43700
C  34.66800 51.02500 28.91000
C  35.06300 50.93400 27.44800
C  33.14700 51.28000 29.21500
C  36.23100 49.65800 30.56400
C  35.61400 49.63900 32.01000
H  34.15100 49.92700 32.36500
N  35.50700 51.22000 24.40300
C  35.06000 52.22000 25.19700
C  34.80400 53.45300 24.41400
C  35.18200 53.09100 23.09600
C  35.51200 51.65500 23.07700
C  34.29600 54.64600 25.11600
C  35.22000 53.99200 21.86100
O  35.58200 53.53900 20.77000
C  34.97000 55.47300 21.97000
N  36.26100 48.63200 22.95700
C  35.98800 49.42400 21.92800
C  36.20100 48.77800 20.62700
C  36.73600 47.38700 21.03900
C  36.67000 47.47300 22.52200
C  34.96500 48.77700 19.65900
C  38.15100 47.03400 20.42500
C  39.39800 47.88600 20.92200
N  36.52000 47.29100 25.54600
C  36.77500 46.24300 24.72500
C  36.89400 45.06500 25.56100
C  36.63900 45.51200 26.84200
C  36.43600 46.86100 26.79300
C  37.33700 43.76400 25.05200
C  36.58700 45.10000 28.20800
O  36.71100 43.98900 28.73400
C  36.21200 46.38100 29.03100
C  34.96200 46.12900 29.88600
O  33.82900 45.94500 29.46900
O  35.26600 46.21200 31.22300
C  34.20900 45.92100 32.19000
H  34.67300 52.93000 27.18900
H  35.81700 51.31700 21.02100
H  37.10100 45.41600 22.77900
H  34.40900 49.01600 29.89900
H  35.26000 51.84200 29.32300
H  32.56500 51.08800 28.31400
H  32.97700 52.32200 29.48400
H  32.79000 50.62700 30.01200
H  36.77300 50.59500 30.43300
H  37.02700 48.92000 30.47100
H  36.23900 50.33700 32.56700
H  35.89000 48.64100 32.35100
H  33.77100 55.42700 24.56500
H  35.16400 55.03300 25.65000
H  33.74500 54.37300 26.01700
H  33.88700 55.58000 21.90800
H  35.58800 55.84200 21.15200
H  35.48200 55.76200 22.88800
H  36.99700 49.22400 20.03000
H  36.12700 46.54200 20.71800
H  34.03400 48.47200 20.13600
H  35.17300 48.25500 18.72500
H  34.81700 49.80000 19.31300
H  38.06700 47.23700 19.35700
H  38.38900 45.97800 20.55400
H  39.81300 48.41200 20.06200
H  40.20800 47.21200 21.19900
H  39.16000 48.61000 21.70000
H  38.23000 43.93600 24.45000
H  36.58800 43.21500 24.48200
H  37.51500 43.12500 25.91600
H  37.09300 46.57000 29.64400
H  34.64600 46.07600 33.17600
H  34.03600 44.85800 32.02000
H  33.25100 46.44100 32.15300

