158

Mg -2.14300 17.19200 27.55400
C  -2.22900 15.15000 30.26500
C  -2.60500 19.94800 29.52400
C  -2.41200 19.21800 24.71000
C  -2.12100 14.42900 25.41400
N  -2.40500 17.47400 29.63300
C  -2.29300 16.50300 30.60200
C  -2.36300 17.21000 32.00200
C  -2.72500 18.68900 31.73100
C  -2.57700 18.71000 30.22100
C  -3.86900 19.26400 32.46800
C  -0.91400 17.09100 32.78500
C  -0.58200 18.03000 34.02000
H  0.32400 17.52000 35.11300
N  -2.29700 19.33500 27.19700
C  -2.48100 20.26400 28.13500
C  -2.40400 21.60000 27.53200
C  -2.32800 21.38300 26.12300
C  -2.35600 19.95100 25.94500
C  -2.40200 22.88600 28.28600
C  -2.21800 22.49100 25.00000
O  -2.34200 22.20800 23.81300
C  -2.14900 23.99300 25.40600
N  -2.38400 16.82200 25.49900
C  -2.51700 17.79300 24.51200
C  -2.58800 17.20500 23.03400
C  -1.95400 15.81000 23.30900
C  -2.12300 15.66800 24.84800
C  -3.92800 17.23200 22.24800
C  -0.49500 15.76700 22.81100
C  0.59500 16.67200 23.33600
N  -2.14900 15.18500 27.74000
C  -2.17600 14.15700 26.81800
C  -2.35100 12.88100 27.47700
C  -2.32100 13.19000 28.85900
C  -2.19300 14.57500 28.92500
C  -2.40500 11.51000 26.79700
C  -2.31600 12.69400 30.19800
O  -2.39000 11.53500 30.56900
C  -2.23700 13.89600 31.11000
C  -1.13200 13.79600 32.09700
O  0.06700 14.04500 31.94300
O  -1.57500 13.32600 33.28000
C  -0.67200 13.27600 34.45400
H  -2.58900 20.86300 30.12000
H  -2.41600 19.83300 23.80700
H  -2.21500 13.57100 24.74400
H  -3.19700 16.84800 32.60200
H  -1.94200 19.39600 32.00300
H  -3.55800 20.09800 33.09800
H  -4.23100 18.50500 33.16100
H  -4.59000 19.61700 31.73100
H  -0.18500 17.32700 32.01000
H  -0.69100 16.07900 33.12300
H  -1.51100 18.33300 34.50300
H  -0.06900 18.93100 33.68100
H  -2.42600 22.74200 29.36600
H  -3.33800 23.32900 27.94600
H  -1.53100 23.50600 28.07200
H  -2.25000 24.57800 24.49200
H  -1.20100 24.17800 25.91000
H  -3.03900 24.31600 25.94600
H  -1.83700 17.72900 22.44400
H  -2.49000 15.00400 22.80900
H  -4.64900 17.91600 22.69600
H  -4.34200 16.22700 22.16000
H  -3.76000 17.73100 21.29400
H  -0.67300 15.93700 21.74900
H  -0.21800 14.74300 23.06000
H  1.19800 16.10200 24.04200
H  0.18400 17.56000 23.81500
H  1.26900 17.09800 22.59300
H  -1.54400 11.44200 26.13300
H  -3.33700 11.45500 26.23400
H  -2.52800 10.84100 27.64900
H  -3.11000 13.94600 31.76100
H  -0.42700 14.26100 34.85100
H  0.24900 12.83400 34.07400
H  -1.11100 12.65900 35.23800
Mg 29.31800 58.73300 40.73700
C  26.12800 57.51800 39.74700
C  30.77700 56.00600 39.28900
C  32.30300 60.42300 40.78700
C  27.57700 61.83500 41.32500
N  28.53000 56.96900 39.70100
C  27.19900 56.68500 39.41900
C  27.14600 55.48700 38.38100
C  28.53900 54.82600 38.58900
C  29.39000 56.03400 39.12500
C  28.64400 53.60400 39.51500
C  26.78600 55.91700 36.89600
C  25.49800 55.27100 36.28200
H  25.66200 54.63300 34.84800
N  31.30600 58.20900 40.18600
C  31.74900 56.97200 39.71400
C  33.16700 56.94700 39.69200
C  33.63900 58.27800 40.08800
C  32.42200 59.03700 40.50000
C  33.85500 55.70600 39.24700
C  35.08500 58.64800 40.14500
O  35.87600 57.80900 39.86500
C  35.64900 59.99800 40.77200
N  29.83500 60.77500 40.95500
C  31.13800 61.19900 41.08800
C  31.21100 62.73000 41.38200
C  29.72600 63.01700 41.74700
C  28.96500 61.78200 41.29100
C  32.33200 63.16400 42.40500
C  29.21800 64.38000 41.11100
C  28.33500 65.31700 42.00100
N  27.28700 59.47600 40.91500
C  26.70700 60.76500 41.16100
C  25.25200 60.62200 41.27400
C  24.99000 59.35700 40.76100
C  26.27700 58.77200 40.44800
C  24.25600 61.72000 41.62400
C  23.90100 58.39300 40.49900
O  22.69700 58.54600 40.67700
C  24.59200 57.35100 39.66000
C  24.18200 56.11500 40.29900
O  24.41100 55.81900 41.47900
O  23.63000 55.26300 39.35800
C  23.10700 54.06100 39.96000
H  31.25400 55.05100 39.05800
H  33.25100 60.96300 40.75500
H  27.12600 62.79400 41.58700
H  26.39700 54.81300 38.79700
H  29.02100 54.46400 37.68100
H  29.41900 53.83000 40.24700
H  28.85200 52.68400 38.96800
H  27.67600 53.43600 39.98600
H  27.70800 55.78900 36.32800
H  26.58100 56.98600 36.83300
H  24.66800 55.97200 36.19200
H  25.09400 54.49800 36.93500
H  34.76800 56.05600 38.76500
H  33.21200 55.08800 38.62100
H  34.28600 55.06000 40.01300
H  35.38800 60.76600 40.04400
H  36.72700 59.94800 40.92700
H  35.08200 60.10600 41.69700
H  31.56400 63.27100 40.50400
H  29.56100 63.00100 42.82400
H  32.91100 63.90200 41.85000
H  32.84100 62.27200 42.76900
H  31.93000 63.75900 43.22600
H  28.48800 64.17700 40.32900
H  30.14400 64.92300 40.91900
H  28.04300 64.85500 42.94400
H  27.51200 65.59500 41.34300
H  28.98700 66.16200 42.22100
H  23.98400 62.17100 40.66900
H  24.74900 62.38500 42.33300
H  23.31300 61.33400 42.01000
H  24.25900 57.50200 38.63300
H  22.45300 54.24400 40.81300
H  23.88800 53.34500 40.21400
H  22.44100 53.65800 39.19700

