158

Mg 24.38700 -5.53900 45.77900
C  26.55500 -3.57200 43.87400
C  21.92600 -4.93700 43.40200
C  22.65900 -8.15100 46.92300
C  27.23800 -6.75100 47.52700
N  24.27800 -4.46200 43.80900
C  25.28400 -3.64100 43.31500
C  24.86600 -2.95300 42.06400
C  23.32600 -3.20800 41.96400
C  23.14100 -4.26200 43.10900
C  22.49300 -1.89400 41.91900
C  25.72200 -3.33600 40.77600
C  26.46100 -2.12000 40.24000
H  26.17300 -1.69500 38.85200
N  22.51500 -6.32700 45.33600
C  21.63400 -5.88900 44.36200
C  20.39500 -6.59400 44.42600
C  20.57200 -7.56900 45.50400
C  21.98400 -7.39200 45.97700
C  19.13200 -6.31300 43.63200
C  19.46300 -8.47000 45.97100
O  18.35000 -8.52300 45.47600
C  19.67600 -9.18400 47.31300
N  24.87200 -7.31000 46.91000
C  23.95300 -8.14400 47.36000
C  24.48200 -9.15400 48.35800
C  25.92100 -8.69200 48.63400
C  26.01100 -7.42400 47.63500
C  23.56400 -9.36600 49.57600
C  27.09400 -9.71000 48.23800
C  28.16100 -9.95000 49.40900
N  26.51300 -5.11000 45.85500
C  27.45700 -5.56700 46.70200
C  28.71100 -4.84400 46.41700
C  28.36400 -4.01500 45.29900
C  27.07200 -4.26400 44.96700
C  30.06600 -5.13700 47.07900
C  28.88400 -3.12100 44.39500
O  30.02600 -2.63000 44.27700
C  27.73000 -2.70600 43.45200
C  27.50100 -1.23900 43.67000
O  26.91900 -0.66800 44.60600
O  28.12500 -0.50200 42.64100
C  28.37300 0.96400 42.88400
H  21.08300 -4.69600 42.75100
H  22.04600 -8.95400 47.33700
H  28.03000 -7.16800 48.15300
H  24.82400 -1.88100 42.26000
H  23.05100 -3.81600 41.10200
H  21.65400 -2.05600 42.59600
H  22.12000 -1.85300 40.89500
H  23.03900 -0.96600 42.08300
H  25.05200 -3.78200 40.04200
H  26.42300 -4.13600 41.01300
H  27.52100 -2.34000 40.37200
H  26.25800 -1.21800 40.81700
H  19.44900 -5.85400 42.69600
H  18.43900 -5.62600 44.11900
H  18.52800 -7.20500 43.46900
H  18.72800 -9.56700 47.69300
H  20.14000 -8.47500 47.99900
H  20.36500 -10.02500 47.24400
H  24.52100 -10.15400 47.92400
H  25.95200 -8.25500 49.63200
H  23.25300 -10.40900 49.64900
H  22.78300 -8.60600 49.60200
H  24.19400 -9.30400 50.46300
H  27.54400 -9.48600 47.27100
H  26.50200 -10.62200 48.15300
H  27.84400 -9.45200 50.32500
H  29.09300 -9.50600 49.06000
H  28.22000 -11.02400 49.58700
H  29.92100 -4.93100 48.14000
H  30.87400 -4.49700 46.72600
H  30.36700 -6.18100 46.99100
H  28.00800 -2.97300 42.43300
H  28.70900 1.30900 41.90600
H  29.22100 1.04000 43.56600
H  27.60500 1.63200 43.27500
Mg 16.93700 52.34300 26.90200
C  18.95700 50.64700 29.12500
C  14.65000 52.97000 29.28600
C  14.91500 54.03000 24.53000
C  18.90500 51.28100 24.22600
N  16.88300 51.82500 28.88400
C  17.75100 51.17600 29.63800
C  17.41800 51.42800 31.14100
C  15.92200 51.78700 31.13000
C  15.81300 52.22500 29.68300
C  15.04000 50.74600 31.68700
C  18.38200 52.52400 31.79000
C  18.81300 52.10500 33.19800
H  17.83400 51.46100 34.18700
N  15.03100 53.33000 27.00300
C  14.29600 53.44100 28.10200
C  13.18200 54.24300 27.78700
C  13.24900 54.65400 26.42500
C  14.47900 53.99700 25.93000
C  12.04700 54.52600 28.80700
C  12.39100 55.60500 25.64400
O  12.60500 55.88100 24.45800
C  11.07000 56.06800 26.31800
N  16.91200 52.55800 24.64700
C  15.98200 53.28500 23.98300
C  16.10000 53.13900 22.44100
C  17.58700 52.47400 22.34000
C  17.82500 52.07000 23.81700
C  15.08400 52.14000 21.78000
C  18.68600 53.41900 21.88200
C  19.62800 52.87900 20.81900
N  18.61100 51.15800 26.59600
C  19.28300 50.71500 25.48900
C  20.37500 49.81400 25.92700
C  20.29600 49.82700 27.31300
C  19.22300 50.67200 27.67600
C  21.36100 49.14500 24.92800
C  20.94600 49.22400 28.52800
O  21.88400 48.48800 28.80800
C  20.14000 49.91100 29.75100
C  19.68800 48.96600 30.80300
O  18.75400 48.13600 30.71100
O  20.36200 49.18600 31.97000
C  19.93500 48.39600 33.17300
H  14.08100 53.11900 30.20600
H  14.27900 54.55800 23.81600
H  19.43900 50.92500 23.34200
H  17.50500 50.49000 31.68900
H  15.66200 52.72800 31.61500
H  14.65800 51.01600 32.67200
H  15.51500 49.78400 31.87900
H  14.16800 50.65500 31.04000
H  17.95500 53.52000 31.67900
H  19.22100 52.55000 31.09600
H  19.17900 52.98700 33.72400
H  19.68800 51.46100 33.11100
H  11.08100 54.29000 28.36200
H  12.12500 55.55400 29.16200
H  12.24500 53.90300 29.67900
H  10.64900 56.60200 25.46600
H  11.35500 56.80000 27.07300
H  10.47300 55.18600 26.54900
H  15.94300 54.16400 22.10400
H  17.50900 51.58600 21.71200
H  15.58300 51.58100 20.98800
H  14.23600 52.58500 21.25800
H  14.75100 51.42800 22.53500
H  19.23800 53.71100 22.77500
H  18.19500 54.22000 21.33100
H  20.61600 52.65900 21.22400
H  19.82500 53.58100 20.00900
H  19.25800 51.97800 20.33100
H  21.01100 48.87200 23.93300
H  21.47300 48.19700 25.45400
H  22.37200 49.54500 24.99500
H  20.83600 50.61100 30.21300
H  20.14000 49.04400 34.02500
H  20.48700 47.49300 33.43300
H  18.86000 48.21700 33.14900

