158

Mg 35.88700 49.48000 25.78200
C  35.86300 47.56400 28.68000
C  34.24700 52.03200 27.40700
C  35.73200 51.17800 22.82800
C  36.94300 46.57100 23.97800
N  35.19600 49.74200 27.81400
C  35.46700 48.92500 28.88900
C  34.98400 49.61100 30.24000
C  34.47100 51.01700 29.81800
C  34.62000 50.91200 28.24500
C  33.11300 51.47600 30.37600
C  36.07900 49.45900 31.35100
C  35.53800 49.00000 32.70900
H  35.39600 50.01800 33.81200
N  35.22600 51.41500 25.21800
C  34.45400 52.25400 26.02800
C  34.09900 53.45200 25.33200
C  34.58900 53.20400 23.98300
C  35.21100 51.86200 23.94300
C  33.54600 54.74600 25.91900
C  34.51300 54.09900 22.67300
O  34.83500 53.73200 21.52900
C  34.06200 55.54400 22.77700
N  36.13400 48.90300 23.66800
C  36.11400 49.81100 22.70500
C  36.57700 49.16600 21.36800
C  37.10600 47.79300 21.78300
C  36.67700 47.71700 23.27800
C  35.43100 49.17200 20.29200
C  38.58700 47.47000 21.39700
C  38.92600 46.07400 20.96400
N  36.31300 47.42400 26.15600
C  36.67500 46.35400 25.35000
C  36.97400 45.20600 26.20700
C  36.63800 45.58200 27.48600
C  36.24400 47.00900 27.41400
C  37.49600 43.82900 25.77600
C  36.55700 45.14800 28.89000
O  36.74600 44.07200 29.43800
C  36.09700 46.44800 29.69800
C  34.92200 46.02300 30.46600
O  33.80400 46.03000 30.07900
O  35.36400 45.84300 31.79100
C  34.41800 45.31900 32.79300
H  33.83900 52.83700 28.02200
H  35.79500 51.62000 21.83200
H  37.36200 45.70900 23.45700
H  34.14700 48.98500 30.54800
H  35.20400 51.74600 30.16400
H  32.39300 51.88100 29.66500
H  33.38800 52.32000 31.00900
H  32.67900 50.64300 30.92900
H  36.48000 50.45500 31.53800
H  36.94400 48.87100 31.04300
H  35.92000 48.06700 33.12400
H  34.52400 48.66700 32.48300
H  34.22000 55.56400 25.66700
H  33.47500 54.68700 27.00500
H  32.65700 54.94500 25.32000
H  33.10000 55.65700 23.27700
H  33.91700 56.10000 21.85100
H  34.87000 56.07000 23.28500
H  37.36300 49.85800 21.06600
H  36.46800 47.12900 21.20000
H  34.73800 50.00200 20.42500
H  34.91900 48.21100 20.24100
H  35.83800 49.42500 19.31300
H  39.13000 47.70700 22.31200
H  38.93900 48.20800 20.67600
H  39.25000 46.26400 19.94100
H  38.06000 45.41500 21.02500
H  39.74600 45.65500 21.54800
H  37.68000 43.71200 24.70900
H  36.67300 43.19000 26.09700
H  38.40100 43.64100 26.35300
H  36.95300 46.68900 30.32800
H  34.41200 46.06500 33.58700
H  34.74400 44.34500 33.15900
H  33.43600 45.17600 32.34000
Mg -10.35300 39.51400 43.14700
C  -8.98900 36.53600 41.74300
C  -7.83100 41.21000 41.35100
C  -11.92500 42.36000 43.33200
C  -13.07100 37.70000 44.34400
N  -8.71700 38.92100 41.53700
C  -8.25000 37.64400 41.29500
C  -6.92600 37.56500 40.56800
C  -6.46600 39.10700 40.67700
C  -7.77700 39.80900 41.18300
C  -5.23500 39.50100 41.46000
C  -6.97600 37.03600 39.08200
C  -5.85300 35.95500 38.77200
H  -4.91800 36.21600 37.49500
N  -9.86400 41.60000 42.68200
C  -8.84100 42.04600 41.93200
C  -8.76900 43.47500 42.01000
C  -9.90500 43.84500 42.78400
C  -10.64500 42.60200 42.92800
C  -7.70400 44.37200 41.41200
C  -10.35100 45.29800 43.23700
O  -9.66300 46.27000 42.89600
C  -11.57500 45.54200 44.11100
N  -12.31900 39.92300 43.66200
C  -12.66100 41.17900 43.73000
C  -14.01000 41.27400 44.49000
C  -14.46700 39.79900 44.80100
C  -13.24900 39.04700 44.17900
C  -14.12300 42.25200 45.67200
C  -15.76800 39.41900 44.03700
C  -16.62100 38.39300 44.81500
N  -10.91700 37.47900 43.10600
C  -12.02400 36.90900 43.75800
C  -11.88100 35.41400 43.56700
C  -10.69600 35.22700 42.79500
C  -10.20700 36.53200 42.48400
C  -12.88400 34.35100 43.96100
C  -9.77600 34.25700 42.25300
O  -9.87600 33.01700 42.31800
C  -8.69700 35.07200 41.49500
C  -7.37400 34.58100 42.08900
O  -6.85500 34.97100 43.10600
O  -6.97300 33.52700 41.33900
C  -5.78000 32.77300 41.76700
H  -6.96300 41.76800 40.99200
H  -12.61000 43.20300 43.44700
H  -13.83500 37.08800 44.82800
H  -6.24100 36.97000 41.17100
H  -6.27600 39.53400 39.69300
H  -4.87500 38.69200 42.09600
H  -5.58900 40.31100 42.09800
H  -4.39700 39.82200 40.84200
H  -6.85400 37.85600 38.37400
H  -7.95600 36.63500 38.82300
H  -6.16700 34.91200 38.73800
H  -5.06100 35.92800 39.52000
H  -8.26300 44.95300 40.67900
H  -6.85900 43.91100 40.90200
H  -7.29900 45.06700 42.14700
H  -12.44900 45.41300 43.47300
H  -11.61600 46.51900 44.59200
H  -11.69300 44.72000 44.81700
H  -14.70900 41.67500 43.75500
H  -14.38500 39.47900 45.84000
H  -14.41700 41.79200 46.61600
H  -15.02300 42.85900 45.57500
H  -13.22500 42.83000 45.89200
H  -15.43600 38.91200 43.13100
H  -16.32400 40.33800 43.85700
H  -16.07800 38.02600 45.68600
H  -16.72800 37.54400 44.14000
H  -17.57500 38.81800 45.12800
H  -13.61500 34.13800 43.18100
H  -13.32600 34.68900 44.89800
H  -12.34700 33.44000 44.22200
H  -8.77900 34.89200 40.42300
H  -5.75800 31.84800 41.18900
H  -5.78200 32.57800 42.83900
H  -4.92100 33.37700 41.47600

