158

Mg 35.36900 0.61300 29.45700
C  33.10200 1.83200 31.89000
C  37.82600 0.44700 31.77400
C  37.45000 -0.02900 26.89300
C  32.80100 1.31000 27.07100
N  35.45900 1.25500 31.52600
C  34.41400 1.45500 32.34900
C  34.95600 1.52700 33.82800
C  36.49400 1.51300 33.60900
C  36.62600 1.01900 32.18300
C  37.14800 2.83300 33.89900
C  34.48200 0.30400 34.75400
C  34.18300 0.66400 36.23100
H  34.87600 1.96200 36.81900
N  37.43000 0.15000 29.33600
C  38.25200 0.04800 30.40800
C  39.56000 -0.27600 29.96900
C  39.44400 -0.42200 28.50900
C  38.06600 -0.12600 28.15600
C  40.73500 -0.47700 30.88700
C  40.48900 -0.67600 27.52700
O  40.22600 -0.70600 26.33500
C  41.92400 -1.20700 28.05900
N  35.20900 0.79200 27.27700
C  36.19100 0.36200 26.48200
C  35.77100 0.32600 25.02500
C  34.23900 0.57100 25.09300
C  34.09000 0.93300 26.61000
C  36.62000 1.26800 24.15300
C  33.31200 -0.62200 24.71500
C  32.12300 -0.43100 23.71700
N  33.33800 1.28400 29.46600
C  32.44900 1.50800 28.45700
C  31.21600 2.09600 28.91300
C  31.34000 2.17000 30.33200
C  32.69200 1.70900 30.61000
C  30.09200 2.53000 28.06500
C  30.75100 2.49700 31.56300
O  29.64700 2.88100 31.77600
C  31.83000 2.20900 32.65800
C  31.98000 3.40900 33.50800
O  32.68700 4.43500 33.30400
O  31.10700 3.24500 34.54000
C  30.81700 4.33400 35.49400
H  38.65400 0.37800 32.48300
H  37.97400 -0.44400 26.03000
H  31.97800 1.38600 26.35700
H  34.62900 2.45500 34.29800
H  36.94100 0.76600 34.26500
H  37.64400 3.14500 32.98000
H  37.96000 2.88200 34.62500
H  36.40700 3.57900 34.18500
H  35.22100 -0.49200 34.84100
H  33.57500 -0.03500 34.25200
H  34.41300 -0.22400 36.82100
H  33.10600 0.76400 36.36400
H  40.99100 -1.53400 30.80700
H  40.36600 -0.28700 31.89500
H  41.57300 0.16600 30.61800
H  42.63300 -1.61300 27.33700
H  41.71700 -2.01000 28.76600
H  42.50400 -0.46300 28.60500
H  36.01500 -0.58500 24.47700
H  34.01200 1.33800 24.35200
H  36.00100 1.80200 23.43200
H  37.35600 0.66700 23.61900
H  37.04800 2.03400 24.79900
H  33.01300 -1.09200 25.65200
H  34.02600 -1.28100 24.22200
H  31.86600 0.61300 23.53800
H  31.19500 -0.76800 24.17800
H  32.32800 -0.92900 22.77000
H  29.60000 3.43500 28.42100
H  29.43500 1.67100 27.93000
H  30.42900 2.83700 27.07500
H  31.50000 1.40800 33.32000
H  29.81600 4.35400 35.92600
H  30.97000 5.33200 35.08500
H  31.48800 4.14600 36.33200
Mg 36.97900 49.01700 24.99800
C  36.84300 47.18600 28.07800
C  36.22900 51.83800 26.74900
C  36.80500 50.70000 22.12200
C  37.41900 46.00200 23.29300
N  36.44200 49.41200 27.16600
C  36.53800 48.58500 28.19900
C  36.21600 49.26800 29.57000
C  35.73200 50.72800 29.11100
C  36.23800 50.69300 27.56500
C  34.21500 50.91800 29.18400
C  37.36700 49.31900 30.47600
C  37.02900 49.56600 31.98600
H  35.60500 49.63100 32.41200
N  36.57800 51.04500 24.56200
C  36.40000 52.09300 25.41800
C  36.40500 53.33400 24.71900
C  36.59100 52.99900 23.35100
C  36.66300 51.51200 23.28600
C  36.24800 54.67500 25.39500
C  36.56800 53.86100 22.12100
O  36.78600 53.54400 20.99100
C  36.36900 55.31400 22.25200
N  36.81900 48.40900 22.98700
C  36.89700 49.26300 21.95600
C  37.15200 48.64900 20.56400
C  37.42000 47.15300 21.07900
C  37.18300 47.16300 22.55700
C  36.02400 48.69300 19.50100
C  38.90100 46.68800 20.80300
C  39.10800 45.20700 20.32000
N  37.15800 47.03300 25.55300
C  37.32300 45.92600 24.70900
C  37.44700 44.76800 25.52400
C  37.28700 45.26700 26.86300
C  37.08700 46.60700 26.79200
C  37.62300 43.35100 25.04800
C  37.32500 44.84400 28.23800
O  37.47400 43.76400 28.77000
C  37.10500 46.08100 29.11700
C  35.99400 45.99800 30.18900
O  34.83800 45.80800 29.94700
O  36.48200 45.78700 31.50600
C  35.51600 45.24500 32.46000
H  35.95800 52.68200 27.38600
H  36.86800 51.15300 21.13100
H  37.43400 45.04000 22.77800
H  35.38800 48.64300 29.90300
H  36.19900 51.55900 29.64100
H  33.91000 51.79300 29.75700
H  33.68100 50.01400 29.47700
H  33.93900 50.93700 28.13000
H  37.97100 50.17400 30.17100
H  37.97700 48.44900 30.23400
H  37.51300 50.46500 32.36900
H  37.48700 48.74500 32.53800
H  36.26200 54.48700 26.46800
H  35.36500 55.24800 25.11000
H  37.10300 55.29600 25.13100
H  36.96600 55.69800 23.07900
H  35.32700 55.52900 22.49100
H  36.57800 55.79800 21.29800
H  38.10200 48.97500 20.14000
H  36.78700 46.32600 20.75700
H  36.36000 48.99200 18.50800
H  35.31400 49.45400 19.82700
H  35.43200 47.77800 19.52200
H  39.57100 46.83800 21.65000
H  39.24200 47.32300 19.98600
H  38.19900 44.68900 20.01400
H  39.53200 44.62500 21.13800
H  39.83600 45.19500 19.50900
H  37.72100 42.73300 25.94100
H  38.41500 43.33900 24.29800
H  36.64300 43.13900 24.62200
H  38.09900 46.02400 29.56300
H  35.13900 46.09100 33.03500
H  36.11000 44.60200 33.10900
H  34.66100 44.72800 32.02400

