158

Mg 47.67800 35.09200 26.48900
C  45.59600 33.72300 28.92800
C  48.12200 37.82800 28.31400
C  49.23900 36.46700 23.75700
C  46.46600 32.53500 24.27900
N  47.09800 35.56500 28.39400
C  46.39000 34.82200 29.35900
C  46.44300 35.45200 30.71900
C  46.90200 36.88300 30.41200
C  47.40600 36.79900 28.94300
C  45.77300 37.95500 30.49000
C  47.47800 34.73800 31.64700
C  47.30400 34.86000 33.09700
H  46.22100 35.81000 33.60300
N  48.65900 36.87100 26.13400
C  48.66500 37.88900 27.02200
C  49.31300 38.99900 26.39800
C  49.68400 38.60400 25.03700
C  49.16400 37.21100 24.89900
C  49.52500 40.30700 27.17500
C  50.27500 39.44000 23.88100
O  50.48500 39.06100 22.72300
C  50.55300 40.83100 24.30200
N  48.00500 34.44300 24.38800
C  48.78000 35.18400 23.54700
C  48.85900 34.57400 22.17900
C  48.03800 33.25300 22.39500
C  47.42800 33.37400 23.75900
C  48.40500 35.41300 20.97500
C  48.73500 31.88900 22.04600
C  47.95200 30.82200 21.23900
N  46.34800 33.55900 26.53600
C  45.94900 32.61500 25.55800
C  45.01000 31.63100 26.13100
C  44.77700 32.10000 27.46700
C  45.63400 33.22900 27.65700
C  44.37000 30.46200 25.47800
C  43.99700 31.81300 28.68700
O  43.31100 30.85500 28.97800
C  44.40700 32.96800 29.67800
C  44.79300 32.34900 30.99600
O  45.85700 31.78300 31.15500
O  43.80500 32.51800 32.02500
C  44.20200 32.08600 33.38400
H  48.29300 38.68000 28.97400
H  49.72600 36.87800 22.87000
H  46.12500 31.72400 23.63200
H  45.42200 35.41200 31.09800
H  47.65700 37.25800 31.10200
H  46.18800 38.87500 30.90100
H  45.02900 37.60300 31.20500
H  45.40700 38.20400 29.49400
H  48.49400 34.99700 31.35100
H  47.23100 33.68000 31.55200
H  48.25000 35.26300 33.45900
H  47.12800 33.92000 33.62000
H  50.56700 40.59300 27.03600
H  49.31800 40.09300 28.22400
H  48.86100 41.11700 26.87400
H  50.96300 41.46500 23.51600
H  51.47100 40.69900 24.87400
H  49.64700 41.25200 24.73600
H  49.90000 34.36100 21.93900
H  47.24800 33.21700 21.64500
H  47.64800 36.11900 21.31700
H  48.00200 34.73600 20.22200
H  49.31900 35.85300 20.57700
H  48.93500 31.50700 23.04700
H  49.69500 32.01400 21.54600
H  46.93200 31.15700 21.04900
H  47.92200 29.83900 21.71000
H  48.36400 30.67000 20.24200
H  43.44400 30.20600 25.99200
H  45.00300 29.58400 25.34800
H  44.05000 30.73700 24.47300
H  43.50000 33.53800 29.87900
H  43.46400 32.60600 33.99400
H  45.22300 32.25700 33.72700
H  44.15500 30.99700 33.39000
Mg -2.21200 34.51100 27.03200
C  -4.24800 32.95300 29.46500
C  -0.93700 36.49000 29.50600
C  -0.73500 36.24700 24.64900
C  -3.78500 32.59600 24.53600
N  -2.71900 34.84000 29.19400
C  -3.39200 33.91900 30.01800
C  -3.18700 34.23600 31.49000
C  -2.41100 35.59700 31.35500
C  -2.03500 35.69200 29.89000
C  -3.08800 36.85300 31.89600
C  -2.41600 33.18100 32.33300
C  -3.27700 32.55400 33.41200
H  -3.86300 33.46700 34.48200
N  -0.86400 36.06500 27.06000
C  -0.39800 36.64500 28.23200
C  0.51200 37.71600 27.79600
C  0.59100 37.70100 26.36900
C  -0.35200 36.65800 25.96000
C  1.16300 38.69400 28.74100
C  1.46900 38.39700 25.48900
O  1.56700 38.06700 24.32700
C  2.39100 39.56500 25.91500
N  -2.32800 34.48800 24.91900
C  -1.56900 35.26900 24.13500
C  -1.57400 34.87500 22.66300
C  -2.58100 33.73200 22.65800
C  -2.88500 33.55200 24.16400
C  -1.87400 36.07000 21.72300
C  -1.88700 32.43700 21.96600
C  -0.61100 31.81800 22.71200
N  -3.68700 33.05900 26.95000
C  -4.24200 32.40900 25.86700
C  -5.23800 31.40900 26.31300
C  -5.27000 31.50400 27.78000
C  -4.35800 32.58300 28.08500
C  -5.91800 30.28900 25.47500
C  -5.81700 31.06300 29.02400
O  -6.64700 30.21100 29.30800
C  -5.15200 31.89400 30.16500
C  -6.23900 32.51500 30.92900
O  -6.62500 33.68100 30.73600
O  -6.61000 31.60700 31.90900
C  -7.66700 32.11400 32.84900
H  -0.36400 36.92700 30.32600
H  -0.26700 36.67700 23.76200
H  -4.37600 32.03200 23.81100
H  -4.16500 34.32600 31.96300
H  -1.52900 35.42700 31.97300
H  -3.58600 36.71200 32.85500
H  -3.84100 37.11000 31.15100
H  -2.27300 37.57000 31.99500
H  -1.57700 33.59100 32.89600
H  -1.96900 32.40600 31.71100
H  -2.63400 31.96800 34.06900
H  -4.04200 31.85600 33.07400
H  0.84200 39.67900 28.40300
H  2.24500 38.57500 28.68400
H  0.89500 38.51600 29.78200
H  1.86900 40.49000 26.16000
H  3.07900 39.73900 25.08700
H  2.97000 39.22600 26.77400
H  -0.57000 34.58000 22.35800
H  -3.48200 34.15000 22.21000
H  -2.84700 36.01000 21.23500
H  -1.18700 36.06400 20.87600
H  -1.86900 36.96200 22.35000
H  -1.48400 32.77000 21.00900
H  -2.74300 31.77600 21.82700
H  -1.06600 30.89200 23.06500
H  -0.48000 32.43200 23.60300
H  0.34900 31.77300 22.19900
H  -5.80600 29.36000 26.03400
H  -5.47100 30.20100 24.48400
H  -6.95700 30.58400 25.33100
H  -4.64300 31.21000 30.84500
H  -7.40600 33.12300 33.16900
H  -7.83200 31.41300 33.66600
H  -8.60500 32.28900 32.32300

