158

Mg 27.03300 49.90100 26.79500
C  24.96900 50.97500 29.49300
C  29.56400 49.42700 29.09700
C  29.11300 49.37200 24.25200
C  24.52800 51.17500 24.62200
N  27.22300 50.19300 28.99800
C  26.23700 50.48500 29.82800
C  26.72000 50.37400 31.25800
C  28.21100 49.95200 31.20100
C  28.38300 49.82700 29.64600
C  29.26800 50.81800 31.96200
C  25.77500 49.49800 32.17000
C  25.28500 50.05200 33.51600
H  26.20000 49.91200 34.77000
N  28.99600 49.29600 26.68600
C  29.81800 49.08100 27.74300
C  31.05300 48.51700 27.24700
C  30.99700 48.53500 25.81000
C  29.65500 49.08100 25.50800
C  32.07700 47.84600 28.21000
C  32.05600 48.16600 24.78900
O  31.97500 48.16800 23.56000
C  33.36000 47.74600 25.27300
N  26.87500 50.33200 24.82300
C  27.89200 49.91200 23.94300
C  27.45000 50.21400 22.54000
C  25.94600 50.46300 22.65500
C  25.73000 50.74400 24.10900
C  28.26300 51.44000 22.04700
C  24.97700 49.42600 22.10400
C  25.32900 47.95200 22.44300
N  25.11000 50.81700 26.96300
C  24.26600 51.33600 26.01600
C  23.12200 51.94700 26.61500
C  23.31600 51.83100 27.97300
C  24.56300 51.22100 28.17100
C  21.94000 52.51500 25.96300
C  22.71600 52.15700 29.23900
O  21.64900 52.65100 29.56000
C  23.81900 51.69900 30.26300
C  24.31800 52.87300 31.03700
O  25.11900 53.77500 30.67600
O  23.57000 52.96300 32.17900
C  24.04000 53.96300 33.17000
H  30.44000 49.23100 29.71800
H  29.70100 48.93200 23.44400
H  23.72000 51.48800 23.95700
H  26.70100 51.41100 31.59500
H  28.38600 48.92400 31.51600
H  29.73800 51.41200 31.17800
H  29.91900 50.12600 32.49600
H  28.77100 51.41200 32.72900
H  26.21900 48.51200 32.30600
H  24.85400 49.40800 31.59400
H  24.29900 49.64300 33.73700
H  25.07600 51.11700 33.41100
H  32.34000 46.86000 27.82700
H  31.72400 47.91500 29.23900
H  33.00700 48.35200 27.94900
H  33.76000 48.58100 25.84900
H  34.02900 47.44200 24.46800
H  33.39400 46.80200 25.81600
H  27.82700 49.53600 21.77500
H  25.68400 51.38400 22.13400
H  29.09400 51.73000 22.69000
H  27.64200 52.33500 22.07100
H  28.78800 51.33400 21.09700
H  24.99800 49.59500 21.02800
H  23.98000 49.49700 22.53800
H  26.07100 47.75300 23.21600
H  25.74100 47.53500 21.52400
H  24.44800 47.36400 22.70000
H  21.87500 52.09500 24.96000
H  22.15600 53.58200 26.02100
H  21.04100 52.35900 26.55900
H  23.38700 50.99700 30.97500
H  24.98600 53.62400 33.59200
H  23.31400 53.86800 33.97700
H  24.02200 54.98800 32.80000
Mg 9.88200 47.70200 25.50200
C  8.03600 48.09500 28.27900
C  12.68300 48.87100 27.34700
C  11.86300 47.10600 22.76900
C  7.10500 47.01600 23.63300
N  10.29100 48.25800 27.59500
C  9.34900 48.23100 28.58100
C  9.87900 48.71500 29.90000
C  11.23900 49.44500 29.43900
C  11.44900 48.86500 28.00700
C  11.02900 51.05200 29.35800
C  10.12400 47.57300 30.89600
C  9.67300 47.86300 32.33800
H  9.33500 46.69800 33.36900
N  11.95700 47.88700 25.13000
C  12.93600 48.31300 26.01000
C  14.28500 48.07600 25.44900
C  14.04000 47.55700 24.12900
C  12.57300 47.48700 23.93700
C  15.57200 48.39200 26.26100
C  15.07000 47.09500 23.16800
O  14.71400 46.54200 22.13000
C  16.53400 47.25500 23.48100
N  9.49900 47.10900 23.46600
C  10.48200 46.77100 22.58200
C  9.84700 46.26400 21.25000
C  8.34600 46.23600 21.55800
C  8.31200 46.91400 22.92700
C  10.23600 47.23700 20.14500
C  7.82400 44.84300 21.53500
C  8.05400 43.84600 22.69600
N  7.93900 47.48400 25.86900
C  6.89700 47.29300 24.99000
C  5.66400 47.32400 25.74200
C  6.09300 47.60400 27.04200
C  7.44100 47.76800 27.04300
C  4.19100 47.28200 25.21800
C  5.57200 47.85600 28.39100
O  4.43100 47.87100 28.83300
C  6.83500 48.07000 29.25100
C  6.86200 46.89300 30.17500
O  7.28800 45.77900 29.79200
O  6.23200 47.14100 31.30800
C  6.04800 46.07000 32.26300
H  13.49200 49.24700 27.97600
H  12.42500 46.87500 21.86200
H  6.20100 46.83300 23.04800
H  9.30800 49.52500 30.35200
H  12.17300 49.12700 29.90200
H  10.13700 51.52400 29.77000
H  11.23200 51.40200 28.34600
H  11.88100 51.29900 29.99300
H  11.16200 47.24700 30.82400
H  9.56000 46.68200 30.62200
H  8.73800 48.42300 32.31300
H  10.50600 48.45200 32.72300
H  15.27900 48.44100 27.31000
H  16.23500 49.19800 25.94800
H  16.13200 47.48600 26.02800
H  16.85200 48.14800 24.01900
H  17.11600 47.16400 22.56400
H  16.65300 46.41200 24.16200
H  10.24600 45.28100 20.99900
H  7.87600 46.93500 20.86700
H  9.51500 47.09800 19.33900
H  11.22800 46.97400 19.77700
H  10.30900 48.27300 20.47500
H  8.31700 44.35700 20.69300
H  6.75400 44.94200 21.35400
H  8.54800 44.29300 23.55900
H  8.86200 43.13700 22.51400
H  7.12400 43.45400 23.10600
H  4.08000 46.50400 24.46300
H  4.02100 48.27800 24.80900
H  3.49800 47.06000 26.02900
H  6.66900 48.95900 29.85900
H  5.69100 46.39500 33.24000
H  6.63900 45.15900 32.16200
H  5.13700 45.59700 31.89700

