158

Mg 47.32600 15.67800 29.17800
C  44.98500 14.84000 31.83700
C  48.74800 17.85900 31.39000
C  49.17800 16.59800 26.62900
C  45.01600 13.96400 26.97600
N  46.84800 16.30100 31.41700
C  46.03600 15.60100 32.24600
C  46.28800 16.09800 33.72300
C  47.20600 17.34700 33.53000
C  47.69100 17.15500 32.04200
C  46.53800 18.67900 33.78900
C  46.84800 14.93600 34.66200
C  46.34000 14.89500 36.09300
H  47.47900 14.90600 37.16200
N  48.86500 17.01800 29.05600
C  49.27700 17.86300 30.02200
C  50.39500 18.64100 29.45200
C  50.56000 18.32700 28.14700
C  49.56500 17.29000 27.86900
C  51.10900 19.67000 30.40800
C  51.54300 18.81900 27.12600
O  51.58500 18.38100 25.97200
C  52.51900 19.93000 27.51700
N  47.11600 15.33500 27.14400
C  48.06100 15.82100 26.23100
C  47.62800 15.51100 24.78900
C  46.46500 14.51200 24.98700
C  46.17500 14.58400 26.47700
C  47.33400 16.59200 23.81100
C  46.59100 13.12600 24.39300
C  47.56900 12.09900 25.08400
N  45.37600 14.58100 29.32000
C  44.64400 13.87600 28.33500
C  43.51100 13.28000 28.97400
C  43.61200 13.67500 30.31100
C  44.73400 14.45300 30.48400
C  42.58000 12.40200 28.23600
C  42.91900 13.59500 31.59900
O  41.90200 12.99300 31.94400
C  43.77000 14.34100 32.62900
C  42.91000 15.45500 33.14000
O  42.69700 16.51300 32.63200
O  42.48700 15.12900 34.42800
C  41.82400 16.07400 35.24600
H  49.15300 18.55800 32.12500
H  49.82500 16.85200 25.78700
H  44.29700 13.66800 26.20800
H  45.24700 16.33700 33.94200
H  48.10800 17.28800 34.13900
H  46.56400 18.81300 34.87100
H  45.51500 18.79100 33.42900
H  47.10000 19.47100 33.29500
H  47.93300 15.01800 34.72600
H  46.59800 13.99100 34.18100
H  45.75700 13.98600 36.24100
H  45.70600 15.77500 36.20300
H  50.61300 19.69200 31.37900
H  51.12000 20.63400 29.89900
H  52.11000 19.30900 30.64600
H  53.25800 20.15800 26.74800
H  52.99900 19.63300 28.44900
H  51.95300 20.85400 27.63400
H  48.47500 15.00000 24.32900
H  45.57600 14.92600 24.51000
H  47.67500 17.54500 24.21500
H  46.27100 16.74700 23.62500
H  47.84300 16.51700 22.85000
H  46.96800 13.19900 23.37200
H  45.59300 12.68900 24.37300
H  47.14600 11.17300 25.47400
H  48.09000 12.60100 25.89900
H  48.36800 11.76900 24.42100
H  41.84000 11.99800 28.92700
H  43.12800 11.55100 27.83100
H  42.13400 12.96200 27.41400
H  44.08500 13.77400 33.50500
H  41.81400 15.58400 36.22000
H  40.82200 16.28200 34.87000
H  42.53700 16.89500 35.30900
Mg 7.96100 49.10200 24.95100
C  6.04600 48.90800 28.07800
C  10.62800 50.30500 26.76900
C  9.70700 48.84800 22.25300
C  4.98800 48.32400 23.16900
N  8.24800 49.48500 27.15500
C  7.42000 49.31300 28.24600
C  8.15000 49.78600 29.53100
C  9.50300 50.42400 28.98700
C  9.47200 50.02600 27.51700
C  9.39700 51.98200 29.13600
C  8.38500 48.64500 30.61700
C  8.03800 49.11500 32.10500
H  8.37200 48.23600 33.24900
N  9.92400 49.59500 24.51600
C  10.88200 50.01100 25.40300
C  12.13300 50.18800 24.72000
C  11.95300 49.60300 23.38800
C  10.49200 49.33800 23.32100
C  13.44900 50.59500 25.46300
C  12.94100 49.28100 22.31200
O  12.70800 48.75900 21.24300
C  14.44500 49.59400 22.55300
N  7.49200 48.42400 23.03500
C  8.36600 48.56100 22.05600
C  7.78900 48.04000 20.69000
C  6.22900 48.16600 20.99400
C  6.19200 48.37900 22.49600
C  8.21300 48.73400 19.39800
C  5.50300 46.85800 20.55500
C  4.48800 47.09700 19.52600
N  5.98500 48.64400 25.45300
C  4.90900 48.32800 24.60100
C  3.67800 48.08900 25.45000
C  4.16400 48.27300 26.82300
C  5.49200 48.66800 26.78700
C  2.35200 47.86000 25.05600
C  3.70300 48.15200 28.16600
O  2.58800 47.84400 28.60200
C  4.93900 48.66700 29.07800
C  5.18700 47.50000 30.04200
O  5.59100 46.39300 29.73900
O  4.73900 47.80400 31.26300
C  4.82000 46.79700 32.36200
H  11.42000 50.64600 27.44000
H  10.25500 48.57800 21.34700
H  4.11900 48.13900 22.53500
H  7.57600 50.57600 30.01600
H  10.35900 49.96700 29.48200
H  9.60900 52.43400 28.16700
H  10.19700 52.23100 29.83300
H  8.46300 52.37400 29.53900
H  9.40900 48.27400 30.57900
H  7.73600 47.79100 30.42800
H  6.95100 49.04200 32.09700
H  8.31500 50.15900 32.24900
H  13.94600 49.63200 25.35100
H  13.25700 50.70600 26.53000
H  14.09700 51.38500 25.08400
H  14.66800 50.64500 22.73800
H  14.98600 49.38900 21.63000
H  14.72400 48.92900 23.37000
H  8.10200 46.99800 20.75800
H  5.80100 49.02500 20.47600
H  8.97300 49.50600 19.51700
H  7.33200 49.22100 18.97800
H  8.50000 47.90100 18.75600
H  5.02800 46.31900 21.37500
H  6.17400 46.15500 20.06200
H  3.52700 47.44500 19.90400
H  4.33300 46.14000 19.02800
H  4.72500 47.90600 18.83500
H  2.48700 47.49700 24.03700
H  1.83700 48.82000 25.08200
H  1.91200 47.13700 25.74400
H  4.72300 49.59400 29.60900
H  5.01000 47.37400 33.26700
H  5.71200 46.17400 32.30500
H  3.86600 46.29800 32.53200

