158

Mg 25.90400 -0.34700 28.98500
C  27.83600 -0.30500 31.93600
C  23.12400 -0.07800 30.93400
C  24.09100 -0.33700 26.17700
C  28.72900 -1.39300 27.19800
N  25.56400 -0.37300 31.29400
C  26.46500 -0.07700 32.25900
C  25.88200 0.17800 33.68400
C  24.36900 0.16000 33.27000
C  24.34400 -0.10900 31.68800
C  23.47400 -0.96800 34.02500
C  26.48500 1.36900 34.42300
C  27.09200 1.24100 35.72700
H  26.78200 2.22800 36.86700
N  23.84900 -0.22800 28.62100
C  22.88100 -0.08900 29.55800
C  21.62800 0.11500 28.88000
C  21.86500 0.17700 27.48500
C  23.28200 -0.16800 27.36900
C  20.32700 0.16900 29.67800
C  20.98700 0.39300 26.27800
O  21.39600 0.41300 25.11200
C  19.52700 0.61500 26.48800
N  26.35900 -0.87700 26.92700
C  25.42900 -0.66400 25.91400
C  26.05900 -0.92700 24.58900
C  27.56200 -1.22600 24.96600
C  27.55400 -1.17600 26.43400
C  25.49000 -1.87900 23.53700
C  28.63700 -0.37600 24.16900
C  28.97900 1.01600 24.69400
N  27.90000 -0.79000 29.39500
C  28.91400 -1.22300 28.56700
C  30.19800 -1.26000 29.37500
C  29.77500 -0.87900 30.62200
C  28.41300 -0.67000 30.63600
C  31.58400 -1.58300 28.85100
C  30.31200 -0.65200 31.93000
O  31.46300 -0.82400 32.28700
C  29.05100 -0.30600 32.80200
C  28.83800 -1.35400 33.81300
O  28.32200 -2.45500 33.64000
O  29.41400 -0.93400 35.00400
C  29.31600 -1.77800 36.20700
H  22.34200 0.00400 31.69100
H  23.59500 -0.23000 25.21000
H  29.59200 -1.58700 26.55900
H  26.07900 -0.79200 34.13900
H  23.83400 1.10900 33.30000
H  23.98300 -1.32300 34.92200
H  23.40900 -1.80900 33.33600
H  22.43100 -0.73000 34.23600
H  25.78400 2.20300 34.44600
H  27.27700 1.83300 33.83500
H  28.17100 1.11900 35.63700
H  26.85400 0.23600 36.07500
H  20.58100 0.39600 30.71300
H  19.83800 -0.79100 29.50600
H  19.80700 1.01500 29.22800
H  19.05800 0.66500 25.50500
H  19.32100 1.48400 27.11300
H  19.21600 -0.33700 26.91800
H  26.18500 0.02900 24.08100
H  27.80500 -2.28200 24.84900
H  26.29400 -2.37500 22.99300
H  24.88900 -1.29900 22.83700
H  24.81000 -2.60100 23.98700
H  28.37400 -0.41200 23.11200
H  29.53000 -1.00100 24.18500
H  29.97300 0.99200 25.14300
H  28.27600 1.20100 25.50600
H  28.95300 1.81800 23.95700
H  32.26500 -1.00000 29.47000
H  31.69200 -1.39000 27.78400
H  31.70100 -2.63000 29.13200
H  29.07600 0.70900 33.19800
H  29.34300 -2.84400 35.98500
H  28.39200 -1.62300 36.76300
H  30.26800 -1.57600 36.69800
Mg 0.09900 44.09900 25.56900
C  1.89200 43.48400 28.45900
C  -2.63600 42.55100 27.06600
C  -1.59200 44.30700 22.69100
C  3.06700 44.90400 24.04900
N  -0.34100 43.21600 27.43000
C  0.50100 43.27700 28.55400
C  -0.17700 42.91900 29.95700
C  -1.49700 42.24100 29.34500
C  -1.48900 42.57200 27.81900
C  -1.69600 40.72800 29.64100
C  -0.51000 44.21600 30.71400
C  -0.94000 44.05400 32.16300
H  -1.02300 42.59400 32.74100
N  -1.87200 43.69000 24.99900
C  -2.82500 43.02100 25.73900
C  -4.11400 42.95500 24.95000
C  -3.82300 43.56100 23.72000
C  -2.39000 43.86500 23.75200
C  -5.38700 42.38500 25.42600
C  -4.73800 43.89300 22.48700
O  -4.27600 44.25900 21.39000
C  -6.16500 43.45800 22.54600
N  0.64400 44.48400 23.66400
C  -0.18800 44.54900 22.63300
C  0.43500 45.08600 21.41100
C  1.86800 45.53200 21.89700
C  1.89400 44.95000 23.35000
C  0.49800 44.02700 20.28300
C  2.32200 46.99500 21.74000
C  1.38700 48.00000 22.36500
N  2.10700 44.10600 26.09800
C  3.14000 44.62900 25.41600
C  4.29900 44.61900 26.28000
C  3.91800 44.16600 27.50700
C  2.52100 43.85600 27.30400
C  5.75600 45.08000 25.88200
C  4.26500 43.75600 28.94600
O  5.28100 43.80400 29.57800
C  2.90800 43.35800 29.47400
C  2.97000 42.11900 30.23100
O  2.81200 40.99200 29.84700
O  3.26000 42.43700 31.49300
C  3.42300 41.39600 32.51300
H  -3.49800 42.07500 27.53800
H  -1.96900 44.50900 21.68600
H  3.98100 45.29900 23.59900
H  0.35500 42.16900 30.54200
H  -2.45100 42.67800 29.64200
H  -1.55100 40.17700 28.71200
H  -2.71800 40.69400 30.01900
H  -0.96500 40.36200 30.36200
H  -1.26000 44.72700 30.11000
H  0.41300 44.77500 30.55900
H  -1.94000 44.48300 32.22600
H  -0.34400 44.71700 32.79100
H  -6.15600 43.15500 25.36400
H  -5.32600 42.24300 26.50500
H  -5.82500 41.58200 24.83400
H  -6.61400 43.81300 21.61800
H  -6.69900 43.92800 23.37200
H  -6.21100 42.37000 22.58200
H  -0.24000 45.91400 21.19400
H  2.49200 44.95900 21.21100
H  1.39000 44.12500 19.66300
H  -0.35500 44.27600 19.65100
H  0.45500 42.99900 20.64000
H  2.34500 47.16700 20.66400
H  3.27500 47.15500 22.24400
H  1.86900 48.34700 23.27900
H  0.40700 47.58700 22.60500
H  1.20700 48.82300 21.67400
H  5.71300 45.35000 24.82700
H  6.41400 44.22400 26.03400
H  6.17800 45.89800 26.46500
H  2.72200 44.18300 30.16100
H  3.31200 40.41000 32.06200
H  2.63900 41.48100 33.26500
H  4.33100 41.59200 33.08300

