158

Mg 17.11900 51.51900 25.72200
C  19.11500 50.24100 28.39100
C  14.72700 52.34100 28.09000
C  15.06400 52.05100 23.20800
C  19.67800 50.28000 23.55400
N  17.02700 51.33600 28.03000
C  17.99500 50.87100 28.98000
C  17.53500 51.04600 30.40200
C  16.02000 51.52300 30.15400
C  15.95000 51.83700 28.64700
C  14.89100 50.44100 30.56600
C  18.44800 51.85700 31.35600
C  18.41500 51.48500 32.84700
H  17.59600 52.36700 33.89000
N  15.14000 52.08600 25.66300
C  14.33800 52.45800 26.74200
C  13.07200 52.97500 26.24700
C  13.16600 52.84000 24.83600
C  14.50900 52.36100 24.48700
C  11.95500 53.56500 27.11400
C  12.13100 53.23900 23.78000
O  12.21200 52.98700 22.59600
C  10.83700 53.94400 24.23400
N  17.33100 51.10700 23.67800
C  16.34800 51.59200 22.83100
C  16.92900 51.64000 21.41000
C  18.40600 51.17200 21.54000
C  18.49900 50.79500 23.00500
C  16.01800 50.70300 20.46600
C  19.45100 52.31600 21.25000
C  20.72800 51.94400 20.46400
N  19.02600 50.50200 25.86400
C  19.91500 50.06800 24.92700
C  21.01700 49.34200 25.56000
C  20.80900 49.45400 26.92000
C  19.56600 50.12200 27.04200
C  22.20900 48.63600 24.89300
C  21.30100 48.96900 28.15300
O  22.27300 48.25100 28.36300
C  20.37500 49.62600 29.23900
C  19.88800 48.69700 30.31100
O  19.06500 47.82000 30.11700
O  20.38400 49.02300 31.53300
C  19.96700 48.18300 32.67600
H  13.91100 52.50200 28.79700
H  14.50200 52.34000 22.31800
H  20.51400 49.97300 22.92200
H  17.50300 50.02400 30.77900
H  15.75800 52.43500 30.69000
H  13.95700 50.97200 30.75100
H  15.15800 50.04700 31.54600
H  14.72400 49.76200 29.73000
H  17.89900 52.79200 31.23800
H  19.46500 51.92100 30.96900
H  19.47600 51.47900 33.09800
H  18.12000 50.44300 32.97200
H  11.64000 54.52300 26.69900
H  12.26000 53.77000 28.14100
H  11.22300 52.76100 27.18300
H  10.17000 54.16600 23.40100
H  11.15200 54.92200 24.59700
H  10.28600 53.29300 24.91200
H  16.87700 52.67800 21.08300
H  18.66600 50.33000 20.90000
H  15.05200 50.62500 20.96500
H  16.43400 49.70500 20.33200
H  15.77400 51.18200 19.51800
H  19.77900 52.63100 22.24000
H  18.89800 53.14900 20.81700
H  20.89600 52.63000 19.63400
H  20.73300 50.98200 19.95000
H  21.55800 51.97600 21.16900
H  23.07400 48.39700 25.51100
H  22.50700 49.29000 24.07300
H  21.69700 47.75900 24.49700
H  20.97200 50.43700 29.65700
H  19.92600 48.81600 33.56200
H  20.72200 47.42900 32.89600
H  18.98500 47.72200 32.57300
Mg -11.23100 37.91900 41.88800
C  -9.67400 35.03800 40.85100
C  -8.64700 39.88600 40.63500
C  -13.08600 40.86900 42.36500
C  -14.02800 36.07300 43.02300
N  -9.35800 37.47400 40.91300
C  -8.93900 36.26400 40.48700
C  -7.53600 36.39100 39.80300
C  -7.10900 37.82400 40.20200
C  -8.44600 38.44900 40.61900
C  -5.96700 37.90500 41.35700
C  -7.53600 35.94400 38.26900
C  -6.45100 34.89100 37.91500
H  -5.47500 35.29400 36.80100
N  -10.90500 40.07000 41.53400
C  -9.79300 40.66200 41.03500
C  -9.95300 42.09200 40.87600
C  -11.19300 42.41800 41.48300
C  -11.80300 41.09700 41.84800
C  -8.83900 42.98300 40.35900
C  -11.67600 43.83300 41.76400
O  -11.06500 44.83600 41.39400
C  -12.95000 44.20400 42.40600
N  -13.36400 38.35700 42.46600
C  -13.75700 39.66500 42.65600
C  -15.00600 39.74200 43.45300
C  -15.42600 38.19900 43.71600
C  -14.29100 37.47500 42.97500
C  -14.91400 40.56000 44.81700
C  -16.83600 37.83900 43.17000
C  -17.62400 37.06200 44.21500
N  -11.78700 35.94700 42.06100
C  -12.95000 35.31000 42.45500
C  -12.65700 33.87600 42.34700
C  -11.40500 33.70600 41.77800
C  -10.95900 35.04000 41.61000
C  -13.64100 32.81200 42.70300
C  -10.46900 32.76600 41.26900
O  -10.45500 31.56800 41.36300
C  -9.36700 33.56900 40.58300
C  -8.04000 33.11100 41.08000
O  -7.12500 32.82500 40.32600
O  -7.98100 33.09800 42.45800
C  -6.67100 32.83200 43.02500
H  -7.73800 40.36300 40.26300
H  -13.73400 41.74400 42.45300
H  -14.71700 35.52200 43.66600
H  -6.91800 35.64600 40.30500
H  -6.73600 38.25000 39.27100
H  -6.38500 38.50400 42.16500
H  -5.05400 38.43600 41.08900
H  -5.76700 36.86900 41.63300
H  -7.46400 36.77400 37.56600
H  -8.53700 35.54000 38.11800
H  -6.97800 33.95800 37.71600
H  -5.84700 34.73600 38.80900
H  -8.67200 43.85600 40.99100
H  -8.95000 43.26000 39.31100
H  -7.86300 42.50400 40.44300
H  -12.97500 45.26800 42.64600
H  -13.06100 43.86700 43.43700
H  -13.81600 43.95700 41.79200
H  -15.67800 40.25700 42.76700
H  -15.37900 37.87800 44.75700
H  -15.38400 41.53300 44.67600
H  -13.88500 40.88000 44.97500
H  -15.41600 40.01700 45.61900
H  -16.62200 37.32200 42.23400
H  -17.36500 38.70600 42.77600
H  -17.30000 37.23500 45.24100
H  -17.27500 36.04400 44.04500
H  -18.69400 37.16900 44.03200
H  -13.25200 31.82000 42.47200
H  -14.58100 32.98800 42.17900
H  -13.72900 32.89300 43.78600
H  -9.44200 33.31800 39.52500
H  -5.99500 33.68700 42.99600
H  -6.24100 32.05200 42.39600
H  -6.77100 32.53600 44.06900

