158

Mg 8.23900 2.52100 28.43300
C  9.96700 1.32700 31.38800
C  6.16500 4.16500 30.54000
C  6.77000 3.63700 25.78000
C  9.91000 -0.00000 26.68600
N  8.05300 2.62900 30.66200
C  8.93100 2.19200 31.57700
C  8.63600 2.77700 32.92800
C  7.22200 3.37400 32.76300
C  7.07600 3.39300 31.19700
C  6.13200 2.55400 33.46000
C  9.72400 3.82300 33.33400
C  9.63900 4.49700 34.64500
H  10.53200 3.94100 35.77800
N  6.63900 3.79600 28.18200
C  5.90700 4.43800 29.18800
C  5.02300 5.42600 28.62100
C  5.21100 5.26500 27.22000
C  6.17900 4.22200 26.94800
C  4.11600 6.26200 29.38200
C  4.43500 6.08100 26.09800
O  4.62200 5.88300 24.90500
C  3.42200 7.08000 26.44100
N  8.28000 1.89300 26.48100
C  7.62400 2.56800 25.51300
C  7.87800 1.99400 24.12400
C  8.81000 0.72200 24.51400
C  9.11000 0.94400 25.94600
C  6.53500 1.69500 23.26100
C  9.99600 0.53100 23.41700
C  10.94900 1.70500 23.41300
N  9.63000 1.00200 28.88500
C  10.29200 0.10000 28.05200
C  11.34900 -0.65100 28.71500
C  11.25000 -0.16400 30.00000
C  10.14500 0.77100 30.09800
C  12.33800 -1.61400 28.00900
C  11.77600 -0.33800 31.37800
O  12.64000 -1.11400 31.80300
C  11.03600 0.67900 32.29600
C  10.32000 -0.04600 33.38600
O  9.31100 -0.67800 33.28200
O  11.02500 0.07100 34.53200
C  10.51300 -0.37700 35.80000
H  5.54100 4.71700 31.24600
H  6.35800 4.00600 24.83900
H  10.38000 -0.70400 25.99500
H  8.70100 1.91000 33.58500
H  7.19800 4.37700 33.19100
H  5.99400 1.54300 33.07800
H  5.17500 3.06700 33.36100
H  6.30100 2.42700 34.52900
H  9.64600 4.56600 32.54000
H  10.73900 3.42800 33.34800
H  8.63700 4.31000 35.03200
H  9.85600 5.56300 34.57500
H  4.32700 6.09800 30.43900
H  3.06800 5.96800 29.33300
H  4.22900 7.33700 29.23800
H  2.95600 7.36600 25.49800
H  4.03900 7.84200 26.91500
H  2.68800 6.68900 27.14600
H  8.44400 2.73000 23.55200
H  8.28000 -0.23100 24.52200
H  5.64800 1.84700 23.87500
H  6.43400 0.64600 22.98400
H  6.51200 2.27100 22.33500
H  9.51900 0.63500 22.44200
H  10.52900 -0.42000 23.40300
H  11.96300 1.33300 23.55900
H  10.60300 2.47100 24.10600
H  10.91500 2.36400 22.54500
H  13.22200 -1.72900 28.63700
H  12.62900 -1.40500 26.98000
H  11.88700 -2.60700 28.02500
H  11.81500 1.31600 32.71400
H  9.84000 0.35600 36.24400
H  11.39700 -0.48500 36.42800
H  9.91600 -1.27800 35.65900
Mg 34.95200 2.86400 30.11000
C  32.89200 3.89000 32.47000
C  37.49100 2.72500 32.24500
C  36.88500 2.04900 27.44600
C  32.36000 3.51100 27.64700
N  35.21000 3.34400 32.12200
C  34.18300 3.62800 32.96500
C  34.65800 3.71300 34.41200
C  36.19500 3.48100 34.32200
C  36.36400 3.23800 32.80800
C  37.10100 4.70700 34.70100
C  33.89600 2.79400 35.47400
C  33.22000 3.67200 36.64400
H  33.97700 4.78900 37.14700
N  36.91000 2.41900 29.92300
C  37.82300 2.33100 30.93300
C  39.14700 2.07800 30.33500
C  38.85500 1.80700 28.95500
C  37.46300 2.09400 28.71900
C  40.39700 2.00300 31.12800
C  39.94700 1.37200 27.93200
O  39.69000 1.19600 26.74400
C  41.39800 1.08500 28.37200
N  34.69900 2.88800 27.77700
C  35.58000 2.32600 26.95700
C  35.13100 2.27300 25.49300
C  33.66700 2.69700 25.62700
C  33.53400 3.07800 27.11800
C  36.08300 3.13000 24.64400
C  32.48600 1.83400 25.13500
C  32.35900 0.47900 25.86300
N  33.04300 3.58600 30.01800
C  32.07000 3.76600 29.02600
C  30.81300 3.95400 29.63900
C  31.03200 4.08900 30.97400
C  32.45800 3.83100 31.15400
C  29.55300 4.04700 28.87300
C  30.40300 4.40400 32.26900
O  29.24400 4.58600 32.54400
C  31.59700 4.36500 33.23800
C  31.63700 5.70200 33.85500
O  32.29800 6.61700 33.47400
O  30.79700 5.87300 34.93400
C  30.94700 7.07500 35.80700
H  38.28500 2.72400 32.99500
H  37.51300 1.77100 26.59800
H  31.56900 3.68900 26.91500
H  34.46500 4.74200 34.71900
H  36.48600 2.58200 34.86500
H  37.53700 4.46900 35.67100
H  36.48200 5.58400 34.88800
H  37.81300 4.81400 33.88300
H  34.54100 2.11300 36.03000
H  33.06700 2.23500 35.04200
H  32.99700 2.95000 37.42900
H  32.28700 4.01500 36.19700
H  41.23900 2.34600 30.52600
H  40.60200 0.95300 31.33500
H  40.36200 2.58900 32.04700
H  42.00700 1.95100 28.63300
H  41.88000 0.74500 27.45600
H  41.40800 0.28400 29.11100
H  35.19300 1.24300 25.14100
H  33.50300 3.57000 24.99600
H  37.01200 3.51500 25.06600
H  35.53100 3.98400 24.25100
H  36.37500 2.42700 23.86400
H  32.63500 1.61700 24.07700
H  31.54800 2.39000 25.15300
H  31.32500 0.14000 25.79600
H  32.69800 0.46300 26.89900
H  32.91300 -0.24000 25.25900
H  29.60900 4.85800 28.14700
H  28.68600 4.21600 29.51100
H  29.51700 3.06100 28.40900
H  31.40600 3.62300 34.01300
H  30.79800 6.74700 36.83600
H  30.27000 7.89100 35.55300
H  31.94700 7.50700 35.81100

