158

Mg -10.37500 17.95900 43.35600
C  -7.15200 16.61700 42.67200
C  -9.00700 21.05300 42.35700
C  -13.52700 19.05700 42.99200
C  -11.57100 14.68500 43.55000
N  -8.27700 18.73100 42.63700
C  -7.15300 18.00800 42.50100
C  -6.00400 18.94300 42.12500
C  -6.61300 20.34300 42.24200
C  -8.03300 20.02900 42.52500
C  -5.91600 21.29600 43.19500
C  -5.20600 18.69400 40.78900
C  -5.92200 17.96500 39.52100
H  -5.45200 18.38100 38.12100
N  -11.15500 19.78000 42.80900
C  -10.43800 20.94100 42.48200
C  -11.39300 21.96900 42.25100
C  -12.68900 21.40600 42.38600
C  -12.52800 20.00100 42.79100
C  -11.00100 23.41300 41.98300
C  -14.12700 22.15900 42.26300
O  -14.15400 23.34700 41.90300
C  -15.47500 21.50300 42.67200
N  -12.35400 16.97400 43.21200
C  -13.48900 17.63900 43.24100
C  -14.69200 16.68700 43.49100
C  -14.04500 15.31600 43.70500
C  -12.61100 15.64600 43.54100
C  -15.57500 17.10200 44.69200
C  -14.61000 14.30500 42.56300
C  -15.07000 12.94500 43.04100
N  -9.54000 16.11300 43.32200
C  -10.18700 14.84300 43.36300
C  -9.15800 13.84000 43.34800
C  -7.94400 14.45400 43.12500
C  -8.27300 15.84300 43.02800
C  -9.44800 12.36000 43.54900
C  -6.42500 14.25500 42.91400
O  -5.86100 13.19000 42.95900
C  -5.96900 15.64700 42.58200
C  -4.91700 16.03800 43.52400
O  -3.76100 15.92900 43.27600
O  -5.36400 16.60000 44.71900
C  -4.36400 17.00800 45.75500
H  -8.58600 22.00800 42.03800
H  -14.58000 19.33900 42.93100
H  -11.83800 13.63600 43.68800
H  -5.33900 18.76600 42.97100
H  -6.65800 20.87600 41.29200
H  -5.18300 20.64300 43.67000
H  -6.73700 21.75200 43.74700
H  -5.49800 22.16300 42.68400
H  -4.26700 18.21400 41.06500
H  -4.95800 19.68300 40.40500
H  -7.00500 17.85500 39.57900
H  -5.38600 17.01700 39.57200
H  -11.14300 23.75200 40.95700
H  -9.96900 23.53300 42.31100
H  -11.53900 24.04300 42.69100
H  -15.30600 21.12300 43.68000
H  -15.83000 20.68700 42.04300
H  -16.24400 22.27300 42.60800
H  -15.30100 16.83200 42.59900
H  -14.32000 14.97900 44.70400
H  -15.21100 17.89300 45.34800
H  -15.81700 16.20900 45.26800
H  -16.44300 17.69000 44.39200
H  -13.83900 14.16600 41.80500
H  -15.39000 14.86800 42.05000
H  -14.47900 12.13400 42.61600
H  -16.12200 12.71100 42.87900
H  -14.78900 12.85800 44.09100
H  -10.19800 12.15400 44.31300
H  -8.50600 11.90700 43.85700
H  -9.62600 12.01500 42.53000
H  -5.50300 15.51600 41.60600
H  -4.55200 16.33400 46.59100
H  -4.48800 18.06100 46.00600
H  -3.28600 16.93500 45.61100
Mg -5.20800 24.65000 26.20700
C  -3.16800 26.24000 28.59100
C  -6.25400 22.50400 28.57200
C  -7.14800 23.25200 23.88700
C  -3.84100 26.75500 23.83400
N  -4.58000 24.31700 28.30200
C  -3.88700 25.16900 29.13300
C  -4.15500 24.86400 30.62700
C  -4.72400 23.41000 30.47600
C  -5.29500 23.40900 28.99400
C  -3.57300 22.35500 30.52700
C  -5.22300 25.84300 31.20300
C  -5.14000 26.20400 32.69000
H  -4.61200 25.14300 33.61700
N  -6.57100 23.03500 26.20700
C  -6.85700 22.33300 27.31900
C  -7.87900 21.44900 26.96900
C  -8.24800 21.59000 25.56900
C  -7.30200 22.63200 25.14300
C  -8.62700 20.59700 28.03100
C  -9.33800 20.86900 24.71400
O  -9.36100 21.09300 23.47600
C  -10.24800 19.72900 25.28600
N  -5.41700 24.91400 24.17600
C  -6.35100 24.30200 23.47100
C  -6.27700 24.77200 21.97700
C  -5.45900 26.08500 22.08500
C  -4.79100 25.88200 23.41700
C  -5.63300 23.69900 21.05500
C  -6.32800 27.37900 22.14600
C  -6.19600 28.18000 20.83900
N  -3.65600 26.09500 26.12700
C  -3.30400 26.89500 25.10600
C  -2.36300 27.82600 25.55400
C  -2.33900 27.60800 26.97300
C  -3.05400 26.52200 27.22700
C  -1.57800 28.83800 24.79400
C  -1.85300 28.19100 28.25200
O  -1.08200 29.11800 28.54300
C  -2.36300 27.23600 29.34000
C  -1.25200 26.70600 30.16500
O  -0.27700 26.06300 29.78200
O  -1.54800 26.95200 31.51600
C  -0.65800 26.39000 32.52700
H  -6.60700 21.77200 29.30100
H  -7.69300 22.82100 23.04400
H  -3.31800 27.47200 23.19700
H  -3.29100 24.92900 31.28800
H  -5.55100 23.13600 31.13100
H  -3.35000 22.08200 29.49500
H  -3.66900 21.39300 31.02900
H  -2.63000 22.83700 30.78600
H  -6.19000 25.37100 31.03200
H  -5.19100 26.81300 30.70600
H  -6.14100 26.30900 33.10900
H  -4.54700 27.09800 32.87900
H  -9.65000 20.95800 28.13700
H  -8.18000 20.46500 29.01600
H  -8.73500 19.57800 27.65900
H  -10.76100 20.19900 26.12600
H  -9.68100 18.82000 25.48500
H  -10.99500 19.53200 24.51700
H  -7.27500 24.90500 21.55900
H  -4.67500 26.14200 21.33100
H  -4.86400 24.18600 20.45600
H  -6.45500 23.34900 20.43000
H  -5.22100 22.88000 21.64300
H  -5.99700 27.99400 22.98200
H  -7.38800 27.13700 22.21800
H  -5.79300 27.71100 19.94200
H  -5.62000 29.08200 21.04600
H  -7.22100 28.47900 20.62300
H  -2.27900 29.28200 24.08700
H  -0.86000 28.27600 24.19700
H  -0.99000 29.51400 25.41400
H  -3.02900 27.83700 29.96000
H  0.25000 26.99200 32.49300
H  -0.19000 25.42800 32.31600
H  -1.08500 26.37400 33.53000

