158

Mg 48.84500 44.97100 44.10700
C  45.42700 45.33800 43.17900
C  48.67200 41.67100 43.17500
C  52.06900 44.97800 44.09900
C  48.74400 48.54800 44.84400
N  47.21700 43.65200 43.29400
C  45.94500 43.99000 42.91900
C  45.30900 42.85400 42.15100
C  46.10300 41.61200 42.77600
C  47.42900 42.28600 43.24200
C  45.40000 40.72800 43.88000
C  45.45600 43.02500 40.60700
C  44.27800 42.53300 39.81500
H  43.75200 43.45300 38.76000
N  50.22300 43.57100 43.56800
C  49.96800 42.24600 43.31200
C  51.22600 41.56000 42.96900
C  52.24500 42.55900 43.11500
C  51.54100 43.81000 43.53100
C  51.24700 40.12200 42.53100
C  53.73300 42.44400 42.79200
O  54.24100 41.37600 42.59800
C  54.67600 43.59700 42.65000
N  50.26500 46.53600 44.46100
C  51.56800 46.17400 44.56900
C  52.42200 47.34600 45.06300
C  51.39200 48.54900 45.19700
C  50.05200 47.80200 44.85800
C  53.09800 46.96700 46.32100
C  51.69500 49.79000 44.39000
C  52.47300 50.85700 45.21400
N  47.46400 46.64700 44.02000
C  47.57600 47.99900 44.33800
C  46.32100 48.61500 44.11100
C  45.42100 47.61200 43.73600
C  46.19700 46.44900 43.61900
C  45.96200 50.06700 44.32500
C  44.08300 47.29800 43.31900
O  43.03400 47.92100 43.39300
C  44.02800 45.82500 42.90300
C  42.90900 45.11000 43.49400
O  41.91000 44.70000 42.90200
O  43.21100 44.78400 44.78600
C  42.19900 43.88200 45.44100
H  48.76500 40.58400 43.15200
H  53.15500 44.97000 44.21500
H  48.69400 49.55800 45.25700
H  44.26800 42.78600 42.46700
H  46.27600 40.86200 42.00400
H  45.02600 39.79500 43.46000
H  44.60000 41.38200 44.22500
H  46.06800 40.52200 44.71700
H  46.31300 42.43700 40.27700
H  45.54900 44.08500 40.37200
H  43.44100 42.28700 40.46900
H  44.53000 41.63100 39.25700
H  50.93400 40.04000 41.49100
H  50.65500 39.47300 43.17600
H  52.24600 39.68900 42.59400
H  54.05900 44.45100 42.37100
H  55.38800 43.41000 41.84700
H  55.35400 43.86000 43.46200
H  53.12200 47.62200 44.27500
H  51.28900 48.73800 46.26500
H  53.19400 45.89300 46.48400
H  52.65900 47.39400 47.22200
H  54.08900 47.39600 46.17200
H  50.73200 50.10000 43.98300
H  52.28500 49.53900 43.50800
H  52.07800 51.84300 44.96900
H  53.51100 50.79800 44.88800
H  52.37700 50.69900 46.28800
H  45.00900 50.42600 43.93800
H  46.71800 50.59000 43.74000
H  46.08900 50.36100 45.36700
H  43.82300 45.80700 41.83300
H  42.49400 43.82000 46.48900
H  42.12300 42.83200 45.15900
H  41.26300 44.41800 45.59500
Mg 47.84000 34.05900 27.08300
C  45.91100 32.97500 29.93600
C  48.74600 36.84300 28.85500
C  49.05400 35.44500 24.25700
C  46.74900 31.24500 25.41600
N  47.37800 34.76900 29.09000
C  46.56700 34.25800 30.09600
C  46.61100 35.11000 31.36900
C  47.13800 36.41700 30.74600
C  47.82600 35.98800 29.45300
C  46.05400 37.52500 30.57000
C  47.50800 34.56600 32.56100
C  46.91800 34.91500 33.90100
H  47.87200 35.42000 35.00400
N  48.78600 35.90600 26.58000
C  49.20600 36.78400 27.54800
C  50.07400 37.76600 26.85200
C  50.26200 37.43300 25.49200
C  49.32300 36.22300 25.36900
C  50.66900 38.99700 27.52600
C  51.15500 38.05400 24.37500
O  51.11000 37.61600 23.20800
C  52.15700 39.18600 24.77800
N  47.74300 33.49200 25.20100
C  48.37300 34.20500 24.22600
C  48.09600 33.61500 22.82500
C  47.43500 32.27300 23.14200
C  47.21600 32.35900 24.68600
C  47.23100 34.48100 21.93200
C  48.47600 31.15300 22.80700
C  49.66200 30.74700 23.70200
N  46.74100 32.40600 27.51700
C  46.37600 31.27400 26.75800
C  45.55500 30.37500 27.48900
C  45.33100 31.02900 28.70200
C  46.05700 32.22800 28.69000
C  44.99700 29.08900 27.00600
C  44.55000 30.91400 30.01300
O  43.80800 29.99600 30.43200
C  44.82000 32.19900 30.70800
C  44.96600 32.00200 32.19500
O  45.97600 31.70800 32.73200
O  43.74800 31.92700 32.73100
C  43.81200 31.68900 34.23500
H  49.08400 37.65300 29.50500
H  49.52500 35.69600 23.30400
H  46.35900 30.38600 24.86400
H  45.58400 35.27800 31.69400
H  47.95300 36.84700 31.32700
H  45.99900 37.89400 29.54600
H  46.19900 38.43000 31.15900
H  45.10200 37.03100 30.76800
H  48.50000 35.01300 32.49000
H  47.75700 33.50800 32.48000
H  46.42500 34.00300 34.24000
H  46.05900 35.57800 33.79700
H  51.75500 38.92200 27.55800
H  50.27400 38.92500 28.53900
H  50.36700 39.95300 27.09600
H  52.92300 39.34300 24.01900
H  52.63900 38.83600 25.69100
H  51.79500 40.20100 24.94200
H  49.10200 33.51000 22.41900
H  46.50000 32.11000 22.60500
H  47.24200 35.50100 22.31800
H  46.22400 34.07000 21.86500
H  47.65400 34.47200 20.92800
H  49.01900 31.41900 21.90000
H  47.88000 30.25000 22.67800
H  49.74000 31.42900 24.54900
H  50.62800 30.89100 23.21900
H  49.42300 29.76500 24.11000
H  44.62600 28.43900 27.79800
H  45.68000 28.55100 26.34800
H  44.12600 29.24000 26.36800
H  43.91800 32.80600 30.63800
H  42.92600 32.20200 34.60900
H  44.61600 32.09400 34.85100
H  43.89100 30.61600 34.40900

