158

Mg -2.77800 17.38800 27.19100
C  -3.36600 15.06900 29.76000
C  -3.22300 19.91000 29.54300
C  -2.54400 19.50100 24.79200
C  -3.11700 14.72400 24.86200
N  -3.25000 17.45200 29.34200
C  -3.32800 16.40200 30.16600
C  -3.37300 16.88300 31.67500
C  -3.79000 18.40500 31.48500
C  -3.47400 18.61000 30.02900
C  -5.31900 18.77800 31.75200
C  -2.07000 16.60600 32.41300
C  -1.93600 17.35700 33.70200
H  -1.59700 16.66900 34.95100
N  -2.68000 19.45800 27.17600
C  -2.84300 20.34800 28.24100
C  -2.59600 21.68900 27.72700
C  -2.22400 21.55300 26.37700
C  -2.47800 20.14000 26.04700
C  -2.71400 22.89900 28.51400
C  -1.58200 22.55200 25.42800
O  -1.37000 22.33400 24.24600
C  -1.23200 23.82600 25.95100
N  -2.75700 17.16600 25.11400
C  -2.77100 18.20100 24.32800
C  -2.90700 17.85500 22.83100
C  -3.04600 16.28800 22.90800
C  -2.90500 16.04700 24.38700
C  -3.89700 18.66700 22.04100
C  -2.16300 15.42900 21.99700
C  -0.74900 14.99700 22.32900
N  -3.21400 15.31600 27.20700
C  -3.24000 14.33700 26.27000
C  -3.41300 12.99800 26.87200
C  -3.28600 13.29600 28.19600
C  -3.28100 14.66000 28.38300
C  -3.54500 11.72700 26.11400
C  -3.25900 12.64100 29.47000
O  -3.16500 11.49000 29.85200
C  -3.40600 13.80700 30.48000
C  -2.34400 13.64100 31.49400
O  -1.19800 13.70600 31.14600
O  -2.90600 13.17400 32.68300
C  -1.89600 12.59200 33.59500
H  -3.34800 20.75400 30.22500
H  -2.45300 20.13600 23.90800
H  -3.24000 13.93600 24.11700
H  -4.10700 16.27900 32.20800
H  -3.23500 19.09600 32.11900
H  -5.43600 18.65200 32.82800
H  -6.03700 18.17800 31.19200
H  -5.40700 19.84000 31.52300
H  -1.09700 16.81100 31.96600
H  -2.22500 15.57000 32.71200
H  -2.87300 17.88200 33.89000
H  -1.15500 18.11400 33.65100
H  -1.75300 23.36700 28.72700
H  -3.13800 22.69800 29.49700
H  -3.29600 23.72700 28.10900
H  -0.51500 23.71800 26.76500
H  -2.11500 24.37900 26.27100
H  -0.78200 24.51200 25.23400
H  -1.98700 18.17000 22.34000
H  -4.09700 16.09000 22.69600
H  -3.51200 19.45100 21.38800
H  -4.63800 19.06100 22.73600
H  -4.52300 18.04900 21.39700
H  -2.05100 16.05700 21.11300
H  -2.75600 14.58800 21.63900
H  -0.42900 15.36800 23.30200
H  0.03600 15.28900 21.63100
H  -0.69500 13.91600 22.46400
H  -4.13200 11.02600 26.70700
H  -2.55000 11.43900 25.77500
H  -4.18000 11.89700 25.24400
H  -4.37800 13.73800 30.96900
H  -2.28900 12.91400 34.55900
H  -0.87900 12.84900 33.29600
H  -1.92600 11.50200 33.60000
Mg 16.58400 -1.61900 27.60900
C  15.55600 0.47500 30.25900
C  18.76900 -3.10800 29.74200
C  17.69800 -3.35300 25.03200
C  14.65300 0.40200 25.45100
N  16.98100 -1.46700 29.85000
C  16.54100 -0.42900 30.63400
C  17.15700 -0.63700 32.05600
C  18.34700 -1.64800 31.86300
C  18.07600 -2.04400 30.37900
C  19.77900 -1.14500 32.14700
C  16.08900 -1.19800 33.02800
C  16.14400 -0.75300 34.48800
H  17.48000 -0.19400 35.03200
N  17.94500 -3.07500 27.43700
C  18.81300 -3.52700 28.41300
C  19.59200 -4.61300 27.93600
C  19.28400 -4.73900 26.51900
C  18.25100 -3.72100 26.34100
C  20.40800 -5.55000 28.80100
C  19.82900 -5.79300 25.48500
O  19.36000 -5.84800 24.33600
C  20.95500 -6.72000 25.86300
N  16.26300 -1.41300 25.53700
C  16.91700 -2.21200 24.66600
C  16.65700 -1.81300 23.20100
C  15.43300 -0.83800 23.36100
C  15.37900 -0.68900 24.89900
C  17.84800 -1.16300 22.50500
C  14.10100 -1.13100 22.65000
C  13.75700 -0.30800 21.45700
N  15.46700 0.10100 27.73400
C  14.69700 0.81100 26.77100
C  13.99900 1.94900 27.45100
C  14.23400 1.77100 28.80400
C  15.18100 0.68200 28.94800
C  13.11100 2.87300 26.77400
C  13.91100 2.31900 30.13500
O  13.29000 3.28200 30.55700
C  14.73300 1.39600 31.16700
C  15.45800 2.25800 32.06800
O  16.46300 2.87600 31.81700
O  14.71500 2.56900 33.18000
C  15.25500 3.68700 34.03800
H  19.40500 -3.66000 30.43800
H  18.19200 -3.94000 24.25500
H  14.18300 1.03200 24.69300
H  17.57200 0.31300 32.39300
H  18.20700 -2.51100 32.51300
H  19.78700 -0.13000 32.54500
H  20.32300 -1.06700 31.20600
H  20.32800 -1.82500 32.79800
H  16.11700 -2.28700 33.06500
H  15.07100 -0.93400 32.74200
H  15.75300 -1.62200 35.01900
H  15.35100 -0.00500 34.48300
H  20.09300 -6.58500 28.67000
H  20.14100 -5.54100 29.85800
H  21.47700 -5.49000 28.60200
H  20.72800 -7.30700 26.75300
H  21.73600 -6.04700 26.21700
H  21.19800 -7.35100 25.00900
H  16.36400 -2.62300 22.53400
H  15.81200 0.13700 23.05300
H  18.77700 -1.19900 23.07400
H  17.70100 -0.17600 22.06600
H  18.10300 -1.86900 21.71500
H  13.38600 -0.94900 23.45300
H  14.06600 -2.15700 22.28300
H  13.72600 -0.86000 20.51800
H  14.46000 0.52000 21.36400
H  12.79500 0.17900 21.61300
H  13.58700 3.23000 25.86100
H  12.69500 3.69200 27.36100
H  12.28500 2.23100 26.47100
H  14.03000 0.77500 31.72200
H  14.66900 3.75600 34.95400
H  15.11400 4.63600 33.52100
H  16.30300 3.56600 34.31200

