158

Mg 8.97800 4.05800 27.89300
C  10.33800 2.45200 30.85700
C  7.28500 6.22400 29.92000
C  7.44000 5.11800 25.17300
C  10.70000 1.72100 25.92600
N  8.71600 4.27100 30.18200
C  9.43200 3.59100 31.22000
C  9.14200 4.12300 32.56200
C  8.13600 5.31700 32.23300
C  8.07900 5.34900 30.65900
C  6.67300 5.21000 32.61200
C  10.44000 4.59500 33.23400
C  10.85500 3.95500 34.54200
H  11.36600 4.95400 35.60800
N  7.51000 5.40700 27.65300
C  6.92700 6.24200 28.53900
C  6.16600 7.26600 27.88200
C  6.10900 6.86400 26.49700
C  7.07500 5.71400 26.35300
C  5.47200 8.46200 28.50000
C  5.23600 7.32900 25.33400
O  5.35600 6.95100 24.18900
C  4.16700 8.29800 25.61300
N  9.12900 3.50700 25.87500
C  8.34500 4.08400 24.87300
C  8.63500 3.66600 23.42800
C  9.75000 2.61900 23.74600
C  9.90700 2.62600 25.28500
C  7.43500 3.22400 22.58800
C  11.15100 2.86100 23.10600
C  11.68900 1.79400 22.17500
N  10.27800 2.50000 28.22100
C  10.92000 1.67000 27.29600
C  11.75800 0.71300 27.98700
C  11.57600 0.99100 29.32300
C  10.65700 2.12700 29.46300
C  12.68500 -0.33200 27.34500
C  12.01400 0.65900 30.68800
O  12.84100 -0.12100 31.13200
C  11.24500 1.61500 31.68100
C  10.58900 0.85000 32.75200
O  9.52800 0.22400 32.65400
O  11.31600 0.93200 33.94600
C  10.72700 0.21000 35.02400
H  6.96000 7.02700 30.58500
H  7.05900 5.56300 24.25100
H  11.16400 1.04300 25.20700
H  8.59500 3.33500 33.08100
H  8.54900 6.31300 32.39300
H  6.10000 4.87600 31.74700
H  6.30400 6.17300 32.96500
H  6.51700 4.54800 33.46300
H  10.31300 5.65000 33.47400
H  11.28500 4.39300 32.57500
H  11.69100 3.26900 34.40600
H  10.03000 3.32300 34.87000
H  5.76800 9.43400 28.10700
H  5.63100 8.42700 29.57800
H  4.40700 8.25900 28.38100
H  3.62500 8.50900 24.69100
H  4.48600 9.22100 26.09700
H  3.41100 7.91800 26.30100
H  9.11400 4.57300 23.05900
H  9.29900 1.69000 23.39700
H  6.54800 3.17000 23.22000
H  7.59000 2.20000 22.24800
H  7.25300 3.89400 21.74700
H  11.87700 2.97900 23.91100
H  11.17500 3.83100 22.61000
H  12.04500 2.10200 21.19200
H  10.97000 0.97600 22.13200
H  12.54100 1.33500 22.67600
H  13.47900 -0.50800 28.07100
H  13.06700 0.06800 26.40600
H  12.13300 -1.26200 27.20900
H  11.93500 2.18100 32.30700
H  10.22700 -0.70300 34.70000
H  10.07400 0.77600 35.68800
H  11.53700 -0.22400 35.61100
Mg 48.76400 44.59200 43.24600
C  45.59600 44.93600 42.23000
C  48.83200 41.30700 42.03100
C  52.14600 44.82000 42.91700
C  48.80500 48.16500 43.76800
N  47.41600 43.27300 42.27700
C  46.13600 43.63000 41.99500
C  45.35900 42.50600 41.25200
C  46.26000 41.30000 41.66400
C  47.60900 41.98800 41.96100
C  45.77400 40.30300 42.79400
C  45.29900 42.70000 39.74000
C  43.88300 42.34600 39.11000
H  43.86700 41.47700 37.73000
N  50.23600 43.20300 42.72200
C  50.05800 41.88400 42.29700
C  51.32600 41.28300 42.13500
C  52.34100 42.26700 42.47400
C  51.59800 43.51400 42.70300
C  51.53900 39.71500 41.84500
C  53.86300 41.97000 42.47600
O  54.27700 40.86400 42.17400
C  54.74800 43.07100 42.97000
N  50.28000 46.30900 43.26400
C  51.61200 46.08100 43.25500
C  52.38300 47.37400 43.43000
C  51.31600 48.38500 43.73800
C  50.04200 47.58600 43.63800
C  53.42900 47.17100 44.51300
C  51.28100 49.50000 42.67000
C  51.09800 50.98200 43.17000
N  47.49300 46.17100 43.34300
C  47.56700 47.50500 43.58100
C  46.26200 48.14200 43.33500
C  45.45400 47.16000 42.78500
C  46.27900 45.99300 42.86800
C  46.05800 49.64200 43.53400
C  44.16100 46.97500 42.14200
O  43.24200 47.76200 41.87200
C  44.20100 45.40200 41.92200
C  43.15400 44.74900 42.77500
O  42.35600 43.93000 42.34400
O  43.08300 45.32300 44.05000
C  41.91500 44.90600 44.78800
H  48.85300 40.28700 41.64200
H  53.23100 44.86500 42.80500
H  48.87800 49.21800 44.04600
H  44.34500 42.43900 41.64600
H  46.57000 40.73900 40.78200
H  46.38700 40.36300 43.69400
H  46.00300 39.27600 42.50700
H  44.73200 40.44200 43.08200
H  46.11800 42.16400 39.26200
H  45.39900 43.76500 39.52900
H  43.45400 43.32400 38.89300
H  43.20900 42.00100 39.89400
H  52.40600 39.59000 41.19600
H  50.70400 39.18800 41.38500
H  51.71200 39.20000 42.79000
H  55.66400 42.61600 43.34600
H  54.21500 43.45700 43.83900
H  54.99500 43.74400 42.14900
H  52.82100 47.43700 42.43500
H  51.35600 48.83000 44.73200
H  53.56100 46.14200 44.84500
H  53.22300 47.84100 45.34800
H  54.36500 47.38900 43.99900
H  50.38200 49.26900 42.09900
H  52.21100 49.37200 42.11600
H  51.18700 51.05500 44.25400
H  50.12800 51.43300 42.96100
H  51.88300 51.57700 42.70300
H  45.88400 49.85100 44.59000
H  45.16000 49.93700 42.99200
H  46.87900 50.23700 43.13600
H  44.01700 45.25400 40.85800
H  40.96200 45.36600 44.52600
H  41.92700 44.98400 45.87500
H  41.72400 43.83900 44.66900

