158

Mg -1.76700 18.17000 27.13700
C  -2.13400 16.12200 30.01100
C  -2.56700 20.81100 28.99000
C  -1.26700 20.01400 24.52300
C  -1.64800 15.24500 25.22400
N  -2.09700 18.38100 29.24200
C  -2.17600 17.49300 30.28100
C  -2.31000 18.15000 31.58700
C  -2.90100 19.51900 31.20000
C  -2.48400 19.59500 29.71700
C  -4.47300 19.58100 31.41000
C  -0.99800 18.16900 32.42000
C  -1.00600 17.58700 33.78800
H  0.28700 17.35600 34.65600
N  -1.69600 20.18900 26.85500
C  -2.11100 21.19300 27.72200
C  -1.85600 22.47100 27.14700
C  -1.36100 22.23000 25.84700
C  -1.37200 20.79200 25.64700
C  -2.15100 23.76000 27.96400
C  -1.08500 23.26000 24.77200
O  -0.77500 23.02700 23.61100
C  -1.12900 24.73100 25.20700
N  -1.51700 17.72200 25.15400
C  -1.40700 18.65900 24.25400
C  -1.34700 18.03000 22.86700
C  -1.33100 16.55500 23.08200
C  -1.60800 16.45200 24.54500
C  -2.43500 18.68300 21.92600
C  -0.16700 15.70400 22.52800
C  -0.47300 14.82600 21.30700
N  -1.87200 16.09100 27.49800
C  -1.68800 15.03100 26.57900
C  -1.69900 13.80900 27.26300
C  -1.88100 14.15900 28.65700
C  -1.98300 15.58200 28.71200
C  -1.66700 12.39100 26.70500
C  -2.18800 13.67700 29.96700
O  -2.31600 12.50600 30.38100
C  -2.11600 14.88700 30.86800
C  -0.92200 14.76300 31.72900
O  0.21300 14.98400 31.47400
O  -1.25900 14.22200 32.92100
C  -0.30500 13.61500 33.82600
H  -3.02800 21.65600 29.50500
H  -1.04000 20.59300 23.62500
H  -1.65300 14.34200 24.61000
H  -3.03900 17.53400 32.11500
H  -2.47500 20.39700 31.68600
H  -4.82800 19.40800 30.39500
H  -4.73800 20.52500 31.88700
H  -5.02100 18.81200 31.95400
H  -0.54300 19.15500 32.51100
H  -0.22500 17.69000 31.81800
H  -1.53200 16.63600 33.70000
H  -1.63100 18.28200 34.34900
H  -2.62100 23.55500 28.92700
H  -2.95400 24.15600 27.34300
H  -1.37000 24.50100 27.79600
H  -2.15100 25.01000 25.46400
H  -0.99800 25.47900 24.42600
H  -0.42400 24.98100 26.00000
H  -0.35900 18.23800 22.45600
H  -2.21300 16.08600 22.64500
H  -3.00200 19.44700 22.45600
H  -3.18800 17.96100 21.60800
H  -2.03900 19.13600 21.01700
H  0.16900 15.03000 23.31500
H  0.72300 16.29600 22.31200
H  -0.44200 13.77000 21.57700
H  0.26900 15.13500 20.57000
H  -1.42400 15.01000 20.80800
H  -1.05200 12.28300 25.81100
H  -2.71700 12.10000 26.71800
H  -1.13900 11.80800 27.46000
H  -3.00700 14.94300 31.49400
H  -0.36200 12.52800 33.77800
H  -0.44100 13.89700 34.87000
H  0.69100 13.96000 33.54900
Mg 26.11100 1.39700 29.77700
C  27.93300 0.99100 32.67900
C  23.31600 1.93100 31.69200
C  24.08200 1.66200 26.96900
C  28.74400 0.54000 27.77700
N  25.70900 1.30000 31.89400
C  26.62100 1.22200 32.93200
C  26.00200 1.40500 34.31800
C  24.49600 1.61500 33.93400
C  24.53400 1.72300 32.40700
C  23.53200 0.46800 34.32200
C  26.52700 2.50400 35.18700
C  26.00700 2.60600 36.64500
H  26.95100 2.40100 37.83300
N  23.95200 1.67500 29.39500
C  22.99400 1.91100 30.33600
C  21.70000 2.24900 29.75000
C  21.96900 2.27100 28.29600
C  23.36000 1.86500 28.14000
C  20.46100 2.51700 30.57100
C  21.00000 2.54800 27.21100
O  21.35000 2.61200 26.04600
C  19.48300 2.76800 27.44200
N  26.39900 1.47700 27.62200
C  25.43100 1.44100 26.69000
C  25.88800 1.09900 25.19200
C  27.44300 0.82800 25.46500
C  27.54800 0.98800 27.06300
C  25.07600 0.07500 24.44000
C  28.46600 1.70500 24.71900
C  28.91600 1.13600 23.42700
N  28.01900 0.92400 30.07800
C  28.98500 0.60600 29.21500
C  30.17100 0.22300 29.90200
C  29.81700 0.41300 31.31000
C  28.46300 0.76200 31.34100
C  31.43200 -0.16200 29.34400
C  30.33600 0.46500 32.70300
O  31.51600 0.41000 33.13700
C  29.09700 0.68700 33.68900
C  28.87700 -0.37400 34.68500
O  28.18500 -1.37600 34.52300
O  29.61700 -0.06600 35.80600
C  29.56100 -0.98600 36.97200
H  22.47300 2.14200 32.35300
H  23.57700 1.70100 26.00200
H  29.55300 0.15300 27.15500
H  26.03900 0.44500 34.83300
H  24.15800 2.56400 34.35000
H  23.60000 -0.00600 35.30100
H  23.60500 -0.38400 33.64600
H  22.51100 0.83000 34.19900
H  26.51300 3.46600 34.67300
H  27.58400 2.33700 35.39500
H  25.24400 1.83500 36.75900
H  25.49600 3.56000 36.77600
H  20.55500 2.70900 31.64000
H  19.73800 1.74700 30.30200
H  20.02300 3.47100 30.27700
H  18.97400 2.97800 26.50100
H  19.34700 3.61500 28.11300
H  19.00600 1.82500 27.70600
H  25.76700 2.10300 24.78400
H  27.58600 -0.23300 25.26000
H  25.77100 -0.49200 23.82100
H  24.28200 0.58400 23.89400
H  24.43000 -0.48400 25.11800
H  29.38000 1.73700 25.31200
H  28.17900 2.75600 24.67200
H  28.71000 1.97200 22.75800
H  28.36500 0.20500 23.29400
H  29.96500 0.91100 23.23700
H  32.24500 -0.12000 30.06900
H  31.63200 0.52400 28.52100
H  31.26100 -1.18600 29.01200
H  29.31200 1.65800 34.13500
H  28.72200 -0.63000 37.57100
H  30.42600 -1.02300 37.63500
H  29.30900 -2.01400 36.71400

