158

Mg 44.49600 5.08500 46.85500
C  42.49700 7.89500 46.29800
C  41.76300 3.09500 46.46700
C  46.61700 2.51500 46.60500
C  47.36300 7.31100 46.77000
N  42.32500 5.49600 46.50600
C  41.75000 6.68100 46.33000
C  40.21100 6.49300 46.17000
C  39.99400 4.92700 46.46700
C  41.45800 4.45000 46.63700
C  39.02000 4.68100 47.72800
C  39.69300 6.93900 44.68500
C  38.56600 7.96400 44.50800
H  38.81400 8.93100 43.35100
N  44.25800 3.08400 46.65000
C  43.02200 2.48000 46.39200
C  43.28200 1.09900 46.29800
C  44.65800 0.84200 46.49300
C  45.27500 2.17500 46.60100
C  42.22600 0.10700 45.97100
C  45.33200 -0.50300 46.54500
O  44.70100 -1.46600 46.29300
C  46.77100 -0.63600 46.82400
N  46.68700 4.92900 46.37500
C  47.31600 3.77200 46.57400
C  48.80200 3.84900 46.77000
C  49.03200 5.36900 46.85500
C  47.61300 5.94000 46.61900
C  49.32900 3.14000 48.01000
C  50.12200 5.92500 45.90500
C  51.30100 6.62800 46.57000
N  44.91200 7.10900 46.58200
C  46.06800 7.87100 46.61500
C  45.69700 9.23600 46.45200
C  44.30700 9.27100 46.39700
C  43.89300 7.98200 46.43200
C  46.53700 10.50100 46.37900
C  43.22600 10.12800 46.33100
O  43.20400 11.35900 46.37700
C  41.93100 9.30100 46.24900
C  41.17100 9.60800 47.45800
O  41.28800 9.02500 48.53000
O  40.27000 10.62200 47.25000
C  39.23500 10.65700 48.29100
H  40.89500 2.43300 46.48900
H  47.31800 1.68000 46.64700
H  48.29500 7.87400 46.85700
H  39.75900 7.07100 46.97600
H  39.43600 4.43500 45.67000
H  38.66600 5.57800 48.23700
H  39.63700 4.34700 48.56200
H  38.13500 4.07200 47.54000
H  39.27400 6.10700 44.11800
H  40.51800 7.40300 44.14600
H  38.41800 8.50600 45.44200
H  37.65000 7.39800 44.33900
H  41.22600 0.48000 45.75000
H  42.08100 -0.74900 46.63000
H  42.51100 -0.27700 44.99100
H  47.08800 -0.00500 47.65500
H  47.33500 -0.51200 45.89900
H  46.93400 -1.65200 47.18300
H  49.38800 3.41000 45.96300
H  49.20800 5.73100 47.86800
H  49.21200 2.05900 47.94100
H  48.71000 3.50900 48.82800
H  50.38700 3.40500 48.00100
H  49.59600 6.57800 45.20800
H  50.57600 5.23300 45.19700
H  51.68200 7.38000 45.88000
H  52.06500 5.89900 46.84000
H  50.98900 7.20100 47.44300
H  45.84500 11.33900 46.45800
H  46.98700 10.46400 45.38700
H  47.24300 10.61100 47.20100
H  41.53800 9.65600 45.29600
H  39.53000 10.48600 49.32600
H  38.62900 9.79200 48.02000
H  38.78600 11.64600 48.38500
Mg 30.11100 58.58200 40.01300
C  27.29700 56.41400 39.19200
C  32.29100 56.06200 39.16600
C  32.52500 60.83100 40.31600
C  27.77600 61.10600 40.32100
N  29.83600 56.51100 39.39900
C  28.63500 55.80900 39.23300
C  28.87300 54.36400 38.76400
C  30.44100 54.30600 38.68200
C  30.91600 55.69900 39.13000
C  30.94400 53.14700 39.40300
C  28.07600 53.79300 37.45100
C  28.15900 54.85800 36.29900
H  29.20000 54.67100 35.12700
N  32.21000 58.42700 39.77100
C  32.86200 57.30900 39.46000
C  34.25400 57.66100 39.49200
C  34.43700 58.95800 40.03500
C  33.01600 59.52200 40.07600
C  35.42500 56.73700 39.16400
C  35.60800 59.74900 40.46100
O  36.71200 59.30200 40.31800
C  35.51600 61.00100 41.21000
N  30.14600 60.74500 40.10900
C  31.24000 61.39200 40.37000
C  31.00700 62.88200 40.69700
C  29.46500 62.99100 40.77100
C  29.10200 61.50200 40.44500
C  31.69800 63.32100 42.05600
C  28.90700 63.91200 39.64500
C  28.43900 65.33600 40.10100
N  27.93300 58.83300 39.73600
C  27.16400 59.93200 39.91100
C  25.78800 59.55100 39.71200
C  25.87200 58.20300 39.33000
C  27.14500 57.78900 39.51000
C  24.62200 60.47600 39.76800
C  25.01500 57.11700 38.90500
O  23.77800 57.05400 38.72100
C  25.95300 55.91400 38.85300
C  25.53900 54.68600 39.54400
O  25.96000 54.28300 40.59100
O  24.62400 53.90600 38.74100
C  24.37700 52.55300 39.25300
H  33.00300 55.25000 39.00600
H  33.26600 61.61300 40.49500
H  27.04200 61.86400 40.60300
H  28.36500 53.90800 39.61300
H  30.68800 54.23100 37.62300
H  31.61500 53.38800 40.22600
H  31.54700 52.60700 38.67300
H  30.09100 52.63800 39.85100
H  27.10300 53.35900 37.68200
H  28.81800 53.01500 37.26800
H  28.38800 55.82400 36.74800
H  27.12800 54.95400 35.95700
H  36.22600 57.15300 38.55400
H  35.11300 55.91900 38.51500
H  35.86300 56.36400 40.09000
H  35.49200 61.76300 40.43000
H  36.48200 61.18500 41.68000
H  34.84100 61.03300 42.06600
H  31.36600 63.47400 39.85500
H  29.11200 63.34100 41.74200
H  30.94800 63.75700 42.71500
H  32.38300 64.13500 41.81800
H  32.11200 62.45300 42.56900
H  28.11700 63.37600 39.11900
H  29.65600 64.27400 38.94000
H  28.46800 65.39000 41.18900
H  27.41100 65.54800 39.80900
H  29.07000 66.12800 39.69700
H  23.74100 59.98100 40.17700
H  24.51300 60.80400 38.73400
H  24.75100 61.38900 40.35000
H  25.94400 55.74800 37.77600
H  24.17200 52.40000 40.31300
H  25.05000 51.76100 38.92400
H  23.49400 52.27800 38.67700

