158

Mg 25.72300 0.09300 29.29900
C  27.47600 -0.20300 32.33700
C  22.91600 0.46300 31.02000
C  24.21800 0.35300 26.38000
C  28.65700 -0.85600 27.67000
N  25.35500 0.26900 31.44800
C  26.17400 0.15500 32.53800
C  25.44200 0.49200 33.81900
C  23.90200 0.63200 33.38300
C  24.06000 0.41100 31.87000
C  22.84800 -0.31600 34.15600
C  25.94800 1.82600 34.43300
C  27.03600 1.79300 35.52500
H  26.88800 2.53100 36.73400
N  23.81200 0.36500 28.79300
C  22.81900 0.69200 29.62700
C  21.59700 0.91200 28.87300
C  21.95600 0.81000 27.52100
C  23.41700 0.59100 27.51900
C  20.24400 0.87100 29.54900
C  20.99500 0.85700 26.28200
O  21.32300 0.79100 25.11000
C  19.51400 1.08800 26.43900
N  26.31700 -0.30100 27.37100
C  25.55200 0.02700 26.29400
C  26.20900 -0.24600 24.94900
C  27.66500 -0.58300 25.40800
C  27.54100 -0.65700 26.89200
C  25.59300 -1.40900 24.02400
C  28.75600 0.36700 24.81300
C  28.88600 1.68200 25.58900
N  27.73700 -0.50900 29.82700
C  28.80100 -0.77700 29.10800
C  29.98500 -1.02600 29.87100
C  29.55100 -0.86100 31.20600
C  28.16600 -0.51600 31.11800
C  31.38300 -1.34500 29.39800
C  29.85800 -0.96100 32.59800
O  30.89200 -1.33300 33.11600
C  28.58100 -0.48400 33.33800
C  28.22000 -1.52300 34.33700
O  27.36800 -2.44400 34.16500
O  28.88900 -1.35300 35.51600
C  28.51900 -2.40800 36.52600
H  21.92700 0.50000 31.48200
H  23.76000 0.37700 25.38900
H  29.49600 -1.11400 27.02000
H  25.48000 -0.35200 34.50800
H  23.54300 1.65900 33.44300
H  22.01500 0.34200 34.40500
H  23.13800 -0.63500 35.15700
H  22.44600 -1.11700 33.53500
H  25.14200 2.39500 34.89700
H  26.19500 2.49200 33.60600
H  27.96300 2.05600 35.01500
H  27.30200 0.75000 35.69600
H  20.30100 1.55600 30.39500
H  20.14100 -0.10600 30.02200
H  19.31400 1.12900 29.04300
H  18.92300 1.02800 25.52500
H  19.38700 2.15000 26.65100
H  19.14000 0.46100 27.24800
H  26.13800 0.66100 24.34800
H  28.02200 -1.58400 25.16400
H  26.13800 -2.30700 24.31500
H  25.66500 -1.22600 22.95200
H  24.55500 -1.41900 24.35800
H  28.52500 0.57700 23.76900
H  29.70400 -0.17100 24.81100
H  28.41300 1.64100 26.57000
H  28.47100 2.50000 25.00000
H  29.93200 1.97000 25.69700
H  31.55100 -0.82000 28.45800
H  31.41000 -2.42200 29.23700
H  32.03400 -0.93000 30.16700
H  28.83400 0.38400 33.94700
H  29.15100 -2.17300 37.38300
H  28.86200 -3.40000 36.23200
H  27.48900 -2.45200 36.88000
Mg 43.99800 3.36200 48.26200
C  42.04300 6.27500 47.75300
C  41.07300 1.49500 47.70300
C  45.89000 0.79900 48.08600
C  46.81500 5.47300 48.21600
N  41.77300 3.88400 47.94000
C  41.20500 5.13700 47.69500
C  39.75600 4.97700 47.21700
C  39.42900 3.47800 47.53200
C  40.85200 2.90200 47.77400
C  38.38600 3.17100 48.70000
C  39.50100 5.29300 45.78000
C  38.23500 6.12600 45.44500
H  38.12400 6.78600 44.13400
N  43.58200 1.37000 48.02200
C  42.33700 0.78500 47.71400
C  42.56700 -0.61300 47.64900
C  43.94700 -0.84300 47.72400
C  44.54000 0.44700 48.05700
C  41.41300 -1.55700 47.38600
C  44.62600 -2.18600 47.46300
O  43.93400 -3.18800 47.20400
C  46.06400 -2.36200 47.52800
N  46.09800 3.15000 47.89000
C  46.64100 1.90200 48.07700
C  48.24900 1.95600 48.06200
C  48.47000 3.46100 48.22400
C  47.05100 4.10200 48.06000
C  48.92200 1.05700 49.19400
C  49.48900 4.15600 47.21800
C  50.76200 4.75900 47.83300
N  44.38800 5.38900 48.18900
C  45.58600 6.13800 48.16500
C  45.29000 7.55800 48.12400
C  43.94300 7.58400 47.87900
C  43.44300 6.27000 47.95500
C  46.25500 8.69700 48.17100
C  42.83900 8.54000 47.73100
O  42.86500 9.78200 47.66800
C  41.54700 7.67900 47.60800
C  40.60300 8.02700 48.70600
O  40.89300 8.08700 49.91800
O  39.31800 8.15900 48.16100
C  38.24000 8.49600 49.16100
H  40.18300 0.93600 47.40600
H  46.64100 0.01400 47.97500
H  47.71900 6.08500 48.24500
H  39.19700 5.56400 47.94700
H  39.03700 3.09000 46.59200
H  38.03600 4.12500 49.09400
H  38.83000 2.55200 49.47900
H  37.56800 2.72100 48.13700
H  39.57000 4.40800 45.14600
H  40.35200 5.81400 45.34200
H  38.04200 6.88900 46.19900
H  37.43500 5.38600 45.45300
H  41.55000 -2.15700 46.48700
H  40.47900 -1.02200 47.21700
H  41.30200 -2.30000 48.17700
H  46.65900 -1.83900 46.77900
H  46.34800 -3.40900 47.42700
H  46.36000 -2.04900 48.52900
H  48.70200 1.68600 47.10800
H  48.70100 3.77300 49.24300
H  49.52600 0.24200 48.79600
H  48.15500 0.64600 49.85000
H  49.52000 1.70700 49.83300
H  48.93900 4.85500 46.58800
H  49.86400 3.46600 46.46200
H  51.57700 4.10500 47.52300
H  50.74200 4.74600 48.92300
H  50.94900 5.80200 47.57600
H  47.06700 8.32500 48.79500
H  45.84100 9.56500 48.68600
H  46.68700 8.86900 47.18600
H  40.99100 7.80600 46.67900
H  38.52500 8.17600 50.16400
H  37.27000 8.10600 48.85100
H  38.15700 9.58000 49.22700

