158

Mg 16.50300 51.97300 24.33600
C  18.37200 50.78900 27.35600
C  14.01100 52.82900 26.72000
C  14.74000 52.74000 21.85100
C  19.00900 50.58300 22.47700
N  16.20500 51.57600 26.83800
C  17.15000 51.35600 27.76400
C  16.64600 51.55200 29.17500
C  15.16900 52.09900 28.91800
C  15.12900 52.18300 27.39100
C  14.08700 51.08500 29.44200
C  17.53500 52.52200 29.94700
C  17.82300 52.26700 31.41400
H  16.91200 51.35300 32.25700
N  14.69200 52.77500 24.23800
C  13.73200 53.02600 25.29600
C  12.57400 53.61800 24.74700
C  12.73100 53.53400 23.30700
C  14.09700 52.98000 23.10500
C  11.46800 54.21400 25.58600
C  11.77600 54.01600 22.20800
O  11.97900 53.90900 20.99400
C  10.42200 54.57100 22.64900
N  16.67300 51.47100 22.41200
C  15.92200 52.02900 21.51300
C  16.36300 51.74700 20.01700
C  17.79600 51.17600 20.26700
C  17.90000 51.21300 21.79700
C  15.32600 50.84800 19.25500
C  18.95900 51.94100 19.57300
C  19.04100 51.81900 18.09100
N  18.35300 50.95900 24.79600
C  19.18400 50.40200 23.83400
C  20.41900 49.96400 24.50600
C  20.08200 50.01700 25.88100
C  18.79900 50.59400 25.99100
C  21.69700 49.45200 23.94100
C  20.58000 49.70100 27.21400
O  21.62400 49.25100 27.58200
C  19.44200 50.12700 28.21000
C  18.97700 48.96100 29.02300
O  18.21600 48.09200 28.69300
O  19.71400 48.99600 30.23800
C  19.33000 47.94200 31.15700
H  13.28600 53.16300 27.46500
H  14.18800 53.06800 20.96800
H  19.72000 50.13100 21.78300
H  16.67000 50.58100 29.67000
H  15.01800 53.10900 29.29900
H  13.54400 50.58400 28.64100
H  13.40400 51.67000 30.05800
H  14.51300 50.30500 30.07300
H  17.15200 53.54200 29.90500
H  18.49900 52.59000 29.44400
H  18.04300 53.23600 31.86200
H  18.77700 51.74500 31.48000
H  11.57100 53.99400 26.64900
H  10.46200 53.96600 25.24800
H  11.63400 55.27600 25.40700
H  10.59200 55.35200 23.39000
H  9.83300 53.75000 23.05600
H  10.10400 54.98100 21.69100
H  16.37400 52.67500 19.44500
H  17.75100 50.11300 20.03000
H  15.01700 51.24200 18.28700
H  14.41600 50.82000 19.85400
H  15.80300 49.88100 19.10100
H  19.82700 51.47000 20.03300
H  19.07500 52.97200 19.90700
H  18.00100 51.65100 17.80800
H  19.67400 50.97100 17.83000
H  19.43800 52.72700 17.63800
H  21.47100 49.26200 22.89100
H  21.91200 48.46500 24.35000
H  22.57200 50.09500 24.03700
H  19.74000 50.94400 28.86700
H  19.94800 48.03700 32.05000
H  19.55700 46.93800 30.79800
H  18.33900 48.13900 31.56600
Mg -9.80900 38.16200 42.41100
C  -8.06800 35.29300 41.42800
C  -7.14200 40.01100 41.20300
C  -11.68700 40.89300 42.46200
C  -12.64400 36.08300 42.86900
N  -7.89600 37.74600 41.16100
C  -7.45800 36.46400 40.94000
C  -6.16700 36.51200 40.15900
C  -5.73700 37.98700 40.29700
C  -6.97500 38.66000 40.95200
C  -4.34900 38.29500 40.99300
C  -6.41500 35.99800 38.67500
C  -5.45600 35.01000 38.04200
H  -4.39800 35.55000 37.03800
N  -9.39800 40.16700 42.10500
C  -8.25200 40.72200 41.69900
C  -8.30500 42.12400 41.71100
C  -9.53800 42.45400 42.23400
C  -10.29800 41.14200 42.32300
C  -7.09100 42.98000 41.22800
C  -10.13200 43.82000 42.58400
O  -9.40700 44.78300 42.60700
C  -11.62100 44.14000 42.97400
N  -11.89200 38.41300 42.50200
C  -12.41600 39.69400 42.58400
C  -13.90200 39.59200 42.53400
C  -14.18000 38.09000 42.81600
C  -12.83000 37.43900 42.64700
C  -14.48400 40.60800 43.68500
C  -15.27200 37.43300 41.94900
C  -16.11900 36.30400 42.70600
N  -10.24300 36.04100 42.38900
C  -11.36800 35.37800 42.70300
C  -11.04600 33.96400 42.68500
C  -9.75200 33.89700 42.24900
C  -9.38100 35.18000 41.94100
C  -12.01400 32.89200 43.07000
C  -8.68400 33.03200 41.91400
O  -8.58500 31.81600 41.82300
C  -7.46000 33.90900 41.39000
C  -6.50000 33.71700 42.48900
O  -6.19200 34.49600 43.38900
O  -5.79400 32.60900 42.15400
C  -4.79800 32.28000 43.06900
H  -6.31100 40.57400 40.77300
H  -12.38300 41.69200 42.72700
H  -13.48700 35.39600 42.97900
H  -5.38500 35.87600 40.57300
H  -5.66300 38.37300 39.28000
H  -3.81600 37.36200 41.17500
H  -4.46800 38.73900 41.98100
H  -3.71700 38.98600 40.43500
H  -6.39100 36.85700 38.00500
H  -7.41700 35.57400 38.61200
H  -6.09900 34.21200 37.67200
H  -4.77500 34.57100 38.77100
H  -6.31800 42.99400 41.99500
H  -7.48000 43.99800 41.18100
H  -6.66100 42.71900 40.26100
H  -12.35000 43.77400 42.25200
H  -11.85200 45.20500 42.96600
H  -11.86600 43.82300 43.98700
H  -14.25400 39.80000 41.52300
H  -14.38100 37.95000 43.87800
H  -15.39000 40.20700 44.13900
H  -14.75100 41.56300 43.23300
H  -13.79200 40.93500 44.46200
H  -14.87700 36.93100 41.06600
H  -15.93500 38.24800 41.65900
H  -17.14100 36.67500 42.78400
H  -15.72400 36.01500 43.68000
H  -16.08700 35.44800 42.03200
H  -11.77400 31.97900 42.52500
H  -13.00100 33.30400 42.86300
H  -11.87200 32.80200 44.14700
H  -7.04000 33.62800 40.42400
H  -3.79200 32.20600 42.65500
H  -4.92700 31.25100 43.40500
H  -4.74800 32.82400 44.01200

