158

Mg 1.20000 8.05300 25.41700
C  2.02200 9.75900 28.36500
C  1.74300 5.01200 27.27400
C  0.40500 6.37100 22.80400
C  1.47800 11.04800 23.71700
N  1.94900 7.42100 27.53400
C  1.95900 8.32700 28.59400
C  2.10800 7.67700 29.99300
C  2.13700 6.14500 29.59500
C  1.91700 6.16500 28.02800
C  3.42200 5.25900 30.03100
C  0.96200 8.08200 30.96200
C  1.40600 8.26500 32.47100
H  2.55300 7.56200 33.01800
N  1.19100 6.01700 25.04800
C  1.49600 4.92300 25.91000
C  1.23800 3.69200 25.19000
C  0.70100 4.02800 23.91800
C  0.73000 5.56400 23.89000
C  1.52600 2.33700 25.80600
C  0.25000 3.17200 22.75800
O  -0.11800 3.62300 21.66700
C  0.04500 1.67100 22.93600
N  1.14100 8.61800 23.45100
C  0.60100 7.74400 22.57300
C  0.35300 8.46100 21.19900
C  0.63600 10.00800 21.54800
C  1.18600 9.90100 22.97100
C  1.19700 7.83400 20.06300
C  -0.68500 10.87500 21.42700
C  -1.82400 10.29900 22.23600
N  1.68200 10.02600 25.89200
C  1.73300 11.13200 25.13100
C  1.99100 12.29500 25.87900
C  2.14300 11.82200 27.15900
C  1.90000 10.42700 27.12100
C  2.16000 13.71900 25.37300
C  2.43400 12.21800 28.53500
O  2.78900 13.29500 28.91700
C  2.11300 10.91800 29.40300
C  3.29900 10.81400 30.29400
O  4.39700 10.24000 30.14500
O  3.03100 11.46200 31.45800
C  4.12700 11.41400 32.43300
H  1.74100 4.03000 27.75400
H  -0.01200 5.88300 21.92000
H  1.45400 12.01800 23.21800
H  3.12700 7.87200 30.32900
H  1.20000 5.74000 29.97800
H  2.92100 4.37600 30.42800
H  3.95400 5.77300 30.83100
H  4.15000 4.89600 29.30500
H  0.06500 7.47100 30.85900
H  0.69500 9.08900 30.64100
H  0.52400 7.97600 33.04300
H  1.47900 9.32900 32.69700
H  1.21200 1.53200 25.14100
H  0.68600 2.32900 26.50100
H  2.50300 2.19900 26.27000
H  -0.47800 1.43400 23.86300
H  1.05400 1.26600 22.86700
H  -0.62900 1.27000 22.18000
H  -0.63800 8.34100 20.76200
H  1.41500 10.46600 20.93800
H  1.73500 8.60000 19.50600
H  0.55500 7.41000 19.29100
H  1.89000 7.07300 20.42100
H  -0.99000 11.04100 20.39400
H  -0.49100 11.92000 21.66900
H  -2.23300 11.16500 22.75700
H  -1.60900 9.48300 22.92500
H  -2.56600 9.91900 21.53400
H  2.76900 13.84400 24.47800
H  2.69000 14.46100 25.96900
H  1.17700 14.14600 25.17100
H  1.23600 11.13400 30.01300
H  5.09900 11.55800 31.96200
H  4.02600 10.44100 32.91600
H  3.95800 12.08400 33.27500
Mg 26.41700 50.17700 27.00100
C  24.29900 51.16800 29.53000
C  28.51300 48.81000 29.44800
C  28.66700 49.19400 24.56100
C  24.21500 51.49600 24.58400
N  26.43000 50.03200 29.25300
C  25.46900 50.49600 30.08000
C  25.72700 50.04500 31.62500
C  27.11400 49.44100 31.51800
C  27.38900 49.43700 29.98500
C  28.18400 50.09900 32.36900
C  24.57400 49.09700 32.11400
C  24.01100 49.40900 33.49100
H  24.82900 49.86900 34.69300
N  28.31500 49.18900 27.01000
C  29.00200 48.73400 28.12900
C  30.34700 48.43400 27.75100
C  30.43300 48.55000 26.32200
C  29.12000 48.99100 25.86200
C  31.44000 48.10500 28.79100
C  31.54900 48.29100 25.43400
O  31.50800 48.52300 24.23100
C  32.86200 47.76000 25.86100
N  26.50900 50.38300 24.85900
C  27.44300 49.73000 24.05700
C  26.87600 49.69100 22.57400
C  25.68100 50.71300 22.63800
C  25.44000 50.89000 24.14800
C  27.91200 49.96100 21.43400
C  24.52200 50.10600 21.79500
C  23.98500 50.91100 20.54500
N  24.71200 51.27400 27.01000
C  23.87800 51.71300 25.94900
C  22.75400 52.45500 26.55700
C  22.84100 52.22500 27.94200
C  24.01000 51.39500 28.15700
C  21.75800 53.42600 25.85900
C  22.24000 52.53300 29.21000
O  21.27300 53.14800 29.50900
C  23.14100 51.81800 30.30600
C  23.59100 52.72800 31.45200
O  24.69700 53.34300 31.46100
O  22.55300 52.90600 32.30100
C  22.88100 53.81000 33.40600
H  29.21900 48.43100 30.19000
H  29.35200 48.74400 23.83900
H  23.50900 51.87300 23.84200
H  25.72300 50.89500 32.30900
H  27.07100 48.39300 31.81500
H  28.88000 50.64100 31.72900
H  28.79400 49.37200 32.90600
H  27.75900 50.82000 33.06800
H  24.89700 48.05800 32.17700
H  23.72300 49.01100 31.43900
H  23.44400 48.50900 33.73000
H  23.26400 50.19300 33.37100
H  31.21200 48.45100 29.79900
H  32.39100 48.54800 28.49400
H  31.59400 47.02800 28.72400
H  32.73800 47.00400 26.63600
H  33.28400 48.68700 26.24900
H  33.49500 47.41900 25.04100
H  26.55600 48.64900 22.59400
H  26.05700 51.59000 22.11200
H  28.18200 49.00700 20.98200
H  28.79400 50.29500 21.98100
H  27.62800 50.68000 20.66600
H  23.68000 49.82900 22.42900
H  24.80500 49.11600 21.43900
H  22.93200 51.14000 20.71000
H  24.03300 50.60700 19.49900
H  24.51500 51.86200 20.50200
H  22.36800 54.03700 25.19300
H  21.43800 53.98600 26.73700
H  20.96500 52.93700 25.29300
H  22.46700 51.07000 30.72300
H  23.47900 54.67500 33.11600
H  23.46300 53.15500 34.05400
H  21.95800 54.01600 33.94800

