158

Mg 9.03500 2.85300 26.97100
C  10.05700 1.47600 30.02500
C  6.79100 4.70300 28.71700
C  7.97300 4.07200 24.06600
C  10.87000 0.25400 25.31800
N  8.44600 3.00200 29.18500
C  9.08500 2.45400 30.21800
C  8.64300 3.14700 31.51500
C  7.43500 4.03100 30.99800
C  7.54200 3.90100 29.53000
C  5.97600 3.59600 31.55400
C  9.78000 3.92600 32.30500
C  9.55200 4.35600 33.77200
H  10.34700 3.82500 34.99900
N  7.57800 4.28000 26.48000
C  6.73300 4.88900 27.31700
C  5.98700 5.91300 26.61800
C  6.29900 5.71100 25.26400
C  7.33700 4.66900 25.20400
C  5.19100 6.99500 27.27300
C  5.82500 6.50800 24.09600
O  6.20700 6.41200 22.96200
C  4.77000 7.62200 24.34500
N  9.23100 2.10600 24.98400
C  8.77300 2.90800 23.93600
C  9.25400 2.35800 22.62600
C  10.06600 1.11300 22.98400
C  10.09200 1.15300 24.51100
C  8.18700 2.14100 21.50300
C  11.50200 1.19600 22.41900
C  11.76000 0.58900 21.05600
N  10.20800 1.25000 27.50400
C  10.93500 0.33800 26.69800
C  11.68200 -0.59000 27.53400
C  11.36000 -0.16000 28.85600
C  10.38500 0.90500 28.75200
C  12.65800 -1.72000 27.12400
C  11.56900 -0.41600 30.23700
O  12.22600 -1.25700 30.79200
C  10.79400 0.68200 31.05800
C  10.05400 -0.06500 32.11700
O  9.22000 -0.94200 31.83300
O  10.38200 0.33200 33.41300
C  9.81600 -0.27200 34.59600
H  6.14700 5.40200 29.25400
H  7.74100 4.62700 23.15500
H  11.48000 -0.43100 24.72600
H  8.24700 2.38100 32.18200
H  7.69500 5.05900 31.24900
H  6.16100 3.08500 32.49800
H  5.40300 2.92200 30.91700
H  5.28200 4.41800 31.73000
H  10.13400 4.71400 31.64100
H  10.59100 3.19800 32.28800
H  8.49900 4.21200 34.01200
H  9.70900 5.43500 33.79500
H  5.72700 7.92000 27.06300
H  4.92600 6.74600 28.30100
H  4.20100 6.96300 26.81800
H  5.15200 8.55100 24.76800
H  3.88000 7.20700 24.81700
H  4.37400 7.87600 23.36200
H  9.96200 3.07100 22.20200
H  9.50000 0.22800 22.69300
H  8.34000 2.89400 20.73000
H  7.22800 2.24300 22.01100
H  8.34200 1.12800 21.13200
H  12.20100 0.62000 23.02500
H  11.89200 2.21100 22.50200
H  10.84900 0.84800 20.51800
H  11.89600 -0.48300 21.19700
H  12.68100 0.91600 20.57300
H  12.62800 -1.78300 26.03600
H  12.46600 -2.59300 27.74700
H  13.62500 -1.30600 27.40800
H  11.55600 1.29500 31.53900
H  10.58800 -0.92700 35.00000
H  8.99600 -0.96800 34.42000
H  9.55600 0.57800 35.22600
Mg 35.57300 48.71100 25.38000
C  35.75900 46.92900 28.39100
C  34.47000 51.37800 27.10100
C  35.23700 50.10300 22.44800
C  36.91500 45.76500 23.93100
N  35.22400 49.15800 27.56400
C  35.51200 48.31900 28.57200
C  35.33800 49.05700 29.93000
C  34.67100 50.42000 29.49100
C  34.81400 50.33500 27.98800
C  33.17900 50.62100 29.77800
C  36.73300 49.23400 30.67600
C  36.61100 49.50800 32.18400
H  35.11000 49.51800 32.70200
N  34.94400 50.49700 24.87300
C  34.51800 51.50100 25.66500
C  34.03400 52.58600 24.87500
C  34.27400 52.24800 23.52800
C  34.82400 50.91900 23.57500
C  33.51500 53.74700 25.52400
C  34.05300 53.08300 22.27100
O  34.33900 52.69600 21.15900
C  33.40800 54.40700 22.49700
N  36.01800 47.98500 23.46800
C  35.80000 48.80700 22.40600
C  36.13200 48.07500 21.07200
C  36.94500 46.81800 21.61400
C  36.67400 46.87000 23.07800
C  34.83100 47.71800 20.25900
C  38.44100 46.83200 21.00100
C  38.60700 45.72100 19.94100
N  35.98000 46.68100 25.97300
C  36.50200 45.62900 25.23400
C  36.57800 44.46300 26.07300
C  36.22800 44.93300 27.32800
C  35.93400 46.28400 27.18800
C  36.94700 43.07300 25.65000
C  36.20100 44.56300 28.74900
O  36.60600 43.50400 29.26100
C  35.89900 45.91800 29.51700
C  34.75400 45.83400 30.40400
O  33.63300 46.16700 30.13800
O  35.06700 45.34500 31.63300
C  33.91300 45.11600 32.49100
H  34.17500 52.30400 27.60000
H  35.21500 50.47200 21.42000
H  37.32900 44.84000 23.52300
H  34.65600 48.46200 30.53700
H  35.23600 51.25400 29.90800
H  33.21600 51.48700 30.43900
H  32.77200 49.72500 30.24600
H  32.59000 50.86300 28.89300
H  37.34100 49.98800 30.17700
H  37.35500 48.35400 30.51100
H  37.13700 50.43400 32.41300
H  37.14200 48.79100 32.81100
H  34.20600 54.53400 25.22300
H  33.19600 53.68100 26.56400
H  32.56600 53.89300 25.00700
H  34.00300 55.10000 23.09100
H  32.45200 54.20200 22.97900
H  33.24600 54.77700 21.48400
H  36.74500 48.71900 20.44200
H  36.33300 46.01800 21.19700
H  34.05000 48.39000 20.61500
H  34.63700 46.65900 20.42500
H  35.02500 47.99200 19.22200
H  39.17200 46.76900 21.80800
H  38.68900 47.74000 20.45100
H  38.78400 46.23400 18.99500
H  37.69800 45.12200 19.87700
H  39.46300 45.06000 20.07200
H  37.97200 43.18100 25.29700
H  36.18400 42.76800 24.93400
H  36.92100 42.43400 26.53200
H  36.72600 46.12800 30.19500
H  33.59100 46.11600 32.78300
H  34.22400 44.55600 33.37300
H  33.05300 44.67000 31.99200

