158

Mg -0.19800 6.67800 26.95600
C  0.91100 9.12000 29.15700
C  -0.81600 4.51300 29.48000
C  -1.23000 4.56200 24.58900
C  1.19500 8.67700 24.28500
N  0.20300 6.74300 29.10600
C  0.48600 7.88500 29.82600
C  0.47900 7.67200 31.30400
C  0.33200 6.12100 31.34900
C  -0.18400 5.74900 29.92000
C  1.56000 5.20600 31.70100
C  -0.69900 8.46200 32.04600
C  -0.70000 8.55200 33.66600
H  0.56700 8.19800 34.35000
N  -0.87300 4.76200 27.03900
C  -1.26800 4.07800 28.16700
C  -1.99400 2.83700 27.80600
C  -2.05900 2.83300 26.37800
C  -1.35900 4.09300 25.91900
C  -2.59000 1.92800 28.95800
C  -2.82400 1.85600 25.56100
O  -2.90000 1.96900 24.36700
C  -3.56100 0.63000 26.16400
N  0.12400 6.53500 24.79900
C  -0.56500 5.60700 24.07700
C  -0.66500 6.07100 22.59500
C  0.25300 7.24300 22.47800
C  0.61800 7.48800 23.91200
C  -0.46800 4.94300 21.61500
C  -0.45000 8.45400 21.78700
C  0.42400 9.40400 20.91800
N  0.78200 8.56100 26.71300
C  1.24400 9.27400 25.57300
C  1.66700 10.61200 26.04600
C  1.54800 10.60600 27.40900
C  1.11000 9.33300 27.74400
C  2.08300 11.70200 25.15100
C  1.62000 11.45900 28.59500
O  1.94000 12.62600 28.69400
C  1.17600 10.53700 29.79400
C  2.29500 10.40800 30.78400
O  3.39300 9.93500 30.55100
O  1.96000 10.87100 32.04100
C  3.02400 10.89600 33.05200
H  -1.04300 3.76400 30.24100
H  -1.55200 3.84900 23.82600
H  1.35200 9.41000 23.49100
H  1.40700 8.04300 31.73900
H  -0.50400 5.86600 32.00100
H  1.59900 4.34300 31.03700
H  1.34800 4.78100 32.68200
H  2.51200 5.73600 31.73200
H  -1.58600 7.88400 31.78900
H  -0.79500 9.46600 31.63300
H  -1.45400 7.83600 33.99300
H  -0.93600 9.54200 34.05600
H  -2.11400 0.94900 29.00100
H  -3.67700 1.84900 28.91200
H  -2.40800 2.29200 29.96900
H  -2.79800 -0.01900 26.59300
H  -3.92300 0.12900 25.26600
H  -4.39800 0.74500 26.85300
H  -1.73300 6.23600 22.45200
H  1.11100 7.01100 21.84600
H  -1.22400 4.16800 21.48600
H  0.50400 4.48000 21.78500
H  -0.35100 5.43400 20.64900
H  -0.73300 9.00400 22.68400
H  -1.36500 8.13200 21.29000
H  1.26100 8.79700 20.57200
H  0.60500 10.31600 21.48800
H  -0.21000 9.64800 20.06600
H  3.10400 12.02200 25.35900
H  1.48400 12.59500 25.32500
H  2.07200 11.37400 24.11100
H  0.32000 10.92100 30.34900
H  3.81500 11.51800 32.63300
H  3.38900 9.96700 33.49000
H  2.57800 11.58800 33.76600
Mg 17.50100 -1.97700 28.44300
C  16.35200 0.06900 31.07000
C  19.06300 -4.03300 30.80600
C  19.01800 -3.50200 25.90200
C  16.17000 0.34900 26.23100
N  17.67800 -2.02100 30.66800
C  17.23600 -0.98200 31.53300
C  17.50900 -1.31000 32.93100
C  18.40900 -2.57100 32.86600
C  18.49000 -2.87300 31.36200
C  19.73000 -2.43500 33.69100
C  16.26800 -1.55200 33.86700
C  16.27500 -0.80000 35.22000
H  17.69100 -0.55200 35.78700
N  18.81700 -3.59300 28.34600
C  19.32700 -4.31500 29.42100
C  20.20500 -5.32000 28.93000
C  20.13500 -5.19600 27.48800
C  19.29400 -4.08100 27.15500
C  20.97300 -6.29300 29.80200
C  20.87500 -6.06300 26.37200
O  20.60300 -5.95800 25.15300
C  22.02700 -7.09200 26.87200
N  17.23800 -1.85700 26.32400
C  18.14800 -2.48600 25.53700
C  18.29100 -1.85700 24.15500
C  17.14600 -0.79400 24.13200
C  16.74300 -0.77200 25.64700
C  19.69300 -1.42900 23.84900
C  15.88400 -0.94900 23.33400
C  15.65600 -0.04600 22.10700
N  16.32400 -0.27500 28.56200
C  15.82300 0.61200 27.54200
C  14.99500 1.67300 28.17300
C  15.27300 1.54400 29.54900
C  16.05300 0.37800 29.73500
C  14.15300 2.66500 27.54800
C  14.96600 2.09200 30.83400
O  14.24600 3.08400 31.10900
C  15.67000 1.16900 31.86700
C  16.54700 2.03700 32.66300
O  17.77300 2.07100 32.60200
O  15.69000 2.73700 33.54600
C  16.39500 3.77300 34.34400
H  19.52300 -4.70900 31.53000
H  19.66300 -3.84700 25.09100
H  16.02100 1.16900 25.52500
H  17.99400 -0.39300 33.26600
H  17.87700 -3.37200 33.38000
H  20.63200 -2.51800 33.08300
H  19.84000 -3.13700 34.51700
H  19.75200 -1.46200 34.18200
H  15.98500 -2.57900 34.09900
H  15.43500 -1.26500 33.22500
H  15.80700 -1.33600 36.04500
H  15.78900 0.14700 34.98500
H  22.02200 -6.09900 29.57700
H  20.66400 -7.33700 29.74600
H  20.88300 -5.96200 30.83700
H  22.65900 -7.39400 26.03600
H  21.42000 -7.94900 27.16400
H  22.60400 -6.50900 27.59000
H  18.01200 -2.60200 23.41000
H  17.53700 0.18500 23.85500
H  19.83500 -0.35100 23.92100
H  19.99400 -1.90000 22.91300
H  20.39000 -1.88700 24.55100
H  14.98300 -0.82500 23.93500
H  15.73400 -2.01300 23.15000
H  16.41100 0.73800 22.04400
H  14.67800 0.42200 22.22000
H  15.45200 -0.52400 21.14900
H  14.11600 2.53600 26.46600
H  14.42100 3.68100 27.83900
H  13.18700 2.43700 27.99800
H  14.80200 0.78500 32.40300
H  17.24700 3.40600 34.91600
H  15.77700 4.18300 35.14300
H  16.67400 4.63700 33.74000

