158

Mg 47.18000 34.62400 27.39600
C  45.68000 33.36000 30.47900
C  48.12200 37.47300 29.35400
C  48.58700 35.83100 24.66300
C  45.89700 31.99200 25.77500
N  47.14400 35.17300 29.78900
C  46.36200 34.59500 30.77100
C  46.51600 35.33900 32.08300
C  47.03500 36.74500 31.62800
C  47.49700 36.48000 30.16200
C  46.14100 38.02000 31.87500
C  47.52300 34.62400 33.08700
C  47.17700 34.73700 34.61800
H  46.77600 36.09200 35.11000
N  48.16200 36.42200 27.01100
C  48.47100 37.43800 27.91800
C  49.23100 38.41000 27.23600
C  49.45600 37.94300 25.91300
C  48.72800 36.66200 25.84200
C  49.77900 39.73800 27.87900
C  50.20300 38.51900 24.77600
O  50.34500 38.00900 23.66500
C  50.84200 39.92800 24.88000
N  47.09900 34.02500 25.41400
C  47.81500 34.66800 24.40600
C  47.85900 33.84500 23.13500
C  46.96300 32.59600 23.47800
C  46.63000 32.83100 24.99400
C  47.49700 34.73100 21.93400
C  47.68800 31.28700 23.39300
C  46.87300 30.06700 22.89300
N  46.12000 32.96600 27.91200
C  45.69600 31.96300 27.15300
C  44.95300 30.95000 27.91000
C  44.86900 31.48900 29.16800
C  45.65000 32.68000 29.18700
C  44.37600 29.65800 27.32000
C  44.42000 31.26800 30.54700
O  43.80800 30.35500 31.02800
C  44.60500 32.63100 31.30200
C  44.87600 32.37100 32.69400
O  45.79800 31.80100 33.14300
O  43.77100 32.90800 33.40700
C  43.55900 32.27500 34.71600
H  48.37800 38.39200 29.88500
H  49.24000 36.02500 23.80900
H  45.40700 31.20300 25.20100
H  45.54100 35.41800 32.56400
H  47.97900 37.04100 32.08600
H  45.61700 38.29500 30.95900
H  46.66700 38.91700 32.19900
H  45.46500 37.77800 32.69500
H  48.58300 34.83300 32.94500
H  47.51900 33.58400 32.76100
H  48.06000 34.54400 35.22800
H  46.28600 34.14600 34.82700
H  49.43100 39.70100 28.91100
H  49.38300 40.63300 27.40000
H  50.85700 39.81100 28.02200
H  51.64000 39.83200 25.61600
H  50.15200 40.73700 25.12100
H  51.19800 40.21200 23.89000
H  48.87700 33.52200 22.91800
H  46.05700 32.63000 22.87300
H  48.41100 34.97800 21.39500
H  47.04300 35.68400 22.20400
H  46.85500 34.19900 21.23100
H  47.99800 30.96800 24.38800
H  48.54600 31.45800 22.74300
H  47.48900 29.39300 22.29800
H  45.95000 30.32300 22.37400
H  46.53500 29.36600 23.65700
H  44.17000 29.07400 28.21700
H  45.12900 29.10500 26.75900
H  43.50700 29.77800 26.67300
H  43.68200 33.20600 31.23500
H  43.89000 31.23800 34.65700
H  42.49300 32.25000 34.94200
H  44.01600 32.85600 35.51700
Mg 30.30100 59.37800 39.15700
C  27.18300 58.06200 38.25500
C  31.74900 56.53500 38.02100
C  33.15100 60.99400 39.44600
C  28.65900 62.49600 39.87200
N  29.55800 57.53200 38.21900
C  28.22000 57.20300 37.92300
C  28.18600 55.81100 37.20200
C  29.63100 55.22500 37.36700
C  30.36300 56.49300 37.94500
C  29.72100 53.94600 38.28400
C  27.67700 55.93800 35.71400
C  26.77600 54.79200 35.18100
H  25.87100 55.05400 33.98100
N  32.17400 58.86900 38.87300
C  32.64400 57.63200 38.42100
C  34.07900 57.60200 38.48700
C  34.52500 58.88500 38.90000
C  33.27400 59.66900 39.10100
C  34.82900 56.50100 37.97900
C  35.93600 59.21400 38.94100
O  36.78000 58.44600 38.57600
C  36.56500 60.45100 39.55200
N  30.82500 61.44200 39.60500
C  32.07100 61.81100 39.74400
C  32.22800 63.34300 40.03100
C  30.75000 63.73000 40.42400
C  30.03700 62.47900 39.85800
C  33.18400 63.82300 41.20200
C  30.26000 65.02300 39.61500
C  29.24200 65.93700 40.29900
N  28.36600 60.21100 39.06500
C  27.87800 61.44800 39.37500
C  26.47300 61.52700 39.28800
C  26.11000 60.19500 38.90100
C  27.33700 59.44200 38.75300
C  25.51800 62.63400 39.65400
C  25.09200 59.29100 38.50100
O  23.87800 59.52000 38.43000
C  25.71600 57.96100 38.11500
C  25.19700 56.83600 38.92000
O  25.18400 56.73200 40.14100
O  24.70700 55.87300 38.05000
C  24.34700 54.61100 38.75300
H  32.15700 55.56800 37.72000
H  34.13900 61.41500 39.64400
H  28.24100 63.47200 40.12900
H  27.43800 55.26200 37.77500
H  30.12100 55.01500 36.41500
H  28.77100 53.69400 38.75500
H  30.54400 54.09600 38.98300
H  29.99600 53.16900 37.57000
H  28.58900 55.92600 35.11600
H  27.09600 56.84500 35.54800
H  26.18700 54.68100 36.09100
H  27.40400 53.91100 35.05200
H  35.57300 56.80300 37.24100
H  34.22700 55.65800 37.64100
H  35.32900 56.14600 38.87900
H  37.53000 60.16700 39.97100
H  35.90300 60.75100 40.36400
H  36.55600 61.31300 38.88500
H  32.61000 63.76100 39.10000
H  30.61400 63.76300 41.50500
H  33.91000 63.01900 41.32800
H  32.74600 64.04200 42.17500
H  33.65000 64.67900 40.71300
H  29.73400 64.64800 38.73600
H  31.10700 65.58800 39.22700
H  29.26300 65.78200 41.37800
H  28.25600 65.61400 39.96400
H  29.55900 66.94400 40.03100
H  24.52200 62.27500 39.39600
H  25.93000 63.50600 39.14800
H  25.62300 62.72800 40.73500
H  25.47900 57.79600 37.06400
H  24.05600 53.88300 37.99700
H  23.44900 54.76400 39.35200
H  25.07700 54.15600 39.42200

