158

Mg 36.55400 0.95300 29.68600
C  34.31000 2.39000 31.97200
C  38.90600 1.18100 32.06700
C  38.76200 -0.00600 27.36900
C  34.07000 1.15000 27.12200
N  36.61400 1.78200 31.77200
C  35.55900 2.17300 32.51700
C  35.84300 2.20200 33.99700
C  37.35500 2.05000 33.94700
C  37.67200 1.67100 32.50600
C  38.22100 3.10400 34.57600
C  35.04400 1.09800 34.77100
C  34.31800 1.48100 36.08500
H  34.81900 2.73300 36.82500
N  38.43700 0.47400 29.75000
C  39.23600 0.53600 30.86000
C  40.57200 0.02600 30.54300
C  40.53400 -0.31700 29.19300
C  39.13400 -0.02300 28.71200
C  41.70900 0.12800 31.59700
C  41.76000 -0.80900 28.30900
O  41.68900 -0.92700 27.06600
C  43.07600 -1.11600 28.91000
N  36.42000 0.73100 27.49900
C  37.54400 0.38600 26.79800
C  37.20200 0.19800 25.31000
C  35.69600 0.42700 25.22500
C  35.34800 0.77900 26.67000
C  38.09200 1.00700 24.36200
C  34.85000 -0.75000 24.71400
C  34.14800 -1.77100 25.70400
N  34.58900 1.64800 29.49100
C  33.68000 1.65900 28.45200
C  32.41400 2.26200 28.96100
C  32.64100 2.47100 30.33000
C  33.93900 2.15300 30.61600
C  31.14400 2.29100 28.15600
C  31.97700 2.92400 31.51900
O  30.81500 3.19900 31.68000
C  33.01700 2.78200 32.64500
C  33.08100 4.11200 33.32300
O  33.70600 5.08900 32.93000
O  32.14700 4.12100 34.39500
C  31.79600 5.44500 34.93800
H  39.67400 1.16100 32.84400
H  39.47400 -0.09100 26.54600
H  33.27900 1.18800 26.36900
H  35.58900 3.16600 34.43700
H  37.70800 1.16100 34.47000
H  38.79500 2.63300 35.37500
H  37.59900 3.92200 34.93800
H  38.99600 3.40700 33.87300
H  35.72800 0.29000 35.03000
H  34.31500 0.62400 34.11400
H  34.44400 0.69800 36.83200
H  33.28100 1.52200 35.75100
H  42.32800 -0.76500 31.51200
H  41.39600 0.09400 32.64000
H  42.46000 0.87600 31.34400
H  43.50200 -0.32500 29.52700
H  43.75200 -1.37900 28.09600
H  43.03300 -2.02700 29.50700
H  37.48600 -0.85000 25.20600
H  35.46700 1.24800 24.54500
H  38.66900 0.30900 23.75500
H  38.72800 1.69400 24.92000
H  37.48600 1.67400 23.74900
H  35.57200 -1.31600 24.12500
H  34.02800 -0.38100 24.10100
H  33.10400 -1.95500 25.45000
H  34.28400 -1.58100 26.76900
H  34.56100 -2.77200 25.57800
H  31.13100 1.86700 27.15200
H  30.78000 3.31900 28.16300
H  30.51300 1.72700 28.84200
H  32.58100 2.14100 33.41100
H  32.49400 5.61200 35.75800
H  30.74200 5.43500 35.21700
H  31.87200 6.20200 34.15800
Mg 47.16000 34.97400 28.30800
C  45.25100 33.04100 30.72200
C  47.39300 37.37100 30.65000
C  48.50800 36.85400 25.86500
C  46.68400 32.32300 26.01100
N  46.32700 35.10600 30.43400
C  45.81600 34.21400 31.26400
C  45.82600 34.68200 32.72500
C  46.19400 36.13300 32.59300
C  46.68700 36.22900 31.12700
C  45.03300 37.09900 32.79500
C  46.86100 33.74700 33.49300
C  46.92800 33.65000 35.05500
H  46.00800 34.59600 35.90700
N  47.93300 36.80100 28.32300
C  47.99300 37.66800 29.38200
C  48.76100 38.83300 29.01000
C  49.15200 38.70200 27.66600
C  48.60000 37.37000 27.22000
C  48.72400 40.02000 29.89400
C  49.76200 39.71400 26.78200
O  50.09000 39.48400 25.62500
C  50.06400 41.12300 27.28200
N  47.67400 34.61600 26.23100
C  48.02400 35.60600 25.37500
C  47.92700 35.20800 23.90900
C  47.69100 33.63700 24.05100
C  47.34600 33.50400 25.52900
C  46.78700 35.91300 23.15000
C  48.95900 32.68300 23.66200
C  50.34400 32.81500 24.45400
N  46.14900 33.13900 28.35400
C  46.01700 32.20800 27.27900
C  45.22700 31.05400 27.64800
C  44.87000 31.39400 28.99700
C  45.48700 32.63800 29.37200
C  44.96400 29.82900 26.82900
C  44.14600 30.90100 30.18100
O  43.61200 29.79300 30.36200
C  44.23900 31.98400 31.28400
C  44.50700 31.53000 32.65600
O  45.43500 30.84800 33.01200
O  43.41500 31.97900 33.42700
C  43.44300 31.57200 34.83900
H  47.61700 38.06800 31.46000
H  48.70400 37.58400 25.07600
H  46.37100 31.56500 25.28900
H  44.80100 34.52300 33.06100
H  47.00400 36.30500 33.30100
H  44.99100 37.86600 32.02300
H  45.19800 37.59900 33.75000
H  44.08900 36.55600 32.83100
H  47.77500 34.17100 33.07800
H  46.84800 32.72900 33.10400
H  47.92200 33.92300 35.40800
H  46.87900 32.59700 35.33400
H  48.16200 40.79900 29.38000
H  49.74400 40.40400 29.87300
H  48.33800 39.86100 30.90100
H  50.30600 41.62800 26.34700
H  50.87100 41.11100 28.01400
H  49.20100 41.56400 27.78200
H  48.88000 35.53200 23.49100
H  46.79600 33.26900 23.55000
H  47.18900 36.34100 22.23200
H  46.44300 36.73300 23.78200
H  45.95900 35.23600 22.94500
H  49.09800 32.96500 22.61800
H  48.56700 31.66600 23.68000
H  50.28700 33.55100 25.25700
H  51.11800 33.09200 23.73900
H  50.61600 31.86400 24.91200
H  45.70800 29.05000 26.99300
H  45.03000 30.11200 25.77900
H  43.98700 29.39400 27.03900
H  43.35000 32.59600 31.43500
H  44.06700 30.72700 35.13000
H  42.41900 31.25100 35.03300
H  43.74400 32.41200 35.46500

