158

Mg 54.50900 24.59500 44.69200
C  51.91200 26.80900 43.84000
C  52.32400 21.98300 43.85900
C  57.01200 22.39100 45.17400
C  56.64000 27.24300 45.50000
N  52.42100 24.44300 43.72700
C  51.47100 25.49300 43.61800
C  49.98500 25.00800 43.37700
C  50.26500 23.44800 43.76900
C  51.80100 23.27200 43.82600
C  49.43000 22.80400 44.94400
C  49.50400 25.17200 41.88800
C  48.20800 24.53000 41.44600
H  48.27500 23.68700 40.21900
N  54.71100 22.46500 44.43200
C  53.64500 21.61900 44.15800
C  54.15900 20.28100 44.15200
C  55.55900 20.34800 44.48300
C  55.83200 21.79700 44.74800
C  53.24100 19.09000 43.92600
C  56.52200 19.10400 44.63800
O  56.09600 17.94600 44.42600
C  57.99200 19.24500 44.97000
N  56.60500 24.77900 45.22400
C  57.41900 23.72600 45.40400
C  58.75300 24.11000 45.94200
C  58.66500 25.64900 46.07500
C  57.21600 25.92900 45.58100
C  59.29100 23.48200 47.31500
C  59.58000 26.54500 45.12600
C  60.08300 27.77900 45.90000
N  54.33400 26.59200 44.55400
C  55.26800 27.56100 45.09200
C  54.60800 28.88300 45.06800
C  53.30200 28.58000 44.66000
C  53.14500 27.24000 44.33000
C  55.18000 30.19400 45.42400
C  51.93700 29.15900 44.42700
O  51.68700 30.34100 44.56400
C  51.10800 28.09500 43.73800
C  51.09000 28.53600 42.36300
O  52.07600 28.82800 41.68600
O  49.77400 28.79100 42.00000
C  49.52700 29.36400 40.70400
H  51.60700 21.17700 43.69300
H  57.92100 21.80600 45.33000
H  57.25800 28.11500 45.72400
H  49.35600 25.42700 44.16300
H  49.86900 22.89400 42.91800
H  48.60700 22.21500 44.54100
H  49.02800 23.69300 45.43100
H  50.07600 22.19200 45.57400
H  50.39000 24.82900 41.35200
H  49.26300 26.23000 41.79300
H  47.56800 25.37900 41.20300
H  47.81700 23.87700 42.22700
H  53.37500 18.85800 42.86900
H  52.17100 19.19200 44.10600
H  53.56800 18.16000 44.39100
H  58.41700 19.94400 44.25000
H  58.48000 18.27200 44.92600
H  58.13000 19.66600 45.96600
H  59.55200 23.99800 45.20900
H  58.73600 25.97100 47.11400
H  60.37900 23.43700 47.36100
H  59.02200 22.43500 47.45100
H  59.02600 24.13000 48.15000
H  59.05400 26.86900 44.22900
H  60.49300 26.02700 44.83200
H  61.17100 27.76900 45.95800
H  59.64600 27.86000 46.89500
H  59.71100 28.66100 45.37800
H  55.56600 30.21400 46.44300
H  54.35300 30.90300 45.39500
H  55.94200 30.37800 44.66700
H  50.07700 28.04100 44.08600
H  49.58000 28.52000 40.01600
H  50.40300 29.94800 40.42300
H  48.65400 30.01500 40.72800
Mg 47.69600 25.50200 27.72900
C  48.71600 27.79400 30.24300
C  46.61100 23.40900 30.17500
C  47.26700 23.32400 25.48800
C  49.88500 27.23400 25.43400
N  47.71600 25.70100 29.95900
C  47.97100 26.74200 30.75300
C  47.35500 26.58500 32.16300
C  46.92300 25.11400 32.04800
C  46.95000 24.71000 30.59700
C  47.43100 24.13700 33.14900
C  46.22700 27.64500 32.44600
C  46.36300 28.45300 33.80300
H  45.23200 28.14800 34.78700
N  46.94700 23.68000 27.79600
C  46.62800 22.88700 28.87100
C  45.89800 21.68900 28.37400
C  45.90300 21.74000 27.03900
C  46.70400 22.99800 26.70400
C  45.27800 20.71800 29.35500
C  45.25200 20.83800 26.06800
O  45.37400 21.01100 24.85000
C  44.59000 19.54000 26.60800
N  48.59000 25.20200 25.79600
C  47.99400 24.31800 25.04300
C  48.47500 24.32800 23.59200
C  49.09700 25.72200 23.53100
C  49.23200 26.07200 24.99800
C  49.54100 23.26800 23.35400
C  48.21400 26.74800 22.84300
C  48.45400 26.95400 21.35200
N  49.01900 27.15500 27.74800
C  49.75800 27.76500 26.74800
C  50.33700 28.98400 27.33600
C  49.98200 29.05500 28.61400
C  49.17700 27.91900 28.86000
C  51.20700 29.91400 26.56000
C  50.02700 29.86900 29.76400
O  50.55400 30.94300 29.99700
C  49.17600 29.15000 30.90500
C  49.92800 29.07800 32.20800
O  51.02800 28.69000 32.32800
O  49.20900 29.75800 33.13800
C  49.85000 29.91600 34.44100
H  46.36000 22.68900 30.95800
H  47.09700 22.62000 24.67200
H  50.41600 27.79300 24.66000
H  48.08900 26.71600 32.95800
H  45.84400 25.05900 32.19400
H  46.57700 23.55600 33.49500
H  47.80100 24.58600 34.07100
H  48.20500 23.52500 32.68500
H  45.27900 27.11900 32.55500
H  46.15300 28.34200 31.61100
H  46.34600 29.53600 33.68100
H  47.28600 28.12500 34.28100
H  44.20200 20.74500 29.18800
H  45.61700 20.81200 30.38700
H  45.64800 19.75700 28.99700
H  43.80100 19.77700 27.32200
H  45.39800 18.98300 27.08300
H  44.26400 18.92700 25.76800
H  47.60500 24.18900 22.94900
H  50.05200 25.83400 23.01800
H  50.47300 23.76100 23.07700
H  49.18600 22.47300 22.69700
H  49.70200 22.71900 24.28200
H  48.19900 27.73900 23.29500
H  47.18000 26.47700 23.05200
H  47.53500 26.86700 20.77200
H  49.16100 26.21100 20.98400
H  48.95900 27.91800 21.29200
H  50.86500 29.93700 25.52500
H  52.21200 29.49400 26.55000
H  51.37200 30.88500 27.02700
H  48.27500 29.75000 31.02900
H  49.59700 29.09900 35.11700
H  49.46200 30.87000 34.79600
H  50.92500 30.07600 34.34900

