158

Mg 8.05000 2.63300 28.10800
C  9.76900 1.36900 30.95900
C  6.09300 4.54900 30.25900
C  6.67100 3.96400 25.46200
C  10.02400 0.57000 26.18800
N  7.88800 2.80300 30.36000
C  8.79500 2.34500 31.33600
C  8.61700 2.95400 32.71500
C  7.36500 3.83000 32.46400
C  7.10800 3.76700 30.94300
C  6.03400 3.60500 33.26900
C  9.88100 3.66300 33.20600
C  9.57100 4.43700 34.51900
H  10.52000 4.24300 35.72400
N  6.54500 3.98100 27.85300
C  5.88700 4.75000 28.84800
C  4.84400 5.54600 28.24500
C  4.98300 5.40700 26.84800
C  6.12300 4.46100 26.66300
C  3.79600 6.41200 29.02700
C  4.13000 6.05100 25.74500
O  4.25100 5.80200 24.62500
C  2.92500 6.93000 26.05500
N  8.11500 2.12700 26.17100
C  7.59000 2.93800 25.21400
C  7.94800 2.49700 23.73900
C  8.98200 1.46000 23.96800
C  9.04800 1.39200 25.55700
C  6.71700 2.03100 22.96100
C  10.40500 1.65900 23.31800
C  10.90100 0.43200 22.46500
N  9.51000 1.23500 28.44200
C  10.19100 0.46900 27.58900
C  11.13500 -0.42900 28.25900
C  11.01000 -0.13300 29.60800
C  10.00300 0.89800 29.63700
C  12.15800 -1.32800 27.62600
C  11.57600 -0.26900 30.92100
O  12.42900 -1.04400 31.23400
C  10.73000 0.69200 31.86800
C  10.10900 -0.01100 32.99900
O  9.24100 -0.87700 32.85500
O  10.53600 0.45500 34.18200
C  10.15300 -0.21900 35.43500
H  5.54800 5.23800 30.90700
H  6.38000 4.55800 24.59400
H  10.45000 -0.21500 25.55900
H  8.34700 2.17100 33.42300
H  7.60000 4.87700 32.65400
H  5.18900 3.59300 32.58200
H  5.84000 4.46200 33.91600
H  5.98300 2.70400 33.88100
H  10.24500 4.44500 32.54100
H  10.72900 3.00300 33.38600
H  8.60200 4.06800 34.85700
H  9.61400 5.50200 34.28800
H  4.03200 6.43100 30.09100
H  2.85200 5.92700 28.77700
H  3.88200 7.42500 28.63500
H  2.28800 6.28600 26.66100
H  2.32700 7.40600 25.27800
H  3.33400 7.76100 26.62900
H  8.35900 3.36300 23.22000
H  8.61600 0.46300 23.72100
H  5.75200 2.13600 23.45700
H  6.78800 1.03300 22.52700
H  6.71000 2.74200 22.13500
H  11.08700 2.02100 24.08700
H  10.32000 2.45000 22.57400
H  10.12500 -0.32100 22.60000
H  11.79900 -0.01200 22.89400
H  10.94700 0.61600 21.39200
H  13.13900 -1.01100 27.98100
H  12.17500 -1.25700 26.53800
H  11.89900 -2.36900 27.82000
H  11.56400 1.35100 32.11000
H  11.03300 -0.33600 36.06700
H  9.70300 -1.20600 35.33100
H  9.42500 0.35500 36.00900
Mg 16.99300 -1.23100 27.84200
C  15.78500 0.78300 30.51200
C  19.12500 -2.74600 30.01700
C  18.65100 -2.69000 25.29700
C  15.17500 0.69200 25.75700
N  17.50300 -0.83400 29.97400
C  16.84100 -0.11600 30.98400
C  17.38200 -0.38100 32.39700
C  18.54800 -1.42800 32.11500
C  18.41100 -1.75800 30.62500
C  19.95300 -1.00100 32.59800
C  16.24000 -0.96900 33.37600
C  16.10700 -0.28100 34.72900
H  17.35900 0.33500 35.29900
N  18.59300 -2.59700 27.65000
C  19.27500 -3.17800 28.69900
C  20.09300 -4.24200 28.16700
C  20.02900 -4.19500 26.76600
C  19.03200 -3.15000 26.53100
C  20.83200 -5.17900 28.96400
C  20.63800 -5.04800 25.76300
O  20.16800 -5.19300 24.60100
C  21.74400 -5.90900 26.08000
N  16.92700 -1.12100 25.87100
C  17.67900 -1.73100 24.92500
C  17.40600 -1.32300 23.52100
C  16.11500 -0.46000 23.70700
C  16.04100 -0.30100 25.23800
C  18.60100 -0.61700 22.80600
C  14.78800 -1.17100 23.24200
C  14.58400 -1.45700 21.72100
N  15.64300 0.34800 28.01100
C  14.92000 1.02200 27.11200
C  14.04100 2.02600 27.70200
C  14.32800 1.95600 29.07500
C  15.35100 0.97300 29.18900
C  13.04800 2.97900 27.04000
C  14.06800 2.55200 30.38300
O  13.39600 3.52900 30.68900
C  14.84300 1.69200 31.46600
C  15.64400 2.61500 32.33500
O  16.77700 3.02300 32.09500
O  14.91600 2.92700 33.43100
C  15.63700 3.81300 34.40900
H  19.78900 -3.23800 30.73100
H  19.22400 -3.06200 24.44500
H  14.58900 1.33000 25.09300
H  17.85200 0.54000 32.74300
H  18.48700 -2.43300 32.53300
H  20.50200 -1.90200 32.87100
H  19.87800 -0.40500 33.50800
H  20.54600 -0.52200 31.81800
H  16.28100 -2.04600 33.53600
H  15.31500 -0.78200 32.83000
H  15.59200 -0.92100 35.44500
H  15.36100 0.47900 34.49400
H  20.39200 -6.17400 28.91000
H  20.88500 -4.86400 30.00600
H  21.90400 -5.23800 28.77200
H  21.40800 -6.70600 26.74300
H  22.47400 -5.31400 26.63100
H  22.24700 -6.31000 25.20000
H  17.19200 -2.25900 23.00400
H  16.23500 0.48300 23.17300
H  19.11900 -1.31900 22.15300
H  19.37100 -0.28600 23.50400
H  18.32200 0.21100 22.15600
H  14.02000 -0.49300 23.61200
H  14.76700 -2.07400 23.85200
H  13.62000 -1.00000 21.49900
H  14.51000 -2.49200 21.38700
H  15.34700 -1.03000 21.07000
H  12.47200 2.46600 26.26900
H  13.55000 3.80500 26.53700
H  12.25600 3.34600 27.69300
H  14.06300 1.15700 32.00700
H  15.33200 4.85400 34.51500
H  16.72700 3.83800 34.41400
H  15.38200 3.30000 35.33600

