158

Mg 9.33100 47.88400 26.87200
C  7.32600 47.72400 29.65000
C  12.01100 48.78800 28.72800
C  11.14600 48.54500 24.00800
C  6.41300 47.70800 24.75000
N  9.50000 48.48000 28.89100
C  8.63900 48.16200 29.89600
C  9.33400 48.43400 31.25200
C  10.75000 48.76500 30.88800
C  10.75100 48.76000 29.34000
C  11.19500 50.16400 31.42200
C  9.03300 47.31100 32.28700
C  9.94100 47.07600 33.49900
H  9.26900 46.56900 34.82900
N  11.36100 48.37300 26.39100
C  12.28600 48.59000 27.33600
C  13.58400 48.68000 26.64800
C  13.36400 48.48400 25.22000
C  11.85600 48.45900 25.17600
C  14.83500 49.12700 27.37000
C  14.37300 48.47100 24.09300
O  13.94700 48.47400 22.92900
C  15.86500 48.33000 24.45200
N  8.86700 48.28200 24.65400
C  9.81200 48.36200 23.75100
C  9.22000 48.11400 22.33300
C  7.79300 47.75800 22.62700
C  7.67100 47.86800 24.11100
C  9.40400 49.25700 21.35100
C  7.32100 46.37800 22.09700
C  5.93900 46.29700 21.34900
N  7.28400 47.70400 27.13400
C  6.24900 47.62300 26.20300
C  5.00000 47.38300 26.98000
C  5.36900 47.27800 28.34600
C  6.79900 47.56500 28.36700
C  3.68700 47.05700 26.26400
C  4.94500 46.98900 29.70500
O  3.91500 46.55900 30.17400
C  6.17700 47.29200 30.62100
C  6.31800 45.94300 31.30000
O  7.14200 45.04800 31.09400
O  5.48400 45.92300 32.38700
C  5.72500 44.77900 33.35800
H  12.90200 48.95300 29.33600
H  11.69600 48.59200 23.06600
H  5.62200 47.51200 24.02300
H  8.82300 49.31900 31.63100
H  11.39600 48.03100 31.36900
H  12.17600 50.02500 31.87600
H  10.47800 50.50700 32.16800
H  11.26800 50.89100 30.61200
H  9.00500 46.38600 31.71100
H  8.05900 47.70300 32.58100
H  10.51400 47.98000 33.70700
H  10.63300 46.29000 33.19700
H  14.65700 49.54900 28.35900
H  15.28800 49.90500 26.75600
H  15.64300 48.39600 27.41700
H  16.02200 47.61500 25.26000
H  16.32300 49.31100 24.57600
H  16.26700 47.91800 23.52600
H  9.78400 47.30300 21.87200
H  7.18200 48.55700 22.20700
H  8.41900 49.30000 20.88500
H  10.34100 49.28500 20.79600
H  9.35200 50.12300 22.01200
H  7.07000 45.75200 22.95300
H  8.06600 45.90600 21.45600
H  5.40600 47.24200 21.45400
H  5.47100 45.45300 21.85600
H  5.96500 46.00900 20.29800
H  3.35100 48.02100 25.88300
H  2.98400 46.74300 27.03500
H  3.88200 46.30300 25.50200
H  6.00300 47.98500 31.44400
H  6.33600 45.01200 34.23000
H  6.02600 43.82900 32.91700
H  4.74000 44.44900 33.68700
Mg -4.93300 24.93900 25.46700
C  -3.35800 26.41000 28.21500
C  -6.40000 22.74600 27.60800
C  -6.37100 23.49100 22.73000
C  -2.93200 26.89300 23.23700
N  -4.59400 24.39000 27.67400
C  -4.14600 25.29100 28.58300
C  -4.73800 24.93700 30.05000
C  -5.33400 23.47800 29.87200
C  -5.48100 23.50600 28.29500
C  -4.48700 22.33400 30.44100
C  -5.64100 26.07000 30.59300
C  -5.40400 26.63300 32.04600
H  -5.10300 25.51200 33.09300
N  -6.20000 23.37300 25.18600
C  -6.76100 22.59700 26.20200
C  -7.87900 21.82000 25.69300
C  -7.81500 21.98800 24.34500
C  -6.68400 22.95200 24.03100
C  -8.83300 20.96900 26.52200
C  -8.78200 21.41600 23.23900
O  -8.59800 21.63800 22.07000
C  -9.93600 20.52200 23.61000
N  -4.65600 25.11700 23.30900
C  -5.39700 24.45000 22.39700
C  -5.18300 24.96400 20.92600
C  -4.01900 25.98900 21.07100
C  -3.82900 26.04600 22.62200
C  -4.98000 23.72100 20.07800
C  -4.11000 27.38100 20.30600
C  -5.37700 28.19000 20.74600
N  -3.43000 26.21600 25.62000
C  -2.76000 27.02200 24.66200
C  -1.89000 28.00700 25.31300
C  -2.03400 27.73900 26.72600
C  -3.02200 26.71500 26.85400
C  -1.07700 29.11700 24.73300
C  -1.64200 28.19100 28.07600
O  -0.87000 29.03600 28.44200
C  -2.52500 27.36700 29.08100
C  -1.62000 26.55600 29.98100
O  -1.27900 25.39700 29.83200
O  -1.21200 27.31100 31.06900
C  -0.57800 26.65600 32.17200
H  -6.93100 22.05000 28.25900
H  -6.99000 23.26400 21.85900
H  -2.24400 27.47700 22.62100
H  -3.88000 24.94900 30.72200
H  -6.31400 23.45100 30.34800
H  -3.50500 22.66900 30.77500
H  -4.49300 21.58800 29.64700
H  -5.06600 21.96500 31.28700
H  -6.70300 25.82300 30.61100
H  -5.44100 26.90800 29.92600
H  -6.32900 27.10900 32.37200
H  -4.52000 27.27100 32.03700
H  -9.81800 21.39500 26.71100
H  -8.38400 20.77200 27.49600
H  -8.98000 19.99300 26.05900
H  -10.61500 20.96300 24.34000
H  -9.61300 19.57600 24.04600
H  -10.41400 20.20000 22.68500
H  -6.07500 25.41800 20.49300
H  -3.06700 25.57700 20.73800
H  -4.42400 22.97500 20.64500
H  -4.31100 24.02200 19.27100
H  -5.91200 23.30900 19.69100
H  -4.14500 27.07000 19.26200
H  -3.14600 27.84300 20.51900
H  -6.11400 28.22600 19.94500
H  -5.26100 29.25200 20.96100
H  -5.79800 27.64800 21.59400
H  -1.23000 30.04300 25.28600
H  -1.38100 29.37900 23.72000
H  -0.02200 28.85900 24.83100
H  -3.10300 28.06700 29.68400
H  -0.15300 25.70100 31.86300
H  -1.31000 26.65400 32.97900
H  0.24400 27.32700 32.42300

