158

Mg 47.76500 15.86700 27.97900
C  45.72000 15.35200 30.93400
C  49.96900 17.61500 29.96500
C  49.63400 16.39500 25.27600
C  45.28000 14.31900 26.12700
N  47.78100 16.45900 30.21100
C  46.91100 16.08000 31.23000
C  47.47600 16.62500 32.58400
C  48.57100 17.61400 32.09900
C  48.82100 17.21100 30.68200
C  48.25300 19.13100 32.34500
C  47.79100 15.48100 33.60400
C  47.30200 15.67200 35.04700
H  47.09500 17.05700 35.66600
N  49.52700 16.82200 27.67800
C  50.33200 17.31300 28.68300
C  51.56700 17.66000 27.98900
C  51.48200 17.40100 26.65000
C  50.20000 16.81300 26.46200
C  52.74600 18.26200 28.76000
C  52.53300 17.74100 25.52500
O  52.41400 17.32600 24.38500
C  53.78900 18.56300 25.97900
N  47.39700 15.52200 25.92400
C  48.41400 15.72000 25.04700
C  47.89000 15.32500 23.63900
C  46.52400 14.61600 23.91800
C  46.41100 14.72100 25.40700
C  47.80400 16.54500 22.73400
C  46.43900 13.16100 23.46100
C  46.95500 11.99400 24.25500
N  45.83700 15.10200 28.38000
C  44.92400 14.55800 27.46700
C  43.80800 14.00300 28.22700
C  44.04500 14.29600 29.58700
C  45.27200 14.95200 29.62400
C  42.69500 13.11000 27.78400
C  43.65300 14.11300 30.96600
O  42.69700 13.56000 31.40100
C  44.70300 14.85700 31.91000
C  43.95700 15.95000 32.60400
O  43.76900 17.04200 32.20100
O  43.54400 15.50700 33.88000
C  42.73200 16.46100 34.68700
H  50.68400 18.22900 30.51600
H  50.27400 16.54100 24.40300
H  44.62600 13.71100 25.49800
H  46.66500 17.22900 32.99000
H  49.47600 17.52200 32.70000
H  49.02200 19.69200 32.87600
H  47.39400 19.34100 32.98200
H  48.21800 19.71300 31.42500
H  48.86600 15.30700 33.55100
H  47.42100 14.54100 33.19400
H  48.09400 15.21500 35.64100
H  46.43300 15.02300 35.15600
H  53.69000 17.73100 28.63600
H  52.54900 18.05800 29.81300
H  52.88100 19.33300 28.60900
H  54.34900 18.84000 25.08600
H  54.48900 17.96900 26.56700
H  53.48500 19.46900 26.50400
H  48.62600 14.58000 23.33500
H  45.74300 15.24900 23.49700
H  48.66100 16.55700 22.06000
H  47.85300 17.48600 23.28300
H  46.96600 16.49500 22.03800
H  46.86500 13.06100 22.46300
H  45.37200 13.00500 23.29900
H  47.08800 11.15200 23.57600
H  46.17700 11.70300 24.96100
H  47.87100 12.26500 24.78000
H  41.94300 13.64800 27.20700
H  42.28300 12.61500 28.66300
H  43.10400 12.39100 27.07400
H  45.06300 14.11100 32.62000
H  41.69400 16.50000 34.35700
H  43.10200 17.48600 34.71600
H  42.79800 16.18200 35.73900
Mg -0.18800 44.20100 24.98700
C  1.71900 44.45000 28.06600
C  -2.85200 43.24900 26.77200
C  -1.84500 43.45500 22.07800
C  2.77200 44.35200 23.26000
N  -0.43900 43.81600 27.21600
C  0.35500 44.17000 28.33700
C  -0.42500 43.90200 29.61200
C  -1.90700 43.52400 29.12500
C  -1.69400 43.49300 27.59000
C  -2.54100 42.25200 29.82000
C  -0.43800 45.18500 30.49600
C  0.07400 44.88100 31.95900
H  -0.22700 43.41700 32.51700
N  -2.18800 43.57700 24.48600
C  -3.08900 43.23600 25.42700
C  -4.34900 42.91800 24.76000
C  -4.14600 43.12200 23.34900
C  -2.68500 43.32200 23.21700
C  -5.57000 42.41700 25.65500
C  -5.11800 43.06600 22.16300
O  -4.76000 43.30800 21.02300
C  -6.66100 42.97400 22.58100
N  0.38600 44.02500 23.02500
C  -0.46800 43.76700 22.01100
C  0.23500 43.81900 20.66100
C  1.57800 44.38500 21.06000
C  1.54000 44.27400 22.50800
C  0.31000 42.42300 20.04100
C  1.86300 45.89700 20.52000
C  1.66800 47.03000 21.45500
N  1.81800 44.40900 25.46600
C  2.93400 44.45800 24.65400
C  4.12100 44.63800 25.45000
C  3.68500 44.62400 26.81400
C  2.29400 44.52400 26.81500
C  5.51900 44.88100 25.02600
C  4.14600 44.68900 28.23900
O  5.27700 44.78100 28.68100
C  2.81700 44.70300 29.06300
C  2.90700 43.68200 30.20500
O  2.42400 42.55000 30.16500
O  3.69900 44.17300 31.18700
C  4.05300 43.13100 32.15000
H  -3.74000 43.04300 27.37300
H  -2.44200 43.46300 21.16400
H  3.68500 44.37500 22.66200
H  0.11400 43.08700 30.09600
H  -2.56900 44.36700 29.32100
H  -3.49000 42.58300 30.24300
H  -1.79200 41.79400 30.46700
H  -2.62900 41.56200 28.98100
H  -1.47600 45.50700 30.58700
H  0.24700 45.97300 30.18300
H  -0.24700 45.67000 32.63900
H  1.16000 44.89200 31.87000
H  -6.11000 41.63400 25.12200
H  -6.25400 43.24500 25.83800
H  -5.19800 41.92200 26.55200
H  -6.98800 41.95300 22.78200
H  -7.25700 43.38200 21.76600
H  -7.00900 43.46500 23.49000
H  -0.30200 44.52100 20.02300
H  2.36400 43.67700 20.79700
H  1.23100 42.42100 19.45800
H  -0.50300 42.13500 19.37400
H  0.28500 41.72200 20.87600
H  1.21800 46.10300 19.66500
H  2.81600 46.10400 20.03400
H  1.03800 47.81300 21.03400
H  2.62800 47.48500 21.70200
H  1.07300 46.76900 22.33000
H  5.74300 45.16200 23.99700
H  6.07900 43.97600 25.25900
H  5.74700 45.74600 25.64900
H  2.70700 45.62400 29.63400
H  4.96300 42.61200 31.84900
H  3.31500 42.33000 32.20600
H  4.25000 43.54800 33.13700

