158

Mg 25.05400 1.96600 30.72900
C  27.29400 1.70100 33.33800
C  22.36900 2.19600 32.92200
C  22.92000 1.93000 28.02700
C  27.67700 1.24000 28.48900
N  24.90900 1.79700 32.93400
C  26.00100 1.98000 33.73700
C  25.58200 2.53000 35.19300
C  23.95400 2.53000 35.03800
C  23.70500 2.09300 33.54100
C  23.16200 1.64500 36.07100
C  26.23000 3.90100 35.53700
C  27.28600 3.93100 36.75400
H  26.86400 4.79800 37.95000
N  22.97300 2.02500 30.55500
C  22.03100 2.11300 31.55600
C  20.70400 2.15700 30.94500
C  20.85300 1.96900 29.55300
C  22.28000 1.97400 29.35900
C  19.41600 2.10400 31.85000
C  19.75000 1.98800 28.47400
O  19.99900 2.00300 27.22300
C  18.31600 1.97100 28.85600
N  25.31300 1.70400 28.61000
C  24.25400 1.74900 27.73600
C  24.67400 1.64000 26.31300
C  26.21600 1.31400 26.41300
C  26.44500 1.41700 27.90800
C  23.91200 0.55900 25.48000
C  27.08200 2.24400 25.45500
C  27.20600 3.71100 25.89600
N  27.09600 1.50800 30.85000
C  27.99700 1.25400 29.85300
C  29.30200 1.03700 30.48700
C  29.07300 1.20700 31.86100
C  27.71200 1.44000 32.06200
C  30.53900 0.71500 29.84800
C  29.68200 1.18500 33.17300
O  30.83600 0.82900 33.50300
C  28.60900 1.68700 34.19500
C  28.57300 0.80800 35.32300
O  27.83400 -0.14500 35.54000
O  29.38900 1.29000 36.26700
C  29.29800 0.72800 37.56100
H  21.53900 2.40000 33.60100
H  22.19400 2.13700 27.23800
H  28.51500 0.99800 27.83200
H  25.92000 1.83400 35.96100
H  23.50900 3.52400 35.08500
H  22.69500 0.80800 35.55200
H  22.39000 2.36000 36.35500
H  23.85000 1.35900 36.86600
H  25.40500 4.56700 35.79200
H  26.78000 4.23500 34.65800
H  28.27300 4.30200 36.47700
H  27.18300 2.93000 37.17400
H  18.86700 1.16300 31.90400
H  18.74000 2.84800 31.42800
H  19.63000 2.45400 32.86000
H  18.11600 1.00300 29.31500
H  17.78100 2.05500 27.91000
H  18.07000 2.81400 29.50200
H  24.63800 2.64100 25.88300
H  26.44600 0.28200 26.14700
H  23.32000 0.04400 26.23700
H  24.59400 -0.13200 24.98500
H  23.27800 1.07900 24.76300
H  26.77400 2.18900 24.41100
H  28.10400 1.86700 25.49900
H  28.23700 3.98000 26.12500
H  26.48200 3.96300 26.67000
H  26.78100 4.31800 25.09700
H  30.24600 -0.18400 29.30600
H  31.30500 0.53900 30.60300
H  30.73400 1.45700 29.07300
H  28.96100 2.65500 34.55200
H  28.27300 0.92700 37.87200
H  30.12600 1.14500 38.13400
H  29.44300 -0.34700 37.44700
Mg 35.45900 2.83300 30.43900
C  33.04500 3.96900 32.81400
C  37.57800 2.47700 33.09400
C  37.60300 1.71300 28.25300
C  32.93800 3.25600 27.95900
N  35.33300 3.28800 32.69700
C  34.25600 3.72300 33.44600
C  34.57400 3.80500 34.94600
C  36.12100 3.62500 34.94700
C  36.40000 3.05900 33.47900
C  37.02700 4.85700 35.10000
C  33.72800 2.56000 35.46700
C  33.27000 2.49900 36.95700
H  33.83600 3.71000 37.82300
N  37.46700 2.20900 30.68600
C  38.21900 2.24500 31.87600
C  39.54800 1.79400 31.41900
C  39.53200 1.47400 29.98700
C  38.20800 1.76000 29.60200
C  40.65500 1.70500 32.43100
C  40.51000 0.76400 29.05900
O  40.23900 0.20900 28.00100
C  41.97000 0.58100 29.56600
N  35.27600 2.52400 28.42500
C  36.30600 2.02100 27.70900
C  36.03200 1.91700 26.21900
C  34.48000 1.93600 26.29700
C  34.16800 2.63300 27.61700
C  36.76900 3.08700 25.38500
C  33.74200 0.56900 26.19200
C  32.57900 0.20200 27.22900
N  33.40400 3.57700 30.32500
C  32.53600 3.65800 29.22100
C  31.19500 4.10000 29.73100
C  31.43600 4.30100 31.13300
C  32.76300 3.90800 31.45000
C  29.83900 4.25200 28.99900
C  30.73300 4.65600 32.41200
O  29.50700 4.91500 32.65700
C  31.77200 4.54300 33.49100
C  31.96600 5.85600 34.09900
O  32.34400 6.91000 33.64000
O  31.41100 5.82000 35.35900
C  31.46600 6.84800 36.43300
H  38.26600 2.33900 33.93000
H  38.34500 1.46900 27.49000
H  32.15400 3.36600 27.20800
H  34.18700 4.71400 35.40600
H  36.38000 2.79100 35.59900
H  37.78400 4.64700 35.85600
H  36.59500 5.85400 35.18300
H  37.59600 4.90000 34.17200
H  34.36300 1.67800 35.39100
H  32.98600 2.27700 34.72100
H  33.64600 1.63000 37.49700
H  32.18300 2.44700 37.00700
H  40.26500 2.09200 33.37200
H  41.45300 2.31800 32.01200
H  40.90700 0.64700 32.50900
H  42.22500 1.40300 30.23500
H  42.64000 0.52900 28.70800
H  42.00300 -0.40200 30.03600
H  36.41700 0.91100 26.05400
H  34.23600 2.66100 25.52000
H  37.35100 3.71700 26.05800
H  36.06000 3.71500 24.84600
H  37.48700 2.70400 24.66000
H  34.49500 -0.21900 26.20800
H  33.38000 0.40700 25.17600
H  33.02300 0.08300 28.21700
H  32.07500 -0.75000 27.05900
H  31.84600 1.00900 27.22800
H  29.87700 4.98700 28.19500
H  29.08300 4.36400 29.77600
H  29.49900 3.30500 28.58100
H  31.38400 3.85400 34.24200
H  30.49900 7.28700 36.67800
H  32.21000 7.58800 36.13600
H  31.75500 6.29900 37.32900

