158

Mg 1.53000 8.50800 26.57900
C  2.02600 10.35400 29.42600
C  1.67200 5.64700 28.45500
C  1.09600 6.77800 23.75000
C  1.85700 11.48200 24.69300
N  1.64400 8.03600 28.75200
C  1.80600 8.99000 29.68000
C  1.67000 8.33200 31.05300
C  1.96700 6.84600 30.76400
C  1.70900 6.84100 29.22300
C  3.42200 6.47000 31.05900
C  0.29800 8.54300 31.67100
C  0.12900 8.72200 33.16900
H  1.31500 8.43800 34.13200
N  1.42800 6.46800 26.16200
C  1.36500 5.42300 27.08100
C  1.00800 4.21400 26.42600
C  1.02600 4.52200 25.06000
C  1.16800 5.98700 24.92600
C  0.85600 2.86400 27.11300
C  0.81800 3.62400 23.89100
O  0.67900 4.06500 22.74900
C  0.68100 2.16700 24.11900
N  1.39600 9.12300 24.58000
C  1.22400 8.16700 23.60700
C  1.28000 8.83400 22.18900
C  1.03800 10.30400 22.55800
C  1.53200 10.34500 24.01500
C  2.52400 8.73900 21.30400
C  -0.44200 10.71300 22.52300
C  -0.99500 11.44500 21.29500
N  2.02700 10.52200 26.95600
C  2.16800 11.61300 26.09300
C  2.39800 12.82200 26.86700
C  2.40700 12.30800 28.20200
C  2.13000 10.95900 28.18800
C  2.45700 14.15400 26.45200
C  2.53000 12.72700 29.60900
O  2.85100 13.79900 30.07400
C  2.21200 11.48000 30.43800
C  3.46100 11.28900 31.20800
O  4.44900 10.66000 30.91400
O  3.37200 12.06300 32.30000
C  4.51900 11.94400 33.28600
H  1.72300 4.68200 28.96400
H  0.97600 6.35400 22.75100
H  1.57400 12.36100 24.11100
H  2.41100 8.78400 31.71100
H  1.27000 6.16300 31.25100
H  3.40200 5.69300 31.82300
H  4.08700 7.32000 31.21100
H  3.92700 5.92100 30.26400
H  -0.31500 7.69100 31.37600
H  -0.15500 9.35000 31.09500
H  -0.68000 8.03700 33.42200
H  -0.15000 9.74800 33.41000
H  0.56400 3.03500 28.14900
H  1.84900 2.41500 27.07600
H  0.14700 2.15200 26.69100
H  1.61200 1.80900 24.55900
H  0.46800 1.51000 23.27600
H  -0.24900 2.06000 24.67600
H  0.41800 8.62000 21.55800
H  1.63500 11.02900 22.00500
H  3.09100 7.80800 21.33400
H  3.21700 9.51800 21.61800
H  2.21100 8.95500 20.28200
H  -0.59600 11.37800 23.37200
H  -1.11600 9.89700 22.78400
H  -1.70200 10.84400 20.72100
H  -0.16300 11.61700 20.61200
H  -1.38100 12.44800 21.47200
H  1.85700 14.80700 27.08600
H  2.09700 14.30700 25.43400
H  3.46300 14.57300 26.48100
H  1.30300 11.62800 31.02200
H  4.55700 11.01200 33.85000
H  4.50300 12.82400 33.93000
H  5.40300 11.92800 32.64800
Mg 29.82600 57.09400 40.99300
C  27.26300 55.12700 39.45200
C  32.15200 54.65800 39.49400
C  32.35800 59.09000 41.66400
C  27.45700 59.53100 41.40700
N  29.64000 55.14000 39.54100
C  28.51600 54.52800 39.18900
C  28.81700 53.17800 38.43100
C  30.42100 53.04300 38.53300
C  30.80100 54.35100 39.24700
C  31.03700 51.82300 39.23000
C  28.27900 53.09100 36.96200
C  28.67800 54.20900 36.00900
H  27.58100 54.94600 35.22400
N  31.87100 56.80900 40.76800
C  32.59900 55.84500 40.16800
C  34.00200 56.16600 40.27300
C  34.18800 57.32800 41.07100
C  32.76700 57.80600 41.21600
C  35.17500 55.30300 39.71600
C  35.48400 58.03100 41.44200
O  36.52600 57.63400 41.05900
C  35.42500 59.16600 42.41400
N  29.89600 59.06000 41.30400
C  31.08600 59.62300 41.75600
C  30.84800 61.03000 42.34300
C  29.27800 61.22900 42.20200
C  28.82000 59.89100 41.56200
C  31.34600 61.42700 43.72000
C  28.97400 62.45100 41.26000
C  29.89300 63.71700 41.47400
N  27.75300 57.29400 40.62700
C  26.90400 58.31600 40.92200
C  25.51300 57.98100 40.83200
C  25.63900 56.69300 40.25000
C  26.97100 56.36800 40.05900
C  24.32000 58.89800 41.01500
C  24.84800 55.66000 39.52600
O  23.64900 55.67400 39.19300
C  25.87700 54.52000 39.17800
C  25.55100 53.37400 40.08900
O  25.98900 53.30300 41.25200
O  24.56200 52.55400 39.56000
C  24.04800 51.46800 40.38200
H  32.90900 53.94700 39.15500
H  33.13300 59.79200 41.97800
H  26.81400 60.38700 41.62000
H  28.28200 52.43600 39.02400
H  30.85200 52.94500 37.53700
H  31.91200 51.54800 38.64100
H  30.31300 51.01200 39.15200
H  31.38800 51.91000 40.25900
H  27.20600 52.90400 36.94200
H  28.60900 52.17900 36.46400
H  29.49100 53.89100 35.35600
H  29.07800 55.03600 36.59600
H  35.95500 55.94800 39.31300
H  34.92000 54.77200 38.79900
H  35.50800 54.46900 40.33400
H  35.22200 60.11100 41.91000
H  36.42400 59.26100 42.84000
H  34.80800 58.91200 43.27600
H  31.50200 61.60600 41.68900
H  28.74400 61.46800 43.12200
H  30.48700 61.49100 44.38800
H  31.86500 62.38500 43.75600
H  32.07600 60.68300 44.03900
H  27.96700 62.86400 41.32300
H  29.19100 62.26200 40.20900
H  30.68100 63.78000 40.72300
H  30.32200 63.61200 42.47100
H  29.36100 64.64700 41.27500
H  23.87100 59.03200 41.99900
H  23.53500 58.60900 40.31700
H  24.45300 59.91000 40.63400
H  25.67200 54.31600 38.12700
H  23.55300 50.78300 39.69300
H  23.37200 51.98800 41.06100
H  24.78600 50.90600 40.95400

