158

Mg 25.86300 0.67500 29.30200
C  27.91500 0.49900 32.26200
C  23.31500 1.53200 31.56700
C  23.71900 0.52800 26.75500
C  28.42900 -0.38300 27.27100
N  25.72500 1.17700 31.69200
C  26.70000 1.00100 32.65100
C  26.15500 1.33100 34.05300
C  24.62100 1.67300 33.76000
C  24.48200 1.36500 32.26800
C  23.52100 0.93000 34.59500
C  26.97300 2.51700 34.73400
C  27.57500 2.21600 36.11900
H  27.26900 3.25200 37.23900
N  23.80500 1.01700 29.19700
C  22.95100 1.38400 30.20900
C  21.59900 1.47700 29.65800
C  21.76200 1.33900 28.22200
C  23.13800 0.94500 27.99800
C  20.39100 1.74600 30.59400
C  20.64200 1.34500 27.17900
O  20.84000 1.24500 25.97700
C  19.16400 1.69500 27.59700
N  26.04500 0.40900 27.30700
C  25.03800 0.30700 26.41900
C  25.52900 -0.07200 24.98900
C  26.99800 -0.27600 25.17900
C  27.22600 -0.02600 26.65500
C  24.90700 -1.35300 24.38600
C  27.91100 0.58800 24.26100
C  28.13300 2.12600 24.65300
N  27.79300 0.19200 29.63600
C  28.74400 -0.27700 28.71700
C  29.97100 -0.53600 29.38500
C  29.62900 -0.31300 30.74500
C  28.32100 0.16000 30.90800
C  31.27600 -0.84300 28.86500
C  30.29400 -0.29600 32.06400
O  31.41600 -0.63400 32.39500
C  29.20300 0.31600 33.07700
C  29.15900 -0.57500 34.22700
O  28.53600 -1.65200 34.36500
O  29.73400 0.14900 35.21500
C  29.91400 -0.52400 36.51500
H  22.55600 1.88600 32.26700
H  23.09400 0.37800 25.87200
H  29.23100 -0.49600 26.53800
H  26.05900 0.48500 34.73400
H  24.43300 2.73300 33.93400
H  22.73200 1.54300 35.03000
H  23.92600 0.37400 35.44100
H  23.16500 0.08800 34.00200
H  26.25300 3.27600 35.04000
H  27.71200 2.89000 34.02500
H  28.64700 2.26200 35.93100
H  27.27100 1.22600 36.45700
H  20.67700 1.95800 31.62400
H  19.69800 0.90500 30.61300
H  19.80700 2.57900 30.20300
H  19.09000 2.73200 27.92500
H  18.94200 0.88500 28.29100
H  18.56300 1.45800 26.71900
H  25.36300 0.76300 24.30900
H  27.17000 -1.35100 25.12800
H  25.58500 -1.99400 23.82200
H  24.11200 -1.00200 23.72700
H  24.47600 -1.92400 25.20800
H  27.44700 0.49000 23.28000
H  28.88400 0.10200 24.18400
H  27.67400 2.32600 25.62100
H  27.65000 2.76200 23.91200
H  29.20700 2.30900 24.61300
H  32.04700 -0.82200 29.63600
H  31.59100 -0.15900 28.07700
H  31.36500 -1.82600 28.40400
H  29.58700 1.29100 33.37700
H  29.19700 -0.02300 37.16600
H  30.89800 -0.40100 36.96700
H  29.81300 -1.60800 36.56700
Mg 9.11700 47.74900 25.48500
C  6.90400 48.12800 28.12600
C  11.65300 48.57800 27.63400
C  11.24100 47.05100 22.99700
C  6.38300 47.41500 23.28400
N  9.26700 48.10400 27.63800
C  8.23300 48.12100 28.55800
C  8.69800 48.37400 29.97800
C  10.12600 49.00700 29.69100
C  10.41700 48.46000 28.24100
C  10.26800 50.61500 29.87900
C  8.75100 47.12000 30.88500
C  9.06400 47.48800 32.35200
H  9.24600 46.33000 33.33500
N  11.14100 47.77300 25.32700
C  12.02700 48.24600 26.30700
C  13.34300 48.16400 25.79300
C  13.25400 47.53500 24.49400
C  11.83000 47.42300 24.22900
C  14.59500 48.50800 26.58900
C  14.41900 47.21900 23.60400
O  14.31400 46.65400 22.49000
C  15.79700 47.41700 24.04700
N  8.84800 47.36700 23.44800
C  9.87800 46.99400 22.68700
C  9.41300 46.50100 21.30200
C  7.91300 46.51200 21.42800
C  7.67400 47.21400 22.81200
C  9.99700 47.39100 20.17300
C  7.39600 45.06700 21.30800
C  6.01300 44.97500 20.72900
N  7.06900 47.93800 25.54900
C  6.02200 47.81500 24.57900
C  4.76400 48.01200 25.24800
C  5.09000 48.17300 26.57900
C  6.44600 48.06300 26.78400
C  3.38600 47.86800 24.67100
C  4.48400 48.45300 27.85700
O  3.29300 48.58800 28.08600
C  5.63600 48.32600 28.96100
C  5.46500 47.27500 29.85900
O  5.47300 46.05100 29.54800
O  5.26500 47.68700 31.10500
C  5.29800 46.71900 32.19700
H  12.40700 49.00900 28.29500
H  11.90400 46.62100 22.24200
H  5.53900 47.28200 22.60400
H  8.06200 49.10400 30.47900
H  10.93300 48.59800 30.30000
H  9.26500 51.00700 30.05300
H  10.67600 51.17000 29.03400
H  10.98500 50.85800 30.66300
H  9.54700 46.47800 30.50800
H  7.87400 46.48900 30.74200
H  8.18400 48.06600 32.63500
H  9.92600 48.14900 32.44100
H  14.38700 48.79900 27.61800
H  15.09800 49.38500 26.18300
H  15.32200 47.69900 26.67300
H  16.14000 46.88100 24.93200
H  15.83500 48.48100 24.28200
H  16.40300 47.09000 23.20200
H  9.85300 45.52900 21.08000
H  7.57300 47.24800 20.69900
H  11.03500 47.69900 20.29700
H  9.30500 48.23100 20.11400
H  9.86800 46.90800 19.20400
H  7.25800 44.78900 22.35300
H  8.09600 44.43400 20.76300
H  5.25300 44.44500 21.30200
H  6.07700 44.51200 19.74400
H  5.53100 45.93600 20.55000
H  3.24300 48.73700 24.03000
H  2.74300 47.86800 25.55100
H  3.33600 46.97500 24.04700
H  5.76500 49.29200 29.44900
H  4.34300 46.61800 32.71300
H  5.97800 47.08900 32.96400
H  5.59700 45.68100 32.05500

