158

Mg 54.07400 24.40200 44.88200
C  51.33600 26.32000 43.65600
C  52.60900 21.65600 43.33600
C  56.79700 22.83400 45.49100
C  55.54900 27.51100 45.72800
N  52.25000 24.11200 43.49500
C  51.29500 25.02400 43.11100
C  50.24000 24.34400 42.12900
C  50.40900 22.80000 42.50800
C  51.84600 22.81300 43.10300
C  49.35400 22.24800 43.45700
C  50.70600 24.65700 40.61500
C  49.50200 24.68200 39.65500
H  49.67200 25.17100 38.24800
N  54.67700 22.49000 44.46500
C  53.90800 21.50800 43.88400
C  54.64800 20.24400 43.95400
C  55.87800 20.57800 44.62700
C  55.85100 22.04700 44.92000
C  54.07400 18.93300 43.53100
C  57.03200 19.51600 44.93800
O  56.93400 18.30900 44.75700
C  58.27200 19.96200 45.67800
N  55.95800 25.11500 45.29400
C  56.93200 24.19000 45.63500
C  58.11500 24.84500 46.35300
C  57.78800 26.41600 46.15800
C  56.38300 26.35500 45.60800
C  58.19500 24.42200 47.80500
C  58.72500 27.20100 45.18000
C  58.23600 27.51200 43.74900
N  53.48600 26.43300 44.93400
C  54.15300 27.54700 45.39700
C  53.18700 28.58300 45.53100
C  52.08800 28.18500 44.80400
C  52.34700 26.87400 44.46300
C  53.25500 29.79100 46.37600
C  50.76500 28.54600 44.35500
O  50.09300 29.52500 44.61300
C  50.21300 27.34300 43.59400
C  49.96400 27.91400 42.27400
O  50.68900 28.71500 41.69900
O  48.89400 27.30600 41.69500
C  48.34800 27.89100 40.48500
H  52.12600 20.75200 42.95900
H  57.74400 22.43700 45.86300
H  55.97000 28.44300 46.11200
H  49.24000 24.71000 42.36300
H  50.27400 22.14900 41.64500
H  48.55100 22.97600 43.57600
H  49.86000 22.02800 44.39600
H  48.88800 21.31500 43.14100
H  51.30200 23.81600 40.26100
H  51.12000 25.66500 40.64900
H  48.69300 25.24400 40.12300
H  49.10100 23.67500 39.54100
H  52.98500 18.98100 43.53500
H  54.46600 18.19500 44.23100
H  54.49900 18.55800 42.60000
H  57.94100 20.45600 46.59200
H  58.92400 20.47100 44.96800
H  58.93600 19.18200 46.05000
H  59.08800 24.62800 45.91300
H  57.60800 26.92600 47.10400
H  58.64700 23.43000 47.79400
H  57.22200 24.35900 48.29100
H  58.90500 25.02900 48.36700
H  59.67200 26.68300 45.03400
H  58.87100 28.20500 45.57800
H  57.57800 26.76200 43.31100
H  59.15800 27.70600 43.20100
H  57.73500 28.47800 43.69100
H  52.28200 29.90400 46.85500
H  53.50400 30.74000 45.90300
H  54.04500 29.63600 47.11000
H  49.28200 27.07900 44.09500
H  47.97900 28.80200 40.95600
H  47.43100 27.46900 40.07400
H  49.08600 28.22200 39.75500
Mg 41.83000 40.72500 26.40200
C  41.02500 43.13800 28.80700
C  42.77400 38.56200 28.73800
C  42.63700 38.76800 23.92800
C  41.26200 43.35300 24.02100
N  42.00100 40.90200 28.52600
C  41.56900 41.94700 29.33600
C  41.56800 41.50100 30.79500
C  42.23200 40.05800 30.74400
C  42.27300 39.81300 29.24700
C  43.59100 39.83200 31.38700
C  40.14600 41.68900 31.46100
C  39.74000 40.80100 32.67500
H  39.03000 41.40500 33.83900
N  42.46100 38.87900 26.38500
C  42.84300 38.08100 27.43800
C  43.18100 36.77500 26.93900
C  43.08600 36.79900 25.46200
C  42.75300 38.17000 25.18000
C  43.52500 35.62000 27.88400
C  43.32900 35.71000 24.48700
O  43.05900 35.73600 23.31400
C  43.67900 34.35100 24.98400
N  42.10900 41.08000 24.20900
C  42.30200 40.00300 23.44400
C  42.16800 40.35700 21.92000
C  41.41900 41.77100 21.96400
C  41.53000 42.11000 23.53900
C  43.58500 40.44700 21.27400
C  40.01200 41.73100 21.32500
C  39.09500 40.73000 22.07000
N  41.25100 42.77000 26.33600
C  41.07900 43.63700 25.34700
C  40.66000 44.98700 25.84200
C  40.64800 44.80300 27.24000
C  40.93800 43.43900 27.47900
C  40.50700 46.21000 25.00400
C  40.27900 45.43700 28.54500
O  39.74000 46.50800 28.84300
C  40.52400 44.33700 29.65200
C  41.38000 44.77600 30.77000
O  42.58500 44.81100 30.67000
O  40.53000 45.10000 31.85200
C  41.37200 45.60700 32.89100
H  42.95300 37.92500 29.60700
H  42.75200 37.98500 23.17500
H  40.93800 44.13200 23.32800
H  42.22200 42.27300 31.20100
H  41.55000 39.34300 31.20600
H  43.85100 40.84800 31.68400
H  44.28400 39.32900 30.71200
H  43.44300 39.10900 32.19000
H  39.32600 41.58300 30.75000
H  40.15000 42.68000 31.91500
H  40.65400 40.32700 33.03200
H  39.16300 39.95000 32.31200
H  44.54500 35.23900 27.85100
H  42.91000 34.77500 27.57400
H  43.25000 35.80400 28.92300
H  44.46300 34.44400 25.73600
H  44.12000 33.82000 24.14100
H  42.92100 33.83700 25.57600
H  41.50600 39.61900 21.46700
H  42.11400 42.47500 21.50700
H  44.21400 39.70800 21.77100
H  44.03100 41.43600 21.37600
H  43.42400 40.16600 20.23300
H  40.06400 41.33700 20.31000
H  39.51500 42.69900 21.26300
H  39.57200 40.19100 22.88900
H  38.57700 40.04600 21.39900
H  38.28200 41.30600 22.51200
H  41.16600 46.24300 24.13600
H  40.80600 47.01000 25.68100
H  39.51500 46.42300 24.60400
H  39.56100 44.12100 30.11500
H  42.17300 46.24700 32.52100
H  41.84000 44.78800 33.43800
H  40.80000 46.28500 33.52400

