158

Mg -10.26900 39.96100 42.12600
C  -9.95800 36.61000 41.15300
C  -7.48100 40.62000 40.49400
C  -11.11700 43.23400 42.36500
C  -13.41800 39.24400 43.52000
N  -8.89600 38.76900 40.98200
C  -8.95600 37.43900 40.73600
C  -7.80300 36.93200 39.84800
C  -6.91600 38.21600 39.72400
C  -7.72900 39.26200 40.51400
C  -5.45000 38.10500 40.19300
C  -8.19300 36.28000 38.41600
C  -7.20000 35.19700 37.90800
H  -6.18900 35.57600 36.82700
N  -9.40800 41.67300 41.58700
C  -8.16200 41.71300 40.97100
C  -7.75500 43.14300 40.85500
C  -8.81400 43.91400 41.38000
C  -9.88300 42.98900 41.82400
C  -6.48200 43.60200 40.13000
C  -8.78400 45.40600 41.36500
O  -7.75700 46.04500 41.04300
C  -10.08300 46.24900 41.51900
N  -12.10100 41.08100 42.64900
C  -12.23100 42.38200 42.75600
C  -13.53700 42.88400 43.43300
C  -14.24900 41.57900 43.86800
C  -13.16300 40.59300 43.31200
C  -13.34200 44.11100 44.39900
C  -15.65300 41.20500 43.37600
C  -16.67900 40.82500 44.48000
N  -11.47700 38.25900 42.30700
C  -12.70000 38.12400 42.98200
C  -13.07500 36.67500 42.87700
C  -11.96900 36.03000 42.26300
C  -11.11800 37.04000 41.86000
C  -14.23900 36.04700 43.50500
C  -11.31800 34.71800 41.90000
O  -11.74800 33.58800 42.14700
C  -10.05900 35.10200 41.09700
C  -8.83400 34.48200 41.62100
O  -8.40000 34.54300 42.71500
O  -8.36200 33.62800 40.68000
C  -7.23800 32.70600 40.85000
H  -6.57100 40.80200 39.91700
H  -11.40800 44.28400 42.43800
H  -14.29700 38.99200 44.11800
H  -7.29500 36.17100 40.44100
H  -7.09500 38.54700 38.70000
H  -5.01000 37.14000 39.94200
H  -5.30800 38.15700 41.27200
H  -4.73300 38.78300 39.73100
H  -7.99400 36.98200 37.60600
H  -9.27200 36.14200 38.35700
H  -7.79200 34.37800 37.50000
H  -6.67300 34.79700 38.77500
H  -6.47100 44.23800 39.24500
H  -5.79300 42.76900 39.99700
H  -6.03300 44.25100 40.88200
H  -10.24000 46.24300 42.59800
H  -10.95400 45.88500 40.97400
H  -9.91600 47.29800 41.27200
H  -14.10900 43.28000 42.59500
H  -14.17300 41.71200 44.94700
H  -13.80400 43.82900 45.34500
H  -13.92600 44.92800 43.97500
H  -12.29200 44.37900 44.51700
H  -15.71500 40.49400 42.55100
H  -16.00700 42.14900 42.96300
H  -17.39500 41.63800 44.59600
H  -16.24800 40.68500 45.47100
H  -17.21400 39.91400 44.21200
H  -15.10100 36.23800 42.86600
H  -14.46000 36.53700 44.45400
H  -14.11600 34.96800 43.59400
H  -10.27900 34.65800 40.12600
H  -7.47700 31.76300 41.34100
H  -6.49200 33.18100 41.48800
H  -6.79600 32.51400 39.87200
Mg -5.09400 25.39800 25.27600
C  -3.65200 27.04400 28.16600
C  -6.36500 23.17400 27.49900
C  -6.25200 23.89900 22.57000
C  -3.44000 27.73500 23.29800
N  -5.21200 25.31400 27.57400
C  -4.58700 26.07900 28.55700
C  -4.79100 25.40000 29.98600
C  -5.34700 23.98300 29.67900
C  -5.68400 24.15900 28.16000
C  -4.29800 22.76900 29.94100
C  -5.77300 26.26100 30.84900
C  -5.25700 26.66200 32.28300
H  -4.69400 25.46600 33.09200
N  -6.16700 23.80600 25.03800
C  -6.65800 23.00600 26.11100
C  -7.49300 22.01800 25.54000
C  -7.49700 22.15500 24.12800
C  -6.69800 23.36800 23.84500
C  -8.16300 20.88600 26.31400
C  -8.12900 21.39000 23.00800
O  -8.11900 21.80300 21.86100
C  -8.82300 20.13600 23.33800
N  -4.73100 25.70700 23.27400
C  -5.37900 24.99300 22.36600
C  -5.09800 25.43000 20.96500
C  -4.58900 26.89400 21.18200
C  -4.28100 26.86700 22.71500
C  -4.03800 24.50200 20.38700
C  -5.64400 27.96900 20.83700
C  -5.05800 29.23200 20.18500
N  -3.63400 27.04300 25.61300
C  -3.11000 27.88000 24.62900
C  -2.25600 28.77000 25.32800
C  -2.45400 28.54500 26.68400
C  -3.34600 27.51700 26.80800
C  -1.30400 29.76200 24.67800
C  -1.92100 28.87000 27.99400
O  -1.08000 29.67200 28.40300
C  -2.69100 27.82100 28.97500
C  -1.69000 26.98400 29.76500
O  -1.15500 25.97900 29.42000
O  -1.57100 27.63300 30.99800
C  -0.73300 26.90700 32.02100
H  -6.74800 22.35400 28.11100
H  -6.53000 23.36900 21.65600
H  -3.08000 28.46900 22.57400
H  -3.84800 25.28600 30.52100
H  -6.26700 23.71700 30.19900
H  -4.79100 21.91700 29.47100
H  -4.19600 22.64500 31.01900
H  -3.34100 23.07700 29.52200
H  -6.82200 25.96800 30.87300
H  -5.88400 27.22900 30.36000
H  -6.07100 27.14300 32.82600
H  -4.47000 27.40600 32.15900
H  -7.76000 19.89700 26.09500
H  -9.21800 20.90400 26.04200
H  -8.21000 21.09100 27.38400
H  -8.13800 19.39300 23.74700
H  -9.24600 19.76800 22.40300
H  -9.65100 20.41300 23.99100
H  -5.94600 25.47500 20.28100
H  -3.72300 27.13800 20.56600
H  -3.54600 23.87900 21.13400
H  -3.28800 25.12800 19.90400
H  -4.59000 23.90900 19.65800
H  -6.09700 28.24600 21.78900
H  -6.42600 27.63500 20.15600
H  -5.60500 29.50800 19.28300
H  -4.00300 29.33000 19.92700
H  -5.36400 30.14600 20.69500
H  -0.92600 29.29700 23.76700
H  -0.49000 30.04900 25.34400
H  -1.90200 30.64300 24.44600
H  -3.21000 28.51000 29.64100
H  0.27300 26.71400 31.64800
H  -1.20000 25.94400 32.22600
H  -0.55700 27.54500 32.88700

