158

Mg 41.46900 9.32600 29.83500
C  43.39200 10.55300 32.47500
C  39.34600 7.94600 32.18600
C  39.58100 8.24700 27.25200
C  43.90700 10.28100 27.59700
N  41.48400 9.09200 32.14100
C  42.27200 9.86500 32.94100
C  41.82400 9.81900 34.36200
C  40.65000 8.77400 34.28000
C  40.43200 8.57900 32.81300
C  41.04600 7.40100 34.86500
C  41.50500 11.21200 34.92400
C  40.39100 11.36800 36.03000
H  40.92000 11.89000 37.34300
N  39.73800 8.18100 29.74600
C  39.00700 7.74600 30.85100
C  37.83000 6.98100 30.34700
C  37.90100 7.11800 28.91900
C  39.11600 7.82100 28.60200
C  36.84600 6.27400 31.29500
C  36.83200 6.72500 27.89800
O  36.90100 6.90200 26.65000
C  35.66000 6.08900 28.49100
N  41.65000 9.25600 27.75900
C  40.66500 9.04000 26.92600
C  41.15300 9.11700 25.44900
C  42.40600 10.01400 25.52500
C  42.71700 9.78800 27.02900
C  41.50300 7.77200 24.85200
C  42.14100 11.45800 25.10900
C  41.19600 12.34400 25.89200
N  43.34000 10.10600 29.93800
C  44.21600 10.52400 28.96200
C  45.40200 11.04900 29.51600
C  45.09200 11.12300 30.89400
C  43.80100 10.58000 31.08800
C  46.51800 11.73400 28.83400
C  45.53000 11.59100 32.15200
O  46.55200 12.15100 32.54600
C  44.46900 11.21900 33.21200
C  45.16700 10.31200 34.19100
O  45.40000 9.10800 34.05700
O  45.58500 11.11600 35.26600
C  46.32300 10.41100 36.27300
H  38.62900 7.62300 32.94500
H  39.05600 7.79900 26.40600
H  44.71600 10.65900 26.96900
H  42.63600 9.47700 35.00300
H  39.64000 9.10500 34.52100
H  40.20300 6.80000 35.20600
H  41.77900 7.52500 35.66200
H  41.45900 6.79500 34.05800
H  41.16000 11.85900 34.11800
H  42.45200 11.63200 35.26600
H  39.91000 10.42200 36.27800
H  39.63200 12.07800 35.70300
H  35.83800 6.68900 31.26000
H  37.18800 6.37900 32.32400
H  36.86500 5.24400 30.94100
H  35.97500 5.17800 29.00100
H  34.91600 5.85800 27.72800
H  35.11600 6.76700 29.14900
H  40.43200 9.62300 24.80700
H  43.26800 9.60800 24.99600
H  42.47600 7.81100 24.36100
H  40.77700 7.52700 24.07700
H  41.54700 6.96100 25.57900
H  41.74500 11.31800 24.10300
H  43.08200 11.99500 24.99200
H  40.75100 11.85700 26.75900
H  40.38900 12.64500 25.22400
H  41.59500 13.31000 26.20100
H  46.89800 12.50300 29.50700
H  46.52600 12.04900 27.79100
H  47.21800 10.89900 28.82400
H  44.13700 12.11300 33.74000
H  47.31600 10.11200 35.93600
H  45.79800 9.54100 36.66900
H  46.52200 11.06600 37.12100
Mg 46.33400 25.45900 28.04100
C  47.62300 27.64200 30.64500
C  46.55700 22.91900 30.34700
C  45.83800 23.34400 25.45100
C  47.24700 27.89700 25.74200
N  47.07200 25.31700 30.27800
C  47.36600 26.30700 31.15500
C  47.52200 25.85200 32.57900
C  47.33300 24.30700 32.45100
C  46.97400 24.11000 30.96900
C  48.50200 23.27300 32.89600
C  46.68900 26.51500 33.66300
C  46.50700 25.88800 35.06500
H  46.82600 26.68600 36.37400
N  45.93100 23.47800 27.95400
C  46.13000 22.59600 28.99300
C  45.91300 21.21600 28.47300
C  45.48700 21.39200 27.11100
C  45.69400 22.75400 26.73600
C  45.98000 19.92000 29.30400
C  45.24800 20.26300 26.09100
O  44.83000 20.52500 24.96300
C  45.33500 18.79800 26.40500
N  46.36900 25.67300 25.87500
C  46.15000 24.62700 25.06800
C  46.44300 24.96100 23.59500
C  46.63100 26.50600 23.72700
C  46.78600 26.73000 25.21300
C  47.70100 24.20700 23.13300
C  45.39500 27.37000 23.23100
C  45.83700 28.52500 22.38900
N  47.14800 27.44300 28.10700
C  47.46100 28.26300 27.10000
C  47.91500 29.46500 27.67300
C  47.98000 29.30800 29.03000
C  47.55600 28.02100 29.29800
C  48.35500 30.72200 26.97100
C  48.39700 29.89900 30.24100
O  48.79900 31.01900 30.46800
C  48.07200 28.91700 31.36800
C  49.25000 28.82900 32.37900
O  50.24900 28.10600 32.31900
O  49.02100 29.64300 33.45200
C  49.87500 29.58400 34.61200
H  46.53700 22.07300 31.03700
H  45.65800 22.74200 24.55800
H  47.50400 28.66200 25.00600
H  48.51600 26.10100 32.95100
H  46.38800 24.01600 32.90800
H  49.04200 22.85900 32.04400
H  47.95000 22.44300 33.33600
H  49.18000 23.66700 33.65300
H  45.74000 26.62900 33.13900
H  46.96900 27.56700 33.72400
H  47.01200 24.93000 35.19100
H  45.42000 25.81400 35.02800
H  46.15700 20.28900 30.31400
H  46.68500 19.17400 28.93700
H  44.96600 19.53900 29.18000
H  45.09900 18.26000 25.48700
H  44.66100 18.62800 27.24500
H  46.38400 18.66700 26.67400
H  45.53400 24.73700 23.03700
H  47.58700 26.75900 23.27000
H  47.71400 23.24900 23.65200
H  48.62300 24.77200 23.26600
H  47.61000 23.96700 22.07400
H  44.84600 27.79000 24.07400
H  44.69900 26.70000 22.72700
H  45.71000 28.35400 21.32100
H  46.80700 28.89500 22.72100
H  45.19200 29.39800 22.49500
H  47.82600 30.81300 26.02300
H  49.43400 30.69200 26.81800
H  48.18400 31.65700 27.50500
H  47.22200 29.38800 31.86300
H  49.48300 28.96000 35.41400
H  50.16900 30.56700 34.98100
H  50.88700 29.27200 34.35300

