158

Mg 36.06000 48.41300 25.96800
C  35.89500 46.63000 29.07300
C  35.37900 51.25100 27.56800
C  35.79200 49.87800 23.00800
C  36.74000 45.40200 24.44200
N  35.71200 48.87600 28.11700
C  35.75300 48.09200 29.20000
C  35.55700 48.85400 30.54200
C  35.27300 50.32800 30.00500
C  35.40900 50.18100 28.46500
C  33.83300 50.76800 30.57400
C  36.83900 48.75900 31.46200
C  36.58600 48.08100 32.81400
H  35.51200 48.67900 33.84800
N  35.69700 50.28000 25.35700
C  35.47700 51.33800 26.19600
C  35.24300 52.50900 25.46400
C  35.18400 52.11000 24.08700
C  35.53400 50.67000 24.09800
C  35.06900 53.95100 26.17500
C  34.88900 52.91800 22.86800
O  34.84100 52.47000 21.73900
C  34.73100 54.33000 23.06800
N  36.15200 47.72700 24.03800
C  36.01800 48.51800 22.94200
C  36.42600 47.80900 21.66700
C  36.96200 46.44700 22.18000
C  36.63300 46.54200 23.63800
C  35.23700 47.74400 20.67100
C  38.49100 46.23900 22.00400
C  38.80800 45.06600 21.09600
N  36.39100 46.43200 26.57000
C  36.66100 45.28100 25.83300
C  36.78400 44.16600 26.71900
C  36.47100 44.68500 27.99000
C  36.17300 46.00100 27.82400
C  37.17700 42.76800 26.38300
C  36.48700 44.27400 29.38800
O  36.77100 43.27400 29.96000
C  35.99400 45.59400 30.16200
C  34.65900 45.29400 30.69000
O  33.75900 44.78300 30.01100
O  34.68000 45.38100 32.09300
C  33.52900 44.78700 32.81100
H  35.07700 52.16600 28.08200
H  35.68900 50.31900 22.01400
H  37.06500 44.46300 23.98800
H  34.81100 48.29300 31.10500
H  36.07800 50.97800 30.34900
H  33.87100 51.81100 30.89200
H  33.43900 50.10400 31.34300
H  33.13200 50.68800 29.74300
H  37.22300 49.76100 31.65400
H  37.53400 48.13300 30.90200
H  37.54500 48.03900 33.33100
H  36.44900 47.00500 32.70800
H  35.42600 54.84000 25.65500
H  35.54500 53.95600 27.15500
H  34.03100 54.25700 26.31400
H  34.67200 54.78900 22.08100
H  35.61200 54.72300 23.57500
H  33.79600 54.52600 23.59300
H  37.25200 48.30900 21.16200
H  36.30700 45.67500 21.77600
H  34.32200 47.74300 21.26400
H  35.30600 46.83800 20.06900
H  35.25800 48.54300 19.93000
H  38.86000 45.97900 22.99600
H  39.02100 47.14700 21.71500
H  38.02400 44.31500 20.99400
H  39.67600 44.60400 21.56700
H  39.17600 45.34300 20.10800
H  36.91900 42.31600 25.42500
H  36.84500 42.15100 27.21900
H  38.26600 42.73000 26.40300
H  36.65500 45.85100 30.98900
H  33.15300 43.94600 32.22900
H  32.69300 45.47700 32.93400
H  33.84100 44.39600 33.77900
Mg -10.97800 38.51700 41.84700
C  -8.77200 35.83600 41.04700
C  -8.63300 40.65100 40.29700
C  -13.13600 40.90200 42.15700
C  -13.36100 36.07400 43.08600
N  -8.90100 38.25300 40.75300
C  -8.29500 37.04700 40.48600
C  -7.03100 37.22800 39.65600
C  -6.93900 38.78800 39.59600
C  -8.21700 39.31500 40.29600
C  -5.61900 39.35400 40.08300
C  -7.01700 36.45000 38.32000
C  -5.76500 35.61300 37.97400
H  -5.13800 35.85300 36.60400
N  -10.81300 40.56800 41.48500
C  -9.79000 41.27400 40.87200
C  -10.17400 42.68200 40.81400
C  -11.44100 42.78800 41.36700
C  -11.82600 41.43000 41.73400
C  -9.42400 43.71600 39.94200
C  -12.30000 44.05100 41.60200
O  -11.86600 45.12100 41.14600
C  -13.59200 44.13200 42.28800
N  -12.98100 38.50600 42.44700
C  -13.67900 39.66300 42.49700
C  -15.11600 39.41100 42.94100
C  -15.24200 37.86500 43.10000
C  -13.76800 37.44200 42.81400
C  -15.42900 40.12600 44.20600
C  -16.34400 37.08000 42.31000
C  -17.45100 36.38200 43.15800
N  -11.13700 36.31700 42.06000
C  -12.09600 35.52900 42.71100
C  -11.49400 34.19900 42.91800
C  -10.20800 34.24900 42.27900
C  -10.05100 35.57800 41.77700
C  -12.06500 33.07500 43.66000
C  -9.00300 33.50600 41.95100
O  -8.67000 32.36200 42.23800
C  -8.02400 34.52000 41.11200
C  -6.72600 34.56700 41.84500
O  -5.70100 34.03900 41.57900
O  -6.82100 35.42200 42.94600
C  -5.51800 35.84000 43.63000
H  -7.91500 41.31300 39.80900
H  -13.89500 41.68600 42.12800
H  -14.03500 35.38800 43.60300
H  -6.30900 36.83300 40.37000
H  -7.01100 39.17800 38.58100
H  -5.68500 39.91800 41.01300
H  -5.02500 40.02600 39.46400
H  -4.95000 38.49400 40.11300
H  -7.23300 37.13100 37.49700
H  -7.91700 35.83900 38.25100
H  -6.05100 34.56300 38.03600
H  -4.97000 35.85600 38.67900
H  -8.40900 43.34300 39.80800
H  -9.31400 44.61500 40.54800
H  -9.87400 44.14300 39.04500
H  -13.37700 43.63700 43.23600
H  -14.31800 43.60400 41.67000
H  -13.98000 45.14600 42.38200
H  -15.82600 39.75400 42.18800
H  -15.54600 37.73500 44.13900
H  -14.46400 40.19100 44.70900
H  -16.08800 39.54700 44.85300
H  -15.90900 41.08300 44.00400
H  -15.89400 36.32200 41.66800
H  -16.94500 37.78100 41.73100
H  -17.71300 35.46600 42.62900
H  -18.34300 37.00200 43.24400
H  -17.10100 36.06700 44.14100
H  -11.58500 32.12500 43.42300
H  -13.14900 33.16900 43.60300
H  -11.84200 33.32000 44.69800
H  -7.90300 34.07200 40.12600
H  -5.73500 36.29400 44.59700
H  -4.98800 36.57700 43.02700
H  -4.88100 34.96600 43.76600

