158

Mg 2.03800 8.24500 27.06200
C  2.15000 10.45000 29.86500
C  2.07200 5.69700 29.32900
C  1.91600 6.15800 24.50300
C  2.46200 10.96900 24.87700
N  2.05300 8.12800 29.38100
C  2.00800 9.10100 30.25200
C  1.86400 8.57500 31.71800
C  2.20800 7.05900 31.59800
C  2.19000 6.93800 30.02700
C  3.62100 6.60300 32.22900
C  0.44300 8.85300 32.39800
C  0.54000 9.60400 33.70300
H  1.13100 8.83600 34.92300
N  1.87500 6.27200 26.90000
C  1.90500 5.35200 27.93400
C  1.78300 3.97800 27.44400
C  1.81600 4.09400 26.06200
C  1.88800 5.57400 25.80200
C  1.57600 2.75000 28.39800
C  1.74600 3.02900 24.94700
O  1.90300 3.25500 23.77100
C  1.64400 1.58600 25.33500
N  2.01200 8.51900 25.02300
C  1.98000 7.49000 24.11400
C  2.19400 8.08400 22.67500
C  1.86600 9.58800 22.88700
C  2.25000 9.69200 24.35600
C  3.58800 7.85400 21.98100
C  0.35500 9.98800 22.57600
C  -0.00900 11.35600 22.11400
N  2.42300 10.27200 27.27500
C  2.60100 11.24200 26.27700
C  2.73900 12.47100 26.93600
C  2.63000 12.21500 28.33000
C  2.49000 10.84300 28.52200
C  2.95800 13.83500 26.20800
C  2.55200 12.80200 29.66200
O  2.76000 13.93200 30.02700
C  2.25600 11.67300 30.63900
C  3.34000 11.61500 31.69300
O  4.44100 11.07900 31.62600
O  2.81800 12.18700 32.85700
C  3.71200 12.08700 34.00900
H  2.03400 4.90300 30.07900
H  1.74600 5.46200 23.67900
H  2.75000 11.74800 24.16800
H  2.68800 9.03200 32.26600
H  1.50300 6.39200 32.09400
H  3.37900 5.60800 32.60300
H  3.95100 7.34000 32.96100
H  4.43800 6.59600 31.50800
H  -0.11200 7.93700 32.60100
H  -0.14500 9.38100 31.64600
H  -0.44900 10.03100 33.86900
H  1.17600 10.45500 33.46000
H  2.47000 2.42600 28.93000
H  1.13800 1.91500 27.85000
H  0.93700 3.05800 29.22700
H  0.63200 1.28400 25.60300
H  2.31400 1.51200 26.19100
H  2.00200 0.85700 24.60700
H  1.50300 7.67800 21.93700
H  2.68700 10.01600 22.31200
H  4.00900 7.03200 22.56100
H  4.29800 8.68000 22.00500
H  3.47800 7.40200 20.99500
H  -0.21600 9.76700 23.47800
H  0.03800 9.24400 21.84500
H  0.87200 11.83100 21.68100
H  -0.56600 11.99500 22.79900
H  -0.74800 11.30700 21.31400
H  2.18000 13.83700 25.44500
H  3.92000 13.91700 25.70300
H  2.78800 14.69000 26.86300
H  1.33600 11.86700 31.19000
H  3.78300 11.05600 34.35600
H  3.40100 12.75700 34.81000
H  4.71300 12.43200 33.75100
Mg 47.00100 25.47300 27.99200
C  47.76200 27.66800 30.46900
C  46.42700 23.01600 30.31400
C  46.10600 23.41800 25.51600
C  47.74600 27.87400 25.66500
N  47.03400 25.39200 30.17900
C  47.27900 26.40800 31.02800
C  47.24000 25.95600 32.47800
C  46.73800 24.50600 32.46300
C  46.73400 24.26000 30.86600
C  47.58300 23.53700 33.32500
C  46.53300 27.04500 33.40500
C  45.72700 26.57700 34.60000
H  45.51600 27.53800 35.83800
N  46.45100 23.48200 27.92800
C  46.27900 22.60800 29.00200
C  45.80400 21.32900 28.54000
C  45.54800 21.48400 27.17200
C  46.12500 22.82200 26.78300
C  45.49400 20.19300 29.57300
C  44.85500 20.61600 26.21200
O  44.46700 20.99100 25.10900
C  44.43300 19.33200 26.64700
N  47.03300 25.61900 25.85000
C  46.51500 24.65500 25.06600
C  46.53400 25.01500 23.58700
C  47.02300 26.49200 23.64500
C  47.24400 26.74100 25.14800
C  47.47200 24.18500 22.67800
C  45.95300 27.52800 23.05300
C  46.38800 28.43300 21.91200
N  47.75200 27.30900 28.00700
C  48.07600 28.18700 26.97900
C  48.45500 29.43800 27.50200
C  48.45100 29.21000 28.88300
C  48.00600 27.96100 29.13600
C  48.76700 30.66800 26.76200
C  48.75800 29.88500 30.15200
O  49.20900 31.00700 30.27500
C  48.19500 28.91900 31.24100
C  49.26300 28.64100 32.15100
O  50.24700 27.90500 31.93000
O  49.12400 29.35100 33.29200
C  50.34500 29.39800 34.16400
H  46.23800 22.30900 31.12500
H  45.88200 22.77300 24.66400
H  47.95800 28.59500 24.87300
H  48.28300 26.04000 32.78400
H  45.69600 24.45400 32.77800
H  48.13900 24.04100 34.11500
H  48.28400 23.07400 32.63100
H  47.01600 22.74700 33.81900
H  45.78100 27.49500 32.75800
H  47.33400 27.71300 33.72300
H  46.16000 25.63100 34.92400
H  44.75900 26.20700 34.26200
H  44.89200 19.35000 29.23500
H  45.13600 20.68500 30.47700
H  46.39800 19.66300 29.87500
H  44.03400 18.75800 25.81100
H  43.69500 19.38400 27.44600
H  45.38200 18.82600 26.82000
H  45.53700 25.02000 23.14700
H  47.94700 26.62000 23.08100
H  48.18300 23.60700 23.26900
H  47.95700 24.79600 21.91700
H  46.92900 23.48400 22.04300
H  45.42700 28.19600 23.73500
H  45.14700 26.95000 22.60000
H  45.70000 28.23800 21.08900
H  47.43100 28.26600 21.64400
H  46.25700 29.48300 22.17400
H  49.16200 31.42200 27.44300
H  47.86900 31.13800 26.36200
H  49.52300 30.40200 26.02300
H  47.27800 29.37700 31.61200
H  49.99700 29.05800 35.13900
H  50.66000 30.43500 34.27900
H  51.21800 28.79200 33.92100

