158

Mg 25.54100 -8.77000 47.62000
C  27.62400 -6.27400 46.32400
C  23.10500 -7.87900 45.29200
C  23.67100 -11.42100 48.72600
C  28.29100 -9.79400 49.59200
N  25.43600 -7.27800 45.98000
C  26.37900 -6.34400 45.64400
C  25.86500 -5.31500 44.61900
C  24.38800 -5.78500 44.47900
C  24.27300 -7.06200 45.23900
C  23.31900 -4.75200 44.85300
C  26.76300 -5.28400 43.30400
C  27.25100 -3.92300 42.87900
H  26.82700 -3.38200 41.47800
N  23.65100 -9.57100 47.13200
C  22.80200 -9.00000 46.16200
C  21.59000 -9.75600 46.15200
C  21.74800 -10.78200 47.10800
C  23.04700 -10.66000 47.70900
C  20.42200 -9.60300 45.26300
C  20.74100 -11.98800 47.36700
O  19.58600 -11.96300 46.91600
C  21.24800 -13.15700 48.10700
N  25.97500 -10.39900 48.69400
C  24.96500 -11.23300 49.19600
C  25.52700 -12.10400 50.36200
C  26.98100 -11.75300 50.49700
C  27.11700 -10.57100 49.52300
C  24.71000 -11.95200 51.64700
C  28.07900 -12.84200 50.32400
C  28.69800 -12.98300 48.91800
N  27.53400 -8.26600 47.89500
C  28.51900 -8.69100 48.70800
C  29.71900 -7.90800 48.55600
C  29.34100 -6.89600 47.68900
C  28.06800 -7.18800 47.22000
C  31.05600 -7.89500 49.29300
C  29.74300 -5.61300 47.18100
O  30.70100 -4.95600 47.46000
C  28.65300 -5.22900 46.19700
C  28.21900 -3.87700 46.53100
O  27.43500 -3.51800 47.37900
O  28.72300 -3.04800 45.56800
C  28.37400 -1.63300 45.71100
H  22.26100 -7.61100 44.65300
H  23.21500 -12.18700 49.35700
H  29.07200 -10.20300 50.23700
H  25.92600 -4.35500 45.13100
H  24.15000 -6.09200 43.46100
H  23.69000 -3.87100 45.37700
H  22.50100 -5.13600 45.46300
H  22.93500 -4.31500 43.93100
H  26.06200 -5.63000 42.54500
H  27.57200 -6.01400 43.29600
H  28.33900 -3.98400 42.86100
H  27.02700 -3.10600 43.56500
H  20.44400 -8.63800 44.75800
H  19.49200 -9.72700 45.81700
H  20.47200 -10.34000 44.46200
H  22.17100 -13.47100 47.62100
H  20.57400 -14.00200 47.96500
H  21.31600 -12.86800 49.15500
H  25.39600 -13.13900 50.04500
H  27.22300 -11.42200 51.50700
H  24.44900 -12.98400 51.88500
H  23.79200 -11.39900 51.44900
H  25.21500 -11.59600 52.54500
H  27.61800 -13.79300 50.58900
H  28.90100 -12.55500 50.98000
H  28.18700 -12.33100 48.21000
H  28.55000 -14.04900 48.74200
H  29.77200 -12.80000 48.90100
H  31.89100 -7.90600 48.59200
H  31.10800 -8.84200 49.83100
H  31.06100 -7.03000 49.95500
H  29.04800 -5.12500 45.18600
H  28.27100 -1.27300 46.73500
H  27.49300 -1.38400 45.12000
H  29.16500 -1.00900 45.29500
Mg -5.30100 24.86400 26.18600
C  -3.58700 26.55600 28.68500
C  -6.49300 22.67500 28.57100
C  -6.92800 23.17800 23.73700
C  -3.84100 27.06000 23.83300
N  -5.00200 24.63300 28.30500
C  -4.40100 25.55000 29.21400
C  -4.65400 25.25700 30.66700
C  -5.25300 23.79200 30.50900
C  -5.71400 23.73400 29.00900
C  -4.31900 22.64800 30.86100
C  -5.67600 26.24400 31.27700
C  -5.62100 26.38200 32.83900
H  -5.58700 25.06500 33.65300
N  -6.48600 23.11300 26.12600
C  -6.86200 22.35100 27.25100
C  -7.68300 21.31300 26.85800
C  -7.80200 21.39000 25.45400
C  -7.13100 22.63100 25.01200
C  -8.30800 20.27700 27.75300
C  -8.47200 20.44300 24.46600
O  -8.46300 20.66700 23.27000
C  -8.99500 19.12700 24.92200
N  -5.51700 25.16800 24.08900
C  -6.12500 24.25600 23.23300
C  -5.80600 24.56200 21.75700
C  -5.05000 25.88500 21.84100
C  -4.80900 26.11200 23.36600
C  -5.17600 23.33500 21.20900
C  -5.80400 27.11700 21.15300
C  -4.99200 27.80000 20.01100
N  -3.94900 26.50200 26.19400
C  -3.45100 27.30100 25.19400
C  -2.47400 28.28400 25.77400
C  -2.62700 28.09700 27.10900
C  -3.49800 27.02500 27.34800
C  -1.76900 29.45100 25.16800
C  -2.19000 28.59100 28.46000
O  -1.50000 29.56700 28.78400
C  -2.81200 27.60000 29.47700
C  -1.61900 26.96000 30.23800
O  -0.76400 26.16400 29.82800
O  -1.69400 27.38000 31.53700
C  -0.75500 26.79500 32.36000
H  -6.95500 22.08500 29.36500
H  -7.40500 22.63400 22.91900
H  -3.45500 27.73200 23.06400
H  -3.73700 25.31000 31.25400
H  -6.14000 23.67700 31.13200
H  -4.30100 21.80600 30.16900
H  -4.35300 22.40500 31.92300
H  -3.30100 22.98700 30.67000
H  -6.68800 25.95500 30.99400
H  -5.38400 27.20400 30.85300
H  -6.50500 26.93800 33.14900
H  -4.76200 27.01900 33.05300
H  -7.85100 19.32700 27.47400
H  -9.38600 20.26200 27.58900
H  -8.11900 20.40900 28.81800
H  -8.15900 18.49700 25.22700
H  -9.40400 18.50100 24.12900
H  -9.81100 19.23300 25.63800
H  -6.67800 24.58900 21.10300
H  -4.15200 25.78400 21.23200
H  -5.61100 22.38700 21.52300
H  -4.12600 23.43000 21.48500
H  -5.29100 23.38500 20.12600
H  -5.85100 27.96600 21.83400
H  -6.80200 26.89500 20.77500
H  -5.55700 27.54600 19.11400
H  -3.97600 27.40700 19.97600
H  -4.84300 28.87400 20.11500
H  -0.77400 29.25500 24.76800
H  -1.65300 30.18700 25.96400
H  -2.34500 29.90700 24.36300
H  -3.37600 28.14200 30.23600
H  0.18000 27.05400 31.86300
H  -0.92200 25.72900 32.51100
H  -0.73600 27.36500 33.29000

