158

Mg 26.07200 -0.78400 29.74900
C  28.09100 -0.96300 32.63600
C  23.36200 -0.08400 31.81300
C  24.26800 -0.35200 27.01400
C  28.82800 -1.46700 27.69600
N  25.82300 -0.56800 32.07300
C  26.79400 -0.67200 33.00700
C  26.25000 -0.50900 34.43900
C  24.71800 -0.17600 34.11200
C  24.57800 -0.32600 32.61000
C  23.73300 -1.14200 34.82300
C  26.95000 0.69400 35.12800
C  27.51800 0.32400 36.57000
H  27.01500 1.26600 37.71800
N  24.10900 -0.33900 29.39700
C  23.16000 -0.09900 30.38800
C  21.90900 0.10300 29.70400
C  22.10800 -0.15400 28.32600
C  23.56000 -0.37100 28.16800
C  20.66200 0.45300 30.34900
C  21.05300 -0.15300 27.16800
O  21.37900 -0.37000 25.99600
C  19.57500 0.07600 27.43700
N  26.47200 -0.98700 27.70300
C  25.51500 -0.62100 26.75100
C  26.06200 -0.81000 25.31700
C  27.61200 -0.93400 25.57400
C  27.68500 -1.14800 27.07500
C  25.46000 -2.02700 24.45600
C  28.47900 0.28100 25.09900
C  29.96800 -0.04100 24.76300
N  28.01300 -1.28100 30.09800
C  29.04200 -1.60900 29.17600
C  30.23200 -1.96600 29.94500
C  29.95700 -1.62400 31.28900
C  28.56600 -1.27900 31.34000
C  31.44200 -2.46200 29.45200
C  30.45000 -1.54100 32.60400
O  31.55700 -1.94400 33.00900
C  29.31800 -1.14300 33.49800
C  29.25700 -2.25600 34.52100
O  28.52100 -3.23800 34.47400
O  30.00900 -1.89900 35.64100
C  29.74800 -2.56300 36.86300
H  22.56700 0.20300 32.50400
H  23.67500 -0.25300 26.10200
H  29.68900 -1.58400 27.03500
H  26.37000 -1.46500 34.94900
H  24.45900 0.85100 34.37000
H  23.45000 -2.04200 34.27700
H  22.80500 -0.59000 34.97600
H  24.15600 -1.43400 35.78400
H  26.26900 1.53500 35.26000
H  27.73900 1.00200 34.44300
H  28.60700 0.35000 36.60000
H  27.18000 -0.69400 36.76300
H  20.85500 0.97600 31.28600
H  20.20900 -0.49900 30.62500
H  19.99800 1.06800 29.74100
H  19.46300 -0.58900 28.29400
H  18.96400 -0.32700 26.62900
H  19.30500 1.11700 27.61100
H  25.99300 0.09200 24.71000
H  27.99800 -1.83100 25.08900
H  24.77300 -2.65000 25.02900
H  26.27500 -2.67500 24.13300
H  24.89300 -1.52900 23.66900
H  28.60100 0.89000 25.99500
H  27.93800 0.83200 24.33000
H  30.11400 -1.12000 24.73000
H  30.65800 0.14900 25.58500
H  30.14700 0.35700 23.76400
H  32.13500 -1.64100 29.26600
H  31.16700 -2.84300 28.46800
H  31.95300 -3.14700 30.12700
H  29.48800 -0.19300 34.00500
H  29.26200 -1.72800 37.36700
H  30.73600 -2.75500 37.28200
H  29.18900 -3.48700 36.71400
Mg 43.92400 2.67200 47.88500
C  41.85400 5.32400 46.96800
C  41.11500 0.67800 47.91400
C  45.89300 -0.08600 47.97400
C  46.71000 4.54700 47.19000
N  41.69300 2.99600 47.34800
C  41.08100 4.16700 47.09600
C  39.57500 3.88700 46.80700
C  39.34900 2.48500 47.43200
C  40.82300 1.98500 47.53200
C  38.47800 2.47400 48.74100
C  39.17300 4.00300 45.30200
C  38.26100 5.27100 45.01700
H  38.76000 6.23500 43.89200
N  43.56100 0.61400 48.02200
C  42.33100 0.01900 48.07700
C  42.52900 -1.38400 48.33600
C  43.94400 -1.73300 48.19200
C  44.50800 -0.36400 47.99600
C  41.35000 -2.32200 48.55100
C  44.54500 -3.10600 48.35500
O  43.79500 -4.09000 48.63100
C  45.99100 -3.37000 48.20100
N  46.03900 2.16700 47.37400
C  46.61600 1.01200 47.75800
C  48.17900 1.17100 47.66400
C  48.37600 2.69300 47.40000
C  46.94300 3.16300 47.26400
C  49.02300 0.75700 48.85800
C  49.34500 3.03000 46.21400
C  50.32700 4.22900 46.51600
N  44.24000 4.51900 47.31000
C  45.39700 5.18900 47.11500
C  45.15200 6.55200 46.92600
C  43.75300 6.65800 46.83600
C  43.23000 5.43700 47.07500
C  46.15800 7.65400 46.64400
C  42.64900 7.60200 46.54900
O  42.64900 8.82000 46.32400
C  41.32800 6.73100 46.65300
C  40.39400 7.29000 47.53600
O  40.06900 6.79500 48.60200
O  39.92600 8.47200 47.06100
C  38.97100 9.24100 47.86200
H  40.24900 0.05300 48.14100
H  46.55900 -0.91400 48.22500
H  47.56800 5.20800 47.05500
H  38.94100 4.54600 47.39900
H  38.89800 1.77700 46.73600
H  37.67400 1.74100 48.81500
H  38.01800 3.44200 48.94100
H  39.13700 2.38300 49.60300
H  38.54700 3.17400 44.97200
H  40.12300 3.98600 44.76600
H  37.99000 5.81600 45.92200
H  37.33200 4.87900 44.60300
H  40.43800 -1.78000 48.29900
H  41.26700 -2.54400 49.61500
H  41.14500 -3.29100 48.09500
H  46.27400 -2.90300 47.25800
H  46.33900 -4.40000 48.27800
H  46.51500 -2.81300 48.97900
H  48.48300 0.71500 46.72200
H  48.70200 3.25600 48.27400
H  49.84400 1.45700 49.01300
H  49.45900 -0.22800 48.69000
H  48.49900 0.62100 49.80400
H  48.80900 3.29000 45.30100
H  49.76000 2.05300 45.97000
H  51.33700 3.95800 46.20800
H  50.29700 4.43300 47.58600
H  50.00000 5.15800 46.04800
H  46.84100 7.80500 47.47900
H  45.64600 8.61600 46.68200
H  46.72700 7.52500 45.72200
H  40.86400 6.70100 45.66700
H  38.33500 9.82800 47.19900
H  39.55900 9.87300 48.52800
H  38.32200 8.68600 48.53900

