158

Mg 17.44900 -1.75300 27.91900
C  16.36600 0.46900 30.31400
C  19.12800 -3.48000 30.26900
C  18.94500 -3.45400 25.44200
C  16.14200 0.52200 25.40200
N  17.66900 -1.53300 29.95700
C  17.14500 -0.57500 30.82100
C  17.54500 -0.84600 32.25700
C  18.78300 -1.77400 32.13700
C  18.49200 -2.29200 30.67000
C  20.23800 -1.21600 32.44500
C  16.35800 -1.34000 33.19700
C  16.54600 -1.03200 34.77300
H  17.99400 -0.97000 35.23800
N  18.61400 -3.47500 27.91400
C  19.23800 -4.05600 28.99100
C  19.92800 -5.23200 28.51900
C  19.97800 -5.12500 27.08000
C  19.07400 -4.02700 26.73400
C  20.56800 -6.08300 29.48200
C  20.62000 -6.10700 26.08200
O  20.42800 -6.00600 24.91100
C  21.42800 -7.21200 26.65600
N  17.44300 -1.54000 25.77600
C  18.25400 -2.36100 25.00900
C  18.11700 -1.92600 23.47900
C  17.19300 -0.68200 23.52100
C  16.91400 -0.52900 25.00000
C  19.35800 -1.68600 22.74400
C  15.95800 -0.83600 22.59300
C  14.80800 -1.66500 23.20100
N  16.38500 0.02300 27.84000
C  15.84700 0.72100 26.77700
C  15.02400 1.80300 27.32200
C  15.18400 1.65400 28.67900
C  16.06700 0.59600 28.99600
C  14.16100 2.75800 26.47900
C  14.80600 2.25500 29.96800
O  13.93800 3.09200 30.23200
C  15.54000 1.54900 31.10900
C  16.38000 2.65800 31.78900
O  17.56200 2.82400 31.66400
O  15.55000 3.20800 32.79200
C  16.25800 3.97100 33.81000
H  19.80100 -3.88500 31.02800
H  19.59900 -3.85600 24.66500
H  15.84900 1.17700 24.57900
H  17.85100 0.10300 32.69600
H  18.62900 -2.63200 32.79000
H  20.17100 -0.16900 32.74100
H  20.75400 -1.36400 31.49700
H  20.77200 -1.77000 33.21700
H  16.24700 -2.42400 33.15800
H  15.42100 -0.84300 32.94700
H  16.06900 -1.84200 35.32400
H  15.95100 -0.15600 35.02800
H  20.46600 -7.14900 29.27800
H  20.20900 -5.73900 30.45200
H  21.63500 -5.89500 29.36600
H  22.17200 -6.73800 27.29600
H  22.07100 -7.72200 25.93900
H  20.76900 -7.86300 27.23100
H  17.66900 -2.70700 22.86400
H  17.64300 0.26600 23.22700
H  19.44500 -2.28600 21.83800
H  20.18700 -2.00200 23.37800
H  19.56800 -0.63000 22.57500
H  16.17400 -1.31600 21.63800
H  15.63600 0.17500 22.34200
H  13.98400 -1.06700 23.59000
H  15.13200 -2.39400 23.94400
H  14.44100 -2.31700 22.40800
H  14.12800 3.69300 27.03900
H  13.19200 2.26300 26.54500
H  14.53500 2.84300 25.45900
H  14.85200 1.03300 31.77800
H  16.71400 4.88800 33.43700
H  17.02100 3.28500 34.17700
H  15.64900 4.27100 34.66300
Mg -12.04800 16.86200 41.81600
C  -8.82900 15.42000 41.45400
C  -10.83200 19.81500 40.52200
C  -15.22400 17.96300 41.78900
C  -13.25300 13.59500 42.14800
N  -10.01100 17.46100 40.96100
C  -8.83000 16.66700 40.98000
C  -7.66500 17.52200 40.41300
C  -8.26300 18.98100 40.35300
C  -9.81800 18.77800 40.56900
C  -7.60600 20.08400 41.20700
C  -7.16700 16.95700 39.00800
C  -5.69900 17.33000 38.58800
H  -5.47300 17.80800 37.09700
N  -12.91000 18.64900 41.26600
C  -12.25000 19.76400 40.77100
C  -13.15900 20.82100 40.57400
C  -14.36800 20.34900 41.05100
C  -14.22900 18.94000 41.40000
C  -12.84600 22.22300 39.96800
C  -15.60700 21.22700 41.12800
O  -15.72300 22.36900 40.74500
C  -16.93800 20.69900 41.66600
N  -13.93700 15.89100 41.84000
C  -15.07400 16.57500 42.05000
C  -16.35800 15.71700 42.03900
C  -15.69700 14.36100 42.28800
C  -14.23200 14.56400 42.01100
C  -17.52600 16.06400 42.99800
C  -16.26100 13.26300 41.33800
C  -16.45000 11.69900 41.86500
N  -11.21500 14.95900 42.11000
C  -11.85500 13.74000 42.22300
C  -10.81300 12.65500 42.22600
C  -9.61300 13.32400 42.06400
C  -9.94100 14.70200 41.86300
C  -11.03300 11.19500 42.24300
C  -8.17900 13.07200 42.02800
O  -7.52100 12.05400 42.05700
C  -7.63100 14.50200 41.68600
C  -6.75100 14.94300 42.81400
O  -7.10700 14.89200 44.01400
O  -5.57300 15.32700 42.32200
C  -4.50600 15.56400 43.32300
H  -10.35700 20.79200 40.41200
H  -16.27400 18.26100 41.81800
H  -13.76800 12.64900 42.32600
H  -6.82900 17.55300 41.11200
H  -8.07100 19.32600 39.33700
H  -7.24900 20.77500 40.44300
H  -6.79600 19.64500 41.79000
H  -8.30600 20.62100 41.84700
H  -7.89400 17.32500 38.28300
H  -7.19000 15.87600 38.87300
H  -5.14600 16.40300 38.74000
H  -5.28000 17.97000 39.36400
H  -13.39800 22.41600 39.04900
H  -11.77700 22.17600 39.76100
H  -13.11900 22.91200 40.76700
H  -17.60000 21.52700 41.92100
H  -16.75800 20.21200 42.62500
H  -17.50300 20.07500 40.97500
H  -16.83800 15.69500 41.06100
H  -15.73100 14.03200 43.32700
H  -17.35500 16.95600 43.60100
H  -17.71900 15.26500 43.71300
H  -18.46900 16.33000 42.52000
H  -15.70900 13.12100 40.40800
H  -17.27500 13.51800 41.03200
H  -17.46900 11.34400 41.70700
H  -16.23200 11.64800 42.93200
H  -15.81600 11.14800 41.17100
H  -11.65300 10.99600 43.11800
H  -10.12300 10.59700 42.28400
H  -11.60800 10.94300 41.35200
H  -7.04400 14.32400 40.78600
H  -4.91400 16.35300 43.95500
H  -3.59100 15.90100 42.83600
H  -4.36400 14.61600 43.84300

