158

Mg 39.73300 9.68900 30.47400
C  41.78500 10.90800 33.02200
C  37.52900 8.93500 32.99100
C  37.94100 8.20900 28.17300
C  42.30800 10.25200 28.18900
N  39.72600 9.88200 32.83000
C  40.65000 10.50600 33.61400
C  40.11200 10.76400 35.06300
C  38.73900 9.92300 35.02600
C  38.67400 9.49500 33.55800
C  38.54800 8.63800 35.97800
C  39.86000 12.19000 35.57900
C  40.57900 12.62400 36.93000
H  39.64800 13.16700 38.02400
N  37.94400 8.74200 30.56400
C  37.18200 8.44800 31.73800
C  36.00500 7.69200 31.32400
C  36.05400 7.62000 29.90000
C  37.31500 8.19500 29.46100
C  34.92800 7.22500 32.30100
C  35.01200 7.02400 28.90400
O  35.06000 7.09500 27.69100
C  33.69100 6.48500 29.48700
N  40.08500 9.14300 28.47000
C  39.12100 8.71100 27.64200
C  39.45900 8.74500 26.13900
C  40.95200 9.30000 26.27000
C  41.08900 9.70000 27.72300
C  39.35100 7.33300 25.50500
C  41.23400 10.40400 25.15600
C  40.61400 11.81500 25.50400
N  41.60700 10.46800 30.54500
C  42.55900 10.60800 29.54100
C  43.74500 11.30500 30.00500
C  43.43800 11.45300 31.37400
C  42.14400 10.84600 31.64900
C  44.82300 11.89600 29.25500
C  43.94500 12.14100 32.63400
O  44.99900 12.72200 32.90800
C  42.83100 11.75100 33.73400
C  43.46300 10.83800 34.81100
O  43.98600 9.78400 34.57000
O  43.53400 11.36700 36.06900
C  44.39800 10.60200 36.99100
H  36.91600 8.60900 33.83400
H  37.31000 7.78700 27.38700
H  42.94300 10.64800 27.39400
H  40.74500 10.21900 35.76300
H  37.87000 10.57000 35.14600
H  38.22300 7.68300 35.56500
H  37.80100 8.91400 36.72200
H  39.43700 8.43400 36.57600
H  38.82600 12.53000 35.63600
H  40.21600 12.66600 34.66500
H  41.30800 13.37800 36.63300
H  40.98700 11.71100 37.36400
H  34.71200 6.16800 32.15100
H  33.96700 7.73400 32.21400
H  35.26700 7.33800 33.33100
H  33.25600 6.10900 28.56000
H  33.18700 7.30500 29.99800
H  33.82200 5.65000 30.17600
H  38.85400 9.52300 25.67200
H  41.72600 8.56500 26.04500
H  38.98600 6.68100 26.29900
H  40.27600 6.92400 25.09900
H  38.59600 7.35200 24.72000
H  40.74500 10.09200 24.23400
H  42.29000 10.47500 24.89300
H  40.12400 12.15100 24.59100
H  41.41800 12.53100 25.67400
H  39.83600 11.83200 26.26700
H  44.67200 12.90100 28.85900
H  45.10900 11.24100 28.43300
H  45.61900 11.78400 29.99100
H  42.46000 12.69300 34.13700
H  44.06500 9.61000 37.29800
H  44.79900 11.15400 37.84100
H  45.31400 10.36500 36.45000
Mg 29.93400 58.72600 40.44900
C  26.89000 57.00000 39.78900
C  31.63900 56.15200 39.13700
C  32.61000 60.77100 40.45300
C  27.97700 61.53700 41.44000
N  29.30000 56.81400 39.51700
C  28.03000 56.35400 39.28900
C  28.05200 55.00200 38.59000
C  29.61200 54.57900 38.57500
C  30.26600 55.94400 39.11700
C  30.02400 53.27500 39.42100
C  27.36000 55.00500 37.18100
C  27.49600 56.19700 36.24700
H  28.09800 55.94100 34.79700
N  31.85900 58.43800 40.03700
C  32.41900 57.31300 39.57100
C  33.80300 57.33100 39.49900
C  34.14700 58.69200 39.86900
C  32.87600 59.39700 40.22900
C  34.74200 56.16700 39.13900
C  35.59800 59.20500 39.80000
O  36.54100 58.50300 39.38900
C  35.84600 60.64200 40.24100
N  30.23200 60.85700 40.85700
C  31.47300 61.43200 40.79900
C  31.50900 62.92200 41.22000
C  30.02400 63.11200 41.66600
C  29.34200 61.75200 41.32100
C  32.54800 63.04500 42.42600
C  29.41400 64.39900 40.91200
C  28.69100 65.43500 41.70500
N  27.86800 59.24400 40.56700
C  27.22900 60.40100 41.05800
C  25.82000 60.23600 40.99600
C  25.57000 58.87200 40.69600
C  26.88400 58.33100 40.37300
C  24.82400 61.26600 41.37600
C  24.53600 57.84900 40.45300
O  23.35000 57.87300 40.47300
C  25.36700 56.57200 39.81600
C  25.11900 55.28500 40.69100
O  25.03900 55.23500 41.91700
O  25.01000 54.14300 39.81900
C  24.88100 52.87100 40.54200
H  32.11700 55.28800 38.67000
H  33.43700 61.47500 40.33500
H  27.36600 62.38100 41.76500
H  27.50100 54.30700 39.22400
H  29.93900 54.39400 37.55200
H  29.06500 52.93700 39.81300
H  30.76800 53.37000 40.21300
H  30.56500 52.53100 38.83600
H  26.29600 54.78200 37.25600
H  27.63200 54.08500 36.66300
H  28.08700 57.01900 36.65000
H  26.51100 56.66300 36.19500
H  35.40200 55.81900 39.93400
H  35.43900 56.51700 38.37700
H  34.29600 55.37100 38.54300
H  35.26600 61.19600 39.50200
H  36.88100 60.98100 40.28900
H  35.42400 60.74800 41.24000
H  31.83100 63.53600 40.37900
H  29.98800 63.29600 42.74000
H  32.80700 62.03800 42.75100
H  32.04500 63.50600 43.27600
H  33.37400 63.66900 42.08400
H  28.72400 63.98300 40.17800
H  30.13400 64.96000 40.31700
H  27.62600 65.43400 41.47100
H  29.09600 66.43900 41.57500
H  28.70700 65.20700 42.77100
H  24.77300 61.83100 40.44500
H  25.03300 61.88000 42.25200
H  23.81300 60.87300 41.48500
H  24.99100 56.27800 38.83600
H  25.84900 52.37300 40.47600
H  24.23800 52.28000 39.88900
H  24.44600 53.01600 41.53000

