158

Mg 9.57900 48.41200 25.31400
C  7.66300 48.97200 28.14800
C  12.33000 49.47000 27.06000
C  11.31200 47.85500 22.44300
C  6.60700 47.88500 23.52800
N  9.91300 48.98300 27.41100
C  9.03300 49.10700 28.41100
C  9.68200 49.55400 29.74700
C  11.01200 50.20400 29.17200
C  11.09200 49.50700 27.76600
C  11.07800 51.77700 29.07600
C  10.04600 48.49400 30.82000
C  9.55700 48.74200 32.29500
H  9.54100 47.44800 33.15600
N  11.58600 48.56000 24.84300
C  12.54700 49.00800 25.68700
C  13.77900 48.90700 25.01700
C  13.55500 48.42000 23.74500
C  12.07900 48.26200 23.57000
C  15.04000 49.31400 25.71900
C  14.55000 48.10100 22.65900
O  14.27300 47.60900 21.57800
C  15.97300 48.48300 22.87100
N  9.06500 48.04800 23.25300
C  9.94600 47.65500 22.28800
C  9.26900 47.22600 20.95600
C  7.79000 47.10500 21.40400
C  7.79900 47.81400 22.84900
C  9.44500 48.14800 19.69600
C  7.20500 45.68600 21.35400
C  7.47200 44.65500 22.45900
N  7.53000 48.52700 25.67400
C  6.41200 48.29500 24.83300
C  5.16600 48.38300 25.60200
C  5.59200 48.73600 26.90600
C  7.02100 48.75100 26.91300
C  3.79000 48.18700 25.15000
C  5.14300 49.03300 28.26000
O  4.01400 49.01500 28.78100
C  6.49200 49.15000 29.15200
C  6.41900 48.05800 30.13200
O  6.86000 46.94000 29.85900
O  5.78200 48.41500 31.29600
C  5.50400 47.37100 32.25900
H  13.21400 49.92300 27.51400
H  11.87400 47.63400 21.53300
H  5.73800 47.64900 22.91000
H  9.13900 50.35300 30.25300
H  11.92200 49.88800 29.68200
H  10.22200 52.31800 29.48000
H  11.25900 52.02800 28.03100
H  11.93700 52.08600 29.67200
H  11.10400 48.22900 30.81200
H  9.51200 47.62200 30.44400
H  8.68800 49.37500 32.47800
H  10.45600 49.28600 32.58400
H  15.02500 49.62500 26.76400
H  15.58700 50.08600 25.17900
H  15.68300 48.43400 25.73500
H  15.96200 49.48200 23.30700
H  16.57900 48.17100 22.02100
H  16.36600 47.80000 23.62400
H  9.48700 46.16600 20.82500
H  7.27900 47.87000 20.82000
H  9.39500 49.20900 19.94000
H  8.78200 47.91500 18.86300
H  10.45500 47.94600 19.33800
H  7.44600 45.11200 20.45900
H  6.12000 45.75200 21.43100
H  8.00500 45.10500 23.29700
H  8.19600 43.91400 22.11800
H  6.59700 44.11900 22.82600
H  3.07800 48.48600 25.91900
H  3.68700 47.14500 24.84700
H  3.67900 48.85300 24.29400
H  6.38800 50.04700 29.76200
H  6.31100 47.26800 32.98400
H  5.29600 46.42800 31.75200
H  4.64400 47.56900 32.89800
Mg -5.19600 25.78400 26.98000
C  -3.66400 27.08200 29.88100
C  -6.70100 23.29400 28.74800
C  -5.86400 24.29500 24.05500
C  -2.82000 27.89600 25.09800
N  -5.01400 25.24800 29.04400
C  -4.54400 26.04700 30.11200
C  -5.11300 25.47200 31.43900
C  -6.04500 24.31800 31.04100
C  -5.82500 24.20800 29.47400
C  -5.85100 23.04300 31.83000
C  -5.60200 26.61900 32.41000
C  -6.72300 26.27700 33.44200
H  -6.39300 25.36400 34.69500
N  -6.25200 24.08600 26.44800
C  -6.87500 23.23300 27.34400
C  -7.70400 22.31200 26.63200
C  -7.49100 22.49900 25.21900
C  -6.51800 23.67700 25.19900
C  -8.76400 21.53200 27.34200
C  -8.03400 21.78900 24.05100
O  -7.78000 22.11200 22.86800
C  -9.07700 20.73600 24.05400
N  -4.50000 26.06200 24.92400
C  -4.97600 25.31800 23.89400
C  -4.57200 25.79700 22.52300
C  -3.50300 26.87000 22.93400
C  -3.61200 26.97400 24.38900
C  -4.01000 24.65500 21.56300
C  -3.70000 28.21400 22.18800
C  -3.68100 28.31900 20.66500
N  -3.61500 27.27200 27.36100
C  -2.76900 27.97900 26.51300
C  -2.09100 28.90900 27.31400
C  -2.27800 28.50500 28.65400
C  -3.28600 27.56900 28.60100
C  -1.12700 30.01300 26.82600
C  -1.91500 28.86100 29.97800
O  -1.10300 29.60600 30.48500
C  -2.81100 28.02600 30.86500
C  -2.00800 27.21900 31.85600
O  -1.21000 26.36200 31.56600
O  -2.14600 27.74100 33.13300
C  -1.10100 27.37500 34.06800
H  -7.11800 22.46500 29.32300
H  -6.16000 23.77800 23.14000
H  -2.16300 28.59100 24.57100
H  -4.37000 24.96600 32.05600
H  -7.09300 24.61700 31.01900
H  -6.71500 22.85500 32.46800
H  -5.02200 23.02300 32.53700
H  -5.64400 22.18900 31.18600
H  -5.99600 27.35900 31.71300
H  -4.86800 27.15400 33.01200
H  -7.54400 25.87400 32.84800
H  -7.11300 27.18700 33.89800
H  -8.83400 20.52700 26.92600
H  -9.70700 22.02500 27.10500
H  -8.61400 21.56400 28.42100
H  -8.55700 19.78300 24.14700
H  -9.77300 20.81500 23.21900
H  -9.63400 20.98000 24.95900
H  -5.46500 26.17400 22.02400
H  -2.59200 26.42000 22.54000
H  -4.71300 24.34700 20.78800
H  -3.86600 23.75600 22.16100
H  -3.06000 24.91900 21.09900
H  -2.91800 28.88900 22.53700
H  -4.68800 28.61500 22.41700
H  -4.70900 28.33000 20.30400
H  -3.30800 27.34200 20.35800
H  -3.11500 29.16400 20.27300
H  -0.27100 29.90600 27.49100
H  -1.70700 30.93600 26.84100
H  -0.77800 29.78900 25.81800
H  -3.36300 28.81500 31.37600
H  -1.17500 26.28700 34.09800
H  -1.23200 27.86800 35.03100
H  -0.19600 27.78800 33.62200

