158

Mg 1.83200 -2.24400 44.46600
C  5.19500 -1.42800 43.68800
C  0.87100 0.43900 42.53400
C  -1.42200 -3.27300 44.68000
C  2.99300 -5.29000 45.72600
N  2.91500 -0.80000 43.09300
C  4.28600 -0.62100 43.07700
C  4.60500 0.73500 42.40600
C  3.21700 1.31100 42.00600
C  2.30000 0.33500 42.63100
C  3.06600 2.79500 42.59200
C  5.52300 0.42500 41.22200
C  6.77800 1.32600 41.06800
H  6.77700 2.18000 39.72700
N  -0.07000 -1.51200 43.78600
C  -0.20000 -0.42500 42.92700
C  -1.53600 -0.15400 42.70500
C  -2.27300 -1.19200 43.44100
C  -1.21700 -2.08400 43.96100
C  -2.08300 0.99100 41.90500
C  -3.83700 -1.28000 43.56900
O  -4.67300 -0.54100 43.02900
C  -4.34800 -2.15500 44.65900
N  0.89400 -4.09700 45.02700
C  -0.47400 -4.17100 45.15400
C  -0.76900 -5.50500 45.94900
C  0.63000 -6.17700 46.06900
C  1.57900 -5.14400 45.54800
C  -1.51700 -5.34700 47.30200
C  0.78300 -7.50200 45.20500
C  1.42000 -8.71900 45.89600
N  3.67500 -3.19400 44.68600
C  4.01500 -4.40500 45.29800
C  5.47000 -4.52900 45.38500
C  5.96200 -3.35000 44.81100
C  4.84200 -2.66800 44.30500
C  6.22700 -5.68000 45.99300
C  7.16600 -2.62100 44.50800
O  8.35100 -2.84100 44.64600
C  6.70000 -1.33400 43.91000
C  6.98600 -0.11600 44.82000
O  6.33100 0.21600 45.81200
O  8.04400 0.63900 44.29900
C  8.33500 1.90300 45.03100
H  0.52100 1.34500 42.03400
H  -2.43400 -3.63900 44.86500
H  3.47700 -6.10000 46.27500
H  5.06200 1.35000 43.18100
H  2.98900 1.49500 40.95600
H  3.58800 2.86300 43.54600
H  2.04400 2.96800 42.92900
H  3.31200 3.47400 41.77500
H  4.85100 0.36400 40.36600
H  5.84000 -0.61700 41.26100
H  7.72300 0.78400 41.08900
H  6.75500 2.17800 41.74700
H  -3.16300 1.13100 41.94700
H  -1.77700 1.02000 40.85900
H  -1.62100 1.91500 42.25200
H  -5.32600 -1.88400 45.05800
H  -3.71100 -2.18600 45.54200
H  -4.21800 -3.15500 44.24400
H  -1.50100 -6.08400 45.38600
H  0.96000 -6.38000 47.08800
H  -1.18500 -4.39900 47.72400
H  -1.16600 -6.13900 47.96300
H  -2.59100 -5.34800 47.11600
H  1.43400 -7.23800 44.37200
H  -0.16100 -7.81900 44.76200
H  1.24600 -9.59100 45.26500
H  1.02100 -8.76200 46.91000
H  2.47900 -8.57200 46.10500
H  7.23100 -5.30700 46.19500
H  6.36400 -6.47100 45.25500
H  5.85600 -6.03500 46.95400
H  7.27100 -1.27600 42.98300
H  8.91800 1.71400 45.93300
H  7.36700 2.34600 45.26500
H  8.85400 2.66600 44.45100
Mg 40.91900 9.20300 29.72700
C  42.58100 10.37100 32.51900
C  38.76100 7.54200 31.82600
C  39.22600 8.02600 27.00800
C  43.40100 10.27600 27.70300
N  40.81900 8.88300 31.94200
C  41.47100 9.62800 32.85100
C  40.91000 9.50900 34.27500
C  39.89600 8.33600 34.03300
C  39.75700 8.23700 32.48000
C  40.36300 6.95400 34.69100
C  40.37300 10.82600 34.85200
C  40.27500 10.80800 36.40900
H  41.18200 11.81200 37.18800
N  39.15300 8.09600 29.49400
C  38.46300 7.45200 30.46200
C  37.29300 6.89300 29.86000
C  37.26700 7.24700 28.51200
C  38.59600 7.84100 28.26500
C  36.18600 6.16600 30.65300
C  36.17300 7.05300 27.50300
O  36.29000 7.46500 26.35300
C  34.91600 6.35800 27.96700
N  41.27500 9.11200 27.66200
C  40.43300 8.55500 26.73700
C  40.87900 8.84300 25.21700
C  42.18500 9.68700 25.42900
C  42.39100 9.70400 26.98500
C  40.91600 7.51000 24.29300
C  42.09600 11.06600 24.79100
C  41.29300 12.14300 25.47500
N  42.68700 10.09700 29.99200
C  43.65000 10.45500 29.06000
C  44.76100 11.07400 29.75800
C  44.42400 11.04900 31.11300
C  43.13200 10.45500 31.20400
C  45.98300 11.73200 29.11700
C  44.83100 11.46400 32.38200
O  45.78300 12.09900 32.76400
C  43.59400 11.02400 33.41600
C  44.20400 10.06000 34.30800
O  44.73000 9.06900 33.86200
O  44.18800 10.36200 35.61900
C  44.68800 9.25800 36.52300
H  37.98400 7.18600 32.50500
H  38.57300 7.71100 26.19200
H  44.09700 10.70600 26.97900
H  41.70500 9.16300 34.93600
H  38.89800 8.62400 34.36300
H  41.11200 7.10200 35.47000
H  40.86400 6.26800 34.00800
H  39.43300 6.51000 35.04600
H  39.35300 10.96800 34.49700
H  40.91800 11.68100 34.45200
H  40.39500 9.75400 36.66100
H  39.21600 11.05300 36.49400
H  36.70200 5.97900 31.59500
H  36.13800 5.19400 30.16200
H  35.23500 6.67100 30.82200
H  34.26000 6.87200 28.67000
H  35.24600 5.32700 28.09900
H  34.26700 6.35900 27.09200
H  40.11200 9.48700 24.78800
H  43.12800 9.20400 25.17200
H  40.94000 6.57300 24.84800
H  41.85800 7.54600 23.74500
H  40.04900 7.44700 23.63400
H  41.72300 10.97900 23.77000
H  43.17100 11.24400 24.80900
H  40.74600 11.84400 26.37000
H  40.47900 12.49400 24.84100
H  41.99300 12.95300 25.68000
H  46.43200 12.39400 29.85700
H  45.54300 12.44100 28.41500
H  46.61300 11.09900 28.49200
H  43.19900 11.83100 34.03400
H  45.77100 9.20400 36.41600
H  44.30200 8.31700 36.13100
H  44.33400 9.33500 37.55100

