158

Mg 35.74600 2.89900 30.28500
C  33.19600 3.70900 32.44300
C  38.08500 3.12900 32.79200
C  38.16300 2.25400 27.97600
C  33.41200 2.86200 27.69500
N  35.62400 3.27900 32.32000
C  34.47100 3.54600 33.05700
C  34.76400 3.39800 34.51000
C  36.29200 3.71300 34.57200
C  36.70800 3.30300 33.08900
C  36.67600 5.14600 34.91500
C  34.35400 2.08600 35.20700
C  33.88300 2.27500 36.65900
H  34.66100 3.32200 37.47100
N  37.85800 2.64400 30.36000
C  38.61100 2.71100 31.57100
C  40.01100 2.43800 31.22200
C  40.08900 2.19800 29.77000
C  38.68200 2.36400 29.29000
C  41.01700 2.45000 32.31100
C  41.19600 1.79300 28.90600
O  41.19000 1.70300 27.68400
C  42.49600 1.45600 29.57200
N  35.71000 2.66200 28.11300
C  36.86700 2.50500 27.40400
C  36.57400 2.11100 25.93300
C  35.01700 2.28300 25.86600
C  34.66300 2.43700 27.31500
C  37.39100 2.82900 24.90200
C  34.40400 1.00900 25.23300
C  34.00400 1.18900 23.73000
N  33.76700 3.32600 30.12200
C  32.94400 3.21900 28.97700
C  31.58900 3.63200 29.32400
C  31.57200 3.73500 30.70000
C  32.94400 3.56100 31.11400
C  30.46900 3.55100 28.43800
C  30.85400 3.88100 31.89800
O  29.64800 3.96300 32.16200
C  31.91000 3.86900 33.06200
C  31.73500 5.11900 33.85900
O  31.66600 6.23600 33.40200
O  31.75900 4.82200 35.20900
C  31.64300 5.95900 36.10800
H  38.81600 3.32800 33.57900
H  38.88600 1.96200 27.21200
H  32.61000 2.94200 26.95900
H  34.21400 4.25000 34.90800
H  36.80200 3.00400 35.22400
H  35.95100 5.70700 35.50400
H  37.02400 5.70700 34.04700
H  37.53500 5.08100 35.58300
H  35.09700 1.29000 35.17000
H  33.51500 1.66600 34.65200
H  33.85000 1.31600 37.17700
H  32.81000 2.47100 36.66200
H  41.60900 3.29600 31.96000
H  41.56000 1.51000 32.40400
H  40.69600 2.68600 33.32600
H  43.22300 1.36700 28.76400
H  42.41100 0.47400 30.03500
H  42.99700 2.15500 30.24200
H  36.92400 1.07900 25.95300
H  34.76500 3.24500 25.42100
H  38.22400 2.19400 24.60000
H  37.87800 3.76000 25.19300
H  36.73300 2.95100 24.04100
H  33.50700 0.68900 25.76400
H  35.08500 0.16300 25.32700
H  34.79400 1.63500 23.12600
H  33.10400 1.80300 23.69100
H  33.55900 0.26400 23.36400
H  30.57300 2.93000 27.54800
H  30.09200 4.53200 28.14900
H  29.69900 3.00900 28.98700
H  31.84100 2.96500 33.66600
H  32.33600 6.74800 35.81800
H  31.90900 5.62200 37.11000
H  30.58900 6.22800 36.03800
Mg 35.28100 48.59800 26.24000
C  35.49900 46.73000 29.25900
C  34.24600 51.20100 28.14900
C  34.84600 50.36500 23.35600
C  36.33500 45.82300 24.44300
N  35.05600 48.88400 28.51500
C  35.17300 48.05400 29.53000
C  35.24700 48.79500 30.88500
C  34.53000 50.16300 30.50900
C  34.65800 50.10900 28.96400
C  32.98100 50.28300 30.84200
C  36.73300 49.01200 31.37900
C  37.19100 48.36300 32.73600
H  37.33800 49.40300 33.84200
N  34.53900 50.40500 25.77200
C  34.10000 51.27900 26.72600
C  33.58600 52.43700 26.02800
C  33.59000 52.23700 24.59800
C  34.37400 50.99700 24.53300
C  32.84500 53.57500 26.70900
C  33.12700 53.07600 23.36000
O  33.28000 52.78800 22.16700
C  32.45500 54.43200 23.57300
N  35.60100 48.24900 24.21300
C  35.44100 49.10800 23.11500
C  35.58600 48.44900 21.76200
C  36.18600 47.06300 22.27200
C  36.14200 47.07200 23.74900
C  34.33500 48.38700 20.84800
C  37.68600 46.70000 21.85600
C  37.79700 45.39900 21.10100
N  35.78100 46.70300 26.70600
C  36.19100 45.70500 25.86100
C  36.35700 44.47200 26.64300
C  36.17000 44.81900 27.95500
C  35.72100 46.19600 27.97800
C  36.81000 43.12500 26.17400
C  36.22300 44.34000 29.31500
O  36.50600 43.26800 29.76800
C  35.66900 45.56100 30.20500
C  34.39300 45.18800 30.88900
O  33.37600 44.79000 30.37000
O  34.57600 45.30300 32.20700
C  33.41200 44.96300 33.00000
H  33.88900 52.00600 28.79400
H  34.72900 50.97100 22.45500
H  36.59600 44.90800 23.90600
H  34.61400 48.37200 31.66500
H  35.11400 50.99600 30.90000
H  32.69100 50.84900 31.72800
H  32.72600 49.24600 31.05900
H  32.30800 50.64800 30.06600
H  36.94300 50.08100 31.40200
H  37.36400 48.48400 30.66500
H  38.16200 47.88000 32.62800
H  36.45100 47.64900 33.10000
H  31.79900 53.68100 26.42100
H  33.31600 54.51200 26.41000
H  32.77800 53.50700 27.79500
H  32.15000 54.81900 22.60100
H  33.12600 55.17700 24.00000
H  31.55600 54.34100 24.18300
H  36.36100 49.01200 21.24100
H  35.52200 46.24100 22.00400
H  34.03900 47.35300 20.66900
H  34.55700 48.83900 19.88100
H  33.54900 49.03100 21.24300
H  38.28700 46.56400 22.75400
H  38.03300 47.44400 21.13900
H  38.58700 44.75200 21.48400
H  38.11600 45.68800 20.10000
H  36.81400 44.93800 21.00500
H  36.11100 42.40800 26.60400
H  37.79400 42.97400 26.61800
H  36.84300 43.06200 25.08600
H  36.43500 45.91100 30.89700
H  32.42700 45.08600 32.55000
H  33.49600 45.38400 34.00200
H  33.43900 43.88300 33.14700

