158

Mg 0.49700 7.65900 26.45300
C  1.39000 9.93300 29.09000
C  0.89000 5.13900 28.63200
C  0.37500 5.49100 23.83700
C  1.11500 10.32700 24.24500
N  0.90200 7.61100 28.70800
C  1.17200 8.60700 29.55300
C  1.33900 8.06000 30.95500
C  1.33900 6.50900 30.70400
C  1.07000 6.37000 29.22400
C  2.70400 5.77300 31.09400
C  0.34700 8.67600 32.03100
C  0.96000 9.18000 33.33500
H  2.15900 8.53400 33.86000
N  0.35400 5.65200 26.27700
C  0.51500 4.75100 27.31700
C  0.44600 3.44800 26.79600
C  0.33500 3.50500 25.38500
C  0.36900 4.92400 25.06700
C  0.33700 2.29600 27.81600
C  0.22200 2.41700 24.31800
O  -0.01000 2.64300 23.11100
C  0.50100 0.98900 24.69200
N  0.78000 7.87500 24.41400
C  0.57400 6.82100 23.52500
C  0.61900 7.34100 22.09600
C  0.54700 8.87800 22.25300
C  0.85800 9.05300 23.71900
C  1.97100 6.90100 21.42000
C  -0.85700 9.37400 21.84700
C  -0.78100 10.64600 20.97200
N  1.19000 9.71300 26.58700
C  1.38400 10.65900 25.59900
C  1.81200 11.95200 26.22500
C  1.79000 11.64800 27.55900
C  1.45700 10.29400 27.76500
C  1.82400 13.22100 25.51100
C  1.86400 12.32200 28.85000
O  2.18700 13.46600 29.00600
C  1.65700 11.15700 29.91100
C  2.95500 11.21500 30.75900
O  3.92500 10.49600 30.51100
O  2.72300 12.07500 31.84500
C  3.87500 12.28100 32.76200
H  1.08200 4.22700 29.20000
H  0.35200 4.79000 23.00100
H  1.24200 11.18600 23.58200
H  2.33400 8.38700 31.25700
H  0.57900 5.96400 31.26200
H  3.42400 6.37500 31.64800
H  3.22100 5.28200 30.27000
H  2.38300 4.96900 31.75600
H  -0.43100 7.95900 32.29700
H  -0.26000 9.39200 31.47600
H  0.19300 9.03400 34.09600
H  1.14200 10.24800 33.21600
H  0.14700 1.35500 27.30100
H  -0.47400 2.46800 28.52300
H  1.29300 2.24000 28.33700
H  -0.47400 0.63400 25.02800
H  1.28700 1.06500 25.44200
H  0.73800 0.39300 23.81000
H  -0.23400 6.90600 21.57600
H  1.33800 9.40600 21.72000
H  2.62300 7.74400 21.19200
H  1.77200 6.40100 20.47300
H  2.47200 6.20000 22.08800
H  -1.35900 9.67100 22.76800
H  -1.49600 8.64700 21.34600
H  -1.68800 10.84200 20.40000
H  0.09000 10.75500 20.32600
H  -0.69800 11.51200 21.62800
H  0.92800 13.43800 24.93000
H  2.61400 13.29100 24.76300
H  1.94600 14.01300 26.25000
H  0.77500 11.37500 30.51300
H  3.51800 12.89600 33.58800
H  4.65100 12.82200 32.21900
H  4.19400 11.35900 33.24700
Mg -1.38200 34.68100 26.40500
C  -2.69500 33.06100 29.22000
C  0.25400 36.84600 28.47900
C  -0.34500 36.17900 23.68800
C  -3.33000 32.38900 24.39300
N  -1.03000 34.77300 28.66700
C  -1.70700 34.01200 29.61800
C  -1.21300 34.36100 31.00600
C  -0.21900 35.61000 30.73500
C  -0.30000 35.75100 29.20400
C  -0.52000 36.89400 31.47400
C  -0.52900 33.23100 31.80300
C  -1.16300 32.87700 33.14900
H  -0.31100 32.27800 34.37400
N  -0.21800 36.37800 26.10000
C  0.38900 37.00300 27.04300
C  1.16200 38.10800 26.41100
C  1.05100 37.95800 25.01400
C  0.08300 36.83800 24.85000
C  2.10700 38.94700 27.20800
C  1.84100 38.75700 23.90600
O  1.80200 38.49600 22.73000
C  2.76500 39.72300 24.33200
N  -1.91000 34.42700 24.36900
C  -1.20000 35.13800 23.46500
C  -1.60500 34.80100 22.02900
C  -2.32000 33.41800 22.20300
C  -2.51400 33.34500 23.76600
C  -2.27500 35.85600 21.30000
C  -1.41900 32.26200 21.59300
C  0.03500 32.08200 22.17800
N  -2.77300 33.15600 26.70500
C  -3.40700 32.31100 25.83100
C  -4.14500 31.34700 26.51200
C  -3.95700 31.66600 27.90600
C  -3.10100 32.76000 27.96000
C  -4.94500 30.30700 25.93200
C  -4.38600 31.27900 29.26700
O  -5.22800 30.52800 29.70000
C  -3.48000 32.19600 30.20500
C  -4.47400 32.94700 31.00000
O  -5.35200 33.63500 30.56000
O  -4.38300 32.55500 32.34900
C  -5.43100 33.01200 33.20900
H  0.75400 37.51000 29.18800
H  0.15900 36.68100 22.86000
H  -3.77200 31.68000 23.69100
H  -2.07700 34.73600 31.55500
H  0.82500 35.42500 30.98700
H  0.36200 37.43000 31.82700
H  -1.10500 36.76400 32.38500
H  -1.21800 37.52200 30.92000
H  0.48900 33.48900 32.09300
H  -0.45000 32.31100 31.22300
H  -1.88900 32.11300 32.87000
H  -1.65000 33.80100 33.46200
H  3.11100 38.62200 26.93400
H  1.97500 38.82700 28.28300
H  1.95800 40.00000 26.97000
H  3.14700 40.15000 23.40500
H  3.57100 39.27800 24.91500
H  2.21100 40.52400 24.82100
H  -0.66400 34.63000 21.50700
H  -3.30700 33.41400 21.74000
H  -2.32400 36.76500 21.89900
H  -3.26800 35.52500 20.99500
H  -1.77000 36.06500 20.35600
H  -1.29600 32.48600 20.53400
H  -2.00000 31.36800 21.81800
H  0.16000 31.01300 22.35000
H  0.12700 32.57200 23.14700
H  0.76000 32.62300 21.56900
H  -5.85200 30.83200 25.63000
H  -5.20100 29.62600 26.74300
H  -4.50800 29.76300 25.09400
H  -2.78100 31.55100 30.73800
H  -5.06200 33.21100 34.21600
H  -6.31800 32.38000 33.24300
H  -5.88600 33.91600 32.80500

