158

Mg 9.11000 48.41300 25.96500
C  7.00800 48.86600 28.65700
C  11.81300 49.70600 27.76700
C  11.04400 48.01100 23.22300
C  6.23700 47.72000 24.03400
N  9.35600 49.26700 27.87600
C  8.36400 49.14800 28.88900
C  9.06400 49.48700 30.26600
C  10.37900 50.15700 29.82600
C  10.54500 49.70000 28.40900
C  10.43300 51.66600 30.09700
C  9.43300 48.22300 31.12000
C  9.55200 48.37200 32.67900
H  8.95600 47.35600 33.66900
N  11.14900 48.73500 25.60200
C  12.08300 49.22600 26.43800
C  13.36600 49.06600 25.79800
C  13.16700 48.56900 24.52700
C  11.76500 48.45000 24.36400
C  14.64400 49.51300 26.51300
C  14.16000 48.33300 23.43800
O  13.85600 48.14200 22.26600
C  15.72100 48.39200 23.77700
N  8.71100 48.03400 23.92600
C  9.63800 47.83200 22.97000
C  9.03900 47.45500 21.65500
C  7.54500 47.39700 21.98200
C  7.48800 47.69500 23.39600
C  9.42400 48.34500 20.41600
C  7.00200 45.98900 21.57400
C  5.81600 46.16700 20.61400
N  6.98100 48.42500 26.20900
C  5.96400 48.08400 25.36600
C  4.73500 48.10400 26.07200
C  5.13900 48.44500 27.38700
C  6.48600 48.63500 27.40500
C  3.40600 47.72800 25.60400
C  4.57700 48.60800 28.68700
O  3.43200 48.54800 29.11200
C  5.83400 48.93900 29.56300
C  5.81400 47.89200 30.61900
O  6.23200 46.80900 30.43100
O  5.29800 48.34800 31.82400
C  5.08100 47.27800 32.78300
H  12.64900 50.05700 28.37500
H  11.51300 47.93000 22.24000
H  5.37000 47.35900 23.47700
H  8.53500 50.20700 30.89000
H  11.22400 49.77000 30.39500
H  10.61300 52.07700 29.10400
H  11.28400 51.86400 30.74900
H  9.50400 52.01000 30.55300
H  10.38900 47.77100 30.85300
H  8.73900 47.43900 30.81600
H  9.08700 49.34100 32.86400
H  10.59700 48.52800 32.94700
H  14.42900 49.69800 27.56500
H  15.08400 50.41300 26.08300
H  15.43700 48.76600 26.47800
H  16.17100 47.51200 24.23500
H  15.89100 49.37400 24.22000
H  16.17900 48.44000 22.78900
H  9.62000 46.55200 21.46500
H  7.07100 48.18600 21.39800
H  9.86700 49.25200 20.82500
H  8.57800 48.58000 19.77000
H  10.09000 47.72000 19.82100
H  6.69500 45.56000 22.52800
H  7.76600 45.29600 21.22100
H  5.15300 45.30200 20.62600
H  5.98600 46.45200 19.57600
H  5.18900 46.98100 20.98000
H  3.54600 46.91300 24.89400
H  2.92900 48.52600 25.03500
H  2.63600 47.50900 26.34400
H  5.59900 49.82200 30.15700
H  5.62200 47.54100 33.69300
H  5.30400 46.24600 32.51400
H  4.00300 47.41100 32.87200
Mg -5.57500 25.17300 25.93200
C  -4.25500 26.52900 28.80200
C  -7.77200 23.32800 27.72400
C  -6.30600 23.47800 23.05200
C  -3.15700 27.14400 24.10600
N  -5.78000 24.83800 28.05700
C  -5.23300 25.56200 29.08300
C  -5.84400 25.12600 30.41800
C  -6.82500 24.04600 30.02200
C  -6.85400 24.08000 28.49200
C  -6.46100 22.63600 30.66000
C  -6.52900 26.40100 31.03100
C  -6.52900 26.64700 32.52800
H  -6.01700 25.47100 33.43100
N  -6.99000 23.71500 25.43600
C  -7.82400 23.08600 26.37500
C  -8.57400 22.08300 25.69300
C  -8.21700 22.17000 24.25100
C  -7.07700 23.12800 24.20800
C  -9.65700 21.31400 26.31200
C  -8.74600 21.46200 22.97400
O  -8.40600 21.78400 21.83400
C  -9.75400 20.46000 23.17000
N  -4.73200 25.22200 23.93200
C  -5.25300 24.41200 22.93400
C  -4.47300 24.74900 21.58500
C  -3.89200 26.12700 21.95100
C  -3.85800 26.16300 23.43500
C  -3.42600 23.72000 21.07100
C  -4.47300 27.43600 21.36300
C  -3.47300 28.11900 20.46500
N  -4.01300 26.57300 26.32800
C  -3.21800 27.31500 25.49600
C  -2.44200 28.27900 26.31600
C  -2.75500 27.97600 27.65000
C  -3.73100 26.90500 27.56800
C  -1.44900 29.37500 25.80800
C  -2.50500 28.38700 29.06300
O  -1.73900 29.18700 29.57400
C  -3.45600 27.41300 29.83500
C  -2.77500 26.53400 30.83200
O  -2.15800 25.53700 30.56400
O  -2.88800 27.07400 32.09500
C  -1.99500 26.35300 33.13000
H  -8.57500 22.84700 28.28700
H  -6.48300 22.90900 22.13700
H  -2.57200 27.81000 23.46900
H  -5.09000 24.79900 31.13300
H  -7.85100 24.28600 30.30000
H  -6.37500 21.87200 29.88700
H  -7.27300 22.23600 31.26700
H  -5.58300 22.63900 31.30500
H  -7.59300 26.37200 30.79700
H  -6.22400 27.31300 30.51800
H  -7.57500 26.74500 32.81600
H  -5.91800 27.53700 32.68000
H  -9.19300 20.50700 26.87900
H  -10.36900 20.91400 25.59100
H  -10.19700 21.97800 26.98700
H  -9.81000 19.78900 22.31200
H  -10.71600 20.85300 23.49700
H  -9.43400 19.78100 23.96000
H  -5.22200 24.74000 20.79300
H  -2.81700 26.03300 21.79300
H  -2.37600 23.91200 21.28800
H  -3.58100 23.53300 20.00900
H  -3.60500 22.86300 21.72000
H  -4.67400 28.11100 22.19500
H  -5.37700 27.09700 20.85800
H  -3.00400 28.97900 20.94300
H  -3.96000 28.38700 19.52700
H  -2.61500 27.52400 20.15000
H  -0.70300 29.54700 26.58400
H  -1.76500 30.34300 25.41900
H  -0.92200 28.84000 25.01800
H  -4.05800 28.12200 30.40300
H  -2.14300 25.27500 33.06300
H  -2.14300 26.73500 34.14000
H  -0.92900 26.55400 33.02200

