158

Mg 2.13000 -2.05600 43.80900
C  5.57000 -0.91100 43.20600
C  1.09200 0.65400 42.01400
C  -0.81800 -3.49300 43.54500
C  3.48600 -4.95300 45.17200
N  3.31400 -0.44600 42.53400
C  4.64700 -0.02000 42.65600
C  4.88300 1.38600 42.04000
C  3.38600 1.88400 41.90900
C  2.51300 0.63700 42.17300
C  3.05900 2.95800 42.99600
C  5.64000 1.31300 40.64900
C  6.37000 2.63500 40.35900
H  6.38700 3.19100 38.94300
N  0.37400 -1.46100 42.91200
C  0.09900 -0.28000 42.31600
C  -1.34900 -0.15300 42.11700
C  -1.94000 -1.34000 42.62100
C  -0.74100 -2.17100 43.01100
C  -2.02600 0.92000 41.22000
C  -3.43200 -1.65000 42.56300
O  -4.15000 -0.85800 42.01000
C  -4.05500 -2.85100 43.11200
N  1.47000 -3.96600 44.25300
C  0.14100 -4.29600 44.20700
C  -0.16100 -5.70400 44.71600
C  1.17600 -6.11000 45.38200
C  2.12000 -4.94300 44.91600
C  -1.38000 -6.07100 45.54800
C  1.78700 -7.50700 44.96500
C  2.51200 -8.15100 46.21200
N  4.14200 -2.83400 44.17500
C  4.47400 -4.00400 44.79400
C  5.89700 -4.10400 44.75600
C  6.39400 -2.91700 44.25700
C  5.24100 -2.19900 43.79700
C  6.73800 -5.16100 45.30400
C  7.60600 -2.13200 44.04800
O  8.76300 -2.33800 44.39800
C  7.12400 -0.81200 43.29900
C  7.51200 0.36900 44.12900
O  7.23800 0.57300 45.27200
O  8.19600 1.30300 43.33800
C  8.47700 2.65900 43.82000
H  0.77400 1.64000 41.66900
H  -1.72100 -4.08300 43.37600
H  3.89000 -5.90600 45.51800
H  5.47900 2.02900 42.68800
H  3.31300 2.34100 40.92200
H  2.51000 2.53400 43.83700
H  2.40400 3.73200 42.59700
H  3.93500 3.32700 43.53000
H  4.96400 1.12000 39.81600
H  6.27600 0.43000 40.59700
H  7.39300 2.62500 40.73700
H  5.92700 3.37500 41.02500
H  -2.42700 0.46500 40.31400
H  -1.23900 1.64400 41.01000
H  -2.80900 1.51400 41.69300
H  -5.13900 -2.86700 43.22300
H  -3.72700 -3.11400 44.11800
H  -3.78800 -3.74600 42.55000
H  -0.29000 -6.35600 43.85200
H  1.06000 -5.98100 46.45800
H  -2.09400 -6.68700 45.00100
H  -1.91400 -5.18300 45.88600
H  -1.25100 -6.66300 46.45400
H  2.42800 -7.37100 44.09500
H  1.04200 -8.21000 44.59200
H  1.97800 -9.04900 46.52300
H  2.69100 -7.44700 47.02500
H  3.47500 -8.53900 45.88100
H  7.65400 -4.83300 45.79400
H  7.08400 -5.68500 44.41300
H  6.20400 -5.94500 45.84100
H  7.63700 -0.71100 42.34300
H  7.77400 3.02000 44.57100
H  8.49900 3.43800 43.05800
H  9.47600 2.48700 44.22000
Mg 41.92200 41.11600 27.31600
C  41.05800 43.34300 29.61200
C  43.02600 38.92800 29.72700
C  42.64700 38.90900 24.82200
C  41.08300 43.53100 24.77700
N  41.88900 41.06200 29.36600
C  41.48000 42.13500 30.14100
C  41.56300 41.81200 31.67900
C  42.50200 40.57000 31.62500
C  42.49400 40.15400 30.18100
C  43.89900 40.67800 32.32300
C  40.18400 41.57900 32.38100
C  39.96700 42.57000 33.52500
H  39.15100 41.85800 34.72700
N  42.71800 39.14600 27.29800
C  43.08000 38.37800 28.40600
C  43.40400 37.11900 27.91400
C  43.25400 37.03700 26.50700
C  42.88000 38.39500 26.12300
C  43.74800 36.03900 28.88800
C  43.49700 35.89100 25.54300
O  43.40500 36.00500 24.30500
C  43.95700 34.52700 26.03700
N  42.16700 41.32400 25.07500
C  42.33700 40.16100 24.31900
C  42.40500 40.55700 22.85100
C  41.66300 41.86700 22.76000
C  41.62600 42.31200 24.29600
C  43.84000 40.48800 22.21800
C  40.25700 41.76400 22.06100
C  39.10900 41.23000 22.95300
N  41.14300 43.06500 27.15700
C  40.82800 43.91400 26.10900
C  40.36700 45.17300 26.67600
C  40.38300 44.98300 28.04700
C  40.85700 43.66700 28.27600
C  39.95000 46.40200 25.89400
C  40.18400 45.61800 29.26300
O  39.79700 46.76100 29.48000
C  40.59300 44.58700 30.33000
C  41.57300 45.10600 31.26300
O  42.75100 44.87700 31.28300
O  40.87300 45.75500 32.29600
C  41.64200 46.18200 33.47900
H  43.29400 38.22300 30.51800
H  42.80900 38.20000 24.00700
H  40.84600 44.31700 24.05700
H  42.10800 42.71200 31.96300
H  41.98300 39.82700 32.23000
H  43.90200 40.08300 33.23600
H  44.18700 41.68400 32.62900
H  44.69700 40.36200 31.65000
H  40.19000 40.55200 32.74700
H  39.35700 41.72800 31.68800
H  39.43000 43.48100 33.26300
H  40.96200 42.86100 33.86200
H  42.93200 35.32000 28.81900
H  43.65900 36.41400 29.90800
H  44.71000 35.59300 28.63600
H  44.15400 33.72600 25.32400
H  43.18700 34.18600 26.72900
H  44.82200 34.69800 26.67800
H  41.87200 39.76000 22.33300
H  42.24700 42.58500 22.18500
H  44.54800 40.70500 23.01700
H  43.96200 41.13500 21.34900
H  44.06900 39.47500 21.88800
H  40.35100 41.07300 21.22400
H  39.95000 42.70500 21.60500
H  39.41100 40.74400 23.88100
H  38.49900 40.53700 22.37400
H  38.37100 42.01400 23.12500
H  39.51200 45.94500 25.00600
H  40.76900 47.11200 25.77500
H  39.14400 46.89300 26.43900
H  39.69200 44.21500 30.81800
H  41.90100 45.31100 34.08100
H  41.14100 46.89200 34.13800
H  42.63000 46.58100 33.24900

