158

Mg 23.31100 -6.19100 45.98500
C  25.64800 -3.88300 44.87800
C  21.11300 -4.67800 43.55900
C  21.32000 -8.83100 46.12000
C  25.87800 -8.08600 47.61400
N  23.44900 -4.56900 44.31300
C  24.48900 -3.75800 44.14100
C  24.22700 -2.58500 43.21100
C  22.72200 -2.86400 42.86400
C  22.36500 -4.08700 43.67200
C  21.77400 -1.64900 43.30900
C  25.16300 -2.68400 41.96500
C  25.33500 -1.41600 41.22800
H  24.66000 -1.27700 39.80000
N  21.38900 -6.56900 45.15900
C  20.67300 -5.84900 44.22100
C  19.42500 -6.49900 43.90300
C  19.39900 -7.71200 44.67700
C  20.76800 -7.74900 45.43400
C  18.43700 -6.09700 42.82600
C  18.26200 -8.70600 44.65000
O  17.18100 -8.49600 44.05500
C  18.34800 -9.96200 45.44400
N  23.52600 -8.11800 46.85800
C  22.52700 -9.01500 46.80400
C  22.94200 -10.38800 47.23900
C  24.36200 -10.21700 47.76200
C  24.61400 -8.69000 47.46500
C  21.96200 -11.29500 48.07300
C  25.48000 -11.08600 47.20000
C  26.48200 -11.52500 48.18200
N  25.29800 -5.96300 46.34100
C  26.21900 -6.78800 47.06700
C  27.42500 -5.98400 47.25200
C  27.27200 -4.89600 46.46200
C  25.96900 -4.91100 45.90100
C  28.61200 -6.46800 48.02600
C  27.90300 -3.70400 45.96400
O  28.99500 -3.21600 46.23500
C  26.95400 -3.08100 44.88600
C  26.88800 -1.61200 45.17100
O  27.19700 -0.75000 44.34700
O  26.35600 -1.43900 46.45900
C  25.77600 -0.04500 46.66700
H  20.45100 -4.06300 42.94600
H  20.68900 -9.71900 46.19700
H  26.57300 -8.68300 48.20800
H  24.43900 -1.70200 43.81300
H  22.71300 -3.05400 41.79000
H  21.23800 -1.95800 44.20600
H  21.10400 -1.44100 42.47400
H  22.30400 -0.72000 43.51700
H  24.66300 -3.21700 41.15600
H  26.05700 -3.26400 42.19500
H  26.40700 -1.22200 41.24500
H  24.91500 -0.67700 41.90900
H  18.34000 -6.84200 42.03600
H  18.86700 -5.18800 42.40400
H  17.54800 -5.72800 43.33800
H  18.59000 -9.88400 46.50400
H  19.02800 -10.65100 44.94300
H  17.32500 -10.32900 45.35700
H  23.02500 -10.94500 46.30500
H  24.26000 -10.38800 48.83400
H  21.13700 -10.69000 48.44800
H  22.47400 -11.69500 48.94800
H  21.55000 -12.10400 47.46900
H  26.10200 -10.50700 46.51700
H  25.03400 -11.92000 46.65800
H  26.05300 -11.57900 49.18300
H  27.35500 -10.87700 48.26100
H  26.71500 -12.55500 47.91400
H  29.38000 -5.70800 48.16600
H  29.00000 -7.29400 47.43100
H  28.37200 -6.88400 49.00500
H  27.41000 -3.12500 43.89600
H  26.02500 0.77100 45.98900
H  26.08400 0.38900 47.61800
H  24.72100 -0.32000 46.62800
Mg -11.34100 17.04100 43.34000
C  -7.87300 17.48000 43.39300
C  -11.74100 20.44700 43.30300
C  -14.64600 16.48400 43.23400
C  -10.75000 13.63800 42.55300
N  -9.91500 18.80500 43.24600
C  -8.58900 18.69500 43.35200
C  -7.93400 20.09500 43.41600
C  -9.22000 21.06900 43.58100
C  -10.38400 20.04400 43.36100
C  -9.28600 21.87800 44.85500
C  -7.08100 20.35800 42.08300
C  -5.66600 20.98500 42.22100
H  -5.22800 21.64400 40.93200
N  -12.98500 18.26500 43.21200
C  -12.95000 19.63200 43.16500
C  -14.28700 20.08100 43.11800
C  -15.18900 18.96100 43.03400
C  -14.29100 17.82200 43.11300
C  -14.69800 21.53700 43.32300
C  -16.69200 19.07700 43.01400
O  -17.29700 20.19100 42.98000
C  -17.49900 17.78100 42.84200
N  -12.49200 15.34900 42.83200
C  -13.79400 15.34500 43.06600
C  -14.38000 13.90100 43.09400
C  -13.21700 13.06000 42.53400
C  -12.07700 14.08400 42.51900
C  -14.90900 13.43700 44.48900
C  -13.63000 12.42700 41.09300
C  -12.84000 11.23500 40.58600
N  -9.68100 15.80500 42.99800
C  -9.64300 14.46300 42.70000
C  -8.24800 14.02500 42.76100
C  -7.53900 15.19600 43.07800
C  -8.47100 16.27100 43.14200
C  -7.68600 12.67300 42.68100
C  -6.19800 15.73200 43.28200
O  -5.16500 15.15300 43.22800
C  -6.32600 17.28900 43.58000
C  -5.99300 17.43100 45.07000
O  -6.45000 16.81500 46.00600
O  -5.05200 18.48400 45.17800
C  -4.96500 19.07600 46.56200
H  -11.86500 21.53000 43.36800
H  -15.67300 16.11500 43.25100
H  -10.67600 12.56800 42.34800
H  -7.22300 20.19800 44.23600
H  -9.24200 21.71000 42.69900
H  -9.53200 21.29700 45.74300
H  -9.95100 22.73400 44.73700
H  -8.27600 22.28300 44.93000
H  -7.60500 21.15800 41.55900
H  -6.95300 19.58800 41.32200
H  -4.93300 20.22000 42.47600
H  -5.63600 21.60300 43.11900
H  -13.95400 22.26800 43.00700
H  -15.03800 21.77800 44.33100
H  -15.48600 21.61200 42.57400
H  -17.21100 17.35200 41.88200
H  -18.55600 18.04100 42.79300
H  -17.41600 17.11000 43.69700
H  -15.23500 13.91600 42.41800
H  -13.05100 12.26000 43.25500
H  -15.96800 13.32100 44.25500
H  -14.79700 14.18100 45.27800
H  -14.63300 12.45000 44.86100
H  -13.60700 13.17800 40.30300
H  -14.64600 12.05300 41.21800
H  -12.56300 11.34200 39.53700
H  -13.40500 10.30400 40.62100
H  -11.84500 11.15400 41.02300
H  -8.28800 12.06900 43.36100
H  -6.64000 12.69800 42.98500
H  -7.90600 12.33600 41.66700
H  -5.73700 17.85200 42.85600
H  -5.80800 18.86800 47.22200
H  -5.05300 20.16200 46.54800
H  -4.00700 18.92600 47.05800

