158

Mg -1.52400 17.53200 27.01500
C  -2.29400 15.37200 29.60500
C  -2.52600 20.15400 29.11500
C  -1.21900 19.68700 24.41200
C  -1.49500 14.88200 24.75200
N  -2.39800 17.64800 29.07900
C  -2.47800 16.64200 30.02600
C  -2.83400 17.20800 31.38100
C  -3.42900 18.60400 30.99000
C  -2.64500 18.87900 29.73600
C  -4.97600 18.54500 30.72000
C  -1.60200 17.37800 32.31300
C  -1.86700 17.17500 33.75100
H  -0.62300 16.80700 34.56200
N  -1.70200 19.60400 26.84400
C  -2.04200 20.53200 27.84900
C  -1.87600 21.84500 27.33100
C  -1.39300 21.75300 26.00900
C  -1.44100 20.29400 25.69300
C  -2.28900 22.98300 28.17100
C  -1.01400 22.75700 25.04100
O  -0.67100 22.54700 23.90600
C  -1.06400 24.21400 25.48100
N  -1.49200 17.39000 24.91000
C  -1.39600 18.41200 24.03700
C  -1.22600 17.89900 22.52800
C  -1.07600 16.36800 22.72500
C  -1.33600 16.18600 24.23900
C  -2.49300 18.30700 21.64700
C  0.28600 15.71200 22.33400
C  1.53200 16.29600 22.99200
N  -1.83000 15.52800 27.12200
C  -1.76400 14.54600 26.09000
C  -1.89500 13.21000 26.69000
C  -2.04900 13.52300 28.06400
C  -2.03100 14.87600 28.26500
C  -1.84700 11.91700 26.03400
C  -2.21800 12.94700 29.37200
O  -2.26500 11.78900 29.78600
C  -2.42800 14.08600 30.38100
C  -1.50000 13.98000 31.55300
O  -0.32300 14.22400 31.57000
O  -2.20100 13.70200 32.64700
C  -1.49200 13.54200 33.96100
H  -2.90500 20.90000 29.81700
H  -1.08400 20.38100 23.58000
H  -1.50900 14.02900 24.07000
H  -3.53400 16.52900 31.86800
H  -3.21600 19.36400 31.74200
H  -5.20000 18.83000 29.69200
H  -5.40700 19.27300 31.40700
H  -5.29900 17.52200 30.91000
H  -1.25000 18.40900 32.28200
H  -0.82400 16.72500 31.91800
H  -2.50100 16.29000 33.79800
H  -2.40500 18.06700 34.07200
H  -1.44300 23.58300 28.50500
H  -2.70200 22.81200 29.16500
H  -3.06800 23.60500 27.72900
H  -0.25600 24.32900 26.20300
H  -2.08100 24.32900 25.85400
H  -0.86200 24.88400 24.64500
H  -0.36500 18.30700 21.99700
H  -1.79800 15.96100 22.01700
H  -3.28800 18.65900 22.30400
H  -2.68800 17.58100 20.85700
H  -2.30300 19.23300 21.10400
H  0.40400 15.83100 21.25700
H  0.16500 14.64300 22.50700
H  1.28000 16.95200 23.82500
H  2.11800 16.85900 22.26700
H  2.14400 15.44000 23.27700
H  -1.25300 11.36000 26.76000
H  -1.41800 11.83100 25.03600
H  -2.83400 11.45800 26.07700
H  -3.43800 14.08400 30.79000
H  -2.01400 14.02300 34.78800
H  -0.47600 13.93500 33.94800
H  -1.45800 12.47700 34.19400
Mg 6.19900 56.65300 42.52800
C  4.90800 53.52300 41.73800
C  9.23400 55.69700 41.15300
C  7.09700 59.94300 42.19500
C  2.99600 57.57500 43.56400
N  6.92100 54.91300 41.36700
C  6.25100 53.70000 41.25100
C  7.15200 52.63200 40.68800
C  8.56200 53.28600 40.87900
C  8.24900 54.76500 41.15300
C  9.43200 52.67000 42.04900
C  6.88400 52.11200 39.15000
C  7.11400 50.61700 38.94700
H  6.46500 50.12600 37.77500
N  7.97600 57.67700 41.87600
C  9.08700 57.11900 41.47400
C  10.10700 58.12600 41.30200
C  9.55700 59.33000 41.69500
C  8.17400 59.00400 41.97900
C  11.52500 57.76200 40.96900
C  10.35500 60.62500 41.91300
O  11.48600 60.77000 41.56000
C  9.76300 61.72600 42.74000
N  5.22800 58.47500 42.80000
C  5.78500 59.74100 42.45400
C  4.71400 60.84800 42.57400
C  3.39400 60.05500 42.95000
C  3.85500 58.58400 43.12400
C  4.94200 62.11400 43.41900
C  2.10500 60.19000 41.98900
C  0.74800 60.62100 42.63000
N  4.34700 55.76900 42.81500
C  3.15200 56.23100 43.30500
C  2.20300 55.15600 43.46200
C  2.87500 54.02200 42.91500
C  4.12300 54.49800 42.40500
C  0.80800 55.23900 43.93900
C  2.74700 52.63100 42.61700
O  1.82600 51.81700 42.81300
C  4.11700 52.25100 41.89700
C  3.75100 51.64200 40.65100
O  3.65800 52.19600 39.60800
O  3.50100 50.28100 40.85600
C  3.11100 49.38800 39.73500
H  10.27600 55.42000 40.98200
H  7.37100 60.99500 42.08900
H  2.02700 57.91200 43.93600
H  7.06000 51.73600 41.30200
H  9.08500 53.24800 39.92300
H  8.89600 51.87600 42.57000
H  9.61200 53.50500 42.72600
H  10.34300 52.28800 41.58700
H  7.53200 52.64500 38.45400
H  5.90400 52.52600 38.91400
H  6.78000 50.08700 39.83900
H  8.20300 50.62800 38.90400
H  11.87400 58.57100 40.32800
H  11.64200 56.78600 40.49800
H  12.13600 57.72100 41.87100
H  9.08800 61.29400 43.47800
H  9.20900 62.43000 42.12000
H  10.53100 62.34200 43.20800
H  4.73300 61.24600 41.56000
H  3.14500 60.31500 43.97900
H  5.99800 62.28400 43.62800
H  4.44900 62.02900 44.38800
H  4.64900 63.02700 42.90100
H  2.05300 59.17100 41.60400
H  2.34400 60.96600 41.26200
H  -0.03000 59.85900 42.58600
H  0.33900 61.52300 42.17500
H  1.05600 60.86200 43.64800
H  0.16000 55.57000 43.12700
H  0.80100 56.02000 44.69900
H  0.46800 54.26700 44.29500
H  4.60800 51.49400 42.50900
H  3.02500 49.92000 38.78800
H  2.10800 49.02200 39.95200
H  3.89600 48.63400 39.66800

