158

Mg 7.88000 3.77600 27.42400
C  9.36500 2.49700 30.28800
C  5.98400 5.84500 29.51400
C  6.52700 4.99200 24.70800
C  9.15500 1.11400 25.59300
N  7.62500 4.02700 29.70300
C  8.40300 3.48400 30.61700
C  8.31900 4.31000 31.88000
C  7.13500 5.29000 31.68100
C  6.85400 5.02600 30.17200
C  5.94400 5.19100 32.59600
C  9.59100 5.07000 32.35100
C  9.56100 5.62600 33.77500
H  10.49000 5.12300 34.92400
N  6.49800 5.20300 27.16400
C  5.81400 5.92400 28.11600
C  4.97300 6.91000 27.48300
C  5.09500 6.71600 26.04900
C  6.04900 5.56900 25.93300
C  4.10000 7.91800 28.26700
C  4.41400 7.35500 24.87700
O  4.59600 7.13800 23.66800
C  3.57500 8.57600 25.18300
N  7.80700 3.08500 25.44600
C  7.26900 3.77200 24.46700
C  7.61400 3.26100 23.02300
C  8.42100 2.05400 23.32800
C  8.46900 2.07500 24.88600
C  6.37500 3.16600 22.09900
C  9.80100 2.06900 22.64900
C  10.97000 2.88300 23.26700
N  9.12000 2.20700 27.78900
C  9.53600 1.16300 26.94200
C  10.45800 0.30400 27.69800
C  10.42500 0.80900 29.04700
C  9.59900 1.95000 28.99600
C  11.16600 -0.88900 27.20100
C  10.91900 0.58000 30.40000
O  11.73800 -0.27000 30.78400
C  10.27500 1.66200 31.24500
C  9.60800 1.10500 32.42600
O  8.44500 0.67700 32.37300
O  10.43100 1.14200 33.58900
C  9.88300 0.29900 34.66400
H  5.37800 6.49100 30.15300
H  6.06900 5.46200 23.83500
H  9.62500 0.31700 25.01200
H  8.05000 3.56400 32.62700
H  7.47200 6.32500 31.63900
H  5.46800 6.11600 32.92100
H  6.23600 4.71800 33.53400
H  5.18800 4.50700 32.21100
H  9.71700 5.80600 31.55800
H  10.48100 4.44200 32.31500
H  8.53200 5.59900 34.13300
H  9.94800 6.63500 33.63600
H  4.42500 8.95000 28.13800
H  4.17400 7.69200 29.33100
H  3.05900 7.83300 27.95600
H  3.14200 8.95300 24.25700
H  4.22300 9.33100 25.62800
H  2.75500 8.36300 25.86900
H  8.36300 3.93300 22.60400
H  7.86300 1.21400 22.91400
H  5.42000 3.38900 22.57500
H  6.34300 2.13700 21.74200
H  6.49500 3.86200 21.26900
H  9.76100 2.33600 21.59300
H  10.03200 1.00400 22.65800
H  11.85400 2.37500 23.65300
H  10.60700 3.70600 23.88300
H  11.40900 3.47300 22.46300
H  10.63100 -1.33100 26.36100
H  11.34900 -1.63800 27.97100
H  12.09100 -0.46900 26.80500
H  11.14300 2.21800 31.60000
H  9.12500 -0.41300 34.33900
H  9.62100 0.98100 35.47300
H  10.68900 -0.37100 34.96400
Mg 47.53300 16.05900 28.76600
C  45.40400 15.89900 31.58700
C  49.60900 18.13800 30.61600
C  48.94600 16.94200 25.85700
C  45.04400 14.48500 27.00100
N  47.47500 17.05100 30.85900
C  46.57200 16.60400 31.91200
C  47.09800 17.14600 33.25400
C  48.44100 17.96900 32.82800
C  48.55100 17.65600 31.38200
C  48.31700 19.49100 33.16200
C  47.44600 16.14900 34.34300
C  46.87700 16.27100 35.83000
H  46.78600 17.74300 36.41600
N  49.11700 17.23700 28.31900
C  49.86400 17.98700 29.21700
C  51.02900 18.53800 28.51700
C  50.85600 18.21300 27.14400
C  49.58300 17.39900 27.01700
C  51.98800 19.40200 29.17300
C  51.67000 18.54900 25.95900
O  51.38100 18.43100 24.79800
C  53.01800 19.29500 26.12400
N  47.15800 15.67400 26.73300
C  47.81700 16.16600 25.71000
C  47.36700 15.71600 24.39700
C  46.14600 14.90300 24.73800
C  46.07500 15.00200 26.20800
C  47.11000 16.99900 23.34600
C  46.04100 13.47100 24.12300
C  45.15300 13.24800 22.96100
N  45.64200 15.31800 29.18300
C  44.79600 14.61400 28.35600
C  43.61100 14.24100 29.04200
C  43.81100 14.60100 30.37900
C  45.04400 15.32900 30.36800
C  42.38500 13.52900 28.41100
C  43.28300 14.59000 31.69500
O  42.28900 14.03100 32.12400
C  44.28500 15.48900 32.52000
C  43.51300 16.56400 33.20100
O  42.72600 17.34700 32.72500
O  43.82000 16.51200 34.57100
C  43.04100 17.46900 35.40800
H  50.19200 18.81700 31.24300
H  49.49300 17.09900 24.92400
H  44.19600 13.97600 26.53700
H  46.35100 17.88600 33.54200
H  49.29400 17.63700 33.41900
H  47.48700 19.70800 33.83400
H  48.07000 20.14200 32.32400
H  49.28100 19.82800 33.54200
H  48.51700 15.94900 34.36300
H  46.99800 15.19500 34.06500
H  47.48200 15.65300 36.49300
H  45.88600 15.84400 35.98300
H  52.96100 18.91100 29.19200
H  51.63000 19.90900 30.06800
H  52.02900 20.20600 28.43800
H  53.62100 19.20200 25.22000
H  53.49000 18.87100 27.01000
H  52.98500 20.36600 26.32200
H  48.12300 15.05500 23.97300
H  45.25800 15.42400 24.38200
H  46.07100 17.16500 23.06000
H  47.75200 16.81700 22.48400
H  47.51900 17.87700 23.84500
H  45.81200 12.75200 24.90900
H  47.06200 13.24600 23.81700
H  44.79200 14.19600 22.56100
H  44.25800 12.72300 23.29300
H  45.55500 12.58400 22.19500
H  42.44100 12.45900 28.60900
H  42.28900 13.75000 27.34800
H  41.56300 14.01400 28.93700
H  44.74500 14.86700 33.28700
H  41.98500 17.20000 35.40400
H  43.17300 18.51300 35.12400
H  43.29400 17.23100 36.44100

