158

Mg 47.29400 25.32400 28.81000
C  48.51100 27.61200 31.24000
C  46.11700 23.40200 31.39300
C  46.94700 22.68200 26.75200
C  49.08800 26.93900 26.46000
N  47.31200 25.50900 31.04700
C  47.73500 26.58300 31.80500
C  47.26100 26.41000 33.22500
C  46.74400 24.96300 33.29400
C  46.62900 24.64300 31.82300
C  47.45100 23.84100 34.23900
C  46.31500 27.63600 33.65600
C  45.46800 27.54900 34.90400
H  46.09400 27.86300 36.19500
N  46.44200 23.47900 28.96800
C  45.98800 22.83600 30.11200
C  45.37400 21.58800 29.80200
C  45.46300 21.40500 28.45000
C  46.32800 22.53200 27.99700
C  44.77500 20.67000 30.88500
C  44.85700 20.29100 27.51600
O  44.96900 20.25200 26.32200
C  44.13900 19.10200 28.13000
N  47.93400 24.92600 26.82500
C  47.59900 23.78600 26.18300
C  48.15700 23.75400 24.73300
C  48.51500 25.28600 24.55600
C  48.47600 25.74600 26.01800
C  49.40100 22.87100 24.51600
C  47.43400 26.18500 23.78700
C  47.99100 27.07800 22.67000
N  48.44100 27.03900 28.72300
C  49.16400 27.53300 27.70900
C  49.87500 28.71200 28.11100
C  49.60600 28.86400 29.51700
C  48.82100 27.73700 29.86100
C  50.62400 29.61700 27.13000
C  49.85300 29.65100 30.69200
O  50.43300 30.69100 30.86300
C  49.16000 28.86500 31.88400
C  50.27400 28.55900 32.81200
O  51.39600 28.11800 32.49100
O  49.85600 28.68700 34.13700
C  50.77200 28.08700 35.17700
H  45.70400 22.72200 32.14200
H  46.64400 21.96700 25.98400
H  49.51200 27.43400 25.58300
H  48.17500 26.44600 33.81800
H  45.69800 25.04500 33.59100
H  48.39100 24.19200 34.66400
H  47.72800 22.92300 33.72000
H  46.66300 23.54500 34.93200
H  45.69000 27.57500 32.76500
H  46.80900 28.60700 33.65200
H  45.00300 26.56300 34.92200
H  44.60200 28.20800 34.84000
H  44.90800 21.01500 31.91100
H  45.28200 19.71200 31.00500
H  43.70900 20.51200 30.72600
H  43.19000 19.41400 28.56500
H  44.62200 18.72700 29.03200
H  43.98100 18.36800 27.34000
H  47.30200 23.53300 24.09400
H  49.52900 25.47200 24.20200
H  49.75600 22.29400 25.36900
H  50.26600 23.37600 24.08600
H  49.21700 22.16900 23.70200
H  46.92000 26.81200 24.51600
H  46.71100 25.50900 23.33000
H  47.17100 27.06700 21.95200
H  48.93400 26.73900 22.24200
H  48.13900 28.07800 23.07700
H  51.19700 30.36400 27.67900
H  49.92800 30.08200 26.43300
H  51.32400 28.93700 26.64500
H  48.49600 29.60300 32.33400
H  50.29100 27.58200 36.01400
H  51.33400 28.90900 35.62000
H  51.54600 27.46400 34.72900
Mg 16.71300 51.97600 26.08300
C  18.69200 50.85800 28.73700
C  14.30300 52.66300 28.28700
C  14.73500 52.84100 23.48200
C  19.21700 50.79300 23.94500
N  16.46700 51.51300 28.21900
C  17.49100 51.30600 29.10300
C  17.04300 51.53500 30.56200
C  15.50700 51.76800 30.34100
C  15.41800 52.03100 28.85300
C  14.50200 50.71900 30.91800
C  17.79700 52.76900 31.17500
C  18.44000 52.74400 32.53500
H  17.65300 52.00300 33.63800
N  14.79500 52.74800 25.91500
C  13.93100 53.06800 26.94800
C  12.83900 53.84000 26.44900
C  12.99100 53.91000 25.03300
C  14.17900 53.14000 24.74300
C  11.59900 54.25000 27.35200
C  12.21100 54.70800 24.00300
O  12.47200 54.81200 22.83100
C  10.92900 55.38300 24.48200
N  16.88000 51.74600 24.00100
C  15.95400 52.27700 23.12000
C  16.45000 52.03300 21.67600
C  18.01000 51.72100 21.89800
C  18.04200 51.35700 23.39300
C  15.59900 50.87400 20.94300
C  18.93500 52.95500 21.51000
C  20.07100 52.70900 20.41900
N  18.52700 50.85800 26.24300
C  19.40200 50.43800 25.30100
C  20.58800 49.83300 25.94100
C  20.42300 50.04400 27.30700
C  19.07900 50.62000 27.44800
C  21.80100 49.32300 25.29600
C  20.95000 49.87000 28.64000
O  21.98400 49.31400 28.96500
C  19.87500 50.41600 29.63400
C  19.54000 49.25300 30.42700
O  18.70800 48.39900 30.14700
O  20.20300 49.32100 31.66100
C  20.12500 48.09900 32.43800
H  13.57600 52.92300 29.05900
H  14.11000 53.09000 22.62200
H  19.97800 50.55000 23.20100
H  17.24200 50.61700 31.11500
H  15.14500 52.65400 30.86200
H  13.82600 50.24500 30.20600
H  13.81800 51.21000 31.61000
H  15.07700 49.90000 31.35100
H  17.17500 53.66300 31.22200
H  18.62000 52.94400 30.48200
H  18.51900 53.77400 32.88400
H  19.35500 52.15200 32.51900
H  11.63400 55.34000 27.37200
H  11.77400 53.92000 28.37600
H  10.71300 53.76900 26.93900
H  10.20300 54.59000 24.65700
H  10.68700 56.04700 23.65200
H  11.22900 55.93000 25.37600
H  16.28900 52.99100 21.18200
H  18.29000 50.80300 21.38300
H  14.82900 50.48300 21.60800
H  16.23400 50.06100 20.59000
H  15.18600 51.50400 20.15600
H  19.38900 53.49100 22.34300
H  18.19200 53.60100 21.04100
H  20.51000 53.64500 20.07500
H  19.57200 52.07600 19.68500
H  20.88000 52.13600 20.87100
H  21.45700 48.34600 24.95600
H  22.60300 49.11900 26.00500
H  22.18400 49.92300 24.47100
H  20.19100 51.23400 30.28100
H  19.31900 48.05300 33.16900
H  21.03800 48.00800 33.02700
H  20.07100 47.17500 31.86300

