158

Mg 6.93000 53.52900 41.52600
C  6.33900 50.17000 41.00000
C  9.94800 53.20600 40.07900
C  7.04300 56.84600 41.20600
C  3.74900 53.82300 42.91900
N  7.90100 51.88000 40.54100
C  7.58900 50.61500 40.52900
C  8.71600 49.70600 40.12300
C  9.95300 50.67700 40.33500
C  9.28200 51.98900 40.29400
C  10.83300 50.20000 41.57800
C  8.60700 49.10500 38.63800
C  8.39400 50.16400 37.56700
H  6.97200 50.43600 37.06000
N  8.36200 54.93900 40.84600
C  9.53500 54.57100 40.19900
C  10.23500 55.77600 39.80400
C  9.33700 56.97200 40.01100
C  8.16600 56.27100 40.66400
C  11.62900 55.78700 39.11200
C  9.56300 58.39700 39.53600
O  10.44700 58.69100 38.72100
C  8.62800 59.41500 40.00200
N  5.49000 55.14900 41.80700
C  5.87600 56.41300 41.71200
C  4.78900 57.36300 42.03700
C  3.74800 56.44900 42.67400
C  4.27100 55.03600 42.39500
C  5.17100 58.65500 42.85400
C  2.29200 56.50200 42.02900
C  1.13600 56.32100 43.01400
N  5.31900 52.22200 41.97500
C  4.08500 52.46300 42.52000
C  3.40000 51.21500 42.71500
C  4.16500 50.30800 41.97300
C  5.33100 50.95000 41.63400
C  1.98700 50.98100 43.34800
C  4.25200 48.91300 41.57600
O  3.51000 47.94100 41.66800
C  5.71800 48.77600 40.90600
C  5.45200 48.26400 39.51600
O  4.93100 48.94100 38.60700
O  5.78900 46.89200 39.47200
C  5.78400 46.26200 38.12900
H  10.91300 53.19200 39.57000
H  6.96000 57.91700 41.00900
H  2.81700 53.88700 43.48300
H  8.70900 48.84200 40.78800
H  10.62100 50.56500 39.48000
H  10.52600 49.29400 42.10000
H  10.68200 50.91400 42.38700
H  11.88700 50.25500 41.30700
H  7.82000 48.35800 38.73600
H  9.48300 48.52100 38.35400
H  9.00300 49.95200 36.68800
H  8.86900 51.09400 37.87900
H  12.20200 54.99200 39.58900
H  12.16000 56.70700 39.35800
H  11.45800 55.61500 38.05000
H  7.61600 59.39400 39.59800
H  9.16000 60.35700 39.87000
H  8.64800 59.44300 41.09100
H  4.42900 57.70500 41.06700
H  3.82600 56.47400 43.76100
H  4.60800 58.74500 43.78400
H  4.84300 59.50400 42.25300
H  6.24300 58.71100 43.04400
H  2.30200 55.73700 41.25300
H  2.18900 57.40800 41.43300
H  0.29600 55.69600 42.71000
H  0.72100 57.31500 43.18100
H  1.49900 55.95600 43.97500
H  1.25200 51.78500 43.37900
H  2.22000 50.87800 44.40800
H  1.59400 50.04900 42.94300
H  6.29900 48.06800 41.49600
H  6.71000 45.82700 37.75300
H  5.34300 46.87600 37.34400
H  5.05300 45.45600 38.20200
Mg -2.18900 35.32900 26.85700
C  -3.47800 33.16000 29.30300
C  -0.84400 37.13800 29.26200
C  -0.97800 37.12700 24.42300
C  -3.85200 33.20800 24.36300
N  -2.21300 35.11000 29.09300
C  -2.56000 34.10900 29.84900
C  -2.25700 34.29100 31.31900
C  -1.50500 35.69600 31.29300
C  -1.57900 36.04300 29.78500
C  -2.08500 36.84000 32.23600
C  -1.50000 33.02800 31.83200
C  -1.96700 32.47000 33.17100
H  -0.94800 32.23700 34.28500
N  -1.18900 36.93300 26.80900
C  -0.65000 37.57400 27.94400
C  0.30200 38.61800 27.53200
C  0.37100 38.54000 26.14300
C  -0.62200 37.49700 25.70700
C  1.12900 39.53900 28.52900
C  1.20500 39.32900 25.19200
O  1.26400 39.19700 23.99200
C  2.12800 40.33500 25.73800
N  -2.62400 35.32600 24.74300
C  -1.92600 36.17600 23.94800
C  -2.25300 35.93900 22.46400
C  -3.06500 34.70100 22.45700
C  -3.22900 34.40400 23.94700
C  -2.95700 37.06300 21.69100
C  -2.44100 33.48300 21.62900
C  -1.23900 32.73500 22.29600
N  -3.49700 33.60200 26.75700
C  -4.08400 32.84900 25.71000
C  -4.81300 31.72200 26.23800
C  -4.70000 31.84500 27.67400
C  -3.79100 32.92000 27.93900
C  -5.47400 30.62300 25.48500
C  -5.03200 31.33000 28.90600
O  -5.79200 30.39900 29.17300
C  -4.21500 32.06000 30.04500
C  -5.11700 32.65200 31.04000
O  -5.87300 33.59900 30.85800
O  -5.03900 31.97700 32.22300
C  -6.12800 32.24100 33.14000
H  -0.27600 37.73300 29.98000
H  -0.68300 37.76400 23.58700
H  -4.32200 32.67100 23.53700
H  -3.19600 34.41000 31.86000
H  -0.52700 35.60000 31.76300
H  -2.95900 36.60300 32.84300
H  -2.35800 37.67800 31.59500
H  -1.36000 37.25200 32.93800
H  -0.43300 33.22600 31.93100
H  -1.47600 32.23300 31.08700
H  -2.53200 31.55300 33.00500
H  -2.65300 33.18400 33.62700
H  2.14700 39.79000 28.23000
H  1.08400 39.11600 29.53200
H  0.63500 40.49800 28.67800
H  2.96500 39.76400 26.13900
H  1.59100 40.94800 26.46200
H  2.45500 41.06900 25.00200
H  -1.25700 35.88900 22.02400
H  -4.12300 34.82600 22.22700
H  -3.64900 36.71700 20.92400
H  -2.17500 37.75400 21.37800
H  -3.51800 37.59800 22.45800
H  -2.23600 33.87300 20.63200
H  -3.23100 32.78100 21.36000
H  -0.92100 33.17800 23.23900
H  -0.31900 32.87700 21.72900
H  -1.48800 31.67900 22.40400
H  -4.93000 30.34400 24.58300
H  -6.47900 30.99500 25.28800
H  -5.59500 29.88200 26.27500
H  -3.56900 31.31600 30.51200
H  -7.02700 32.70100 32.73000
H  -5.74700 32.75500 34.02200
H  -6.42500 31.28800 33.58000

