158

Mg 47.87200 24.84700 29.60700
C  49.05700 27.13000 31.89000
C  46.56800 22.99600 32.02200
C  47.08300 22.39200 27.25500
C  49.57700 26.62600 27.06600
N  47.92200 25.05400 31.76600
C  48.36600 26.08200 32.48700
C  47.94500 26.00000 34.02400
C  47.46600 24.42800 34.00900
C  47.28100 24.11200 32.51200
C  48.47500 23.49800 34.73600
C  46.79000 26.91200 34.48500
C  47.02900 27.97600 35.56400
H  45.94800 28.04200 36.69600
N  46.91000 22.96400 29.66900
C  46.43000 22.35700 30.79200
C  45.79400 21.16500 30.54200
C  45.97400 20.94300 29.15800
C  46.72100 22.13600 28.59500
C  45.09300 20.24600 31.58400
C  45.61500 19.78500 28.29900
O  45.77900 19.80500 27.06400
C  44.77000 18.70900 28.81200
N  48.34400 24.53600 27.46100
C  47.89300 23.41800 26.77100
C  48.47200 23.51000 25.27000
C  49.04300 24.95600 25.20700
C  49.01600 25.40400 26.72700
C  49.36300 22.37700 24.61600
C  48.27000 25.88700 24.21900
C  48.72000 26.06100 22.71200
N  48.96000 26.56700 29.42100
C  49.56100 27.18600 28.35500
C  50.09700 28.37600 28.74700
C  49.95600 28.44200 30.08800
C  49.25200 27.27600 30.45500
C  50.70100 29.46700 27.99000
C  50.14900 29.22800 31.30000
O  50.59600 30.34600 31.53300
C  49.63500 28.42000 32.53800
C  50.79000 28.08200 33.42000
O  51.53600 27.17700 33.25200
O  50.86700 29.01400 34.49300
C  51.85800 28.84900 35.59600
H  46.10400 22.55500 32.90700
H  46.91200 21.66800 26.45500
H  50.01800 27.18600 26.23900
H  48.83000 26.19200 34.63000
H  46.48600 24.27300 34.46100
H  48.30700 22.42900 34.60100
H  48.36800 23.78900 35.78100
H  49.46200 23.71800 34.32900
H  46.10300 26.14500 34.84200
H  46.26500 27.36500 33.64400
H  47.04100 28.91700 35.01400
H  48.07000 27.92400 35.88300
H  45.72900 19.37300 31.72400
H  44.12800 19.83800 31.28200
H  44.96500 20.63300 32.59500
H  44.60300 17.88900 28.11300
H  43.89500 19.24500 29.17800
H  45.26500 18.32000 29.70200
H  47.58600 23.49700 24.63500
H  50.07500 24.79900 24.89300
H  50.30600 22.74800 24.21300
H  48.76000 22.02800 23.77700
H  49.48200 21.55500 25.32200
H  48.28300 26.90900 24.59600
H  47.21400 25.61600 24.19800
H  49.59100 25.44000 22.50200
H  49.05200 27.08700 22.54900
H  47.93500 25.80300 22.00200
H  51.08300 29.05800 27.05400
H  51.47700 29.93100 28.59800
H  49.89200 30.12800 27.67700
H  48.88900 28.95300 33.12700
H  51.60200 29.62800 36.31400
H  52.88700 29.03500 35.28900
H  51.83800 27.88500 36.10400
Mg 28.59400 56.68400 40.37800
C  26.76200 53.66000 39.82000
C  31.33400 55.03500 39.43100
C  30.10900 59.62400 40.29300
C  25.42500 58.21300 40.62300
N  28.91300 54.64400 39.44400
C  28.09400 53.53300 39.50100
C  28.88400 52.25600 39.16600
C  30.40100 52.78600 39.51400
C  30.23600 54.29500 39.36200
C  30.98000 52.29900 40.88900
C  28.58800 51.82300 37.66200
C  29.28600 52.51200 36.48700
H  28.28600 53.09500 35.44600
N  30.53300 57.30400 40.01200
C  31.54700 56.41400 39.63300
C  32.73600 57.17400 39.48100
C  32.46500 58.55600 39.84700
C  31.01600 58.54300 40.02400
C  34.12100 56.60600 39.05800
C  33.34900 59.75100 39.98500
O  34.56900 59.72600 39.76700
C  32.82800 61.16200 40.33100
N  27.83500 58.72700 40.36300
C  28.69100 59.77200 40.36700
C  27.85300 61.07700 40.57800
C  26.37400 60.57600 40.66200
C  26.55600 59.05900 40.51700
C  28.37800 62.04600 41.69100
C  25.38100 61.32300 39.71500
C  24.28300 62.21500 40.43900
N  26.45200 56.07500 40.26400
C  25.33600 56.81800 40.57200
C  24.18200 55.85000 40.66800
C  24.70700 54.62400 40.47700
C  26.05500 54.83200 40.12300
C  22.81700 56.24200 41.03300
C  24.41800 53.20000 40.46000
O  23.42200 52.60200 40.71900
C  25.81600 52.50700 39.98100
C  26.06500 51.54400 41.11300
O  26.93900 51.65400 41.96900
O  25.20000 50.51000 40.92800
C  25.37600 49.34600 41.79000
H  32.25000 54.45800 39.28600
H  30.59700 60.60000 40.26600
H  24.45900 58.70900 40.74200
H  28.70900 51.42800 39.85400
H  31.10700 52.47400 38.74400
H  31.51900 51.37100 40.69800
H  30.18000 51.99000 41.56200
H  31.53400 53.15500 41.27500
H  27.52800 52.04600 37.53900
H  28.82500 50.76700 37.53000
H  29.79200 51.76600 35.87400
H  30.14400 53.09900 36.81700
H  34.61700 57.33200 38.41300
H  33.94200 55.74800 38.41000
H  34.69500 56.36500 39.95300
H  32.32200 61.56400 39.45300
H  33.70800 61.76200 40.56700
H  32.20400 61.01000 41.21200
H  27.92300 61.64600 39.65000
H  26.05700 60.57700 41.70500
H  27.59700 62.40800 42.36000
H  28.91900 62.82300 41.15200
H  29.06300 61.58400 42.40200
H  24.92200 60.72700 38.92700
H  25.96100 62.03100 39.12300
H  23.27000 61.85000 40.26900
H  24.23100 63.18700 39.94800
H  24.40600 62.39500 41.50700
H  22.22400 55.38300 41.34800
H  22.27900 56.65100 40.17700
H  22.75400 56.93500 41.87300
H  25.68600 52.02100 39.01500
H  25.39200 49.77200 42.79300
H  26.28800 48.79300 41.56100
H  24.57100 48.61200 41.75700

