158

Mg 17.92700 -1.78600 27.70700
C  16.92000 0.28700 30.33300
C  19.98200 -3.55500 29.72400
C  18.94000 -3.55700 24.89200
C  16.26100 0.44800 25.60600
N  18.49500 -1.51800 29.74400
C  17.82900 -0.80700 30.70700
C  18.23000 -1.17300 32.14300
C  19.40600 -2.22900 31.88800
C  19.37900 -2.42300 30.35400
C  20.75900 -1.80700 32.32500
C  17.02700 -1.62500 32.97000
C  16.92500 -1.25200 34.46800
H  18.11000 -0.49100 35.02000
N  19.21400 -3.42600 27.37600
C  19.85000 -4.09200 28.43000
C  20.44300 -5.29000 27.86200
C  20.23500 -5.30300 26.43000
C  19.41200 -4.04700 26.18000
C  21.20700 -6.23300 28.68700
C  20.72600 -6.22700 25.28300
O  20.42800 -6.03400 24.09300
C  21.59300 -7.35100 25.58000
N  17.74500 -1.48100 25.52900
C  18.18200 -2.39000 24.61800
C  17.91600 -1.94600 23.12300
C  16.84300 -0.81100 23.43700
C  16.98200 -0.54900 24.93000
C  19.18400 -1.45000 22.41400
C  15.45700 -1.30100 23.15500
C  14.50300 -0.28300 22.47200
N  16.84600 -0.08500 27.92500
C  16.13300 0.65600 27.01700
C  15.40500 1.77600 27.63100
C  15.73000 1.65700 28.97900
C  16.55800 0.51300 29.06600
C  14.58900 2.82300 27.03000
C  15.60800 2.26100 30.30300
O  15.01500 3.29700 30.67400
C  16.32700 1.32200 31.28700
C  17.31800 2.03200 32.11500
O  18.54500 2.18900 31.89900
O  16.64500 2.67000 33.13400
C  17.29400 3.53600 34.19400
H  20.50100 -4.14200 30.48500
H  19.28600 -4.08200 23.99900
H  15.62700 1.11300 25.01500
H  18.71900 -0.35800 32.67800
H  19.13100 -3.21100 32.27200
H  20.76200 -0.81600 32.77900
H  21.41800 -1.71800 31.46200
H  21.19200 -2.46700 33.07700
H  16.95800 -2.71000 32.89100
H  16.08100 -1.36200 32.49600
H  16.74200 -2.16600 35.03200
H  15.98600 -0.72000 34.62400
H  22.25600 -6.30500 28.40000
H  20.72600 -7.20300 28.56100
H  21.20800 -5.98200 29.74800
H  22.04500 -7.77700 24.68500
H  20.87400 -8.05800 25.99400
H  22.27200 -7.27500 26.42900
H  17.47600 -2.75100 22.53300
H  17.10600 0.03000 22.79600
H  19.14700 -2.01100 21.48100
H  20.05900 -1.72000 23.00500
H  19.06500 -0.40600 22.12500
H  14.92000 -1.62100 24.04800
H  15.38400 -2.14300 22.46700
H  14.54300 -0.27600 21.38300
H  14.47800 0.75300 22.81100
H  13.49600 -0.66800 22.62600
H  14.38300 2.50400 26.00900
H  15.19600 3.72700 26.99500
H  13.75300 3.14800 27.65000
H  15.57500 0.79100 31.87000
H  17.13300 4.58400 33.94000
H  18.37700 3.41100 34.17400
H  16.98300 3.32100 35.21700
Mg 53.35000 23.99500 45.50700
C  50.56700 26.21900 44.65600
C  51.24900 21.30200 44.78100
C  55.99200 22.05200 45.65100
C  55.28100 26.86400 45.92500
N  51.29000 23.85500 44.59900
C  50.28500 24.86000 44.51900
C  48.85900 24.21400 44.43200
C  49.11900 22.76900 44.87600
C  50.65800 22.59900 44.72100
C  48.73700 22.55200 46.41700
C  48.16400 24.40800 43.07400
C  49.02700 24.28900 41.79900
H  48.33500 23.62900 40.49000
N  53.55100 21.90500 45.28700
C  52.62500 21.00200 44.90400
C  53.29400 19.69500 44.85700
C  54.69000 19.89100 44.86300
C  54.81400 21.33400 45.29200
C  52.53600 18.42700 44.52800
C  55.74300 18.81200 44.61900
O  55.49800 17.80800 43.94500
C  57.19600 18.98200 44.98600
N  55.37300 24.44900 45.55100
C  56.26700 23.40200 45.76800
C  57.74200 24.04300 45.91600
C  57.48800 25.61000 45.96500
C  55.99500 25.70800 45.79800
C  58.70800 23.40400 46.91500
C  58.31500 26.43600 44.94900
C  57.51300 26.92900 43.74500
N  53.06000 26.06800 45.37400
C  53.91200 27.10800 45.60400
C  53.31900 28.43600 45.40900
C  51.92100 28.07000 45.11800
C  51.86400 26.65800 44.95800
C  53.99700 29.77100 45.62800
C  50.62800 28.62800 44.94600
O  50.26800 29.80500 44.86300
C  49.76600 27.50600 44.62200
C  49.25900 27.85800 43.28600
O  49.94600 27.83400 42.23700
O  47.93300 28.17900 43.33100
C  47.37200 28.81000 42.17300
H  50.66000 20.38300 44.74600
H  56.89900 21.44600 45.72000
H  55.90300 27.70300 46.24400
H  48.15300 24.73300 45.08000
H  48.56900 22.10600 44.20800
H  48.20300 23.39500 46.85500
H  49.60900 22.46900 47.06500
H  48.20600 21.60100 46.45100
H  47.67600 25.37800 42.97500
H  47.31800 23.72700 42.98900
H  49.89400 23.67200 42.03800
H  49.41700 25.27500 41.54700
H  53.07000 17.51700 44.80000
H  52.27000 18.18900 43.49900
H  51.65400 18.31100 45.15800
H  57.89600 18.16900 44.79000
H  57.11300 19.32800 46.01600
H  57.55600 19.79800 44.36000
H  58.20200 23.82100 44.95300
H  57.74600 25.89700 46.98400
H  59.13200 24.16600 47.56900
H  59.50700 22.97100 46.31400
H  58.27200 22.56700 47.46000
H  59.20100 25.93500 44.55600
H  58.55400 27.35600 45.48200
H  58.23300 26.96700 42.92700
H  57.07800 27.92800 43.77300
H  56.75800 26.19900 43.45400
H  54.22600 29.96700 46.67500
H  53.43700 30.65300 45.31600
H  54.89400 29.69800 45.01200
H  49.00100 27.35300 45.38400
H  46.43900 29.28100 42.48400
H  47.14700 28.10700 41.37200
H  48.00100 29.63300 41.83400

