158

Mg 36.16000 48.46800 24.52500
C  36.30400 46.68400 27.53000
C  34.80100 51.08900 26.33600
C  35.57800 50.02600 21.71300
C  37.32400 45.68400 22.83600
N  35.65500 48.83800 26.74300
C  35.90100 47.99100 27.71800
C  35.65800 48.69500 29.08400
C  34.98300 50.06800 28.72000
C  35.07800 50.00700 27.17400
C  33.47600 50.29000 29.20100
C  36.96000 48.84700 29.93000
C  36.91800 48.37900 31.35500
H  35.58300 48.51800 32.08700
N  35.24100 50.23600 24.07000
C  34.78700 51.22300 24.91600
C  34.27700 52.34700 24.14900
C  34.46900 52.07000 22.77800
C  35.10700 50.70200 22.82800
C  33.81400 53.57700 24.80300
C  34.32100 53.05800 21.50600
O  34.71800 52.81200 20.37300
C  33.84000 54.51600 21.72700
N  36.35100 47.94800 22.56600
C  36.09800 48.76300 21.56400
C  36.37400 48.14300 20.20000
C  37.15800 46.84400 20.59200
C  36.98700 46.80700 22.13100
C  35.08600 47.89500 19.31100
C  38.63500 46.65300 20.09000
C  39.81000 46.98500 21.08600
N  36.87700 46.63900 25.03600
C  37.25900 45.60500 24.21800
C  37.64000 44.47800 25.05000
C  37.28300 44.86800 26.36900
C  36.76700 46.13700 26.28500
C  38.18900 43.16300 24.54600
C  37.15100 44.47200 27.75000
O  37.42900 43.39500 28.32900
C  36.54700 45.69700 28.55100
C  35.40300 45.18500 29.32300
O  34.20800 45.08700 29.02500
O  35.87600 44.97500 30.54700
C  34.98000 44.46600 31.57300
H  34.45900 51.97800 26.87000
H  35.50600 50.50000 20.73200
H  37.69400 44.75900 22.39000
H  34.98100 48.11700 29.71200
H  35.64400 50.88800 29.00100
H  33.22700 49.43700 29.83300
H  32.77900 50.29700 28.36300
H  33.32200 51.12700 29.88300
H  37.24800 49.89900 29.91800
H  37.76900 48.36000 29.38500
H  37.65000 48.89400 31.97800
H  37.17000 47.32000 31.41100
H  34.67300 54.24200 24.71100
H  33.45100 53.41100 25.81700
H  32.92500 53.90600 24.26600
H  32.84000 54.50000 22.16100
H  33.82500 54.84500 20.68800
H  34.53700 55.08400 22.34300
H  37.15100 48.79500 19.80000
H  36.56500 45.99900 20.24300
H  34.25700 48.50000 19.67800
H  34.64600 46.90400 19.42700
H  35.27600 48.11000 18.25900
H  38.78000 47.32700 19.24600
H  38.75000 45.68700 19.60000
H  40.28400 47.87900 20.68300
H  40.54900 46.18700 21.16200
H  39.55700 47.20100 22.12400
H  38.91800 43.30500 23.74800
H  37.33600 42.62100 24.13900
H  38.62500 42.65100 25.40400
H  37.28900 45.97600 29.29900
H  34.23800 45.24300 31.75900
H  35.45200 44.25100 32.53200
H  34.30300 43.69300 31.20900
Mg 16.76000 52.00800 26.46300
C  18.98800 50.62200 28.76700
C  14.78900 53.09500 29.15000
C  14.75700 53.44800 24.17000
C  18.81700 50.94000 23.87500
N  16.92700 51.90400 28.67800
C  17.97000 51.41100 29.37000
C  17.70300 51.52000 30.88600
C  16.19100 51.93000 31.04100
C  15.94900 52.40300 29.52400
C  15.26500 50.69500 31.24800
C  18.71300 52.32000 31.60700
C  18.70400 52.11000 33.12700
H  17.55700 51.33500 33.81300
N  15.04900 53.13600 26.63100
C  14.42900 53.51000 27.82100
C  13.21600 54.23700 27.48600
C  13.14300 54.26600 26.00500
C  14.31400 53.60200 25.52200
C  12.25900 54.80100 28.55300
C  12.13200 55.04500 25.08700
O  12.21500 55.08700 23.85000
C  10.96800 55.62600 25.69100
N  16.86100 52.28500 24.31400
C  15.85600 52.87300 23.58800
C  16.15700 52.91700 22.10200
C  17.46700 52.01800 21.99100
C  17.79500 51.76700 23.45900
C  15.08300 52.29600 21.19800
C  18.66900 52.38200 21.07100
C  19.34300 53.73700 21.34500
N  18.35300 50.81000 26.28800
C  19.12900 50.47700 25.19800
C  20.26200 49.60600 25.60700
C  20.21900 49.59100 27.02900
C  19.07300 50.42400 27.40000
C  21.21300 48.87100 24.74200
C  20.90100 49.18300 28.23500
O  21.83800 48.45400 28.35100
C  20.17100 49.91500 29.43700
C  19.73900 48.77600 30.28800
O  18.80000 48.00300 30.08300
O  20.40600 48.89600 31.48500
C  19.99800 48.00000 32.60400
H  14.08200 53.29500 29.95800
H  14.20300 53.90900 23.35000
H  19.48900 50.53600 23.11500
H  17.87400 50.52100 31.28700
H  16.03300 52.81700 31.65400
H  14.82800 50.46100 30.27700
H  14.52300 50.95000 32.00500
H  15.89600 49.85500 31.53800
H  18.53000 53.31800 31.20900
H  19.64800 51.83800 31.31900
H  18.81400 53.05600 33.65800
H  19.60900 51.57000 33.40600
H  12.56100 54.62000 29.58500
H  11.26500 54.37100 28.43100
H  12.16000 55.88600 28.50800
H  11.43800 56.50000 26.14000
H  10.79000 54.91600 26.49800
H  10.15400 55.60800 24.96700
H  16.41200 53.88200 21.66300
H  17.24200 51.01500 21.62800
H  14.37100 51.75900 21.82500
H  15.35700 51.52900 20.47400
H  14.55800 53.15300 20.77600
H  18.06000 52.43600 20.16900
H  19.35300 51.54400 20.93700
H  20.30200 53.68800 21.86200
H  18.65100 54.37300 21.89700
H  19.51700 54.20600 20.37700
H  20.60200 48.39000 23.97800
H  21.80800 48.23100 25.39300
H  21.86600 49.57500 24.22500
H  20.86000 50.59600 29.93700
H  19.26500 48.54600 33.19800
H  20.93200 47.86000 33.14700
H  19.58500 47.12600 32.09900

