158

Mg 9.91700 47.71700 25.65200
C  7.90500 48.04400 28.44800
C  12.58200 48.84400 27.49900
C  11.60100 47.62400 22.90800
C  6.88100 47.08900 23.64300
N  10.12200 48.47700 27.64200
C  9.19600 48.40700 28.68700
C  9.81400 48.72000 30.10600
C  11.22400 49.31500 29.67000
C  11.32900 48.89400 28.15400
C  11.28000 50.84500 29.89000
C  9.86200 47.50600 31.04200
C  9.36000 47.88200 32.46100
H  9.34600 46.77100 33.47000
N  11.85600 48.08700 25.22200
C  12.83700 48.50300 26.13800
C  14.07000 48.50600 25.42900
C  13.81500 48.28000 24.03000
C  12.39900 47.99600 23.98300
C  15.38900 48.79000 25.99500
C  14.74000 48.32500 22.82200
O  14.30200 48.24700 21.70000
C  16.21200 48.56600 23.06600
N  9.25000 47.39200 23.62400
C  10.22300 47.38700 22.74100
C  9.69300 46.97000 21.38400
C  8.24800 46.45200 21.59500
C  8.08400 47.02700 23.01600
C  9.67900 48.15700 20.40500
C  8.12600 44.90100 21.57700
C  8.28200 44.14000 22.80900
N  7.83700 47.47900 25.95800
C  6.73800 47.29200 25.09300
C  5.50900 47.36800 25.81300
C  5.94400 47.52500 27.16300
C  7.33900 47.59900 27.20200
C  4.09200 47.31700 25.19100
C  5.49600 47.68500 28.53400
O  4.32400 47.68200 29.01300
C  6.77000 47.79500 29.46200
C  6.88800 46.54700 30.27700
O  7.39500 45.52600 29.80200
O  6.28000 46.57600 31.53700
C  6.25000 45.38400 32.36600
H  13.47300 49.15600 28.04800
H  12.07600 47.59200 21.92500
H  6.00200 46.93000 23.01600
H  9.24200 49.50200 30.60500
H  11.98500 48.70400 30.15600
H  10.27000 51.20900 30.07700
H  11.71000 51.35300 29.02700
H  11.92100 51.10200 30.73400
H  10.90100 47.21100 31.19500
H  9.38900 46.55800 30.78400
H  8.36900 48.32500 32.36000
H  10.02600 48.69200 32.75900
H  15.32500 48.70600 27.08000
H  15.77000 49.77600 25.73000
H  16.09000 48.04900 25.61000
H  16.70000 47.67100 23.45200
H  16.45200 49.47500 23.61800
H  16.77100 48.71400 22.14200
H  10.37900 46.22700 20.97900
H  7.53200 46.90100 20.90700
H  10.16600 49.01300 20.87200
H  8.68100 48.53300 20.17900
H  10.28000 47.94700 19.52000
H  8.92600 44.50700 20.95100
H  7.19400 44.60500 21.09500
H  9.13900 44.43000 23.41700
H  8.48000 43.10100 22.54500
H  7.36800 44.09800 23.40100
H  3.62000 46.33500 25.16000
H  4.22600 47.76200 24.20500
H  3.51700 48.00200 25.81400
H  6.73100 48.69600 30.07500
H  5.19300 45.11800 32.39800
H  6.56900 45.65900 33.37200
H  7.01900 44.62500 32.23100
Mg -11.80700 37.49600 41.85700
C  -9.31700 35.15400 40.92400
C  -9.65000 39.98700 40.62200
C  -14.33100 39.47300 42.11500
C  -13.81400 34.82100 42.95400
N  -9.72700 37.49000 40.90100
C  -8.92800 36.45400 40.60600
C  -7.65900 36.94400 39.92300
C  -7.59400 38.52800 40.15700
C  -9.05000 38.70300 40.65100
C  -6.50500 39.00100 41.13500
C  -7.66300 36.53300 38.42100
C  -6.40600 35.79500 37.84600
H  -5.90900 36.25900 36.45300
N  -12.01700 39.44300 41.41600
C  -11.02600 40.33900 40.91700
C  -11.71200 41.59000 40.74800
C  -12.99800 41.50100 41.29200
C  -13.12500 40.11500 41.64500
C  -10.99500 42.81000 40.16900
C  -14.05700 42.58400 41.27200
O  -13.77700 43.70200 40.97200
C  -15.47300 42.27900 41.63500
N  -13.86900 37.15700 42.29900
C  -14.68100 38.18800 42.38600
C  -15.98000 37.79600 43.00400
C  -15.85000 36.28200 43.33800
C  -14.44900 36.03300 42.87000
C  -16.47900 38.68500 44.17700
C  -16.85700 35.32400 42.62500
C  -17.71800 34.42400 43.54200
N  -11.62700 35.51600 41.94300
C  -12.49400 34.55800 42.50000
C  -11.95300 33.24600 42.43300
C  -10.78000 33.45100 41.74500
C  -10.53700 34.88000 41.57600
C  -12.47400 31.92500 42.91200
C  -9.47000 32.80000 41.27200
O  -9.14900 31.62800 41.24300
C  -8.60400 33.82700 40.70200
C  -7.32700 33.64600 41.40100
O  -6.46100 32.88100 41.03400
O  -7.28000 34.54100 42.47100
C  -5.98200 34.45800 43.13900
H  -9.07900 40.77100 40.12000
H  -15.25900 40.04100 42.20300
H  -14.48800 34.03400 43.30000
H  -6.85900 36.39500 40.41900
H  -7.40400 39.03500 39.21100
H  -5.58400 38.42900 41.01800
H  -6.72600 38.89500 42.19700
H  -6.28900 40.04300 40.90100
H  -8.05500 37.42900 37.94000
H  -8.47600 35.80800 38.39200
H  -6.66100 34.73600 37.88100
H  -5.51900 35.86100 38.47600
H  -11.44300 43.05500 39.20700
H  -9.92500 42.61900 40.07900
H  -11.09100 43.67100 40.83100
H  -16.00900 43.22800 41.61900
H  -15.62000 41.95500 42.66600
H  -15.95800 41.63300 40.90400
H  -16.67800 37.84800 42.16800
H  -15.61500 36.04300 44.37500
H  -17.44000 39.03800 43.80200
H  -15.76800 39.48200 44.39200
H  -16.68700 38.01700 45.01200
H  -16.29300 34.65500 41.97600
H  -17.66200 35.82700 42.09000
H  -18.77500 34.69000 43.54600
H  -17.31300 34.76500 44.49400
H  -17.47800 33.36200 43.48200
H  -11.76000 31.37500 43.52500
H  -12.79900 31.36800 42.03400
H  -13.27200 32.08400 43.63700
H  -8.47400 33.64600 39.63500
H  -5.28000 34.61200 42.32000
H  -5.87200 33.43600 43.50300
H  -6.07300 35.13700 43.98600

