158

Mg 16.20800 -1.45100 28.92700
C  15.08100 0.80800 31.52000
C  18.04100 -3.08500 31.12600
C  17.43200 -3.28500 26.29000
C  14.32300 0.43200 26.75100
N  16.23300 -1.28200 31.06500
C  15.85300 -0.27400 31.93300
C  16.24900 -0.60400 33.37600
C  17.19100 -1.86900 33.23500
C  17.11000 -2.15400 31.71400
C  18.64600 -1.66500 33.67000
C  15.03200 -0.95700 34.19100
C  15.14700 -0.52600 35.58700
H  16.52100 -0.24500 36.24700
N  17.50200 -2.99300 28.73400
C  18.15700 -3.48600 29.79200
C  18.99500 -4.57400 29.32300
C  18.86500 -4.60400 27.90900
C  17.92300 -3.53700 27.58700
C  19.75400 -5.52300 30.21700
C  19.62600 -5.55700 26.93200
O  19.42700 -5.41000 25.74200
C  20.59000 -6.60300 27.46100
N  16.06200 -1.22600 26.76600
C  16.64800 -2.18300 25.95200
C  16.26000 -1.83900 24.45900
C  15.14500 -0.77700 24.62000
C  15.14000 -0.53200 26.11700
C  17.51100 -1.40000 23.61900
C  13.75100 -1.23000 24.14200
C  12.97100 -0.15300 23.38200
N  14.95700 0.31600 29.07100
C  14.21600 0.82400 28.09100
C  13.39700 1.91700 28.58900
C  13.75300 1.99800 29.95100
C  14.65900 1.01200 30.20400
C  12.49600 2.71300 27.76400
C  13.50100 2.63400 31.25800
O  12.67100 3.53900 31.53400
C  14.38200 1.84000 32.32500
C  15.30900 2.86600 32.80700
O  16.20500 3.34800 32.13700
O  15.02200 3.04300 34.15200
C  15.48100 4.38900 34.56400
H  18.57700 -3.67700 31.87000
H  17.63900 -4.01800 25.50800
H  13.70700 1.06600 26.10900
H  16.74700 0.28200 33.77000
H  16.69000 -2.64900 33.80800
H  19.43700 -1.92300 32.96500
H  18.61800 -2.26800 34.57700
H  18.73900 -0.60700 33.91400
H  14.75900 -2.01000 34.26200
H  14.16100 -0.48700 33.73500
H  14.50100 -1.22000 36.12400
H  14.65600 0.44200 35.68600
H  20.79300 -5.37700 29.92200
H  19.37600 -6.52000 29.98900
H  19.70100 -5.33400 31.28900
H  21.02500 -7.24100 26.69100
H  20.24200 -7.29600 28.22700
H  21.37700 -5.99600 27.91000
H  15.91900 -2.77700 24.02100
H  15.56500 0.10800 24.14000
H  17.70100 -0.32800 23.67800
H  17.26400 -1.60300 22.57700
H  18.43200 -1.91400 23.89100
H  13.11800 -1.40600 25.01200
H  13.87300 -2.19200 23.64300
H  12.07500 -0.59800 22.94900
H  13.53900 0.45100 22.67400
H  12.57700 0.56100 24.10500
H  11.87900 2.05800 27.14900
H  13.10600 3.22600 27.02000
H  11.98200 3.44700 28.38400
H  13.72400 1.40700 33.07800
H  15.24600 5.22400 33.90400
H  16.54700 4.32500 34.78400
H  14.88200 4.64200 35.43900
Mg 9.57500 48.26100 25.00400
C  7.65500 47.90300 28.01400
C  12.04500 49.58900 26.88400
C  11.22600 48.33700 22.27600
C  6.69100 46.96100 23.24500
N  9.76700 48.83500 27.18400
C  8.88700 48.56900 28.25900
C  9.53500 49.07300 29.59400
C  10.64700 50.03100 29.08300
C  10.87500 49.48500 27.65400
C  10.30600 51.59800 29.04800
C  10.05000 47.99100 30.53600
C  9.32600 48.08400 31.92000
H  9.76700 47.00300 32.97200
N  11.37800 48.93900 24.61300
C  12.29100 49.35100 25.49100
C  13.60400 49.59900 24.82200
C  13.31200 49.15300 23.51900
C  11.93200 48.85200 23.38500
C  14.83400 50.03500 25.53800
C  14.27600 49.02200 22.37900
O  13.97400 48.53000 21.26900
C  15.71400 49.35900 22.60700
N  8.90800 47.93200 23.07600
C  9.88000 48.00100 22.07100
C  9.32800 47.64000 20.69700
C  8.02900 47.05300 21.09500
C  7.84000 47.33000 22.61600
C  9.25200 48.78300 19.62100
C  7.90300 45.49700 20.73800
C  8.53200 44.45000 21.54400
N  7.50400 47.67600 25.47900
C  6.50000 47.11000 24.67900
C  5.32600 46.84900 25.46300
C  5.77300 47.08700 26.80400
C  7.11600 47.57500 26.74500
C  3.97000 46.65500 25.07700
C  5.31900 47.21900 28.18700
O  4.20000 46.95800 28.69800
C  6.57200 47.58500 28.99200
C  6.86600 46.28900 29.79200
O  7.59600 45.37500 29.54300
O  6.23200 46.42700 30.99400
C  6.37400 45.29700 31.97000
H  12.87200 49.87400 27.53800
H  11.79800 48.32100 21.34500
H  5.96900 46.34700 22.70300
H  8.84600 49.74200 30.11000
H  11.56900 49.86400 29.64000
H  10.88500 52.11100 29.81500
H  9.22500 51.72100 29.10700
H  10.73700 51.87900 28.08600
H  11.13000 48.08000 30.65200
H  10.00400 47.01400 30.05500
H  8.25400 47.90700 31.82500
H  9.59800 49.02100 32.40600
H  15.41800 49.12100 25.65100
H  14.61000 50.36400 26.55300
H  15.41900 50.87600 25.16800
H  16.30900 49.14400 21.71900
H  16.17000 48.72200 23.36400
H  15.83400 50.41600 22.84700
H  9.95600 46.85900 20.26800
H  7.27400 47.57000 20.50100
H  9.38100 49.70700 20.18400
H  8.30500 48.82400 19.08300
H  10.18200 48.63000 19.07300
H  8.17900 45.25900 19.71100
H  6.81900 45.38100 20.74800
H  8.86300 44.92000 22.47100
H  9.37300 44.04800 20.97900
H  7.87700 43.63100 21.84100
H  3.60700 47.59800 24.66900
H  3.43500 46.42300 25.99800
H  3.86400 45.90700 24.29100
H  6.43400 48.42700 29.66900
H  6.27900 45.81600 32.92400
H  7.28200 44.69300 31.98900
H  5.53600 44.60700 31.87300

