158

Mg 16.33600 -1.95200 28.42400
C  15.39700 -0.17600 31.31500
C  18.59200 -3.70300 30.48600
C  17.55100 -3.42300 25.80700
C  14.55200 0.34700 26.42200
N  16.92000 -1.98000 30.68600
C  16.46500 -1.08200 31.59500
C  17.25200 -1.25800 32.90500
C  18.26000 -2.44600 32.60600
C  17.91100 -2.73300 31.22800
C  19.76100 -2.13000 32.88600
C  16.21400 -1.61300 34.05000
C  16.43800 -0.83100 35.30700
H  17.87100 -0.29200 35.73700
N  17.74100 -3.40300 28.20800
C  18.51700 -3.98400 29.13200
C  19.19400 -5.10500 28.52400
C  18.84800 -5.13900 27.14500
C  17.98800 -3.96300 26.99200
C  19.99000 -6.07200 29.46500
C  19.33200 -6.08800 26.04600
O  19.06500 -5.92000 24.87500
C  20.22000 -7.11800 26.41500
N  16.15300 -1.56700 26.40000
C  16.72400 -2.35600 25.49000
C  16.63900 -1.68200 24.13600
C  15.69600 -0.47900 24.29800
C  15.36200 -0.57300 25.79700
C  18.08400 -1.34700 23.63000
C  14.49400 -0.53300 23.37000
C  14.87500 -0.61000 21.87900
N  15.16900 -0.28500 28.73300
C  14.38600 0.43300 27.80300
C  13.49800 1.26200 28.55200
C  13.91300 1.13600 29.92000
C  14.89000 0.12500 29.96800
C  12.52500 2.19600 27.91400
C  13.69000 1.63100 31.30800
O  13.00400 2.51700 31.73100
C  14.75300 0.88200 32.17400
C  15.68900 1.90200 32.69900
O  16.62500 2.42100 32.13800
O  15.33000 2.22600 34.00100
C  15.89400 3.49900 34.59000
H  19.16500 -4.35100 31.15400
H  17.94000 -3.97100 24.94700
H  13.98700 1.01900 25.77200
H  17.69300 -0.30900 33.21100
H  18.02100 -3.36800 33.13500
H  20.31100 -2.90000 33.42600
H  19.73300 -1.24200 33.51800
H  20.31700 -1.99200 31.95900
H  16.32000 -2.65300 34.36100
H  15.19700 -1.39900 33.72400
H  16.00800 -1.47200 36.07600
H  15.85700 0.08000 35.16200
H  20.63000 -6.78200 28.94100
H  19.25000 -6.69200 29.97100
H  20.66400 -5.48700 30.09000
H  19.71800 -7.91100 26.97000
H  20.98800 -6.60400 26.99300
H  20.73300 -7.53000 25.54600
H  16.22400 -2.33300 23.36600
H  16.26100 0.43100 24.09900
H  18.70000 -1.16300 24.51000
H  18.13000 -0.51000 22.93300
H  18.52200 -2.16500 23.05700
H  13.94000 0.39700 23.49400
H  13.96300 -1.42700 23.69700
H  15.92000 -0.34700 21.71500
H  14.32400 0.04500 21.20400
H  14.82000 -1.61300 21.45500
H  12.27900 1.80400 26.92800
H  13.04700 3.15300 27.88500
H  11.59700 2.28800 28.48000
H  14.26900 0.43000 33.04000
H  15.75000 4.26000 33.82300
H  16.95800 3.51400 34.82600
H  15.41200 3.64900 35.55600
Mg 49.39700 46.26100 43.00200
C  46.37700 46.94900 41.43900
C  49.61400 43.26400 41.09700
C  52.67700 45.95300 43.76100
C  49.59400 49.76300 43.67900
N  48.11700 45.22400 41.41200
C  46.87300 45.69100 41.01800
C  46.19700 44.53500 40.18000
C  47.16500 43.34300 40.43800
C  48.41500 43.96800 40.95900
C  46.63400 42.23900 41.31600
C  45.88000 45.02300 38.74900
C  44.46800 44.67400 38.26700
H  44.37700 44.18400 36.78200
N  50.86600 44.73300 42.62000
C  50.78300 43.60200 41.80400
C  51.95200 42.78800 42.05700
C  52.79600 43.42500 42.93500
C  52.10800 44.75700 43.18900
C  52.14600 41.46600 41.47900
C  54.15200 42.91100 43.44800
O  54.51500 41.78000 43.19500
C  54.97500 43.62000 44.37400
N  50.88500 47.71900 43.56900
C  52.14200 47.24900 43.89700
C  53.00300 48.35400 44.65000
C  52.07900 49.62500 44.50300
C  50.75700 49.06600 43.90600
C  53.34400 48.11700 46.17900
C  52.61400 50.75200 43.66800
C  52.22600 52.15300 44.14000
N  48.12500 47.88900 42.91300
C  48.32100 49.28200 43.20500
C  47.09900 49.95900 43.07400
C  46.28800 49.08000 42.38700
C  47.02300 47.85600 42.24700
C  46.80000 51.31000 43.42700
C  45.00200 48.97900 41.81000
O  44.07000 49.74600 41.90400
C  45.01500 47.58700 41.04100
C  43.89200 46.71200 41.44900
O  43.83300 45.97000 42.44300
O  42.89300 46.93400 40.57200
C  41.59900 46.29900 40.89800
H  49.57000 42.20000 40.85400
H  53.62900 45.85300 44.28700
H  49.65600 50.81700 43.95700
H  45.24300 44.32500 40.66400
H  47.49600 42.90400 39.49700
H  47.40000 41.46400 41.30400
H  45.68000 41.85400 40.95600
H  46.63100 42.53100 42.36600
H  46.62200 44.69100 38.02200
H  46.00900 46.10400 38.78500
H  43.87900 45.58900 38.20000
H  43.92700 43.94600 38.87200
H  52.66000 41.65000 40.53600
H  51.18900 40.98700 41.27000
H  52.63700 40.79200 42.18100
H  55.41700 44.51100 43.92700
H  55.71800 42.95900 44.82200
H  54.25600 43.90400 45.14300
H  53.91800 48.44700 44.06400
H  51.87900 50.11100 45.45800
H  52.74900 48.65700 46.91600
H  54.36200 48.47900 46.32600
H  53.44300 47.04300 46.33100
H  52.07400 50.65500 42.72600
H  53.66400 50.58200 43.43000
H  52.93400 52.96500 43.97400
H  52.00300 52.18900 45.20600
H  51.31800 52.41400 43.59700
H  47.18000 51.95200 42.63300
H  47.38700 51.57100 44.30700
H  45.76700 51.63200 43.56000
H  44.96500 47.77200 39.96800
H  41.12500 46.62300 41.82500
H  41.66300 45.21300 40.84400
H  40.92300 46.53000 40.07500

