158

Mg 43.70500 3.81000 46.60500
C  41.81300 6.66400 47.07500
C  40.95800 1.86300 46.81300
C  45.83400 1.10400 46.32100
C  46.62800 5.90300 46.29800
N  41.62500 4.26500 46.81900
C  41.02900 5.45000 47.07500
C  39.56500 5.27200 47.52800
C  39.39200 3.72300 47.63800
C  40.76100 3.24900 47.01300
C  39.18000 3.09900 49.05300
C  38.39700 5.96900 46.68800
C  38.48800 5.82000 45.13100
H  38.96900 6.92700 44.14600
N  43.42300 1.79600 46.40900
C  42.17600 1.20000 46.46100
C  42.30900 -0.20600 46.39000
C  43.65700 -0.52400 46.25500
C  44.40800 0.81200 46.31500
C  41.19300 -1.19800 46.33300
C  44.24700 -1.88400 46.10500
O  43.44500 -2.86400 46.16600
C  45.62100 -2.08700 45.99200
N  45.94600 3.57200 46.37700
C  46.51200 2.35300 46.35800
C  48.03000 2.48200 46.30400
C  48.29700 4.03400 46.19400
C  46.87700 4.56200 46.31400
C  48.71500 1.76700 47.56400
C  48.85000 4.48600 44.82500
C  50.33800 4.96400 44.86500
N  44.17600 5.88000 46.53600
C  45.33700 6.50300 46.43800
C  45.07900 7.88500 46.60000
C  43.73200 8.03900 46.90300
C  43.19400 6.72800 46.85600
C  46.04600 8.97300 46.32000
C  42.59500 8.94500 47.21400
O  42.65400 10.18500 47.39000
C  41.24900 8.02200 47.33300
C  40.55000 8.27600 48.63200
O  40.65400 7.67100 49.66300
O  39.69100 9.34000 48.42700
C  38.78600 9.59200 49.53800
H  40.09300 1.22100 46.99700
H  46.51100 0.26100 46.17100
H  47.52000 6.51800 46.16400
H  39.49700 5.66200 48.54400
H  38.63500 3.33900 46.95400
H  39.79400 2.20400 49.15200
H  38.14900 2.80400 49.24900
H  39.51200 3.83500 49.78600
H  38.41200 7.01200 47.00400
H  37.45800 5.52200 47.01600
H  37.46300 5.63900 44.80800
H  39.18600 4.98500 45.05900
H  40.19400 -0.77100 46.41900
H  41.29800 -2.09900 46.93800
H  41.15800 -1.65100 45.34200
H  46.09200 -1.78800 46.92900
H  45.92500 -1.59900 45.06600
H  45.77400 -3.14800 45.79200
H  48.39000 1.90700 45.45100
H  48.85500 4.45100 47.03200
H  47.92200 1.13500 47.96300
H  48.90400 2.48800 48.35900
H  49.66500 1.26200 47.38900
H  48.30000 5.27800 44.31800
H  48.68200 3.68800 44.10200
H  50.46700 5.99500 44.53400
H  50.87800 4.32300 44.16800
H  50.80600 4.75300 45.82600
H  46.27700 8.93200 45.25600
H  47.02600 9.10000 46.78000
H  45.59000 9.95700 46.42900
H  40.51400 8.22800 46.55500
H  38.30800 10.57000 49.49300
H  39.27500 9.64100 50.51100
H  37.98700 8.85400 49.46900
Mg 43.40400 42.10100 26.21700
C  42.55000 44.34500 28.87800
C  44.86600 40.02700 28.47700
C  44.13000 40.14000 23.63400
C  42.27200 44.74200 24.03800
N  43.66400 42.21800 28.35900
C  43.17000 43.13000 29.26000
C  43.43000 42.60100 30.69500
C  44.40700 41.37400 30.55000
C  44.21000 41.13600 29.02500
C  45.88400 41.59800 31.00600
C  42.22000 42.35300 31.56700
C  42.13000 42.99600 32.94100
H  40.74500 43.37600 33.40900
N  44.32400 40.25300 26.10100
C  44.87800 39.56500 27.13400
C  45.41200 38.29400 26.62800
C  45.13200 38.28300 25.20700
C  44.48900 39.60100 24.92600
C  46.07700 37.27700 27.53600
C  45.60700 37.23500 24.15900
O  45.40500 37.36200 22.93500
C  46.21500 35.88500 24.54000
N  43.33400 42.44000 24.16600
C  43.61700 41.38600 23.26200
C  43.33900 41.84100 21.85600
C  42.48800 43.13200 22.01600
C  42.77400 43.50000 23.52000
C  44.53600 42.08700 20.90600
C  40.99700 42.90000 21.79900
C  40.43300 41.71000 22.52600
N  42.69200 44.20000 26.31300
C  42.22700 45.14700 25.37900
C  41.75400 46.30400 25.99100
C  41.85000 46.04600 27.38500
C  42.41700 44.73100 27.53100
C  41.28900 47.45200 25.35700
C  41.55400 46.54900 28.68200
O  41.03400 47.66200 28.96400
C  41.83200 45.41800 29.72600
C  42.79200 46.01600 30.68400
O  43.96300 46.20300 30.47400
O  42.10300 46.37900 31.86700
C  42.99400 47.02300 32.82700
H  45.33100 39.38000 29.22400
H  44.37400 39.55700 22.74400
H  41.78700 45.30500 23.23800
H  44.03900 43.37900 31.15400
H  44.11000 40.55100 31.20000
H  46.04400 42.67500 31.03900
H  46.57300 40.96100 30.45200
H  45.80100 41.15800 31.99900
H  42.06500 41.27600 31.63500
H  41.36400 42.67000 30.97100
H  42.78300 43.86700 32.89400
H  42.69900 42.27200 33.52300
H  45.44500 36.39000 27.51300
H  46.08300 37.60700 28.57500
H  47.10900 37.03000 27.28400
H  46.26100 35.16900 23.72000
H  45.47600 35.49100 25.23800
H  47.19800 35.91900 25.01000
H  42.73000 41.07500 21.37600
H  42.84700 43.86400 21.29200
H  45.44800 41.68500 21.34700
H  44.65800 43.15500 20.73100
H  44.37400 41.58000 19.95500
H  40.81000 42.85600 20.72600
H  40.44300 43.80000 22.06400
H  41.11100 40.91000 22.82300
H  39.49700 41.32900 22.11900
H  40.19200 41.92600 23.56800
H  42.13100 47.96100 24.88800
H  40.75100 48.10100 26.04800
H  40.62900 47.18800 24.53100
H  40.93400 45.11100 30.26100
H  43.73400 46.30900 33.18900
H  42.35100 47.35900 33.64100
H  43.57200 47.81100 32.34500

