158

Mg 46.61200 16.00600 28.35500
C  44.30100 15.53900 31.00700
C  48.70900 17.47700 30.62900
C  48.49900 16.53200 25.79600
C  43.88400 14.87700 26.15900
N  46.49000 16.54000 30.52400
C  45.49300 16.06800 31.38100
C  45.85500 16.50300 32.85500
C  47.23500 17.22900 32.73900
C  47.48800 17.09000 31.21900
C  47.20300 18.76900 33.12100
C  46.06600 15.23800 33.73000
C  45.38400 15.40200 35.13500
H  45.23000 16.79500 35.71700
N  48.35800 16.88000 28.15900
C  49.14600 17.37500 29.24000
C  50.42800 17.86400 28.79100
C  50.41800 17.61700 27.38900
C  49.07900 16.95700 27.05300
C  51.39700 18.43200 29.79500
C  51.54700 17.66700 26.39600
O  51.31100 17.47000 25.23200
C  52.90400 18.17000 26.74200
N  46.30700 15.70500 26.30400
C  47.27200 16.00000 25.40500
C  46.70300 15.86400 24.00600
C  45.31100 15.14600 24.16200
C  45.14100 15.31500 25.60500
C  46.52600 17.28600 23.34000
C  45.36000 13.68200 23.61900
C  44.22600 13.31300 22.71100
N  44.58800 15.14600 28.50400
C  43.69000 14.68700 27.52700
C  42.58700 14.02300 28.19200
C  42.76900 14.39600 29.56500
C  43.97400 15.09300 29.64500
C  41.35500 13.48300 27.58700
C  42.14100 14.44700 30.88700
O  41.05800 14.08700 31.27500
C  43.14900 15.12600 31.85800
C  42.48300 16.22500 32.57400
O  42.47000 17.39900 32.24600
O  41.85300 15.76800 33.72400
C  41.23200 16.66000 34.76400
H  49.42000 17.81100 31.38700
H  49.07100 16.51500 24.86600
H  43.12000 14.51100 25.46900
H  45.04100 17.18400 33.10400
H  48.04400 16.76700 33.30500
H  46.21700 18.97000 33.53900
H  47.31100 19.39100 32.23200
H  47.95000 19.15500 33.81500
H  47.12500 14.99300 33.81000
H  45.67200 14.43200 33.11000
H  46.04900 14.76700 35.72000
H  44.43100 14.87400 35.16800
H  52.45200 18.39100 29.52300
H  51.44500 17.86300 30.72300
H  51.13800 19.43900 30.12300
H  53.20600 17.39300 27.44500
H  52.82900 19.07700 27.34200
H  53.57200 18.40000 25.91200
H  47.45200 15.28400 23.46700
H  44.53000 15.69300 23.63400
H  46.36400 17.21400 22.26500
H  47.33200 17.99000 23.55100
H  45.65400 17.63100 23.89600
H  45.54000 12.96900 24.42400
H  46.24600 13.65400 22.98400
H  44.44500 12.53900 21.97600
H  44.00600 14.24300 22.18700
H  43.38100 13.03600 23.34300
H  41.63200 12.65300 26.93700
H  40.84500 14.24200 26.99300
H  40.56700 13.12400 28.24900
H  43.60400 14.40800 32.53900
H  40.26300 16.18200 34.90400
H  41.13400 17.70500 34.46800
H  41.88100 16.70600 35.63900
Mg -2.10600 34.80100 26.41300
C  -3.80900 33.11200 29.09100
C  -1.20900 37.14200 28.86900
C  -0.95600 36.74900 23.92800
C  -3.73500 32.78200 24.24900
N  -2.52900 35.10600 28.67800
C  -3.08400 34.20000 29.52200
C  -2.73500 34.42200 30.99700
C  -2.08400 35.86000 30.90800
C  -1.85600 36.03800 29.40200
C  -2.84300 36.96100 31.59700
C  -1.73400 33.35000 31.67700
C  -2.04700 33.05500 33.16100
H  -0.90400 33.18700 34.15200
N  -1.04900 36.63300 26.40200
C  -0.74300 37.37800 27.47300
C  0.02900 38.50200 27.02700
C  0.09900 38.38700 25.56600
C  -0.63400 37.25500 25.21500
C  0.61900 39.58200 27.97900
C  0.94100 39.26900 24.57100
O  1.05200 38.97900 23.37700
C  1.66500 40.50600 24.97200
N  -2.38400 34.79600 24.41400
C  -1.72700 35.65700 23.56000
C  -2.00900 35.40500 22.08800
C  -2.69000 33.96900 22.24400
C  -2.97500 33.82200 23.74000
C  -2.85000 36.48000 21.35200
C  -1.76300 32.79000 21.64400
C  -0.24400 32.62000 22.00400
N  -3.52600 33.24400 26.58800
C  -4.00000 32.46300 25.58500
C  -4.71100 31.34800 26.22000
C  -4.63100 31.58900 27.58500
C  -3.92900 32.72600 27.73100
C  -5.54100 30.30900 25.51100
C  -5.07900 31.07000 28.87700
O  -5.78500 30.09000 29.09800
C  -4.44600 31.97900 29.95700
C  -5.53000 32.45100 30.86900
O  -6.58300 32.86600 30.41900
O  -5.22000 32.37400 32.25400
C  -6.34600 32.63000 33.18800
H  -0.82300 37.81500 29.63800
H  -0.54400 37.27200 23.06200
H  -4.07400 32.10000 23.46700
H  -3.73500 34.44700 31.42900
H  -1.12600 35.87000 31.42700
H  -3.81600 36.70800 32.01700
H  -2.99300 37.70700 30.81600
H  -2.19500 37.38200 32.36600
H  -0.72200 33.74500 31.58600
H  -1.76900 32.43300 31.08800
H  -2.55700 32.09200 33.16900
H  -2.83500 33.73800 33.48000
H  1.65600 39.78500 27.71100
H  0.59700 39.39800 29.05300
H  -0.00200 40.39600 27.60600
H  1.00600 41.07500 25.62700
H  1.90400 41.13900 24.11700
H  2.65000 40.32100 25.40100
H  -1.05400 35.19500 21.60500
H  -3.65300 33.80800 21.76000
H  -3.11300 37.35400 21.94900
H  -3.77100 36.13700 20.88000
H  -2.16600 36.80500 20.56800
H  -1.83600 32.89300 20.56100
H  -2.25500 31.87900 21.98500
H  -0.21200 31.92300 22.84100
H  0.24900 33.52200 22.36400
H  0.28800 32.29400 21.11000
H  -5.35900 30.22700 24.43900
H  -6.56600 30.55700 25.78700
H  -5.27600 29.29500 25.80900
H  -3.64100 31.44700 30.46300
H  -7.08200 33.31200 32.76100
H  -5.89500 32.99000 34.11200
H  -6.92100 31.74200 33.45200

