158

Mg 46.87900 25.16300 28.88000
C  47.68800 27.44000 31.36600
C  46.25700 22.96200 31.16400
C  46.26900 23.00200 26.40000
C  48.48000 27.34300 26.41500
N  46.73800 25.25700 31.05500
C  47.02000 26.34400 31.85900
C  46.81500 26.06300 33.32500
C  46.49000 24.44800 33.29400
C  46.56000 24.16000 31.74900
C  47.29900 23.39500 34.11900
C  45.61300 26.78200 33.97900
C  45.88100 27.49100 35.32500
H  44.75400 27.53700 36.38000
N  46.32900 23.16000 28.84000
C  46.16700 22.39800 29.90800
C  45.70800 21.08500 29.47800
C  45.70900 21.09700 28.02600
C  46.01100 22.51100 27.70100
C  45.26500 20.05500 30.52000
C  45.45700 20.00400 26.95300
O  45.18500 20.15600 25.79600
C  45.36500 18.56600 27.35500
N  47.34100 25.17800 26.66600
C  46.79100 24.20600 25.92300
C  46.89600 24.55700 24.42200
C  47.58200 25.96800 24.45300
C  47.82300 26.23000 25.93100
C  47.57000 23.48000 23.44300
C  46.53000 26.92600 23.93400
C  47.05500 28.14800 23.21600
N  47.86100 26.97100 28.81900
C  48.52200 27.68200 27.84300
C  49.10400 28.86300 28.42500
C  48.74900 28.82900 29.75900
C  48.06200 27.63500 30.02900
C  49.85100 30.00400 27.68200
C  48.89200 29.56900 31.04500
O  49.43000 30.66400 31.20300
C  48.16600 28.74700 32.11400
C  49.19200 28.53800 33.18700
O  50.28400 28.05900 33.05900
O  48.74000 29.14600 34.32200
C  49.51600 28.95500 35.58500
H  46.06100 22.23200 31.95200
H  46.05100 22.32600 25.57000
H  48.93900 27.93800 25.62200
H  47.76900 26.28500 33.80400
H  45.43900 24.31700 33.54900
H  47.99900 22.85600 33.48000
H  46.69200 22.75300 34.75800
H  47.82400 24.04200 34.82200
H  44.78000 26.07900 33.97400
H  45.31700 27.56200 33.27800
H  46.09400 28.54900 35.17100
H  46.75500 27.02100 35.77600
H  45.86300 19.14500 30.55700
H  44.32900 19.60000 30.19400
H  45.01600 20.48900 31.48800
H  44.54000 18.26300 27.99900
H  46.30300 18.24700 27.81000
H  45.35600 17.83400 26.54700
H  45.86400 24.52500 24.07300
H  48.51100 25.95000 23.88300
H  47.42300 22.42200 23.66200
H  48.65700 23.56100 23.47000
H  47.21400 23.57400 22.41800
H  45.83100 27.33300 24.66500
H  45.91000 26.47200 23.16200
H  47.06100 29.04700 23.83300
H  46.40500 28.40000 22.37800
H  48.06800 27.96800 22.85500
H  49.46000 30.10900 26.67000
H  50.90900 29.74200 27.70700
H  49.72100 30.92700 28.24600
H  47.34800 29.33200 32.53400
H  48.94900 28.20800 36.14100
H  49.55600 29.93100 36.06900
H  50.50900 28.50900 35.53800
Mg 42.41000 41.19200 26.35100
C  41.55100 43.78700 28.53000
C  43.38300 39.34300 29.20600
C  43.44400 38.84100 24.31100
C  41.87500 43.30700 23.58800
N  42.45500 41.57300 28.69000
C  41.95300 42.69200 29.28800
C  41.85000 42.58100 30.78800
C  42.44700 41.10200 31.02600
C  42.74600 40.60300 29.59700
C  43.69300 41.02400 32.00300
C  40.34300 42.50600 31.25000
C  40.01800 43.23300 32.56600
H  39.34700 42.52500 33.70700
N  43.43300 39.40700 26.72800
C  43.72400 38.81400 27.94500
C  44.32500 37.48000 27.65000
C  44.20000 37.25900 26.27300
C  43.70600 38.50000 25.70000
C  44.78200 36.52100 28.71400
C  44.43000 35.97500 25.42500
O  44.30900 35.93500 24.21400
C  44.82400 34.69700 26.12200
N  42.65600 41.16900 24.24600
C  43.01400 40.00600 23.65700
C  42.92700 40.12500 22.16700
C  42.56000 41.53400 21.88400
C  42.37000 42.10300 23.36800
C  44.23900 39.70100 21.39200
C  41.30700 41.72700 21.02200
C  41.21900 42.84500 19.94600
N  41.61400 43.00700 26.08600
C  41.56600 43.78900 24.93000
C  41.06600 45.15200 25.25600
C  41.02300 45.14400 26.67800
C  41.42100 43.87300 27.11400
C  40.87700 46.23500 24.26200
C  40.87200 46.05200 27.79400
O  40.69600 47.27000 27.79200
C  41.07300 45.12400 29.07500
C  42.13200 45.87300 29.88400
O  43.30300 45.89300 29.67300
O  41.45000 46.50500 30.92800
C  42.21700 46.94000 32.05400
H  43.50300 38.65000 30.04200
H  43.76300 38.07100 23.60700
H  41.64700 44.00500 22.77900
H  42.44800 43.41100 31.16300
H  41.67500 40.43900 31.41700
H  43.51800 40.20000 32.69500
H  43.92800 41.86400 32.65700
H  44.65100 40.73700 31.56900
H  40.12100 41.43900 31.22100
H  39.66300 42.80800 30.45400
H  39.34200 43.99800 32.18300
H  40.88300 43.68900 33.04900
H  44.06100 35.70400 28.75100
H  44.92400 37.08100 29.63900
H  45.72300 36.13500 28.32300
H  44.21700 34.46300 26.99600
H  45.89200 34.72500 26.33900
H  44.58200 33.91500 25.40300
H  42.18900 39.44500 21.74100
H  43.39200 42.05200 21.40700
H  44.65000 40.43700 20.70000
H  43.90700 38.91500 20.71400
H  44.99500 39.23000 22.02100
H  40.43500 41.90800 21.65100
H  41.04900 40.89100 20.37100
H  42.22100 43.16100 19.65700
H  40.64700 43.63200 20.43700
H  40.79500 42.40300 19.04400
H  40.70400 45.77600 23.28800
H  41.75200 46.87600 24.15500
H  39.97800 46.79700 24.51300
H  40.18100 45.05500 29.69800
H  43.28000 47.15300 31.93800
H  42.02800 46.19400 32.82600
H  41.71700 47.83900 32.41400

