158

Mg 16.66700 52.10800 26.21300
C  18.57200 50.57400 28.70300
C  14.25400 52.70400 28.48200
C  14.93800 53.42800 23.66600
C  18.96600 50.71000 23.87600
N  16.49300 51.74500 28.36300
C  17.45600 51.22700 29.19300
C  17.02200 51.47100 30.66600
C  15.52500 51.78100 30.44800
C  15.36100 52.05200 28.98800
C  14.59900 50.60200 30.96400
C  17.91900 52.55100 31.35300
C  18.18200 52.40700 32.95100
H  17.10400 52.02100 33.93800
N  14.88200 53.06000 26.14100
C  14.03800 53.23900 27.19400
C  12.89600 53.97200 26.70900
C  13.01300 54.06700 25.25000
C  14.34500 53.54900 24.96000
C  11.75600 54.32900 27.62900
C  12.02200 54.57400 24.22900
O  12.26600 54.53700 23.06000
C  10.76800 55.27200 24.60900
N  16.82700 51.97500 23.93100
C  16.03800 52.68300 23.14500
C  16.48700 52.61400 21.67000
C  17.86400 51.72800 21.75900
C  17.96000 51.42700 23.27000
C  15.35100 51.91400 20.84500
C  19.15200 52.42200 21.20700
C  19.40600 53.84500 21.67500
N  18.35400 50.86100 26.18900
C  19.16700 50.38000 25.20900
C  20.26800 49.62400 25.75000
C  20.15900 49.76400 27.10400
C  18.97200 50.49700 27.32900
C  21.39400 48.96000 25.00200
C  20.69800 49.35700 28.39700
O  21.76500 48.67300 28.54500
C  19.74800 49.95900 29.47900
C  19.22000 48.99000 30.52500
O  18.30700 48.21800 30.41100
O  19.93600 49.23600 31.67900
C  19.54800 48.38900 32.82800
H  13.52900 52.90800 29.27300
H  14.60900 54.05900 22.83800
H  19.75900 50.37900 23.20300
H  17.13600 50.55500 31.24600
H  15.29200 52.71700 30.95500
H  15.11300 49.65300 31.11900
H  13.85400 50.36000 30.20600
H  13.94100 50.89000 31.78400
H  17.62400 53.59500 31.25300
H  18.87300 52.41700 30.84400
H  18.70400 53.23700 33.42700
H  18.82100 51.54100 33.12200
H  11.43300 55.36800 27.55500
H  12.20200 54.37400 28.62300
H  10.94700 53.62100 27.44900
H  10.31400 54.68400 25.40600
H  10.01500 55.34400 23.82400
H  11.19500 56.20500 24.97700
H  16.61700 53.62300 21.28100
H  17.85100 50.79300 21.19900
H  15.79300 51.28700 20.07000
H  14.67800 52.55900 20.28000
H  14.90400 51.19600 21.53400
H  19.21300 52.37500 20.11900
H  19.92200 51.81700 21.68500
H  20.47200 53.94200 21.88100
H  18.87100 54.02100 22.60800
H  19.15900 54.50600 20.84400
H  21.05300 48.71400 23.99700
H  21.52800 47.99100 25.48200
H  22.26600 49.61500 24.98900
H  20.09500 50.85500 29.99400
H  20.26100 48.54100 33.63900
H  19.53300 47.30400 32.72600
H  18.55100 48.70000 33.13900
Mg 0.39700 42.51800 24.96700
C  1.31500 42.61200 28.37700
C  -2.68000 41.22300 26.02800
C  -0.26100 42.07200 21.81600
C  3.76200 43.21300 24.15700
N  -0.49200 41.87400 27.02100
C  -0.00100 42.27400 28.20800
C  -0.98600 41.99900 29.36100
C  -2.19900 41.17500 28.68300
C  -1.79500 41.44500 27.14700
C  -2.45000 39.65600 28.87700
C  -1.41300 43.47900 29.83100
C  -1.56600 43.55400 31.34700
H  -2.04400 42.39600 32.16800
N  -1.21100 41.85700 24.06700
C  -2.41100 41.40100 24.60100
C  -3.36500 41.19000 23.55800
C  -2.70000 41.42300 22.36100
C  -1.37100 41.86200 22.71100
C  -4.77500 40.51300 23.84600
C  -3.32900 41.31900 20.99500
O  -2.63800 41.53300 19.96800
C  -4.76200 40.83900 20.75700
N  1.58800 42.60200 23.19000
C  1.10900 42.33100 21.99400
C  2.14600 42.48900 20.86600
C  3.31100 43.28400 21.61600
C  2.87400 43.10100 23.12200
C  2.52600 41.13000 20.20800
C  3.46300 44.77600 21.17000
C  4.07300 45.17900 19.87700
N  2.18300 42.88200 25.99400
C  3.48000 43.09700 25.54000
C  4.38500 43.22600 26.66800
C  3.56500 43.12600 27.83300
C  2.23400 42.88900 27.33500
C  5.90600 43.50600 26.63500
C  3.55600 43.12000 29.26400
O  4.46800 43.14200 30.04400
C  2.09500 42.90500 29.67900
C  1.93600 41.73800 30.66000
O  2.49100 40.67300 30.49500
O  1.23400 42.05000 31.83900
C  1.18600 40.90300 32.77700
H  -3.72100 41.00300 26.27700
H  -0.41800 41.87200 20.75400
H  4.78400 43.42400 23.83800
H  -0.60600 41.42400 30.20600
H  -3.19700 41.60200 28.78000
H  -1.73600 39.35400 29.64400
H  -2.28000 39.14900 27.92800
H  -3.45000 39.45100 29.25800
H  -2.34100 43.81800 29.37100
H  -0.68300 44.21400 29.49300
H  -2.25300 44.39600 31.42500
H  -0.66300 44.00700 31.75600
H  -4.95800 39.99600 24.78700
H  -4.77700 39.69400 23.12700
H  -5.56300 41.23900 23.64400
H  -4.87400 39.78400 21.00700
H  -5.00000 40.90600 19.69500
H  -5.49100 41.42700 21.31400
H  1.59600 43.10100 20.15100
H  4.17800 42.73400 21.25100
H  2.03400 41.04300 19.23900
H  2.10300 40.31900 20.80100
H  3.59800 40.94600 20.14600
H  3.96400 45.22700 22.02600
H  2.49300 45.25700 21.29700
H  4.80900 45.97200 20.01000
H  3.23300 45.51100 19.26700
H  4.52800 44.35700 19.32600
H  6.27600 42.87700 27.44500
H  6.13800 44.52900 26.93300
H  6.39800 43.19400 25.71400
H  1.79200 43.78000 30.25500
H  0.48800 40.14600 32.42000
H  0.97500 41.26300 33.78400
H  2.12700 40.42600 33.05000

