158

Mg 47.70600 34.45400 27.25000
C  45.97000 33.02900 29.87200
C  47.71400 37.51400 29.20100
C  48.98600 36.15100 24.70500
C  47.10200 31.67100 25.28600
N  46.88500 35.18000 29.31600
C  46.42800 34.30800 30.29200
C  46.45700 35.00100 31.62000
C  46.61100 36.50400 31.25300
C  47.09500 36.42900 29.82900
C  45.25300 37.31900 31.57800
C  47.45700 34.45200 32.68200
C  46.79400 34.16600 34.06200
H  45.61200 34.95000 34.51700
N  48.22400 36.55400 26.89200
C  48.23900 37.63400 27.83000
C  48.85800 38.82700 27.29900
C  49.36400 38.36300 26.01400
C  48.82400 36.98700 25.81300
C  48.96800 40.17400 28.03500
C  50.16600 39.08600 24.95800
O  50.63800 38.55700 23.97000
C  50.45900 40.65400 25.20000
N  47.71100 34.06500 25.15000
C  48.49000 34.83200 24.43600
C  48.76100 34.21800 23.10700
C  48.34800 32.73300 23.16700
C  47.73400 32.75100 24.63600
C  48.09800 34.98500 21.92900
C  49.51400 31.69200 22.86400
C  49.40500 30.53100 21.81100
N  46.73600 32.65900 27.42700
C  46.54800 31.57700 26.57100
C  45.75700 30.58300 27.20200
C  45.47000 31.09100 28.49300
C  46.10300 32.35900 28.59300
C  45.36000 29.28600 26.46500
C  44.90600 30.81200 29.78100
O  44.40100 29.74100 30.15300
C  45.15400 32.05900 30.67600
C  45.69500 31.57300 31.97700
O  46.83600 31.21500 32.15800
O  44.75600 31.48200 32.95500
C  44.99900 30.67300 34.18900
H  47.54800 38.44100 29.75300
H  49.61100 36.59000 23.92400
H  47.08500 30.74100 24.71300
H  45.43800 34.82800 31.96500
H  47.42000 37.04700 31.74200
H  44.70000 37.50600 30.65700
H  45.43900 38.28600 32.04400
H  44.53900 36.76800 32.19000
H  48.21100 35.23100 32.79300
H  47.87700 33.51000 32.32800
H  47.59300 34.08100 34.79800
H  46.43400 33.14400 33.95100
H  48.66900 40.08500 29.07900
H  48.38200 40.93300 27.51700
H  50.00600 40.48300 28.15600
H  49.58700 41.21000 25.54600
H  50.86600 41.03900 24.26500
H  51.28800 40.68500 25.90700
H  49.83300 34.35400 22.96300
H  47.53100 32.56700 22.46400
H  47.87800 34.31500 21.09800
H  48.72700 35.82900 21.64500
H  47.17800 35.50100 22.20700
H  49.78400 31.15300 23.77200
H  50.42700 32.24800 22.64900
H  49.64700 29.68200 22.44900
H  50.11400 30.69800 21.00000
H  48.41000 30.44500 21.37300
H  46.23700 28.78400 26.05800
H  44.72400 29.50100 25.60500
H  44.75900 28.57300 27.02800
H  44.12500 32.37900 30.84200
H  44.69600 31.27200 35.04800
H  46.03700 30.34200 34.24400
H  44.34000 29.81100 34.09300
Mg -9.26200 18.21000 41.05900
C  -5.83400 17.64000 41.41100
C  -8.56300 21.46900 40.26800
C  -12.45900 18.56900 40.29800
C  -9.76900 14.72400 41.42800
N  -7.41300 19.24800 40.74200
C  -6.12400 18.89100 40.85900
C  -5.20100 19.98600 40.36000
C  -6.05200 21.27200 40.81400
C  -7.46300 20.64600 40.61000
C  -5.82800 21.74300 42.31000
C  -4.93100 19.85900 38.87800
C  -3.46900 19.42400 38.46000
H  -3.31600 17.96300 38.08900
N  -10.45800 19.85400 40.42500
C  -9.97100 21.08800 40.16000
C  -11.08900 21.93700 39.82400
C  -12.25900 21.18400 40.11200
C  -11.77300 19.82100 40.28200
C  -10.93900 23.32900 39.21400
C  -13.67800 21.73900 40.09900
O  -13.87200 22.91400 39.87000
C  -14.80400 20.83000 40.29400
N  -10.83600 16.86400 40.83000
C  -12.10300 17.28300 40.48900
C  -13.09000 16.15400 40.25100
C  -12.21500 14.92300 40.69600
C  -10.86000 15.53900 41.07900
C  -14.45900 16.36300 40.88700
C  -12.18600 13.83400 39.66900
C  -12.71100 12.45300 40.13200
N  -8.06600 16.50500 41.40900
C  -8.42100 15.15500 41.49900
C  -7.23300 14.35500 41.70700
C  -6.23500 15.33600 41.72700
C  -6.77100 16.60400 41.52200
C  -7.21100 12.92600 41.99700
C  -4.76100 15.48400 41.94600
O  -3.93000 14.67400 42.30800
C  -4.48700 17.02800 41.70600
C  -3.74400 17.61600 42.89800
O  -4.21200 18.56800 43.53000
O  -2.43000 17.32400 42.92700
C  -1.65400 18.06700 43.88500
H  -8.27000 22.50500 40.09100
H  -13.47900 18.83300 40.00800
H  -9.91600 13.65900 41.61800
H  -4.24100 20.11500 40.85900
H  -5.75200 22.10100 40.17400
H  -5.09300 21.22000 42.92200
H  -6.79400 21.78300 42.81500
H  -5.50300 22.77800 42.41000
H  -5.30900 20.79000 38.45700
H  -5.58800 19.05500 38.54600
H  -2.78500 19.72300 39.25500
H  -3.17000 20.10900 37.66700
H  -11.35700 23.39900 38.21000
H  -9.90700 23.65700 39.09300
H  -11.47600 23.95800 39.92500
H  -15.61900 21.49900 40.57100
H  -14.46600 20.27000 41.16500
H  -14.99400 20.26500 39.38100
H  -13.17400 16.02100 39.17200
H  -12.49400 14.48800 41.65600
H  -14.66000 15.51600 41.54200
H  -15.34400 16.40500 40.25200
H  -14.52200 17.24300 41.52900
H  -11.16000 13.64300 39.35600
H  -12.65400 14.07300 38.71400
H  -13.18300 12.47800 41.11400
H  -11.89000 11.74300 40.22200
H  -13.38500 12.08100 39.36000
H  -7.60700 12.30000 41.19700
H  -7.78800 12.71300 42.89700
H  -6.17700 12.61700 42.14800
H  -3.81500 17.05100 40.84800
H  -1.24000 18.85300 43.25400
H  -0.78200 17.62200 44.36400
H  -2.24000 18.50900 44.69000

