158

Mg 45.06700 4.38600 47.03300
C  43.35800 7.50400 46.73100
C  41.97600 2.91200 46.37300
C  46.78700 1.57800 46.59500
C  48.15500 6.21500 46.87100
N  42.80500 5.24800 46.48700
C  42.39900 6.51000 46.50900
C  40.86600 6.51800 46.25500
C  40.52100 4.97800 46.23000
C  41.81700 4.32700 46.37700
C  39.46900 4.59000 47.30000
C  40.34300 7.35500 44.97700
C  41.25900 7.37300 43.69600
H  40.72000 6.42600 42.63200
N  44.48600 2.47500 46.58400
C  43.16500 2.07700 46.36100
C  43.24900 0.64800 46.10800
C  44.62100 0.21600 46.33300
C  45.36300 1.45200 46.54000
C  42.10700 -0.15800 45.74900
C  45.16100 -1.15300 46.14700
O  44.35300 -2.00100 45.79200
C  46.57400 -1.51300 46.36300
N  47.20800 3.94400 46.59600
C  47.58800 2.67400 46.66000
C  49.18500 2.53200 46.66500
C  49.61500 4.03800 46.65500
C  48.22600 4.81700 46.71500
C  49.57800 1.74100 47.94700
C  50.45700 4.47200 45.45300
C  51.70100 3.62900 45.05200
N  45.70800 6.36800 46.94800
C  46.93600 6.94700 46.86000
C  46.84500 8.38600 46.85000
C  45.43000 8.61400 46.86500
C  44.78400 7.40800 46.97800
C  47.94000 9.37500 46.97000
C  44.35200 9.66900 46.88400
O  44.37800 10.89600 46.80000
C  42.94900 8.89900 46.74400
C  42.20200 9.28900 47.97800
O  42.11300 8.59700 49.00300
O  41.42400 10.41300 47.75800
C  40.49800 10.57200 48.85700
H  40.99200 2.43800 46.37200
H  47.49100 0.74400 46.60000
H  49.11700 6.73200 46.86500
H  40.55200 7.03800 47.16000
H  40.06100 4.69200 45.28400
H  39.85900 3.84600 47.99500
H  38.63200 4.18000 46.73500
H  39.25800 5.42400 47.97000
H  40.00400 8.34000 45.29600
H  39.40000 6.87100 44.72100
H  42.28100 7.03100 43.86000
H  41.25900 8.39000 43.30500
H  41.84700 -0.96500 46.43300
H  42.15700 -0.66500 44.78500
H  41.20400 0.44700 45.66900
H  46.83000 -2.57000 46.29100
H  46.93900 -1.16200 47.32800
H  47.09800 -1.13300 45.48600
H  49.56200 2.14700 45.71800
H  50.07800 4.35600 47.58900
H  49.73000 0.70300 47.65000
H  48.80900 1.71700 48.71900
H  50.49500 2.04600 48.45000
H  50.71800 5.48600 45.75600
H  49.86500 4.52900 44.54000
H  51.70500 3.16000 44.06900
H  51.85400 2.83400 45.78300
H  52.61700 4.21900 45.08600
H  48.68800 9.09200 47.71100
H  47.46300 10.32600 47.20900
H  48.59900 9.47000 46.10700
H  42.60500 9.37700 45.82700
H  39.81000 9.73000 48.92600
H  39.90600 11.45700 48.62400
H  41.09000 10.71300 49.76200
Mg 43.06100 41.57500 27.34200
C  42.23000 43.81300 29.77400
C  43.71400 39.19100 29.80800
C  44.40100 39.44100 24.93400
C  42.78600 44.06700 24.97200
N  43.09500 41.50400 29.55900
C  42.55800 42.53000 30.29400
C  42.42600 42.05800 31.78200
C  43.26000 40.76200 31.81100
C  43.42300 40.46500 30.28900
C  44.72800 41.04100 32.46600
C  40.90400 41.86600 32.11600
C  40.33900 42.76400 33.27100
H  39.80500 42.26500 34.66100
N  43.87000 39.59600 27.36000
C  43.95300 38.81000 28.47100
C  44.43800 37.51800 27.99600
C  44.64700 37.49200 26.61000
C  44.29100 38.89300 26.24800
C  44.74700 36.38800 28.93300
C  45.08800 36.32300 25.73100
O  45.36400 36.53200 24.55200
C  45.16400 34.93600 26.15900
N  43.31000 41.69800 25.26100
C  43.96800 40.69700 24.44700
C  44.05800 41.14400 22.96300
C  43.30000 42.49600 23.02500
C  43.05500 42.79100 24.53700
C  45.49200 41.14400 22.32100
C  42.00600 42.49500 22.17000
C  40.75400 41.66600 22.56500
N  42.60400 43.53900 27.34100
C  42.48700 44.43400 26.28600
C  41.98700 45.72400 26.76800
C  41.81400 45.56200 28.15300
C  42.30500 44.22300 28.43200
C  41.78500 46.99700 25.94400
C  41.42900 46.09500 29.40800
O  40.99000 47.18200 29.73300
C  41.67000 44.98900 30.48300
C  42.64800 45.52300 31.57100
O  43.88200 45.75100 31.59700
O  41.92000 45.53900 32.76400
C  42.71700 46.14100 33.92800
H  44.01300 38.45200 30.55400
H  44.89500 38.75100 24.24600
H  42.60700 44.86800 24.25100
H  42.93700 42.78500 32.41200
H  42.69100 39.98800 32.32600
H  45.55900 40.65100 31.87800
H  44.82000 40.52800 33.42300
H  44.94200 42.11000 32.48100
H  40.67000 40.81500 32.28400
H  40.27500 42.03500 31.24200
H  39.60200 43.35700 32.73000
H  41.18300 43.33600 33.65500
H  43.94000 35.65600 28.97400
H  44.81000 36.82100 29.93100
H  45.72800 35.99500 28.66600
H  46.00400 34.38400 26.58000
H  44.78600 34.54700 25.21300
H  44.26100 34.83400 26.76000
H  43.44100 40.43400 22.41200
H  43.97500 43.22000 22.56900
H  45.39100 40.66000 21.34900
H  46.05800 40.57200 23.05600
H  46.01700 42.09900 22.29800
H  42.40100 42.18000 21.20500
H  41.70600 43.53800 22.07000
H  40.45400 40.93200 21.81700
H  39.95000 42.38400 22.72500
H  40.92800 41.01400 23.42100
H  42.02300 47.89600 26.51200
H  40.73500 47.01000 25.65000
H  42.29800 46.91300 24.98600
H  40.72700 44.69800 30.94600
H  42.73300 47.19200 33.64000
H  43.68700 45.69400 34.14400
H  42.17200 46.09800 34.87200

