158

Mg 41.39300 7.60300 29.16400
C  43.08600 9.08800 31.79700
C  39.22300 6.10900 31.39500
C  39.98700 5.94200 26.52300
C  44.06100 8.52700 27.06100
N  41.23700 7.59200 31.30100
C  41.86400 8.46900 32.19100
C  41.21600 8.53200 33.55200
C  40.18200 7.30300 33.40300
C  40.25200 6.90100 31.95800
C  40.60600 6.03400 34.30600
C  40.60100 9.93800 33.86300
C  40.18900 10.16300 35.32200
H  40.92400 11.04800 36.23500
N  39.67200 6.36600 28.98900
C  38.96000 5.90300 30.00900
C  37.84900 5.13000 29.48000
C  37.94900 5.14800 28.01100
C  39.24800 5.76100 27.74600
C  36.78900 4.53300 30.38400
C  37.00900 4.64900 26.91000
O  37.24200 4.70800 25.69400
C  35.68200 4.26300 27.29800
N  41.89400 7.29600 27.06300
C  41.16700 6.58200 26.19600
C  41.74700 6.71600 24.71600
C  42.93400 7.70500 24.92100
C  42.94100 7.91800 26.46000
C  42.08300 5.27100 24.24300
C  42.71500 9.03800 24.11900
C  41.68600 10.04300 24.60500
N  43.16700 8.57500 29.26500
C  44.19400 8.81000 28.34500
C  45.27700 9.61300 28.96200
C  44.90700 9.74700 30.30300
C  43.67900 9.04900 30.44700
C  46.51200 10.10800 28.33900
C  45.22700 10.34200 31.59300
O  46.14000 11.08000 31.86400
C  44.03400 9.87300 32.61200
C  44.64900 9.11800 33.71900
O  44.67000 7.89600 33.84500
O  45.04100 10.01900 34.71200
C  45.33800 9.39200 36.03400
H  38.69600 5.59800 32.20300
H  39.59700 5.51300 25.59700
H  44.75400 8.99500 26.35900
H  41.90600 8.24800 34.34700
H  39.16800 7.68900 33.50900
H  41.06900 6.26900 35.26500
H  41.27800 5.37700 33.75300
H  39.72800 5.46600 34.61300
H  39.70500 10.02800 33.24800
H  41.32200 10.74800 33.75000
H  40.22800 9.19000 35.81100
H  39.14300 10.46800 35.34600
H  37.03300 4.53900 31.44600
H  36.60000 3.47000 30.23500
H  35.91500 5.16300 30.22100
H  35.16300 5.12400 27.71900
H  35.58600 3.43000 27.99400
H  35.20900 3.96200 26.36300
H  40.90000 7.14400 24.18000
H  43.92900 7.27100 24.82200
H  41.60300 4.53300 24.88600
H  43.15600 5.14400 24.38700
H  41.96700 5.07100 23.17700
H  42.48000 8.78200 23.08600
H  43.69300 9.51200 24.03800
H  40.80300 9.94200 23.97400
H  42.09700 11.04400 24.47900
H  41.33400 10.00500 25.63700
H  46.17100 10.23000 27.31100
H  47.31900 9.37800 28.40600
H  46.64600 11.06900 28.83400
H  43.53700 10.74800 33.03200
H  46.15700 8.68800 35.89400
H  44.56300 8.80400 36.52700
H  45.70800 10.19300 36.67500
Mg 53.34800 22.79600 43.84900
C  50.48700 24.52300 42.70900
C  51.79700 19.84200 43.42000
C  56.37700 21.32600 43.93100
C  54.85700 25.93300 44.36200
N  51.49400 22.19900 42.67600
C  50.45000 23.11500 42.51700
C  49.19200 22.24800 42.23700
C  49.51000 20.86500 42.84900
C  50.99700 20.90900 42.98800
C  48.67800 20.64000 44.20700
C  48.96900 22.12600 40.70800
C  47.80600 21.22200 40.24000
H  48.01000 20.17300 39.18900
N  53.99200 20.80800 43.67700
C  53.20700 19.75500 43.60400
C  53.99800 18.56200 43.54200
C  55.36200 18.89900 43.70500
C  55.27900 20.39800 43.76800
C  53.46200 17.12800 43.37300
C  56.55600 17.95900 43.62600
O  56.35800 16.73600 43.53700
C  58.00600 18.38700 43.66000
N  55.36000 23.53500 43.88800
C  56.42900 22.70700 44.07800
C  57.71800 23.52300 44.33400
C  57.24000 25.02400 44.46100
C  55.72500 24.84400 44.21000
C  58.68200 23.01200 45.43000
C  57.96400 25.95500 43.36900
C  57.21100 26.43200 42.12400
N  52.80100 24.78400 43.75500
C  53.46700 25.87900 44.05200
C  52.56700 26.98800 44.06500
C  51.41600 26.50300 43.50500
C  51.58400 25.14300 43.27000
C  52.70900 28.41500 44.62300
C  50.08100 26.85700 43.03800
O  49.40500 27.86100 43.16800
C  49.45400 25.52800 42.39700
C  49.40700 25.78800 40.95000
O  50.40200 26.02600 40.20000
O  48.14600 25.53100 40.46900
C  47.95100 25.78800 38.99900
H  51.20300 18.92700 43.39200
H  57.35400 20.85300 44.05100
H  55.28500 26.91100 44.58900
H  48.28600 22.68600 42.65400
H  49.27100 20.07300 42.13900
H  48.06100 19.76200 44.01600
H  48.09800 21.51300 44.50700
H  49.35800 20.37400 45.01600
H  49.87100 21.60700 40.38200
H  48.85200 23.11100 40.25800
H  47.07000 21.91000 39.82400
H  47.43900 20.68000 41.11200
H  53.89600 16.54700 42.56000
H  52.38700 17.25400 43.25000
H  53.63200 16.57300 44.29600
H  58.59500 17.53500 43.32000
H  58.13100 18.59100 44.72300
H  58.27300 19.29700 43.12300
H  58.30200 23.35600 43.42900
H  57.40800 25.39900 45.47100
H  58.12400 22.52900 46.23200
H  59.41000 23.75600 45.75400
H  59.31600 22.28300 44.92500
H  58.89400 25.50300 43.02400
H  58.43300 26.73600 43.96800
H  56.41600 25.74400 41.83500
H  57.89100 26.63200 41.29600
H  56.76700 27.38700 42.40600
H  52.21500 29.20600 44.06000
H  53.78400 28.59600 44.63700
H  52.29600 28.53600 45.62400
H  48.43300 25.35200 42.73500
H  48.54400 26.61500 38.60800
H  46.91200 25.96200 38.71900
H  48.19100 24.85400 38.49200

