158

Mg 47.57400 25.13500 28.14600
C  48.62700 27.38100 30.69200
C  47.12400 22.74900 30.51700
C  46.96800 22.96300 25.63900
C  48.60700 27.49900 25.76300
N  47.92900 25.08500 30.32700
C  48.20800 26.10800 31.14100
C  47.81300 25.79400 32.56600
C  47.42300 24.25800 32.53800
C  47.46700 23.99600 31.03200
C  48.41600 23.23500 33.24200
C  46.84800 26.85700 33.32100
C  46.29300 26.39300 34.64600
H  46.12100 27.34000 35.78700
N  47.04900 23.18400 28.09900
C  46.90300 22.39500 29.19400
C  46.42500 21.15400 28.77600
C  46.37900 21.14100 27.31000
C  46.82300 22.48100 26.94400
C  45.98900 19.98900 29.73600
C  45.89300 20.04800 26.36700
O  45.97100 20.26400 25.14000
C  45.46800 18.70200 26.81400
N  47.76100 25.20200 26.03600
C  47.48700 24.17200 25.23600
C  47.68300 24.48500 23.78300
C  47.92400 25.99400 23.83000
C  48.13400 26.23700 25.32700
C  48.81900 23.71500 23.06300
C  46.69800 26.81900 23.37200
C  46.88600 28.08800 22.44600
N  48.57300 26.97000 28.17100
C  48.89200 27.79600 27.09000
C  49.45200 29.04700 27.60000
C  49.29000 28.92100 29.01900
C  48.78300 27.63700 29.31700
C  50.09500 30.21200 26.89800
C  49.35100 29.63700 30.25900
O  49.72800 30.77400 30.52400
C  48.85800 28.65800 31.40500
C  49.94000 28.74900 32.43900
O  51.17000 28.51800 32.30400
O  49.37100 29.19400 33.57000
C  50.10600 29.19500 34.86600
H  46.86300 22.14300 31.38700
H  47.02900 22.29300 24.77900
H  48.99900 28.05000 24.90600
H  48.77900 25.81100 33.07200
H  46.46500 24.27000 33.05800
H  49.03000 22.65900 32.54900
H  47.69700 22.73800 33.89300
H  49.10100 23.77400 33.89700
H  46.13000 27.20400 32.57800
H  47.45400 27.70900 33.62700
H  47.00100 25.63700 34.98400
H  45.36500 25.83400 34.52100
H  45.13900 19.48700 29.27400
H  45.69200 20.53200 30.63300
H  46.83800 19.32900 29.90800
H  44.55000 18.87700 27.37400
H  46.32500 18.42900 27.43100
H  45.39300 18.09100 25.91500
H  46.80900 24.31200 23.15500
H  48.85000 26.27800 23.32900
H  48.43300 23.53000 22.06100
H  49.12700 22.85000 23.65100
H  49.76800 24.24400 22.97900
H  46.09200 27.14200 24.21800
H  46.05600 26.13900 22.81300
H  46.55600 27.85600 21.43300
H  47.89800 28.48000 22.34800
H  46.33100 28.94100 22.83500
H  50.59300 29.83300 26.00600
H  50.86200 30.64000 27.54300
H  49.38300 30.99300 26.63600
H  47.92300 28.96900 31.87100
H  49.66700 28.45200 35.53300
H  50.00300 30.18100 35.31900
H  51.15400 28.95000 34.69200
Mg 0.96000 42.94200 25.90200
C  3.17600 42.84100 28.72800
C  -1.59600 42.59200 28.18000
C  -1.06900 43.00500 23.32800
C  3.68100 43.50100 23.89700
N  0.83800 42.54000 28.19800
C  1.83600 42.66300 29.13000
C  1.22700 42.62500 30.49700
C  -0.21200 42.12700 30.28300
C  -0.35300 42.43400 28.76700
C  -0.57600 40.66700 30.70000
C  1.40900 44.10100 31.13500
C  1.21900 44.29800 32.62300
H  0.85400 43.00500 33.35400
N  -1.00300 42.93000 25.86500
C  -1.93200 42.80600 26.82900
C  -3.24600 42.80900 26.31100
C  -3.14000 43.06800 24.91400
C  -1.65300 43.02400 24.62500
C  -4.50200 42.49000 27.20100
C  -4.25400 43.26600 23.90200
O  -4.01800 43.47500 22.79000
C  -5.71200 43.14500 24.32500
N  1.20700 42.93400 23.81900
C  0.23600 43.00300 22.93000
C  0.79800 43.10600 21.56000
C  2.27100 43.73300 21.76200
C  2.43100 43.32500 23.29000
C  0.92300 41.74300 20.79600
C  2.24200 45.27500 21.68900
C  3.45500 45.96200 20.96500
N  3.00300 42.97400 26.15600
C  4.00200 43.32800 25.27800
C  5.24500 43.51200 25.92600
C  5.02500 43.29500 27.28200
C  3.62300 43.14200 27.42500
C  6.55200 44.00700 25.26000
C  5.59400 43.30400 28.62100
O  6.68100 43.66800 29.02200
C  4.43200 43.04800 29.57700
C  4.61100 41.84500 30.41700
O  4.74300 40.72000 30.07000
O  4.72700 42.28900 31.66700
C  5.04200 41.39100 32.77000
H  -2.46200 42.31100 28.78400
H  -1.68900 43.18200 22.44700
H  4.40500 43.83900 23.15200
H  1.78500 41.91200 31.10300
H  -0.87200 42.81800 30.80700
H  0.21000 40.25100 31.33000
H  -0.64900 40.14400 29.74600
H  -1.51800 40.66800 31.24900
H  0.71400 44.75200 30.60500
H  2.40300 44.40000 30.80100
H  0.42400 45.04000 32.68900
H  2.16900 44.72800 32.94000
H  -5.28200 42.06900 26.56700
H  -4.90000 43.30400 27.80700
H  -4.35200 41.71100 27.94900
H  -5.87400 43.85900 25.13300
H  -6.00300 42.10400 24.46500
H  -6.30900 43.49200 23.48200
H  0.25900 43.84500 20.96800
H  3.05500 43.28200 21.15400
H  1.99000 41.53200 20.73200
H  0.37900 41.70600 19.85200
H  0.47800 41.04300 21.50300
H  2.14500 45.82900 22.62300
H  1.40500 45.61900 21.08200
H  3.13800 46.60900 20.14700
H  4.13300 45.21400 20.55400
H  4.02800 46.56700 21.66800
H  6.51800 44.26400 24.20100
H  7.19000 43.12700 25.17200
H  7.08900 44.77500 25.81700
H  4.37100 43.93100 30.21200
H  4.87500 41.90200 33.71800
H  6.11200 41.20400 32.67100
H  4.46400 40.49300 32.55000

