158

Mg 44.02300 4.28600 46.65800
C  42.04900 7.27900 47.01400
C  41.15100 2.59400 46.14900
C  45.76600 1.65400 45.56100
C  46.93200 6.13000 46.55500
N  41.89400 4.97600 46.37400
C  41.28200 6.14900 46.72100
C  39.73400 6.09400 46.80300
C  39.54400 4.47300 46.81000
C  40.93600 3.97600 46.45700
C  39.09900 3.85000 48.18600
C  39.06100 6.88800 45.59200
C  39.92200 6.99800 44.26600
H  39.21900 6.87600 42.89100
N  43.46600 2.23100 46.16300
C  42.25600 1.72800 45.98400
C  42.25100 0.30400 45.62800
C  43.66900 0.04400 45.48000
C  44.40300 1.31600 45.67300
C  41.05000 -0.59900 45.48000
C  44.27600 -1.25200 45.06800
O  43.59900 -2.27800 44.94800
C  45.69100 -1.47000 44.94000
N  45.99500 3.95700 46.07300
C  46.44800 2.72400 45.85100
C  47.98800 2.62900 45.86800
C  48.38400 4.05200 46.17200
C  47.01000 4.76400 46.35500
C  48.54000 1.59500 46.90300
C  49.22700 4.71100 44.96500
C  50.73600 4.73500 44.94900
N  44.49600 6.26200 46.85200
C  45.72500 6.86800 46.76300
C  45.47900 8.31300 46.98900
C  44.05500 8.50100 47.14900
C  43.48800 7.21500 46.96500
C  46.48400 9.41200 46.81400
C  43.04800 9.46100 47.42200
O  43.11600 10.71200 47.58900
C  41.67900 8.70000 47.28900
C  40.92300 8.85800 48.59200
O  40.85700 8.00800 49.53200
O  40.15500 9.93300 48.55400
C  39.12400 9.87100 49.55400
H  40.23700 1.99700 46.14900
H  46.39100 0.87500 45.11900
H  47.82800 6.75500 46.53200
H  39.32900 6.50600 47.72800
H  38.85000 4.06300 46.07600
H  39.93300 3.37600 48.70300
H  38.34600 3.08500 47.99600
H  38.61000 4.63300 48.76500
H  38.80700 7.91700 45.84400
H  38.16300 6.29900 45.40500
H  40.61900 6.16600 44.36600
H  40.34000 7.98200 44.47700
H  40.75400 -0.88200 46.49100
H  41.33500 -1.31300 44.70800
H  40.19000 -0.10800 45.02400
H  46.33000 -1.22700 45.78900
H  46.04600 -0.91600 44.07000
H  45.95700 -2.50600 44.73000
H  48.34300 2.29700 44.89200
H  48.98100 4.15400 47.07800
H  49.41300 2.11100 47.30300
H  48.89700 0.65400 46.48500
H  47.85800 1.60200 47.75300
H  48.86400 5.71900 44.76700
H  48.94500 4.19000 44.05000
H  51.11400 3.88800 45.52200
H  51.13000 5.58300 45.50900
H  51.18600 4.71300 43.95600
H  46.06900 10.42000 46.81100
H  46.95100 9.35000 45.83100
H  47.22200 9.30400 47.60900
H  41.11000 9.16400 46.48400
H  38.39900 10.65500 49.33200
H  39.51400 9.89800 50.57100
H  38.51400 8.98000 49.41000
Mg 35.65300 0.93100 28.74200
C  33.53800 2.29800 31.39400
C  38.20600 1.04700 31.00500
C  37.68000 0.55200 26.15600
C  33.01000 1.55800 26.52200
N  35.87800 1.70400 30.86700
C  34.87900 2.11300 31.77500
C  35.47500 2.34900 33.13800
C  36.97100 2.10900 32.90800
C  37.02700 1.58300 31.53200
C  37.90200 3.25500 33.17500
C  34.81300 1.38600 34.21000
C  34.85300 2.03000 35.56600
H  35.74200 3.12700 35.96000
N  37.61300 0.45200 28.67000
C  38.53900 0.57500 29.73000
C  39.78100 0.17200 29.16900
C  39.60100 -0.09700 27.80000
C  38.23900 0.34700 27.45000
C  41.02600 0.10000 30.07400
C  40.59200 -0.57600 26.77300
O  40.38700 -0.61500 25.58400
C  41.99800 -0.96300 27.31700
N  35.32300 0.76600 26.64800
C  36.33000 0.62700 25.80900
C  35.92700 0.86100 24.36700
C  34.35100 0.86600 24.39900
C  34.20000 1.08400 25.94300
C  36.62200 2.00400 23.70100
C  33.56100 -0.49600 23.87900
C  32.56900 -0.31000 22.76600
N  33.65100 1.63900 28.95800
C  32.73800 1.85700 27.90500
C  31.48400 2.39200 28.46200
C  31.74400 2.54300 29.87800
C  33.04500 2.11800 30.05500
C  30.19100 2.62000 27.70700
C  31.24800 2.93700 31.06500
O  30.15200 3.43900 31.35900
C  32.37600 2.74500 32.17700
C  32.59500 4.01300 33.00400
O  33.42800 4.86500 32.69800
O  31.75000 4.01800 34.09500
C  31.85100 5.22500 34.87500
H  39.06700 1.07600 31.67500
H  38.33800 0.48200 25.28800
H  32.16400 1.80500 25.87600
H  35.24700 3.34300 33.52300
H  37.31500 1.28900 33.53800
H  38.76800 3.05500 33.80600
H  37.38900 4.15600 33.51100
H  38.17300 3.62200 32.18500
H  35.44900 0.51200 34.35000
H  33.79800 1.09200 33.94500
H  35.06200 1.24500 36.29300
H  33.90000 2.47700 35.85100
H  40.79600 0.26500 31.12700
H  41.73000 0.87900 29.78000
H  41.45800 -0.90000 30.02000
H  42.45100 -1.71000 26.66500
H  41.84100 -1.60600 28.18200
H  42.65900 -0.11300 27.49100
H  36.19700 -0.06200 23.85400
H  34.05600 1.65700 23.70800
H  35.94700 2.70000 23.20300
H  37.32600 1.59800 22.97500
H  37.19400 2.60500 24.40700
H  33.10400 -0.87000 24.79600
H  34.29900 -1.21500 23.52400
H  31.54100 -0.55600 23.03300
H  32.75300 -0.99400 21.93800
H  32.65900 0.72700 22.44300
H  29.61600 1.70900 27.86900
H  30.31000 2.73900 26.63000
H  29.64300 3.51000 28.01600
H  32.16100 1.85900 32.77500
H  31.74600 6.04100 34.16000
H  32.71600 5.36900 35.52300
H  31.01200 5.22500 35.57100

