158

Mg 25.37200 -5.76900 46.48700
C  27.13200 -2.88800 45.59500
C  22.79200 -4.84600 44.47200
C  23.98300 -8.82900 46.76600
C  28.23500 -6.84200 48.04000
N  24.97600 -4.04200 45.27600
C  25.93100 -3.04200 44.96600
C  25.44400 -2.12000 43.80200
C  23.87100 -2.57700 43.68800
C  23.82300 -3.88100 44.53600
C  22.98000 -1.51000 44.31600
C  26.22700 -2.19700 42.43500
C  26.40700 -1.01000 41.52200
H  25.55200 -1.04000 40.22600
N  23.57400 -6.69100 45.79800
C  22.57200 -6.10600 45.04800
C  21.50300 -7.03100 44.87400
C  21.79800 -8.18300 45.63800
C  23.12300 -7.89300 46.18300
C  20.21400 -6.79000 43.99300
C  20.90500 -9.31600 45.76400
O  19.87800 -9.35000 45.14400
C  21.27800 -10.46200 46.66800
N  26.06400 -7.60800 47.17100
C  25.26500 -8.74700 47.23400
C  25.90000 -9.87400 48.02900
C  27.34300 -9.23800 48.36500
C  27.24300 -7.83900 47.85300
C  25.09300 -10.50400 49.28200
C  28.53600 -10.05200 47.80500
C  29.52500 -10.77400 48.71600
N  27.25700 -5.02400 46.88500
C  28.33900 -5.55100 47.52700
C  29.47000 -4.67400 47.54900
C  28.98500 -3.60300 46.76800
C  27.61700 -3.84000 46.45300
C  30.82900 -4.87100 48.17100
C  29.41500 -2.28700 46.20500
O  30.39900 -1.63700 46.34200
C  28.24000 -1.88000 45.28900
C  27.86000 -0.53500 45.63800
O  28.23400 0.43000 45.00900
O  27.11400 -0.58300 46.80200
C  26.55100 0.65500 47.26800
H  21.91400 -4.64000 43.85600
H  23.69200 -9.88000 46.82400
H  29.13600 -7.12300 48.59000
H  25.56100 -1.09500 44.15300
H  23.48800 -2.70800 42.67600
H  23.46900 -0.54000 44.22200
H  22.81500 -1.60700 45.38900
H  22.09200 -1.40500 43.69400
H  25.77500 -3.03700 41.90700
H  27.19200 -2.62400 42.70800
H  27.45400 -1.02200 41.22000
H  26.22300 -0.14600 42.16000
H  19.99800 -7.53000 43.22200
H  20.35500 -5.89600 43.38600
H  19.40200 -6.66200 44.71000
H  21.49700 -10.04200 47.65000
H  22.03600 -11.15900 46.31000
H  20.46800 -11.16500 46.86000
H  25.92100 -10.66800 47.28300
H  27.53200 -9.22900 49.43900
H  25.43100 -9.98500 50.17900
H  25.31200 -11.57200 49.31700
H  24.05200 -10.20300 49.16500
H  29.26100 -9.43100 47.27900
H  28.16200 -10.79400 47.10000
H  29.08200 -10.94300 49.69800
H  30.30700 -10.05000 48.94000
H  29.93200 -11.64100 48.19500
H  31.42700 -3.96300 48.10300
H  31.32300 -5.74500 47.74800
H  30.77700 -5.13800 49.22700
H  28.50300 -1.85400 44.23200
H  25.48800 0.48000 47.43700
H  26.58400 1.43300 46.50400
H  27.06100 1.04700 48.14800
Mg 41.51200 8.28600 28.96600
C  43.27400 9.75700 31.51100
C  39.24700 6.95700 31.11600
C  39.70400 6.87400 26.27200
C  43.92000 9.37100 26.71000
N  41.33000 8.36700 31.04200
C  42.17200 8.95800 31.95600
C  41.65900 8.90500 33.35300
C  40.38000 8.03800 33.17400
C  40.27700 7.80600 31.71400
C  40.44600 6.73000 33.94400
C  41.44700 10.19600 34.29700
C  41.10700 9.95900 35.75500
H  41.50800 11.07800 36.70500
N  39.65400 7.12500 28.71900
C  38.93100 6.69600 29.73900
C  37.86500 5.91600 29.29200
C  37.88800 5.92800 27.88700
C  39.07100 6.67800 27.57100
C  36.72500 5.34800 30.22300
C  36.96100 5.27800 26.96600
O  37.26700 5.12700 25.78700
C  35.56600 4.76500 27.38100
N  41.82300 7.94500 26.80300
C  40.85900 7.50200 25.92400
C  41.35100 7.64900 24.44100
C  42.49200 8.76200 24.64800
C  42.85500 8.57400 26.14700
C  41.89100 6.34300 23.85300
C  42.03400 10.18800 24.34500
C  40.56900 10.57400 24.52800
N  43.32100 9.23500 29.08000
C  44.19800 9.62800 28.10500
C  45.26200 10.41900 28.63800
C  44.92300 10.58800 30.02700
C  43.76400 9.85500 30.19800
C  46.36800 11.06300 27.87200
C  45.31500 11.08900 31.28200
O  46.17000 11.87200 31.55500
C  44.22600 10.50100 32.33000
C  44.82400 9.62500 33.32900
O  45.33000 8.49100 33.19900
O  44.62600 10.17200 34.61200
C  45.05600 9.31000 35.68700
H  38.52400 6.61300 31.85900
H  39.09800 6.58800 25.41000
H  44.53100 9.81800 25.92300
H  42.39500 8.30600 33.89000
H  39.47000 8.53000 33.51700
H  39.46500 6.54600 34.38300
H  41.25400 6.82400 34.67000
H  40.65100 5.94900 33.21100
H  40.54300 10.67600 33.92000
H  42.29000 10.88600 34.27000
H  41.60500 9.02600 36.01900
H  40.01800 9.92600 35.72500
H  35.79100 5.85400 29.97800
H  37.00700 5.35300 31.27600
H  36.70800 4.30000 29.92400
H  34.97100 5.49600 27.92900
H  35.87400 3.93600 28.01900
H  35.06100 4.35000 26.50900
H  40.60800 8.04500 23.74900
H  43.26800 8.51500 23.92300
H  42.97500 6.31600 23.74300
H  41.37800 6.33300 22.89200
H  41.53900 5.63600 24.60500
H  42.28500 10.28900 23.28900
H  42.60100 10.95000 24.88100
H  40.41400 11.56400 24.95600
H  39.97400 9.95600 25.20100
H  40.02500 10.66100 23.58700
H  46.11200 11.27600 26.83400
H  47.18400 10.34600 27.95700
H  46.65300 11.93500 28.46100
H  43.62800 11.28700 32.79100
H  44.77900 9.93900 36.53200
H  46.14300 9.22700 35.72800
H  44.51300 8.37400 35.55900

