158

Mg 17.18400 -1.33800 27.25500
C  16.26500 0.98500 29.62900
C  19.21000 -2.78000 29.61700
C  18.47600 -3.42000 24.79300
C  15.71000 0.59200 24.76300
N  17.80300 -0.84700 29.30700
C  17.13900 0.02600 30.20100
C  17.57600 -0.15700 31.62300
C  18.73100 -1.24000 31.49400
C  18.55700 -1.69000 30.02500
C  20.20700 -0.83300 31.90400
C  16.46200 -0.54700 32.58600
C  16.71600 -0.91700 34.06700
H  17.99400 -0.43200 34.76500
N  18.53300 -2.99100 27.25100
C  19.22500 -3.44300 28.33300
C  19.98700 -4.58600 27.87900
C  19.76400 -4.79500 26.51900
C  18.90800 -3.73100 26.10000
C  20.78800 -5.39100 28.93900
C  20.34000 -5.86300 25.56500
O  20.06800 -5.88800 24.34100
C  21.32800 -6.91900 26.06700
N  17.07100 -1.37800 25.09900
C  17.68100 -2.37500 24.36600
C  17.35700 -2.06300 22.88500
C  16.38100 -0.93500 22.87200
C  16.35900 -0.54700 24.33800
C  18.63800 -1.66000 22.10400
C  14.92800 -1.32900 22.43700
C  14.58600 -0.97800 20.94800
N  16.14700 0.43300 27.11800
C  15.61500 1.08900 26.07200
C  14.89500 2.20400 26.60200
C  15.09500 2.17600 28.02700
C  15.92200 1.10700 28.27100
C  14.09700 3.19700 25.76500
C  14.88400 2.91000 29.28700
O  14.23600 3.91200 29.47800
C  15.58900 2.11600 30.43600
C  16.46100 3.12000 31.14600
O  17.41000 3.70600 30.67900
O  15.95900 3.18900 32.48200
C  16.74100 4.11400 33.28800
H  19.78100 -3.15400 30.46900
H  18.87100 -4.14000 24.07300
H  15.28900 1.16800 23.93600
H  17.98900 0.76200 32.03700
H  18.49500 -2.11900 32.09400
H  20.12700 -0.03300 32.64000
H  20.73000 -0.49900 31.00800
H  20.79200 -1.60900 32.39800
H  15.95000 -1.34400 32.04600
H  15.74500 0.27200 32.64100
H  16.67600 -2.00300 34.14300
H  15.80600 -0.61400 34.58400
H  21.85100 -5.36500 28.70000
H  20.33700 -6.37200 28.78900
H  20.50200 -4.97700 29.90600
H  21.42500 -7.62500 25.24200
H  20.91300 -7.57100 26.83500
H  22.20100 -6.47500 26.54500
H  17.00400 -2.98500 22.42400
H  16.85500 -0.13800 22.30000
H  19.21100 -1.03700 22.79200
H  18.37000 -1.10200 21.20700
H  19.26400 -2.53100 21.91100
H  14.13600 -0.99100 23.10600
H  14.87300 -2.41600 22.50200
H  13.84900 -0.17700 21.00000
H  14.32500 -1.87300 20.38400
H  15.45000 -0.41500 20.59400
H  14.75200 3.89200 25.23800
H  13.56300 3.87400 26.43100
H  13.47800 2.65600 25.04900
H  14.93900 1.62400 31.15900
H  16.60700 5.15000 32.97700
H  17.76400 3.82800 33.04600
H  16.53700 3.96400 34.34800
Mg 41.03100 41.20300 26.11400
C  40.79100 43.80400 28.62100
C  42.02300 39.07900 28.67600
C  42.19400 38.90000 23.74900
C  40.77100 43.64500 23.75200
N  41.36800 41.43800 28.40100
C  40.98400 42.48900 29.15600
C  40.82800 42.22000 30.64000
C  41.34000 40.67900 30.74800
C  41.60100 40.36100 29.21400
C  42.54100 40.51000 31.70900
C  39.27600 42.40400 31.03200
C  38.94300 43.19900 32.33700
H  39.71300 42.86000 33.67400
N  41.93500 39.21300 26.15400
C  42.33400 38.55100 27.32800
C  42.97400 37.30300 26.96400
C  42.90400 37.23500 25.56600
C  42.35000 38.47600 25.06400
C  43.48600 36.25300 28.00900
C  43.43800 36.06600 24.71800
O  43.39600 36.23000 23.51000
C  43.98800 34.77000 25.33400
N  41.33800 41.22100 24.10400
C  41.59000 40.07100 23.33200
C  41.59400 40.47900 21.85100
C  40.93900 41.84900 21.81300
C  40.95100 42.28100 23.29900
C  43.01100 40.42800 21.14400
C  39.49700 41.78000 21.21400
C  38.37600 41.20000 22.19900
N  40.68600 43.30200 26.14300
C  40.60000 44.21000 25.03800
C  40.36300 45.47600 25.55100
C  40.28900 45.37500 26.96000
C  40.61100 44.04400 27.24500
C  40.26400 46.66800 24.70200
C  40.12600 46.08700 28.17200
O  39.82700 47.24000 28.27800
C  40.39300 45.09400 29.32600
C  41.46700 45.64700 30.16600
O  42.58500 46.04900 29.84400
O  40.92200 45.82300 31.42500
C  41.88500 46.25700 32.50700
H  42.25000 38.39300 29.49500
H  42.22200 38.08800 23.01900
H  40.62400 44.43000 23.00800
H  41.51000 42.89000 31.16300
H  40.50500 40.05500 31.06800
H  43.35800 40.17700 31.06900
H  42.18400 39.87500 32.52000
H  42.84600 41.48900 32.08100
H  38.81100 41.42100 31.10500
H  38.74500 42.89300 30.21600
H  37.96900 42.77800 32.58800
H  38.81700 44.26700 32.16400
H  42.93000 35.32500 27.87800
H  43.35100 36.57200 29.04200
H  44.54300 36.03000 27.85900
H  43.35600 34.35100 26.11700
H  44.89400 35.11100 25.83500
H  44.21000 34.04600 24.55000
H  41.00100 39.73100 21.32500
H  41.58200 42.48700 21.20600
H  43.06500 39.38900 20.81900
H  43.83500 40.47400 21.85500
H  43.21600 41.17200 20.37400
H  39.47300 41.22600 20.27500
H  39.24800 42.81300 20.97200
H  38.74600 40.96600 23.19700
H  37.86900 40.31300 21.81700
H  37.55000 41.90000 22.32400
H  41.18000 46.64900 24.11000
H  40.18400 47.54200 25.34800
H  39.42200 46.48600 24.03500
H  39.40600 45.05000 29.78700
H  41.43500 46.06800 33.48100
H  41.89500 47.34600 32.46500
H  42.92700 45.93700 32.47100

