158

Mg 23.90700 -5.62400 45.47300
C  26.32700 -3.45900 44.06100
C  21.63500 -4.31600 43.19900
C  21.86300 -8.22200 46.15300
C  26.40600 -7.10400 47.27100
N  24.02000 -4.09800 43.81100
C  25.11000 -3.41500 43.36100
C  24.69700 -2.59200 42.06000
C  23.15200 -2.81600 41.95200
C  22.89000 -3.76200 43.07300
C  22.27600 -1.53800 41.88100
C  25.60800 -2.93100 40.85000
C  26.62100 -1.81100 40.40900
H  26.44400 -1.27000 38.99900
N  21.98300 -6.07500 44.91600
C  21.18200 -5.37800 44.00600
C  19.93300 -6.10400 43.83700
C  20.03600 -7.27500 44.58500
C  21.32000 -7.24600 45.31300
C  18.82100 -5.56900 42.93700
C  18.92900 -8.30400 44.66700
O  17.89900 -8.07600 44.01000
C  18.96500 -9.46200 45.61700
N  24.04600 -7.35200 46.80400
C  23.14700 -8.25600 46.78000
C  23.70400 -9.54100 47.35900
C  25.06100 -9.08700 47.95700
C  25.18000 -7.79600 47.25200
C  22.86300 -10.40400 48.45300
C  26.26700 -10.08900 47.77500
C  27.20900 -10.12200 48.95200
N  25.90500 -5.23400 45.85400
C  26.80800 -5.95700 46.57400
C  28.14500 -5.27700 46.45900
C  27.97700 -4.27000 45.50200
C  26.58900 -4.30600 45.13700
C  29.26200 -5.74600 47.23800
C  28.62000 -3.13500 44.91200
O  29.69600 -2.57500 45.07800
C  27.61700 -2.67100 43.74900
C  27.44400 -1.16100 43.97700
O  26.62600 -0.63300 44.72800
O  28.23000 -0.45300 43.10200
C  28.25000 0.99900 43.09700
H  20.98700 -4.06500 42.35700
H  21.29900 -9.15600 46.20700
H  27.22500 -7.59600 47.79900
H  24.87500 -1.56500 42.37900
H  23.04500 -3.31000 40.98700
H  22.08000 -1.13000 42.87300
H  21.38200 -1.56900 41.25800
H  22.83200 -0.68700 41.48800
H  25.04500 -3.07200 39.92700
H  26.06500 -3.91900 40.90200
H  27.63900 -2.17600 40.54800
H  26.53200 -0.90900 41.01400
H  18.86100 -5.86200 41.88800
H  18.79300 -4.48600 43.05900
H  17.79100 -5.74700 43.24500
H  19.29200 -9.12400 46.60100
H  19.67200 -10.07700 45.06000
H  18.01000 -9.98300 45.68200
H  23.92200 -10.19400 46.51500
H  24.95200 -8.97500 49.03500
H  21.80200 -10.22200 48.27900
H  23.08100 -10.11100 49.48000
H  23.12300 -11.45400 48.32500
H  26.77500 -9.74900 46.87200
H  25.79900 -11.04300 47.53500
H  27.12500 -11.13200 49.35400
H  26.97600 -9.36100 49.69600
H  28.22100 -9.96600 48.57600
H  30.07700 -5.10300 46.90600
H  29.36900 -6.81500 47.05600
H  29.00000 -5.61700 48.28800
H  28.00500 -3.02000 42.79200
H  27.77300 1.43000 43.97700
H  27.61000 1.20700 42.23900
H  29.27900 1.33800 42.97600
Mg 41.29000 8.98300 29.58700
C  43.20900 9.86100 32.46900
C  39.01600 7.54000 31.70000
C  39.52900 7.85900 26.83900
C  43.86300 9.98000 27.64500
N  41.26300 8.61400 31.84300
C  42.16500 9.06400 32.80600
C  41.61800 8.75500 34.21700
C  40.30200 7.85900 33.90700
C  40.16800 8.07200 32.36700
C  40.35400 6.37400 34.28100
C  41.29900 10.03400 35.12600
C  40.74900 9.66100 36.47500
H  41.58500 10.10600 37.76000
N  39.50300 7.85300 29.30100
C  38.73100 7.34300 30.32700
C  37.62800 6.55800 29.71600
C  37.64300 6.78600 28.30800
C  38.91400 7.50100 28.06000
C  36.49300 5.93000 30.52200
C  36.59200 6.46100 27.19600
O  36.73600 6.72900 26.00900
C  35.25100 5.89600 27.57300
N  41.76300 8.71700 27.55800
C  40.78900 8.37400 26.60800
C  41.35600 8.67800 25.18400
C  42.73800 9.39600 25.46400
C  42.74200 9.47500 26.97100
C  41.46900 7.41800 24.17800
C  42.89600 10.69300 24.65900
C  41.75700 11.62300 24.70600
N  43.14400 9.75300 29.89400
C  44.08700 10.09600 29.03300
C  45.21600 10.68900 29.76700
C  44.80300 10.68300 31.05000
C  43.54100 10.10600 31.12000
C  46.45800 11.18000 29.06200
C  45.28600 11.07000 32.36400
O  46.31100 11.66900 32.71600
C  44.22600 10.54500 33.38500
C  44.79800 9.56500 34.37000
O  44.84600 8.31400 34.37000
O  45.34500 10.29700 35.38100
C  45.97900 9.66800 36.47000
H  38.21700 7.23900 32.38200
H  38.93300 7.69800 25.93800
H  44.70500 10.36800 27.06800
H  42.33900 8.09600 34.70100
H  39.45200 8.22800 34.48100
H  41.29700 6.06700 34.73300
H  40.15300 5.71900 33.43300
H  39.55200 6.13800 34.98100
H  40.56000 10.62600 34.58600
H  42.14000 10.69700 35.33100
H  40.55300 8.59000 36.41800
H  39.78300 10.14600 36.61800
H  36.60800 5.93700 31.60600
H  36.18300 4.91100 30.28800
H  35.56000 6.45400 30.31600
H  35.51600 4.95000 28.04600
H  34.48400 5.80100 26.80400
H  34.78600 6.53700 28.32100
H  40.71900 9.25900 24.51800
H  43.58700 8.75600 25.22100
H  40.93500 6.58900 24.64200
H  42.50200 7.15000 23.95900
H  40.83100 7.69200 23.33800
H  43.00700 10.43500 23.60600
H  43.84900 11.19500 24.82900
H  41.30600 11.73300 23.72000
H  42.09900 12.64000 24.89800
H  40.99900 11.40500 25.45800
H  46.27500 12.13400 28.56800
H  46.80000 10.40700 28.37400
H  47.20200 11.33300 29.84500
H  43.77600 11.46800 33.75200
H  46.65100 8.82600 36.30500
H  45.13700 9.33600 37.07700
H  46.55400 10.33600 37.11100

