158

Mg 8.67100 46.90100 25.53600
C  6.75300 46.69900 28.42500
C  11.26300 48.06100 27.42200
C  10.42200 47.29000 22.73700
C  5.72000 46.42600 23.70000
N  8.97900 47.32200 27.76000
C  8.05400 47.21800 28.78100
C  8.64400 47.84700 30.08700
C  9.95900 48.52700 29.58800
C  10.09500 47.92400 28.20600
C  10.10100 50.12000 29.69500
C  8.91600 46.86700 31.27600
C  8.20400 47.25100 32.60400
H  8.19200 46.06600 33.64400
N  10.60900 47.47000 25.15100
C  11.55900 47.73300 26.11400
C  12.87500 47.73800 25.46200
C  12.70500 47.50500 24.04400
C  11.20500 47.43000 23.92000
C  14.17600 48.10600 26.16400
C  13.66000 47.40200 22.87300
O  13.23000 47.39800 21.69700
C  15.12100 47.14500 23.17300
N  8.17100 46.71300 23.52700
C  9.03500 47.07700 22.53800
C  8.41700 47.28300 21.15300
C  6.95400 46.88300 21.51800
C  6.92300 46.66000 22.97400
C  8.54800 48.69000 20.52000
C  6.57500 45.51900 20.77600
C  5.13400 45.44500 20.23300
N  6.65400 46.59500 25.88500
C  5.60200 46.29800 25.09700
C  4.40700 46.05500 25.82100
C  4.83800 46.21100 27.13800
C  6.17600 46.49600 27.14800
C  3.02600 45.91300 25.24200
C  4.41400 46.21500 28.51800
O  3.31800 46.07200 29.00000
C  5.67900 46.60300 29.39000
C  5.81900 45.56500 30.40400
O  6.23900 44.45000 30.21400
O  5.25100 45.95100 31.57200
C  4.86300 44.98100 32.56700
H  12.09200 48.40300 28.04500
H  10.98200 47.35700 21.80200
H  4.81000 46.27500 23.11500
H  7.97300 48.60000 30.49900
H  10.76400 48.06800 30.16200
H  9.14000 50.63400 29.69300
H  10.70200 50.47200 28.85600
H  10.64800 50.36900 30.60500
H  9.96400 46.71900 31.53400
H  8.44900 45.93400 30.95900
H  7.18100 47.60600 32.48000
H  8.73900 48.03800 33.13500
H  14.76500 48.75100 25.51300
H  14.73500 47.21900 26.46200
H  14.02500 48.73200 27.04400
H  15.42600 48.18800 23.25900
H  15.72500 46.71700 22.37300
H  15.30800 46.67300 24.13800
H  8.92300 46.60100 20.46800
H  6.22900 47.62500 21.18400
H  7.60000 49.18800 20.72100
H  8.70800 48.72000 19.44200
H  9.31200 49.38400 20.87100
H  6.63600 44.62300 21.39400
H  7.19700 45.46700 19.88200
H  4.60300 46.29500 20.66000
H  4.73200 44.47700 20.53300
H  5.05700 45.48700 19.14600
H  3.03500 45.46400 24.24900
H  2.54600 46.88900 25.32600
H  2.52700 45.13900 25.82500
H  5.53500 47.52900 29.94700
H  3.77500 45.04500 32.55200
H  5.24900 45.26400 33.54600
H  5.25100 43.96900 32.44800
Mg 0.07700 42.52900 25.89800
C  2.51100 42.24200 28.33600
C  -2.31700 41.62900 28.21400
C  -2.25400 42.68100 23.39300
C  2.64800 42.86900 23.49200
N  0.18500 41.89000 27.98400
C  1.20900 42.04000 28.85200
C  0.85100 41.64500 30.35100
C  -0.71400 41.33400 30.19100
C  -0.96700 41.56200 28.64300
C  -1.22200 39.99300 30.78800
C  1.23200 42.77100 31.35800
C  1.53000 42.17200 32.74500
H  0.79700 40.85000 33.21800
N  -1.98300 42.14900 25.76200
C  -2.79400 41.83000 26.85400
C  -4.14200 41.60100 26.42600
C  -4.15300 41.98600 25.01100
C  -2.77900 42.33200 24.64800
C  -5.34800 41.24500 27.20800
C  -5.28800 41.95800 24.07100
O  -5.21200 42.39700 22.92900
C  -6.66100 41.53700 24.49100
N  0.20700 42.89000 23.80900
C  -0.94500 42.91500 23.01600
C  -0.55500 43.13600 21.52900
C  1.00800 43.52100 21.59200
C  1.34800 43.12700 23.04500
C  -0.92200 42.03100 20.58300
C  1.39200 45.03500 21.31300
C  0.52500 46.19900 21.85500
N  2.16000 42.53300 25.86700
C  3.03200 42.64600 24.85400
C  4.42400 42.56300 25.46500
C  4.22500 42.51400 26.76200
C  2.83400 42.43100 26.97900
C  5.74000 42.46500 24.70500
C  4.91300 42.40100 28.02800
O  6.12500 42.35600 28.34000
C  3.81600 42.18800 29.03600
C  4.08300 40.97400 29.84300
O  4.01500 39.85900 29.37100
O  4.42600 41.22500 31.15500
C  4.64500 40.02600 31.94200
H  -3.12600 41.27700 28.85800
H  -2.82200 42.79100 22.46700
H  3.40100 43.16300 22.75900
H  1.50100 40.79700 30.56900
H  -1.31200 42.08200 30.71200
H  -0.37100 39.39200 31.10700
H  -1.74700 39.34600 30.08600
H  -1.95800 40.11500 31.58300
H  0.47100 43.54400 31.46800
H  2.16300 43.29100 31.13200
H  1.25600 42.91600 33.49300
H  2.60100 42.02000 32.88100
H  -6.02100 42.09500 27.32100
H  -5.00200 40.89500 28.18100
H  -5.90300 40.39400 26.81300
H  -6.74500 40.46700 24.67700
H  -7.33500 41.72400 23.65500
H  -6.92700 42.23400 25.28600
H  -1.09700 44.03600 21.23800
H  1.64300 42.89900 20.96000
H  -1.41700 41.18600 21.06200
H  -0.02700 41.70300 20.05600
H  -1.64500 42.53200 19.93900
H  1.65900 45.22100 20.27300
H  2.35700 45.18200 21.79800
H  0.30500 46.95500 21.10200
H  1.00300 46.61800 22.74000
H  -0.40600 45.75900 22.21300
H  6.63400 42.50300 25.32700
H  5.81900 43.39400 24.14100
H  5.92100 41.52800 24.17900
H  3.91700 43.08800 29.64300
H  3.64100 39.63600 32.10700
H  5.18200 40.45700 32.78700
H  5.31400 39.27600 31.51900

