158

Mg 16.54300 52.12300 26.47500
C  18.07000 50.82400 29.36800
C  13.70800 52.75200 28.51400
C  14.85700 53.13400 23.78800
C  19.10900 50.86300 24.62600
N  15.81800 51.51800 28.63500
C  16.82200 51.37300 29.57500
C  16.22900 51.67700 31.00700
C  14.67200 51.78400 30.72100
C  14.73000 52.07800 29.18200
C  13.83700 50.56500 31.04100
C  17.00000 52.91400 31.69100
C  17.69100 52.52200 33.07800
H  16.90300 53.09200 34.30200
N  14.58400 52.94500 26.22300
C  13.54500 53.04300 27.12900
C  12.37200 53.63000 26.49500
C  12.69000 53.79000 25.11000
C  14.06100 53.30700 24.99600
C  11.16200 53.94000 27.22700
C  11.84300 54.35500 23.90100
O  12.25100 54.50000 22.75500
C  10.43500 54.73000 24.16200
N  16.83600 51.86100 24.43300
C  16.07900 52.43900 23.49600
C  16.86700 52.45000 22.19300
C  18.29200 52.00800 22.56500
C  18.02700 51.44600 23.94400
C  16.12400 51.78800 21.05400
C  19.33500 53.23700 22.57100
C  19.46200 53.96800 21.22700
N  18.21500 51.04000 26.83800
C  19.21800 50.60700 25.96200
C  20.26300 49.95200 26.69500
C  19.87500 50.10100 28.00700
C  18.62200 50.66900 28.06000
C  21.49400 49.33300 26.06000
C  20.38200 49.87900 29.31300
O  21.45900 49.42700 29.68100
C  19.21900 50.46800 30.36200
C  18.73900 49.36300 31.28500
O  17.97300 48.43300 30.94000
O  19.36400 49.52100 32.51000
C  19.04300 48.52600 33.52200
H  12.92900 53.21100 29.12500
H  14.37200 53.44400 22.86000
H  20.00600 50.65100 24.04100
H  16.33700 50.78400 31.62300
H  14.42300 52.68500 31.28100
H  13.00300 50.49300 30.34300
H  13.44200 50.58100 32.05700
H  14.38800 49.63300 30.90800
H  16.40600 53.81700 31.83000
H  17.90500 53.09500 31.11100
H  18.74300 52.80000 33.14700
H  17.69500 51.43200 33.06300
H  10.29100 53.43700 26.80600
H  11.08200 55.02400 27.15500
H  11.12200 53.70000 28.29000
H  10.33500 55.34500 25.05600
H  9.91000 53.77900 24.24300
H  9.92900 55.34200 23.41500
H  16.84600 53.52900 22.03900
H  18.71300 51.18300 21.99100
H  16.64200 50.94100 20.60500
H  15.97300 52.60800 20.35100
H  15.14000 51.50100 21.42300
H  20.35300 53.02900 22.89800
H  19.01600 54.00400 23.27700
H  19.45600 55.05600 21.28400
H  18.60400 53.67400 20.62100
H  20.31200 53.59800 20.65400
H  21.74900 48.35300 26.46200
H  22.37900 49.88200 26.38300
H  21.45800 49.31500 24.97100
H  19.60100 51.22900 31.04200
H  19.48800 48.85100 34.46300
H  19.39000 47.50200 33.38600
H  17.95700 48.56200 33.60400
Mg -5.23100 25.71500 26.23700
C  -4.11800 27.46500 28.97200
C  -6.61200 23.35800 28.34800
C  -6.07500 23.77900 23.48300
C  -2.93200 27.48000 24.20000
N  -5.33500 25.39100 28.40800
C  -4.89900 26.34000 29.33000
C  -5.33400 26.01400 30.69600
C  -5.88400 24.48900 30.52400
C  -5.93500 24.37900 29.01100
C  -5.12300 23.31700 31.09300
C  -6.36700 27.02100 31.28100
C  -7.07900 26.58400 32.59700
H  -6.45400 25.48300 33.45700
N  -6.43300 24.06200 25.92700
C  -7.02300 23.36700 26.96600
C  -7.92100 22.33700 26.36800
C  -7.77600 22.47700 24.92500
C  -6.70800 23.48500 24.71500
C  -8.84600 21.41500 27.22300
C  -8.41800 21.83100 23.80200
O  -8.27400 22.10900 22.64100
C  -9.63100 20.81700 24.00700
N  -4.43500 25.55600 24.17200
C  -5.05200 24.71800 23.27600
C  -4.48800 24.97300 21.88900
C  -3.61300 26.35600 22.08800
C  -3.69100 26.52700 23.56500
C  -3.77500 23.78400 21.26200
C  -4.18000 27.53600 21.21700
C  -3.21700 28.69100 21.00600
N  -3.82100 27.14400 26.50000
C  -2.99700 27.78800 25.59000
C  -2.26200 28.78300 26.31000
C  -2.66700 28.62900 27.67700
C  -3.59500 27.61500 27.70100
C  -1.26300 29.82900 25.77600
C  -2.35200 29.11500 28.94500
O  -1.63800 29.96400 29.44100
C  -3.36500 28.48100 29.86400
C  -2.76700 27.84100 31.00300
O  -1.94500 26.93700 31.00500
O  -3.30500 28.39600 32.16900
C  -2.80600 27.69600 33.35100
H  -7.16900 22.64300 28.95700
H  -6.25200 23.27200 22.53200
H  -2.16200 28.09300 23.72700
H  -4.47000 25.81200 31.32900
H  -6.92100 24.44400 30.85700
H  -4.57000 22.76100 30.33700
H  -5.84600 22.75400 31.68400
H  -4.33800 23.63700 31.77800
H  -7.14900 27.19700 30.54200
H  -5.84000 27.95600 31.47200
H  -8.08600 26.37800 32.23600
H  -7.02600 27.45000 33.25700
H  -8.50900 20.39800 27.02000
H  -9.89300 21.70700 27.13900
H  -8.65400 21.46400 28.29500
H  -9.84000 20.43900 23.00600
H  -10.44800 21.36900 24.47100
H  -9.19400 19.97700 24.54800
H  -5.34500 25.19600 21.25500
H  -2.58800 26.13500 21.79200
H  -3.80000 22.99100 22.00900
H  -2.70900 23.97200 21.13200
H  -4.26700 23.41800 20.36200
H  -5.12400 27.84300 21.66600
H  -4.39200 27.15000 20.22000
H  -2.74800 28.64600 20.02300
H  -2.49700 28.80400 21.81600
H  -3.85400 29.56800 21.12100
H  -0.76800 29.62900 24.82600
H  -0.44400 29.88000 26.49300
H  -1.77200 30.78400 25.64500
H  -3.99800 29.32900 30.12500
H  -2.55000 26.63900 33.27900
H  -3.58800 27.64100 34.10800
H  -2.01200 28.34500 33.71900

