158

Mg 49.14400 35.08100 26.99100
C  47.16800 33.70800 29.52900
C  49.38500 38.01500 28.87000
C  50.71200 36.44000 24.42900
C  48.37200 32.30200 25.05800
N  48.28400 35.78700 28.84300
C  47.61000 35.00200 29.75400
C  47.73100 35.65100 31.13800
C  48.11100 37.14500 30.89500
C  48.49400 37.02200 29.38500
C  46.89700 38.06000 31.07200
C  48.92300 34.94200 31.93400
C  48.77600 34.89100 33.44600
H  47.65000 35.74600 34.19800
N  49.97900 36.87400 26.74100
C  50.03300 37.92700 27.64800
C  50.86500 39.02200 27.09000
C  51.23900 38.62600 25.74300
C  50.61300 37.27800 25.59600
C  51.40800 40.13900 27.89200
C  52.11700 39.32600 24.79500
O  52.32200 38.87600 23.68800
C  52.98000 40.57000 25.20100
N  49.26600 34.53200 24.87700
C  50.13700 35.23700 24.12500
C  50.54500 34.45600 22.96300
C  50.08800 33.01900 23.27800
C  49.14200 33.25900 24.41300
C  50.20400 35.05200 21.51100
C  51.21400 32.10300 23.62800
C  51.12600 30.58400 23.16100
N  47.94700 33.29300 27.12600
C  47.69100 32.29800 26.30000
C  46.95400 31.17600 26.92400
C  46.58100 31.76800 28.15900
C  47.27800 33.02200 28.26600
C  46.75800 29.80000 26.41300
C  45.91200 31.54100 29.45800
O  45.19600 30.62900 29.82100
C  46.18000 32.82100 30.36400
C  46.62900 32.31700 31.69800
O  47.74000 31.91600 31.86800
O  45.57800 32.31700 32.54200
C  45.78800 31.89000 33.90500
H  49.54400 38.94900 29.41200
H  51.49700 36.75100 23.73600
H  48.33400 31.32400 24.57400
H  46.77200 35.60100 31.65300
H  48.86300 37.52400 31.58800
H  46.00900 37.57500 31.47800
H  46.55200 38.29500 30.06500
H  47.14200 38.96700 31.62600
H  49.90000 35.37100 31.71400
H  48.96000 33.93900 31.50900
H  49.67300 35.09200 34.03100
H  48.39500 33.88500 33.62400
H  51.08100 41.07900 27.44800
H  52.46700 40.04000 28.12800
H  51.09700 40.16900 28.93600
H  53.53300 40.60100 24.26300
H  53.61300 40.52900 26.08800
H  52.26500 41.39200 25.20200
H  51.63300 34.39600 22.94800
H  49.52800 32.43500 22.54700
H  49.50400 34.39000 21.00100
H  51.07800 35.13500 20.86500
H  49.73900 36.03400 21.60200
H  51.34800 32.18900 24.70600
H  52.20900 32.46400 23.36700
H  50.27900 30.52100 22.47900
H  50.90400 29.92700 24.00300
H  52.04300 30.22000 22.69800
H  47.29400 29.10200 27.05600
H  47.10700 29.77300 25.38100
H  45.69300 29.56700 26.39200
H  45.25400 33.37400 30.52100
H  45.65100 30.80900 33.95400
H  44.96600 32.28900 34.49900
H  46.80000 32.05300 34.27500
Mg 6.12800 55.01500 41.14900
C  3.71800 52.51100 41.14800
C  8.35400 52.59300 40.04800
C  8.32100 57.44000 40.46700
C  3.72000 57.35900 41.84900
N  5.93200 52.83400 40.43400
C  4.88500 52.06600 40.52900
C  5.27700 50.61100 40.10900
C  6.75000 50.53900 40.11400
C  7.05500 52.10500 40.18600
C  7.44700 49.63700 41.16900
C  4.61100 50.44900 38.67500
C  4.19200 49.07200 38.24300
H  4.95600 48.47600 37.04400
N  8.17700 55.04400 40.45900
C  8.90000 53.97500 40.11400
C  10.22900 54.30200 39.75900
C  10.30500 55.71200 39.90400
C  8.94400 56.19700 40.33500
C  11.20900 53.18300 39.31400
C  11.47300 56.49100 39.59700
O  12.49900 55.96500 39.20400
C  11.36700 57.97400 39.72200
N  5.99800 57.04600 40.96100
C  6.99600 57.88100 40.65000
C  6.58800 59.29200 40.62900
C  5.11200 59.26800 40.98400
C  4.88500 57.79100 41.24600
C  7.44500 60.09200 41.62900
C  4.16000 59.69000 39.80700
C  2.96500 60.61500 40.09700
N  4.12300 55.00000 41.44600
C  3.29500 56.01200 41.94700
C  2.06500 55.44100 42.37300
C  2.20500 54.08600 42.09800
C  3.42900 53.86800 41.50900
C  0.92200 56.24700 42.90200
C  1.52200 52.87700 42.12700
O  0.47100 52.58200 42.63800
C  2.50700 51.75800 41.46500
C  1.77200 51.05400 40.42400
O  1.17800 51.62300 39.51300
O  1.71500 49.65400 40.56400
C  0.86000 48.99700 39.60800
H  8.98700 51.73900 39.79900
H  8.89800 58.24300 40.00300
H  2.91600 58.05800 42.08700
H  4.80600 49.84500 40.72500
H  7.08500 50.26400 39.11300
H  6.93900 48.69400 41.37200
H  7.60300 50.29400 42.02500
H  8.43700 49.56600 40.72000
H  5.33800 50.78700 37.93600
H  3.70800 51.04000 38.52600
H  3.14500 49.10100 37.93900
H  4.31800 48.41800 39.10600
H  10.63500 52.53600 38.65100
H  11.51400 52.57200 40.16400
H  12.02000 53.49000 38.65300
H  12.34200 58.44700 39.83800
H  10.77500 58.14000 40.62300
H  10.90300 58.38900 38.82800
H  6.75700 59.81100 39.68500
H  4.89400 59.71700 41.95400
H  7.95100 59.44900 42.34900
H  6.90300 60.92900 42.06900
H  8.26600 60.55800 41.08300
H  3.61800 58.81300 39.45100
H  4.64300 59.99400 38.87900
H  2.10900 60.10800 39.65300
H  3.17400 61.47500 39.46100
H  2.79700 60.90400 41.13500
H  0.55100 56.97200 42.17700
H  1.24100 56.71700 43.83100
H  0.16900 55.47700 43.07700
H  2.69200 51.06900 42.28900
H  1.46200 48.15400 39.26900
H  0.54800 49.54800 38.72100
H  0.05500 48.55000 40.19100

