158

Mg 0.76200 -1.18000 44.13400
C  4.11500 -0.04400 43.76900
C  -0.26000 1.51800 42.33000
C  -2.28500 -2.58700 44.06700
C  2.05900 -4.28700 45.23700
N  1.81300 0.52800 43.05800
C  3.15900 0.83000 43.14700
C  3.45900 2.17000 42.48000
C  2.05000 2.76500 42.28100
C  1.11700 1.54600 42.50800
C  1.61200 4.03600 43.07800
C  4.28500 2.00100 41.11500
C  5.58100 2.75600 41.08600
H  6.70700 2.13600 40.30000
N  -1.03900 -0.54500 43.47200
C  -1.30500 0.64400 42.77000
C  -2.72800 0.64500 42.39300
C  -3.38200 -0.47700 42.95500
C  -2.28300 -1.28900 43.49100
C  -3.33500 1.95700 41.73500
C  -4.82300 -0.72900 43.01900
O  -5.62100 0.03400 42.46000
C  -5.45600 -1.77600 43.88600
N  0.06700 -3.09600 44.53400
C  -1.26000 -3.32800 44.56800
C  -1.55300 -4.74600 45.13800
C  -0.17600 -5.38900 45.27600
C  0.72600 -4.16200 45.00400
C  -2.31200 -4.67400 46.47800
C  0.16600 -6.55200 44.41900
C  0.58000 -7.75600 45.26800
N  2.61400 -2.01300 44.36800
C  2.96400 -3.25300 44.95500
C  4.46700 -3.26300 45.11700
C  4.86700 -1.98600 44.65900
C  3.75300 -1.27000 44.21900
C  5.33200 -4.37700 45.67000
C  6.09100 -1.18300 44.46700
O  7.22500 -1.60800 44.60500
C  5.65300 0.17000 43.98000
C  5.82900 1.19900 44.95900
O  5.35100 1.35000 46.12000
O  6.78600 2.05600 44.44600
C  7.32200 3.09000 45.33500
H  -0.58800 2.50500 41.99500
H  -3.24000 -3.08200 44.25400
H  2.44500 -5.29000 45.43100
H  4.02200 2.71300 43.24000
H  1.83800 3.03500 41.24600
H  0.99500 3.78400 43.94000
H  0.98400 4.60000 42.38800
H  2.43200 4.64100 43.46500
H  3.77800 2.54200 40.31600
H  4.44600 0.97200 40.79300
H  5.99000 2.83200 42.09300
H  5.50000 3.77500 40.70800
H  -3.54900 1.64500 40.71300
H  -2.64400 2.79000 41.60700
H  -4.29400 2.23500 42.17200
H  -5.27000 -2.76000 43.45400
H  -6.51200 -1.50800 43.93000
H  -4.93800 -1.76400 44.84500
H  -2.12200 -5.28800 44.38200
H  -0.01200 -5.54100 46.34200
H  -3.30100 -5.09500 46.29400
H  -2.45600 -3.65700 46.84300
H  -1.75100 -5.25000 47.21400
H  0.98600 -6.39400 43.71900
H  -0.65600 -6.92000 43.80500
H  1.41200 -7.47800 45.91500
H  0.93000 -8.56600 44.62900
H  -0.32800 -7.94900 45.84000
H  5.07100 -5.40200 45.40800
H  5.39800 -4.35300 46.75800
H  6.34100 -4.40400 45.25800
H  6.09500 0.48600 43.03600
H  8.03700 2.61000 46.00400
H  6.59400 3.74500 45.81300
H  7.89500 3.72400 44.65800
Mg 9.56400 47.64000 25.92400
C  7.80700 47.65800 28.89000
C  12.27100 49.01100 27.63500
C  11.28900 47.61000 22.99600
C  6.63500 46.68900 24.20400
N  9.92700 48.38400 27.96100
C  9.07200 48.22000 29.00400
C  9.87200 48.52100 30.30900
C  11.07600 49.37800 29.81400
C  11.13200 48.90700 28.38100
C  10.78400 50.93800 29.77000
C  10.33800 47.30600 31.12900
C  10.62400 47.56000 32.65700
H  10.39900 46.40300 33.52400
N  11.54300 48.19900 25.37900
C  12.50200 48.71900 26.26500
C  13.73300 48.67200 25.54300
C  13.50800 48.30800 24.19200
C  12.01600 48.07100 24.16000
C  15.04500 49.00800 26.22700
C  14.37100 48.17300 23.01000
O  13.99900 47.75100 21.89100
C  15.89200 48.44600 23.12500
N  8.94100 47.36300 23.89800
C  9.88900 47.33200 22.90400
C  9.20500 46.90000 21.55800
C  7.89300 46.27100 21.93700
C  7.77800 46.82500 23.36200
C  9.10100 48.10800 20.59200
C  7.94500 44.69000 21.71500
C  8.57100 43.83800 22.83200
N  7.57600 47.32900 26.40400
C  6.48300 46.96100 25.60600
C  5.33100 46.78400 26.40100
C  5.81500 46.99600 27.72200
C  7.18800 47.34300 27.63000
C  3.94100 46.60200 25.87700
C  5.42000 46.93000 29.13700
O  4.36300 46.66600 29.71600
C  6.76100 47.33500 29.96700
C  6.95400 46.13900 30.82000
O  7.30500 45.04600 30.35400
O  6.54000 46.42200 32.06700
C  6.86200 45.42000 33.05300
H  13.14300 49.41200 28.15400
H  11.69500 47.59200 21.98300
H  5.79800 46.14600 23.76000
H  9.23800 49.19100 30.89000
H  11.97900 49.07500 30.34500
H  11.17300 51.34500 30.70300
H  9.71300 51.10500 29.65500
H  11.34100 51.29700 28.90400
H  11.27300 47.09400 30.61000
H  9.70500 46.42200 31.05600
H  10.05000 48.43000 32.97700
H  11.62800 47.98400 32.64300
H  15.04300 48.78600 27.29400
H  15.21300 50.08500 26.23200
H  15.90600 48.52000 25.77000
H  16.24400 47.66400 23.79800
H  16.21800 49.33900 23.65800
H  16.42000 48.30300 22.18200
H  9.95100 46.19900 21.18100
H  7.09500 46.61600 21.28000
H  8.07100 48.23900 20.26000
H  9.67800 48.09400 19.66800
H  9.41900 48.97100 21.17900
H  8.45000 44.47600 20.77300
H  6.90100 44.41600 21.55900
H  9.03900 44.47700 23.58100
H  9.31200 43.19200 22.36000
H  7.80500 43.20200 23.27500
H  3.44300 47.53500 26.14200
H  3.43500 45.73600 26.30400
H  3.83500 46.51900 24.79600
H  6.53400 48.21900 30.56300
H  6.84400 45.87300 34.04500
H  7.81100 44.89900 32.92400
H  6.04700 44.69900 33.11100

