158

Mg 1.03600 8.18300 26.33500
C  1.60300 9.96000 29.36200
C  0.94700 5.32800 28.33900
C  0.71900 6.30700 23.56200
C  1.31300 11.06300 24.60900
N  1.24800 7.75000 28.58900
C  1.31500 8.61900 29.64200
C  1.19200 7.95700 30.94800
C  1.39700 6.48700 30.57600
C  1.14400 6.50100 29.07800
C  2.69100 5.78000 30.90100
C  -0.09400 8.41100 31.69200
C  0.01700 8.51800 33.22800
H  1.25400 7.93600 33.95300
N  0.83900 6.07500 26.02400
C  0.85100 5.11900 26.94400
C  0.55300 3.84500 26.28500
C  0.68300 4.11900 24.92500
C  0.74800 5.53800 24.77800
C  0.35400 2.52600 26.99600
C  0.60200 3.12400 23.66900
O  0.60100 3.53000 22.51200
C  0.57200 1.60900 23.86500
N  0.94000 8.60400 24.43000
C  0.82300 7.71300 23.41600
C  0.76300 8.45100 22.01500
C  0.83400 9.96000 22.39500
C  0.99700 9.85900 23.92100
C  1.71400 7.97000 20.87300
C  -0.46500 10.77400 21.91300
C  -1.73400 10.51600 22.74700
N  1.37700 10.10400 26.78600
C  1.51000 11.17100 25.96400
C  1.81800 12.37600 26.77200
C  1.83100 11.89000 28.06100
C  1.55800 10.53600 28.05200
C  2.04400 13.81900 26.21300
C  2.20000 12.28800 29.39000
O  2.57200 13.39800 29.84200
C  1.93400 11.01300 30.31900
C  3.15600 10.67200 31.07900
O  4.09000 9.87100 30.83900
O  3.17900 11.52100 32.18300
C  4.40600 11.54600 33.08100
H  0.82600 4.38700 28.88000
H  0.66400 5.89700 22.55100
H  1.22200 11.95700 23.98800
H  2.11800 8.15800 31.48600
H  0.60200 5.87500 31.00200
H  2.48100 5.07300 31.70300
H  3.45000 6.39800 31.38100
H  3.09700 5.17400 30.09100
H  -0.91200 7.72200 31.47700
H  -0.42800 9.37800 31.31800
H  -0.88000 8.07900 33.66400
H  0.08700 9.59800 33.35700
H  1.34400 2.08400 26.88100
H  -0.43600 1.95200 26.51200
H  0.01800 2.67100 28.02300
H  1.56500 1.18800 24.02300
H  0.31300 1.15500 22.90900
H  -0.13100 1.24800 24.61600
H  -0.26000 8.16900 21.76500
H  1.77900 10.39400 22.06700
H  2.42300 7.22000 21.22700
H  2.27900 8.88100 20.67800
H  1.23000 7.44200 20.05200
H  -0.54800 10.57000 20.84500
H  -0.27700 11.84200 22.02000
H  -1.58400 9.99900 23.69500
H  -2.40200 9.80800 22.25700
H  -2.18500 11.48900 22.94100
H  2.47100 13.72900 25.21400
H  2.76700 14.29800 26.87200
H  1.14300 14.42200 26.09400
H  1.08000 11.19900 30.96900
H  5.29300 11.02000 32.72900
H  4.13100 11.15700 34.06200
H  4.75800 12.57000 33.20800
Mg -2.33000 33.98200 27.66300
C  -4.23900 32.17700 30.01100
C  -1.08000 35.90400 30.20400
C  -0.97900 36.07200 25.44600
C  -3.94900 32.25700 25.05000
N  -2.65400 34.00400 29.86100
C  -3.44200 33.19500 30.63200
C  -3.23100 33.48700 32.13600
C  -2.51800 34.86300 32.08100
C  -1.98900 34.93700 30.62600
C  -3.50600 36.13900 32.45000
C  -2.46700 32.43800 33.02100
C  -3.22300 32.17200 34.30500
H  -2.44900 31.91200 35.55400
N  -0.99500 35.59400 27.81500
C  -0.58800 36.25100 28.96200
C  0.45300 37.23100 28.59400
C  0.44500 37.29600 27.18100
C  -0.52400 36.29200 26.72500
C  1.23900 38.04500 29.63700
C  1.26800 38.25700 26.30400
O  1.20800 38.27400 25.10700
C  2.25600 39.17900 26.92100
N  -2.48500 34.14000 25.60100
C  -1.84100 35.09800 24.94800
C  -2.15200 35.08100 23.44700
C  -2.81300 33.63200 23.21400
C  -3.10900 33.25300 24.71500
C  -3.12100 36.19100 22.86800
C  -1.89400 32.66100 22.39600
C  -2.60800 31.55100 21.60700
N  -3.74300 32.50200 27.47900
C  -4.23500 31.85200 26.40100
C  -5.11300 30.72300 26.82900
C  -5.15900 30.85000 28.18500
C  -4.29900 31.98700 28.58500
C  -5.70800 29.78300 25.90100
C  -5.76900 30.26100 29.41300
O  -6.62200 29.37000 29.59700
C  -5.11500 31.06200 30.56600
C  -6.24200 31.47700 31.39700
O  -7.24600 32.08700 30.96700
O  -6.08900 31.16600 32.67400
C  -7.20100 31.31600 33.59100
H  -0.76300 36.57800 31.00300
H  -0.62700 36.66300 24.59900
H  -4.33300 31.57800 24.28600
H  -4.22800 33.64900 32.54600
H  -1.68400 34.94500 32.77900
H  -4.50100 35.72600 32.61500
H  -3.49400 36.76500 31.55800
H  -3.09200 36.56100 33.36600
H  -1.50500 32.87000 33.29600
H  -2.28200 31.53300 32.44200
H  -3.57000 31.22300 33.89500
H  -4.06700 32.82300 34.52900
H  1.15800 37.63300 30.64300
H  1.01400 39.11000 29.59000
H  2.26600 37.80600 29.36300
H  2.62600 39.85500 26.15100
H  3.17400 38.72500 27.29500
H  1.70000 39.77200 27.64800
H  -1.23700 35.09900 22.85400
H  -3.73800 33.72000 22.64300
H  -3.30200 36.77200 23.77300
H  -4.06600 35.88300 22.42000
H  -2.60900 36.76400 22.09600
H  -1.24300 32.03800 23.01000
H  -1.20600 33.07200 21.65700
H  -2.27700 31.49000 20.57000
H  -3.68600 31.66100 21.71900
H  -2.36600 30.56500 22.00500
H  -4.94600 29.55900 25.15500
H  -6.55900 30.22700 25.38300
H  -5.95400 28.81200 26.33200
H  -4.44500 30.36900 31.07500
H  -7.13100 30.36800 34.12300
H  -8.20100 31.38600 33.16300
H  -7.02500 32.15300 34.26600

