158

Mg -2.28900 16.64500 25.66100
C  -2.52300 14.50500 28.39800
C  -4.07500 18.92500 27.49500
C  -2.23600 18.68100 23.03000
C  -1.40700 13.89300 23.57800
N  -3.06300 16.71600 27.76600
C  -2.96500 15.74300 28.75000
C  -3.54500 16.23000 30.11300
C  -4.30700 17.49800 29.70700
C  -3.78100 17.75200 28.23300
C  -5.83200 17.15500 29.54500
C  -2.39900 16.50000 31.14700
C  -2.41400 15.69000 32.46400
H  -2.52500 16.42000 33.80200
N  -2.82600 18.65400 25.42800
C  -3.60000 19.40100 26.24900
C  -3.73100 20.72000 25.70500
C  -3.15400 20.70600 24.35700
C  -2.67700 19.29100 24.23500
C  -4.39600 21.85700 26.46000
C  -3.11000 21.78600 23.35900
O  -2.55500 21.62300 22.26100
C  -3.65200 23.29800 23.58300
N  -1.88600 16.26800 23.57900
C  -1.84900 17.36900 22.73400
C  -1.28000 16.98900 21.35600
C  -1.00000 15.45600 21.53600
C  -1.35700 15.15400 23.03900
C  -2.27700 17.11100 20.16500
C  0.43900 15.22800 21.15600
C  1.49600 15.71200 22.28500
N  -2.07700 14.60700 25.87200
C  -1.81000 13.57900 24.91900
C  -1.94700 12.29300 25.57200
C  -2.12500 12.59700 26.94500
C  -2.26100 13.99900 27.06900
C  -1.88200 10.96100 24.95000
C  -2.30000 12.06700 28.30700
O  -2.31400 10.91800 28.65900
C  -2.49800 13.28700 29.26600
C  -1.38700 13.23300 30.17000
O  -0.30400 13.77000 30.05300
O  -1.71600 12.38900 31.16200
C  -0.84000 12.21000 32.32500
H  -4.80200 19.49900 28.07400
H  -2.14800 19.39200 22.20600
H  -1.21500 13.11300 22.83900
H  -4.30800 15.52200 30.43800
H  -4.20300 18.36100 30.36500
H  -6.01200 16.46100 28.72400
H  -6.42100 18.06100 29.40800
H  -6.24300 16.91200 30.52500
H  -2.42000 17.55000 31.43900
H  -1.37800 16.30700 30.81800
H  -1.45200 15.19000 32.57400
H  -3.18900 14.92800 32.54200
H  -5.48600 21.85200 26.42800
H  -4.03100 22.88200 26.38500
H  -4.06500 21.78700 27.49600
H  -3.44700 24.04400 22.81500
H  -3.09100 23.68600 24.43300
H  -4.71000 23.43800 23.80200
H  -0.40000 17.62500 21.25400
H  -1.67900 14.84800 20.93700
H  -3.23500 17.36600 20.62000
H  -2.42900 16.25300 19.51000
H  -1.84000 17.96100 19.64100
H  0.82700 15.76600 20.29200
H  0.44700 14.16600 20.91100
H  0.98400 15.91500 23.22500
H  1.99000 16.60600 21.90400
H  2.27200 14.95900 22.41900
H  -0.82700 10.71300 24.83300
H  -2.33500 11.03300 23.96100
H  -2.29500 10.30700 25.71700
H  -3.39800 13.26300 29.88000
H  0.02800 11.60500 32.06400
H  -1.26400 11.69600 33.18800
H  -0.47400 13.20200 32.58900
Mg -9.03500 41.15900 42.46100
C  -8.39400 37.84600 41.59800
C  -6.34400 42.22800 40.83900
C  -10.47800 44.26900 42.47600
C  -12.19400 39.91900 43.84800
N  -7.63300 40.18300 41.20200
C  -7.49100 38.76100 41.09600
C  -6.21600 38.53800 40.29100
C  -5.41600 39.85600 40.56100
C  -6.53700 40.82100 40.85800
C  -4.34500 39.88900 41.69200
C  -6.60900 38.23700 38.76400
C  -6.04400 36.89800 38.20400
H  -5.07300 37.08700 37.05900
N  -8.39600 42.97800 41.86500
C  -7.24100 43.22900 41.14100
C  -7.20700 44.64200 40.75800
C  -8.31200 45.27700 41.38700
C  -9.15400 44.19000 41.91200
C  -6.13300 45.34500 39.85000
C  -8.61100 46.79500 41.31200
O  -7.90900 47.55600 40.57800
C  -9.69700 47.38300 42.00700
N  -11.10500 41.94100 42.95100
C  -11.28300 43.29600 42.96000
C  -12.59100 43.65000 43.69000
C  -13.17800 42.29400 44.17900
C  -12.09200 41.28100 43.62000
C  -12.35500 44.78600 44.72600
C  -14.63100 42.11200 43.53300
C  -15.60700 42.76100 44.44100
N  -10.01400 39.35000 42.87700
C  -11.25600 38.99700 43.45100
C  -11.30400 37.52400 43.62800
C  -10.25200 37.11900 42.87500
C  -9.56300 38.20300 42.34900
C  -12.46400 36.68500 44.24900
C  -9.69700 35.87700 42.28700
O  -9.98200 34.71000 42.35200
C  -8.49200 36.36500 41.39900
C  -7.26300 35.66500 41.88300
O  -6.66500 35.91700 42.86800
O  -6.99400 34.62200 41.07200
C  -6.05900 33.52100 41.52100
H  -5.31500 42.53400 40.63900
H  -11.04300 45.19400 42.34200
H  -13.05900 39.48700 44.35500
H  -5.63800 37.75800 40.78700
H  -4.90000 40.08200 39.62800
H  -4.56700 40.79300 42.26000
H  -3.33300 39.94600 41.29000
H  -4.56100 38.98300 42.25700
H  -6.27500 39.11100 38.20400
H  -7.68000 38.34700 38.59600
H  -6.97800 36.42800 37.89500
H  -5.60400 36.31400 39.01200
H  -6.52900 45.84700 38.96700
H  -5.38600 44.58800 39.61500
H  -5.59400 46.02000 40.51600
H  -9.61000 48.46400 42.11700
H  -9.60800 46.99200 43.02100
H  -10.63300 47.07400 41.54200
H  -13.24800 44.14700 42.97600
H  -13.30300 42.19100 45.25700
H  -11.38300 45.27300 44.65200
H  -12.38900 44.27900 45.69000
H  -13.19100 45.48400 44.67000
H  -14.63100 41.02200 43.54300
H  -14.69000 42.49000 42.51300
H  -16.46800 43.07400 43.85000
H  -15.15700 43.53300 45.06500
H  -15.88300 41.96900 45.13600
H  -12.06400 35.73500 44.60200
H  -13.18100 36.29000 43.52900
H  -12.98600 37.30000 44.98200
H  -8.72000 36.00200 40.39600
H  -6.70700 32.80300 42.02300
H  -5.33700 33.90800 42.24000
H  -5.43300 33.04700 40.76500

