158

Mg 54.11500 23.54700 43.98700
C  51.66300 26.04200 43.25700
C  52.30400 21.22900 42.44200
C  56.83100 21.65300 44.03000
C  56.24400 26.32300 45.03000
N  52.30500 23.72100 42.77000
C  51.38400 24.68100 42.82700
C  50.10700 24.18800 42.02200
C  50.25800 22.63600 42.15900
C  51.71600 22.55600 42.47700
C  49.36100 21.93400 43.27200
C  50.04500 24.76000 40.58900
C  51.40500 24.90700 39.84200
H  51.18800 25.59500 38.41100
N  54.48400 21.67600 43.41800
C  53.64300 20.86400 42.76500
C  54.24000 19.57700 42.59500
C  55.49200 19.67200 43.19200
C  55.62200 21.07700 43.56900
C  53.58300 18.35200 41.95000
C  56.46600 18.45700 43.36800
O  56.16400 17.25900 43.13100
C  57.85500 18.67900 43.81000
N  56.24200 24.03000 44.54600
C  57.13000 22.93100 44.52300
C  58.50500 23.35800 44.92400
C  58.35500 24.87800 45.22000
C  56.88600 25.13100 44.84400
C  59.13900 22.41200 46.08600
C  59.46600 25.78700 44.55900
C  60.19200 26.67600 45.51300
N  54.07300 25.74500 44.14900
C  54.92000 26.63900 44.74900
C  54.21100 28.00200 44.90100
C  52.87200 27.72100 44.37400
C  52.88000 26.40400 43.86400
C  54.64700 29.19100 45.62200
C  51.58800 28.27700 44.12800
O  51.16700 29.39000 44.35800
C  50.68500 27.15900 43.45400
C  50.17500 27.79700 42.22300
O  50.87900 28.00500 41.25800
O  48.82600 28.02500 42.29400
C  48.10700 28.21100 40.98600
H  51.68200 20.35000 42.26300
H  57.79000 21.13000 44.01800
H  56.84000 27.14500 45.43100
H  49.12000 24.52900 42.33500
H  50.00200 22.12700 41.23000
H  48.54000 22.62700 43.45300
H  49.93900 21.87600 44.19500
H  49.04600 20.97300 42.86500
H  49.53100 25.71800 40.50500
H  49.42600 24.08800 39.99500
H  51.71300 23.86300 39.78100
H  52.07500 25.48900 40.47500
H  52.98700 18.58000 41.06600
H  52.98700 17.73800 42.62600
H  54.36800 17.67700 41.60900
H  57.76500 19.29900 44.70200
H  58.36400 19.17000 42.98100
H  58.39200 17.74400 43.96700
H  59.16700 23.27600 44.06200
H  58.38300 24.92900 46.30900
H  59.32000 22.98100 46.99800
H  60.10900 22.00300 45.80300
H  58.47500 21.56300 46.24900
H  59.03500 26.42200 43.78500
H  60.26500 25.16400 44.15700
H  60.16900 27.69500 45.12700
H  61.24000 26.38300 45.44900
H  59.84700 26.54800 46.53900
H  53.97100 29.22500 46.47700
H  54.45800 30.03800 44.96400
H  55.71500 29.09200 45.81900
H  49.86600 26.86300 44.11000
H  48.15300 27.31500 40.36700
H  48.63700 28.94300 40.37500
H  47.08900 28.59700 41.03500
Mg 36.48700 49.92700 26.00900
C  36.86400 47.84100 28.77400
C  35.64800 52.52800 28.19200
C  36.18700 51.91900 23.36000
C  37.30500 47.20900 23.91400
N  36.07000 50.05400 28.24600
C  36.49700 49.15700 29.14900
C  36.34600 49.67100 30.57800
C  35.93800 51.19500 30.31800
C  35.87100 51.27900 28.80700
C  34.56700 51.63200 30.95400
C  37.73300 49.46700 31.24000
C  37.84100 49.27200 32.72800
H  36.49500 49.10400 33.48600
N  35.92400 51.92900 25.77600
C  35.65200 52.82900 26.79900
C  35.30600 54.13200 26.17000
C  35.44200 53.98900 24.77900
C  35.80100 52.57100 24.55000
C  35.05000 55.35700 27.03000
C  35.36900 55.07500 23.71800
O  35.43900 54.88200 22.48500
C  35.17800 56.56300 24.15000
N  36.75600 49.55500 23.89000
C  36.56800 50.57600 23.04000
C  36.91600 50.09800 21.60200
C  37.34900 48.63600 21.77100
C  37.11300 48.44100 23.27700
C  35.83000 50.24000 20.56000
C  38.85300 48.33300 21.45600
C  39.22800 46.84600 21.07100
N  36.88600 47.91100 26.20900
C  37.14800 46.89800 25.29800
C  37.38200 45.64700 26.03500
C  37.17300 45.98300 27.39700
C  36.88500 47.36500 27.45000
C  37.86800 44.36300 25.44000
C  37.40600 45.44700 28.66900
O  37.78500 44.34600 29.03800
C  37.02800 46.64100 29.71500
C  35.76100 46.11200 30.31200
O  34.66000 46.19200 29.79200
O  36.04900 45.41400 31.49500
C  34.96100 44.84400 32.34300
H  35.43500 53.38800 28.83100
H  36.18200 52.59300 22.50000
H  37.45600 46.35800 23.24600
H  35.55800 49.11200 31.08200
H  36.73000 51.77300 30.79400
H  33.99900 52.29800 30.30500
H  34.83600 52.19000 31.85000
H  33.97000 50.73800 31.13300
H  38.33600 50.35000 31.02400
H  38.33100 48.70300 30.74400
H  38.53300 49.98600 33.17500
H  38.28700 48.27900 32.78200
H  34.03800 55.67100 26.77100
H  35.71600 56.16600 26.72900
H  34.93800 55.24300 28.10800
H  35.00100 57.13100 23.23600
H  36.09700 56.85100 24.66000
H  34.22200 56.65800 24.66500
H  37.80500 50.67700 21.35000
H  36.63000 47.92200 21.36800
H  34.82700 50.28600 20.98600
H  35.73300 49.31100 19.99700
H  35.94100 51.11000 19.91200
H  39.43200 48.70200 22.30200
H  39.07500 49.01900 20.63900
H  39.69700 46.84700 20.08700
H  38.34800 46.21000 20.97300
H  39.82500 46.44500 21.89000
H  36.99000 43.89700 24.99300
H  38.26800 43.74700 26.24500
H  38.63800 44.44800 24.67200
H  37.76100 46.63500 30.52200
H  34.12000 44.43600 31.78200
H  34.74700 45.62300 33.07500
H  35.40700 44.02200 32.90400

