158

Mg -1.79500 17.59700 27.55400
C  -2.82700 15.40700 30.35900
C  -2.26300 20.26100 29.58200
C  -1.24700 19.48000 24.95900
C  -2.13600 14.69100 25.47400
N  -2.56900 17.78400 29.75900
C  -2.62700 16.77500 30.69000
C  -2.71600 17.48100 32.02500
C  -2.78700 18.97600 31.73300
C  -2.49200 19.03700 30.25700
C  -4.09600 19.44600 32.26100
C  -1.71700 17.10700 33.18700
C  -2.41400 16.56900 34.52600
H  -1.40200 16.28400 35.57300
N  -1.82600 19.64800 27.25000
C  -1.92000 20.58500 28.26800
C  -1.76700 21.91000 27.66800
C  -1.33300 21.67800 26.32000
C  -1.44300 20.25700 26.07500
C  -1.70800 23.21500 28.43800
C  -0.97400 22.67700 25.29800
O  -0.63600 22.36400 24.15600
C  -0.90700 24.16300 25.60100
N  -1.78100 17.16700 25.48400
C  -1.48000 18.14600 24.61400
C  -1.29700 17.58100 23.21600
C  -1.41700 15.98700 23.38100
C  -1.73700 15.91400 24.85800
C  -2.35200 18.10800 22.20800
C  -0.14800 15.30400 22.91400
C  1.21900 15.78700 23.58500
N  -2.39700 15.47700 27.81800
C  -2.38700 14.44400 26.88300
C  -2.93900 13.22300 27.56200
C  -3.01400 13.57000 28.90300
C  -2.73100 14.92400 29.03000
C  -3.19400 11.90800 26.92700
C  -3.35500 13.05300 30.28000
O  -3.61000 11.91200 30.67300
C  -3.10900 14.21500 31.29400
C  -1.87500 13.80500 32.05900
O  -0.73000 13.93700 31.69200
O  -2.26700 13.30800 33.28400
C  -1.19200 13.07300 34.23700
H  -2.17100 21.05400 30.32700
H  -0.98500 20.12500 24.11800
H  -2.04800 13.90000 24.72600
H  -3.68800 17.13500 32.37700
H  -2.08600 19.50200 32.38100
H  -4.81300 19.70600 31.48200
H  -3.91700 20.43600 32.68200
H  -4.53900 18.87700 33.07800
H  -0.96300 17.89200 33.24500
H  -1.03000 16.37000 32.77200
H  -2.98300 15.64400 34.43700
H  -3.01000 17.40900 34.88200
H  -2.51400 23.88200 28.13300
H  -0.77100 23.77100 28.41300
H  -1.82300 23.01800 29.50300
H  -0.17600 24.29800 26.39800
H  -1.92600 24.42700 25.88600
H  -0.57300 24.74100 24.73900
H  -0.34000 17.94400 22.84100
H  -2.27400 15.52800 22.88700
H  -2.90400 18.96800 22.58700
H  -3.01600 17.29000 21.92700
H  -1.87400 18.39400 21.27100
H  -0.15700 15.48300 21.83900
H  -0.26800 14.26400 23.21700
H  1.05900 15.95500 24.65000
H  1.61700 16.69300 23.12800
H  1.95200 14.98000 23.57100
H  -3.38500 11.10700 27.64100
H  -2.37600 11.58300 26.28500
H  -4.07200 11.99100 26.28500
H  -3.97600 14.25600 31.95400
H  -1.40100 13.53400 35.20300
H  -0.24400 13.54800 33.98200
H  -1.13300 11.98500 34.21800
Mg 36.22100 49.17500 26.05100
C  36.12700 47.17400 28.79600
C  35.12600 51.82200 27.92100
C  35.79400 51.13200 23.11100
C  36.90100 46.48400 23.95700
N  35.53700 49.46100 28.09100
C  35.70000 48.47400 29.00100
C  35.56400 49.08300 30.45500
C  35.03100 50.52600 30.17000
C  35.28200 50.63800 28.60500
C  33.61700 50.84800 30.62600
C  36.94500 48.96600 31.13500
C  36.94000 48.15200 32.50500
H  35.84800 48.56500 33.50800
N  35.58400 51.24800 25.59300
C  35.16100 52.13900 26.55800
C  34.83000 53.39100 25.91400
C  35.06100 53.20600 24.49100
C  35.51800 51.84700 24.35900
C  34.43600 54.66500 26.71100
C  34.93700 54.18300 23.33700
O  35.37900 53.95400 22.17500
C  34.29600 55.54300 23.52500
N  36.32300 48.85100 23.89700
C  36.12200 49.82300 22.91000
C  36.08000 49.20300 21.48800
C  36.45600 47.69900 21.80600
C  36.62700 47.65100 23.30800
C  34.79900 49.48400 20.67300
C  37.83500 47.30500 21.11300
C  39.20900 47.79000 21.82900
N  36.48300 47.19200 26.29200
C  36.81600 46.21300 25.37300
C  36.97600 44.95500 26.09200
C  36.78400 45.33800 27.46600
C  36.44000 46.62100 27.53300
C  37.28700 43.61700 25.48700
C  36.74700 44.81300 28.75200
O  36.95000 43.68700 29.18800
C  36.37000 46.00700 29.72900
C  35.16800 45.57900 30.47200
O  34.02400 45.67700 30.14200
O  35.54300 45.17600 31.73200
C  34.47900 44.85400 32.72400
H  34.79400 52.61500 28.59400
H  35.64100 51.64900 22.16200
H  37.17500 45.59000 23.39200
H  34.84000 48.47500 30.99600
H  35.74500 51.29200 30.47100
H  32.76800 50.83700 29.94300
H  33.68600 51.85900 31.02700
H  33.34700 50.22500 31.47900
H  37.31700 49.95500 31.40500
H  37.76900 48.52800 30.57200
H  37.84700 48.47300 33.01700
H  37.02400 47.07300 32.37700
H  33.40100 54.53800 27.02700
H  34.56200 55.62800 26.21600
H  35.19600 54.56000 27.48400
H  34.23600 55.89800 22.49700
H  34.95500 56.25300 24.02500
H  33.32700 55.57500 24.02200
H  37.02100 49.62300 21.13100
H  35.69900 47.01300 21.42800
H  33.86200 49.41400 21.22500
H  34.77300 48.61200 20.02000
H  34.90600 50.41300 20.11200
H  37.83300 47.67000 20.08600
H  37.86400 46.21700 21.04300
H  39.85600 48.27100 21.09500
H  39.73100 46.94200 22.27300
H  38.97800 48.51500 22.61000
H  38.37100 43.50800 25.47100
H  37.09300 43.71300 24.41900
H  36.74500 42.74900 25.86400
H  37.24400 46.22600 30.34200
H  34.42100 43.77000 32.82200
H  33.52400 45.27100 32.40600
H  34.64500 45.29500 33.70700

