158

Mg -2.97700 17.63500 26.72900
C  -3.32500 15.31500 29.47900
C  -3.56900 20.14000 28.97700
C  -3.25100 19.75900 24.16800
C  -3.14600 14.88700 24.67500
N  -3.46900 17.69300 29.02000
C  -3.45700 16.62400 29.92100
C  -3.60800 17.12100 31.39500
C  -3.80200 18.66200 31.15200
C  -3.69900 18.87100 29.58900
C  -5.10000 19.18000 31.77700
C  -2.36400 16.79600 32.31500
C  -2.35200 17.64500 33.59100
H  -1.89500 16.95700 34.90300
N  -3.21000 19.66600 26.64100
C  -3.30300 20.52400 27.64500
C  -2.94800 21.84400 27.10600
C  -2.82400 21.78600 25.69000
C  -3.15300 20.41900 25.44200
C  -2.89100 23.07600 28.02200
C  -2.44200 22.88700 24.73600
O  -2.30700 22.65400 23.53800
C  -2.32200 24.30800 25.16000
N  -3.39100 17.34500 24.71400
C  -3.35600 18.36000 23.86700
C  -3.59800 17.90500 22.40000
C  -3.45900 16.29700 22.57900
C  -3.28100 16.14900 24.07800
C  -4.69100 18.58600 21.56100
C  -2.23600 15.75100 21.81900
C  -0.86600 16.31900 22.25600
N  -3.08100 15.54000 26.95900
C  -3.15400 14.57900 26.00500
C  -3.05400 13.25200 26.57400
C  -3.19200 13.52200 27.93700
C  -3.19800 14.92000 28.14000
C  -2.96100 11.97500 25.85400
C  -3.37600 12.83200 29.22500
O  -3.47200 11.68300 29.58100
C  -3.42300 14.01700 30.24600
C  -2.29900 13.77300 31.10600
O  -1.12900 14.02600 30.89800
O  -2.73100 13.08400 32.20800
C  -1.67900 12.77900 33.23100
H  -3.54400 20.96800 29.69000
H  -3.41400 20.41100 23.30700
H  -3.24100 13.98000 24.07300
H  -4.49400 16.63000 31.79800
H  -3.09600 19.36800 31.58900
H  -5.68900 19.64800 30.98800
H  -4.88200 19.92400 32.54300
H  -5.69300 18.42200 32.28800
H  -1.41700 16.76100 31.77900
H  -2.65400 15.83400 32.73700
H  -3.15700 18.36400 33.74600
H  -1.55300 18.34300 33.33800
H  -1.89900 23.52400 27.96300
H  -3.15600 22.90200 29.06500
H  -3.59000 23.88300 27.79900
H  -2.40500 24.92900 24.26800
H  -1.42100 24.31900 25.77400
H  -3.17500 24.57800 25.78200
H  -2.67600 18.24100 21.92600
H  -4.39900 15.83500 22.27800
H  -5.15800 17.98100 20.78400
H  -4.34900 19.54100 21.16100
H  -5.57600 18.79200 22.16300
H  -2.28700 15.86500 20.73700
H  -2.08000 14.69200 22.02600
H  -0.90900 17.13300 22.98000
H  -0.34000 16.61600 21.34900
H  -0.31500 15.52600 22.76300
H  -3.74200 12.02700 25.09500
H  -3.12400 11.17200 26.57200
H  -1.98900 11.91900 25.36400
H  -4.34800 13.95500 30.82000
H  -2.17100 11.90100 33.64900
H  -1.57600 13.65700 33.86800
H  -0.71600 12.46100 32.83100
Mg 8.47700 4.33700 28.12400
C  10.02900 2.72200 30.96200
C  6.82200 6.18300 30.36700
C  6.90800 5.77200 25.53900
C  9.82700 1.85900 26.10800
N  8.49900 4.34100 30.38500
C  9.21500 3.72000 31.35600
C  9.06300 4.28300 32.76200
C  7.82900 5.23200 32.47500
C  7.68500 5.29100 30.94400
C  6.50200 4.85600 33.23600
C  10.38800 4.87400 33.35600
C  10.48800 5.94300 34.42900
H  11.11100 5.46400 35.72500
N  7.04900 5.81600 27.96800
C  6.50000 6.45600 29.04600
C  5.53600 7.43800 28.54500
C  5.57600 7.34700 27.09900
C  6.61600 6.30200 26.84200
C  4.58100 8.28300 29.35900
C  4.74800 8.07300 26.04600
O  5.08200 8.00800 24.93800
C  3.59100 8.97400 26.36100
N  8.41300 3.89100 26.10800
C  7.72900 4.63300 25.17100
C  7.97000 4.10500 23.80100
C  9.05900 2.97400 23.97800
C  9.04400 2.88600 25.48800
C  6.62400 3.68800 23.10100
C  10.43500 3.33500 23.38600
C  11.53300 4.13000 24.14100
N  9.70400 2.64500 28.40600
C  10.16300 1.75000 27.49100
C  10.92400 0.70600 28.12100
C  10.91600 1.12400 29.47000
C  10.16200 2.27500 29.61000
C  11.58400 -0.40500 27.44500
C  11.59900 0.78400 30.71900
O  12.37700 -0.14300 30.91500
C  10.91600 1.79100 31.79000
C  10.05400 0.93300 32.75500
O  9.15500 0.20500 32.42100
O  10.58400 1.03900 33.98200
C  9.84400 0.30200 35.07700
H  6.17600 6.74900 31.04200
H  6.50700 6.33600 24.69400
H  10.23100 1.10500 25.42900
H  8.72400 3.46000 33.39000
H  8.11100 6.19600 32.89700
H  5.70000 4.69000 32.51700
H  6.27400 5.65600 33.94000
H  6.47500 3.89900 33.75600
H  11.04400 5.11200 32.51900
H  10.67400 3.95600 33.86900
H  9.54100 6.35500 34.77800
H  11.05200 6.78900 34.03500
H  4.85500 9.32700 29.20800
H  4.58500 8.01300 30.41500
H  3.52700 8.22800 29.08600
H  3.10600 9.16500 25.40400
H  3.84100 9.79200 27.03600
H  2.82500 8.36400 26.84100
H  8.26500 4.82200 23.03400
H  8.70700 2.01100 23.60800
H  6.40000 4.32800 22.24700
H  5.77600 3.82100 23.77200
H  6.54500 2.64000 22.81300
H  10.14200 4.06000 22.62700
H  11.00500 2.61800 22.79400
H  11.05100 4.38300 25.08500
H  11.79100 5.09700 23.71000
H  12.41700 3.50100 24.24500
H  12.08200 0.05100 26.58900
H  10.94800 -1.24200 27.15800
H  12.38500 -0.68800 28.12800
H  11.64300 2.30800 32.41600
H  8.96900 -0.23600 34.71500
H  9.33600 0.95400 35.78800
H  10.55400 -0.31900 35.62400

