158

Mg 24.70200 -6.57000 46.23800
C  26.59100 -3.88800 44.94900
C  22.16800 -5.72900 44.08000
C  23.25300 -9.51800 46.98400
C  27.85700 -7.78500 47.56100
N  24.49000 -5.04800 44.67600
C  25.32100 -4.02500 44.38800
C  24.79900 -3.16400 43.27400
C  23.30700 -3.63400 43.14600
C  23.31800 -4.89000 44.01700
C  22.15000 -2.55400 43.33300
C  25.59600 -3.18100 41.92000
C  25.82700 -1.77100 41.24300
H  25.57100 -1.67500 39.78200
N  22.93600 -7.47400 45.66600
C  21.99600 -6.88000 44.83000
C  20.89200 -7.77300 44.72000
C  21.10100 -8.83600 45.56400
C  22.46000 -8.72900 46.13000
C  19.78900 -7.54200 43.72600
C  20.15900 -10.04500 45.66600
O  19.03400 -10.03500 45.28100
C  20.47100 -11.20300 46.40100
N  25.44900 -8.33600 47.14600
C  24.57100 -9.38700 47.45400
C  25.28500 -10.53300 48.19700
C  26.79500 -10.10200 47.96500
C  26.70700 -8.63500 47.67500
C  24.82400 -10.83500 49.67900
C  27.44500 -10.92700 46.86400
C  28.58700 -11.88600 47.18000
N  26.76800 -5.91700 46.42000
C  27.88800 -6.45700 47.00300
C  28.96000 -5.51900 46.96300
C  28.58700 -4.49500 46.12500
C  27.20500 -4.78100 45.84000
C  30.33300 -5.73400 47.51500
C  28.93000 -3.24800 45.43500
O  29.97500 -2.62300 45.32200
C  27.67000 -2.85200 44.61200
C  27.24800 -1.48700 44.95100
O  27.02500 -0.63100 44.10000
O  27.23700 -1.31300 46.33800
C  27.41100 0.18800 46.68600
H  21.36700 -5.46300 43.38700
H  22.74800 -10.32700 47.51600
H  28.79400 -8.27300 47.83600
H  24.78800 -2.11400 43.56600
H  23.17900 -4.02600 42.13700
H  21.26700 -3.08200 43.69200
H  21.89500 -2.27100 42.31200
H  22.51900 -1.73900 43.95600
H  24.94600 -3.71500 41.22700
H  26.56900 -3.66400 42.01300
H  26.89300 -1.58000 41.36600
H  25.27200 -1.01200 41.79500
H  18.80700 -7.39900 44.17800
H  19.55000 -8.45200 43.17600
H  19.86000 -6.74700 42.98400
H  20.59400 -10.98300 47.46100
H  21.34600 -11.64600 45.92600
H  19.59100 -11.84400 46.35400
H  25.11000 -11.44000 47.61800
H  27.36700 -10.22900 48.88500
H  24.25100 -11.76000 49.75200
H  24.19100 -10.05300 50.09900
H  25.74800 -10.98800 50.23600
H  27.74500 -10.27500 46.04500
H  26.74700 -11.61000 46.38000
H  29.12100 -11.43400 48.01600
H  29.30800 -11.90400 46.36200
H  28.19500 -12.83400 47.54700
H  31.06400 -5.74100 46.70700
H  30.33600 -6.65700 48.09400
H  30.47300 -4.84400 48.12800
H  27.98700 -2.84700 43.57000
H  28.23300 0.63200 46.12400
H  27.64500 0.30000 47.74500
H  26.48600 0.73600 46.50900
Mg 26.28600 -0.49800 30.26000
C  28.32600 -0.51100 32.95700
C  23.53400 0.00000 32.34500
C  24.36200 0.01100 27.53300
C  28.96600 -1.27700 28.11700
N  25.97000 -0.48700 32.46300
C  27.00100 -0.25300 33.30700
C  26.39800 0.04800 34.76600
C  24.85200 0.06300 34.52500
C  24.74700 -0.21600 33.03000
C  23.96600 -0.86800 35.41200
C  27.07500 1.31000 35.38000
C  27.68300 1.23000 36.75600
H  27.24300 2.18700 37.86600
N  24.27500 -0.05900 30.03900
C  23.29600 0.02700 30.94800
C  22.10200 0.37300 30.40200
C  22.22600 0.36500 28.98400
C  23.66900 0.06100 28.78000
C  20.76200 0.42300 31.19400
C  21.23900 0.65600 27.87200
O  21.47300 0.66000 26.66000
C  19.75500 0.92500 28.18100
N  26.63500 -0.67200 28.14500
C  25.63100 -0.34900 27.25300
C  26.16200 -0.28700 25.83300
C  27.61400 -0.86000 26.02100
C  27.80600 -0.83200 27.52700
C  25.33500 -1.01300 24.75900
C  28.69000 0.00900 25.24800
C  29.69000 -0.77100 24.32900
N  28.19200 -0.96900 30.41400
C  29.22100 -1.20300 29.46200
C  30.44300 -1.39600 30.16100
C  30.15900 -1.20100 31.47600
C  28.75500 -0.88600 31.59300
C  31.75600 -1.58300 29.42200
C  30.71900 -1.21100 32.80200
O  31.87600 -1.31900 33.16800
C  29.53500 -0.71600 33.84500
C  29.35400 -1.73900 34.88300
O  28.77800 -2.82700 34.73400
O  29.97500 -1.34200 35.96700
C  29.83300 -2.21900 37.12400
H  22.73900 0.14900 33.07900
H  23.70400 0.27000 26.70100
H  29.81400 -1.50400 27.46700
H  26.73700 -0.79000 35.37600
H  24.47100 1.08300 34.56600
H  22.89800 -0.69200 35.27800
H  24.27500 -0.64500 36.43300
H  24.20700 -1.89200 35.12600
H  26.41300 2.15500 35.19200
H  27.94300 1.43900 34.73300
H  28.73400 1.50100 36.65100
H  27.82700 0.21500 37.12700
H  20.11400 -0.37900 30.84100
H  20.34500 1.41700 31.02800
H  20.88500 0.24100 32.26200
H  19.69600 1.80800 28.81700
H  19.50800 0.07300 28.81500
H  19.23300 1.04700 27.23200
H  26.21900 0.75000 25.50000
H  27.67000 -1.93600 25.85300
H  24.34500 -1.22000 25.16500
H  25.71700 -2.02500 24.62600
H  25.31900 -0.45700 23.82200
H  29.32500 0.44900 26.01700
H  28.38300 0.81400 24.58000
H  30.51400 -1.02300 24.99700
H  30.12700 -0.17400 23.53000
H  29.30600 -1.70500 23.91800
H  32.43800 -1.30900 30.22600
H  31.83900 -0.99300 28.50900
H  31.85200 -2.64700 29.20700
H  29.85300 0.25300 34.23200
H  28.96800 -1.81300 37.64800
H  30.72600 -2.12100 37.74100
H  29.79900 -3.28400 36.89300

