158

Mg 0.46400 7.36700 25.30300
C  0.99500 9.44200 27.95200
C  0.16600 4.57100 27.44700
C  -0.39400 5.37600 22.59700
C  1.15000 10.00500 23.02900
N  0.71500 7.07200 27.40500
C  0.78400 8.06500 28.32800
C  0.64600 7.50800 29.79400
C  0.75200 5.92800 29.48000
C  0.56100 5.82300 27.98600
C  2.12700 5.38000 29.95700
C  -0.62200 8.03700 30.53900
C  -0.46100 8.33700 32.04400
H  1.01100 8.25800 32.71200
N  0.07800 5.27600 25.06700
C  -0.08000 4.29300 26.05600
C  -0.54000 3.05600 25.49800
C  -0.64100 3.26400 24.09800
C  -0.35400 4.70600 23.85900
C  -0.63900 1.73200 26.32800
C  -0.86600 2.24300 22.98400
O  -0.93400 2.48000 21.81900
C  -1.17500 0.83600 23.41500
N  0.36500 7.64500 23.18900
C  -0.09400 6.72600 22.29300
C  -0.33000 7.34400 20.96400
C  0.32500 8.68700 21.06600
C  0.62400 8.81000 22.50400
C  0.13400 6.52900 19.76700
C  -0.46600 9.83100 20.32100
C  0.09100 10.21800 18.90300
N  1.07700 9.30900 25.41900
C  1.30000 10.29400 24.45900
C  1.58700 11.51400 25.14300
C  1.46500 11.20600 26.49700
C  1.16700 9.83000 26.61400
C  1.95900 12.69000 24.46600
C  1.50200 11.83100 27.82900
O  1.79200 12.93500 28.20500
C  1.17300 10.67500 28.80900
C  2.37200 10.55700 29.71000
O  3.44000 10.03100 29.42300
O  2.19300 11.33700 30.84300
C  3.28200 11.67400 31.77100
H  0.12300 3.75100 28.16700
H  -0.75100 4.91000 21.67600
H  1.46000 10.81800 22.37000
H  1.57200 7.88700 30.22500
H  -0.04200 5.40700 30.01400
H  2.54700 5.89700 30.82000
H  2.90300 5.45700 29.19500
H  2.07500 4.35200 30.31500
H  -1.32700 7.20700 30.49300
H  -1.09300 8.88000 30.03400
H  -1.03800 7.67600 32.69200
H  -0.80600 9.36100 32.18500
H  -0.14500 0.95700 25.74300
H  -1.64300 1.50500 26.68800
H  -0.07400 1.72100 27.26000
H  -0.23000 0.32700 23.60500
H  -1.60400 0.53300 22.46000
H  -1.91100 0.71100 24.21000
H  -1.41100 7.43500 20.85400
H  1.33800 8.65000 20.66400
H  1.09300 6.09400 20.05100
H  0.38500 7.11500 18.88300
H  -0.60900 5.78500 19.47900
H  -0.29500 10.72800 20.91700
H  -1.52500 9.63800 20.15400
H  -0.77800 10.32200 18.25400
H  0.64300 9.34000 18.56800
H  0.65600 11.14900 18.85700
H  2.44700 12.63200 23.49300
H  2.72300 13.11300 25.11800
H  1.13000 13.35800 24.23200
H  0.27300 10.93400 29.36700
H  3.51400 12.68200 31.42800
H  4.15600 11.03300 31.65900
H  3.00600 11.80600 32.81700
Mg 25.65700 1.11600 29.58400
C  27.45100 0.71400 32.47400
C  22.84200 1.61300 31.42100
C  23.84400 1.09100 26.67500
C  28.35600 -0.25000 27.78100
N  25.27200 1.11800 31.69300
C  26.12100 1.08200 32.79800
C  25.52900 1.56200 34.13700
C  24.04100 1.71700 33.67100
C  24.01400 1.50100 32.14700
C  23.08200 0.76100 34.49500
C  26.20000 2.90700 34.57600
C  27.00700 2.77500 35.98900
H  26.59100 3.64900 37.19000
N  23.65100 1.53200 29.11500
C  22.61000 1.65000 29.99100
C  21.38400 1.60800 29.32900
C  21.66300 1.50000 27.94500
C  23.16900 1.36000 27.86900
C  20.03500 1.71100 29.94100
C  20.68700 1.49800 26.82200
O  21.06900 1.62000 25.67100
C  19.17900 1.36200 26.96100
N  26.04300 0.57400 27.53000
C  25.21100 0.79100 26.51000
C  25.83200 0.59000 25.09900
C  27.27100 0.14500 25.44700
C  27.24100 0.18100 27.03600
C  24.95800 -0.37500 24.22700
C  28.25700 1.26500 24.92100
C  29.65600 0.87900 24.57100
N  27.57600 0.41900 29.92300
C  28.58000 -0.04100 29.17400
C  29.75700 -0.24000 29.93200
C  29.37400 0.13900 31.23600
C  27.99700 0.42800 31.17900
C  31.12100 -0.72500 29.54900
C  29.78900 0.37500 32.62600
O  30.89700 0.36500 33.12600
C  28.55600 0.76300 33.43900
C  28.39800 -0.21500 34.54400
O  27.51500 -1.07700 34.56500
O  29.36800 -0.01500 35.49100
C  29.22600 -0.83800 36.71400
H  21.97100 1.81300 32.04800
H  23.31000 1.05900 25.72300
H  29.13700 -0.65900 27.13600
H  25.61100 0.77800 34.89000
H  23.77000 2.75100 33.88200
H  22.16600 1.26100 34.81000
H  23.50000 0.27900 35.37800
H  22.61400 0.05700 33.80600
H  25.44400 3.67500 34.73900
H  26.85300 3.26300 33.78000
H  28.08900 2.81000 35.85700
H  26.73000 1.78300 36.34600
H  20.18500 1.76900 31.01900
H  19.59600 0.75800 29.64500
H  19.47600 2.55300 29.53400
H  18.63700 1.18900 26.03100
H  18.81800 2.21800 27.53000
H  19.04200 0.47200 27.57500
H  25.84200 1.57900 24.64100
H  27.47200 -0.82300 24.98800
H  25.62700 -1.10200 23.76500
H  24.49900 0.20200 23.42500
H  24.25500 -0.94800 24.83100
H  28.25100 2.02800 25.69900
H  27.90000 1.68700 23.98100
H  29.87700 1.28600 23.58400
H  29.71200 -0.21000 24.55600
H  30.26700 1.21700 25.40800
H  31.21500 -1.63300 28.95300
H  31.60000 -1.02600 30.48000
H  31.52700 0.09400 28.95400
H  28.53700 1.81300 33.73100
H  28.28100 -0.73400 37.24900
H  30.08600 -0.73800 37.37500
H  29.43800 -1.86000 36.39900

