158

Mg 36.31400 49.49300 24.61900
C  36.26100 47.61200 27.65900
C  35.41200 52.28000 26.40300
C  36.20400 51.16500 21.65400
C  36.92000 46.53200 22.97000
N  35.78700 49.88200 26.82300
C  35.96800 48.99700 27.86900
C  35.67300 49.67900 29.21100
C  35.26900 51.12600 28.71800
C  35.47600 51.12000 27.17100
C  33.85500 51.68300 29.14300
C  36.96300 49.67300 30.10000
C  36.61500 49.38400 31.63600
H  35.19800 49.57100 32.22000
N  35.97000 51.45900 24.13300
C  35.68700 52.44600 25.01400
C  35.46400 53.64900 24.27800
C  35.76800 53.40300 22.89300
C  35.96300 51.91200 22.86600
C  35.08900 55.00700 24.86100
C  35.85300 54.39300 21.71000
O  36.13200 53.99900 20.58100
C  35.57500 55.88500 21.83800
N  36.44700 48.91200 22.67300
C  36.39800 49.79200 21.60700
C  36.64100 49.01900 20.20100
C  37.19100 47.69900 20.75000
C  36.79600 47.69300 22.20600
C  35.46800 48.99900 19.25800
C  38.73000 47.45200 20.46100
C  39.70600 48.34300 21.30400
N  36.49300 47.47200 25.18900
C  36.72500 46.35500 24.41100
C  36.75800 45.14400 25.21400
C  36.64700 45.62800 26.50900
C  36.45000 47.01300 26.48500
C  36.84600 43.69800 24.56700
C  36.51400 45.19300 27.91000
O  36.50900 44.07800 28.36500
C  36.36000 46.47900 28.73600
C  35.09800 46.36400 29.65900
O  33.92900 46.51400 29.40000
O  35.57800 45.78700 30.78100
C  34.45300 45.24800 31.64700
H  34.95100 53.18800 26.79800
H  36.13800 51.71800 20.71400
H  37.06200 45.66300 22.32500
H  34.83400 49.22800 29.74200
H  36.04900 51.84800 28.96300
H  33.38400 51.32200 30.05800
H  33.11300 51.73100 28.34600
H  33.99100 52.74000 29.37300
H  37.41600 50.65700 29.98400
H  37.68200 48.94700 29.71900
H  37.33300 50.05900 32.10300
H  36.89500 48.34200 31.78900
H  35.82300 55.70400 24.45700
H  35.28700 54.97900 25.93300
H  34.07600 55.32600 24.61400
H  36.12700 56.43400 22.60100
H  34.49400 56.01200 21.78500
H  36.01000 56.32900 20.94300
H  37.51600 49.47800 19.74100
H  36.61900 46.86300 20.34700
H  36.03400 48.93100 18.32900
H  34.91700 49.93400 19.36100
H  34.79600 48.16800 19.47300
H  38.88400 47.74700 19.42300
H  39.01100 46.40200 20.54100
H  40.45600 48.81300 20.66600
H  40.26000 47.93600 22.14900
H  39.17100 49.11700 21.85300
H  37.43100 43.64900 23.64800
H  35.83600 43.38700 24.30100
H  37.29400 43.03300 25.30600
H  37.21100 46.72400 29.37200
H  34.87500 44.56100 32.38000
H  33.74700 44.69200 31.03000
H  34.00200 46.14400 32.07500
Mg 25.87700 50.95200 25.87700
C  23.49400 52.01300 28.24100
C  28.03600 50.22000 28.38400
C  28.09400 50.32900 23.49800
C  23.65000 52.28700 23.31700
N  25.75000 51.16900 27.98900
C  24.67600 51.39000 28.75500
C  24.98600 51.09600 30.23800
C  26.45700 50.79200 30.25900
C  26.80300 50.77400 28.76600
C  27.35800 51.65500 31.20200
C  23.98900 50.12800 30.85500
C  23.46200 50.52800 32.24600
H  23.98000 49.77900 33.46400
N  27.83100 50.33900 25.98400
C  28.57700 50.05000 27.07400
C  29.87700 49.64900 26.64600
C  29.96000 49.65400 25.25700
C  28.55900 50.05800 24.85800
C  31.00100 49.32500 27.54000
C  31.15900 49.46100 24.23300
O  30.99100 49.34100 23.01500
C  32.55200 49.32100 24.79700
N  25.88100 51.41800 23.76000
C  26.97400 50.95300 23.01700
C  26.79300 51.21300 21.52300
C  25.34900 51.83700 21.47000
C  24.93800 51.94500 22.96900
C  27.86000 52.18200 20.87900
C  24.32000 51.18400 20.50000
C  23.98200 52.11900 19.26000
N  24.04900 51.98200 25.74900
C  23.31000 52.41100 24.65100
C  22.14000 53.00900 25.13800
C  22.11500 52.93000 26.58000
C  23.32600 52.27600 26.84200
C  21.11000 53.58800 24.23200
C  21.40300 53.27500 27.76800
O  20.34600 53.89400 27.94600
C  22.23900 52.54800 28.92700
C  22.53500 53.50100 30.04200
O  23.50000 54.25400 30.10200
O  21.50300 53.48800 30.98100
C  21.78700 54.50800 32.07600
H  28.60100 49.81600 29.22600
H  28.81800 49.98000 22.75900
H  22.89000 52.55600 22.58100
H  24.86000 52.01900 30.80500
H  26.55700 49.75000 30.56100
H  27.94400 52.37100 30.62600
H  28.04800 51.10500 31.84200
H  26.74400 52.19900 31.92000
H  24.41900 49.12700 30.87100
H  23.09000 50.03100 30.24600
H  22.40400 50.27700 32.31400
H  23.58600 51.60600 32.34700
H  30.77700 49.48900 28.59400
H  31.86500 49.96700 27.36700
H  31.20600 48.27700 27.32500
H  32.43000 48.40600 25.37700
H  32.71600 50.21800 25.39400
H  33.27100 49.44700 23.98700
H  26.82700 50.22000 21.07500
H  25.33500 52.88300 21.16300
H  28.63800 52.41600 21.60500
H  27.28500 53.02200 20.49100
H  28.26400 51.69400 19.99200
H  23.33700 50.99500 20.93300
H  24.62600 50.18400 20.19400
H  24.87600 52.43600 18.72400
H  23.42500 52.99000 19.60800
H  23.42700 51.47900 18.57400
H  20.26400 53.86300 24.86100
H  20.64100 52.93300 23.49800
H  21.58200 54.49600 23.85600
H  21.62800 51.79100 29.42100
H  21.79400 55.52400 31.68100
H  22.66400 54.20800 32.65000
H  20.90600 54.52000 32.71700

