158

Mg 17.34200 -2.48900 27.88000
C  16.51200 -0.81800 30.81200
C  19.24500 -4.70800 29.73900
C  18.32500 -3.83800 24.92500
C  15.42000 -0.20200 26.16300
N  17.76200 -2.74900 30.04100
C  17.20300 -2.05000 31.10200
C  17.61100 -2.58800 32.43400
C  18.66000 -3.68600 32.02600
C  18.52100 -3.79500 30.50400
C  20.15400 -3.39800 32.51000
C  16.41100 -3.06000 33.32600
C  16.52600 -2.47000 34.76100
H  17.92200 -2.44000 35.37600
N  18.42200 -4.14000 27.49600
C  19.17000 -4.92400 28.32500
C  19.93900 -5.94000 27.63300
C  19.66100 -5.64800 26.22400
C  18.78200 -4.48000 26.17800
C  20.71300 -7.07000 28.32200
C  20.22000 -6.38900 25.01900
O  20.01900 -6.08300 23.85300
C  21.09200 -7.60500 25.18100
N  16.94600 -2.07300 25.77900
C  17.33100 -2.84600 24.74400
C  16.81100 -2.42900 23.43800
C  15.65000 -1.35800 23.87600
C  16.00700 -1.16100 25.36200
C  17.90900 -1.91200 22.57300
C  14.10400 -1.69400 23.70300
C  13.62600 -3.08600 23.98900
N  16.40600 -0.65600 28.23100
C  15.52600 0.08900 27.49800
C  14.95500 1.15300 28.25400
C  15.35300 0.84300 29.57800
C  16.20000 -0.24800 29.55200
C  14.02100 2.15200 27.87500
C  15.31300 1.28000 30.94100
O  14.92400 2.37100 31.49500
C  15.98100 0.13400 31.81100
C  17.06200 0.74700 32.67200
O  18.17800 0.99400 32.34000
O  16.52300 1.12500 33.82100
C  17.28900 1.91900 34.80700
H  20.03200 -5.26600 30.25200
H  18.62900 -4.35800 24.01500
H  14.76000 0.55400 25.73400
H  18.12800 -1.68200 32.74800
H  18.39800 -4.67000 32.41500
H  20.22500 -2.68300 33.32900
H  20.82300 -3.10500 31.70100
H  20.55300 -4.26200 33.04200
H  16.34200 -4.13700 33.47500
H  15.46100 -2.66100 32.96800
H  15.81100 -3.03500 35.35900
H  16.15000 -1.45000 34.67700
H  20.37000 -8.05000 27.99200
H  20.62000 -7.04900 29.40800
H  21.73500 -6.92100 27.97300
H  22.05200 -7.19400 25.49300
H  21.31700 -8.09200 24.23100
H  20.61600 -8.30900 25.86300
H  16.29600 -3.19600 22.85900
H  15.86200 -0.34300 23.54000
H  18.75200 -1.64900 23.21200
H  17.60300 -1.05500 21.97300
H  18.23500 -2.61300 21.80400
H  13.83600 -1.43200 22.67900
H  13.47200 -1.04500 24.30800
H  12.82700 -3.14900 24.72700
H  14.42600 -3.72500 24.36300
H  13.34000 -3.64300 23.09600
H  14.43900 2.79600 27.10200
H  13.62200 2.75300 28.69300
H  13.11300 1.72200 27.45200
H  15.23200 -0.40400 32.39200
H  18.36400 1.99000 34.64300
H  17.28200 1.37200 35.74900
H  17.01800 2.97500 34.79400
Mg 48.09600 45.27000 42.86500
C  44.59200 45.26900 42.12400
C  48.26800 42.22500 41.37600
C  51.44800 45.81300 42.54900
C  47.70000 48.61100 43.88100
N  46.59400 43.94100 41.75400
C  45.25300 44.15800 41.65300
C  44.67600 43.05400 40.68600
C  45.72500 41.91300 40.76800
C  46.94200 42.67300 41.38400
C  45.36400 40.61500 41.47600
C  44.64500 43.69400 39.30000
C  43.25900 43.67400 38.55000
H  43.22300 43.47200 37.04900
N  49.69200 44.11000 42.25100
C  49.52400 42.83200 41.75100
C  50.85200 42.21500 41.68600
C  51.84900 43.24100 42.04100
C  51.02200 44.47500 42.28100
C  51.10200 40.70300 41.39300
C  53.31400 43.11000 42.09500
O  53.79200 42.05300 41.83900
C  54.33500 44.27100 42.28400
N  49.40900 47.18800 42.77300
C  50.72300 46.99100 42.82300
C  51.45100 48.29000 43.24200
C  50.24700 49.25700 43.65200
C  49.04200 48.24200 43.50800
C  52.44000 48.11300 44.40900
C  49.99000 50.60900 42.80600
C  49.38000 51.78000 43.56100
N  46.51000 46.65100 43.11700
C  46.49800 47.91800 43.65400
C  45.13200 48.30000 43.89300
C  44.42100 47.31600 43.18500
C  45.28300 46.35900 42.76300
C  44.70300 49.53600 44.75000
C  43.05500 46.99000 42.78700
O  41.98400 47.53000 43.02400
C  43.12500 45.70400 41.95100
C  42.09100 44.73700 42.54600
O  41.44400 43.95600 41.84700
O  42.15700 44.64200 43.87100
C  41.24900 43.72500 44.58600
H  48.47300 41.19300 41.08400
H  52.53600 45.89000 42.50800
H  47.63600 49.63200 44.26100
H  43.65800 42.86300 41.02500
H  46.06200 41.59200 39.78200
H  45.57600 39.76700 40.82400
H  44.30500 40.56900 41.73300
H  45.98800 40.72000 42.36300
H  45.28700 43.12500 38.62700
H  44.98300 44.72100 39.16200
H  42.63800 44.51700 38.85400
H  42.87000 42.78800 39.05000
H  51.91900 40.63800 40.67500
H  50.23400 40.28300 40.88500
H  51.34100 40.13000 42.28900
H  54.12900 44.86300 41.39300
H  55.36100 43.90500 42.24200
H  54.19700 44.81300 43.21900
H  51.86400 48.82200 42.38500
H  50.21600 49.46400 44.72100
H  53.27000 47.50200 44.05300
H  51.99100 47.43500 45.13400
H  52.85000 49.09100 44.66200
H  49.46100 50.40600 41.87400
H  51.01900 50.88400 42.57500
H  48.45100 52.20800 43.18500
H  50.08200 52.61100 43.63200
H  49.27300 51.53700 44.61800
H  45.22000 49.54900 45.71000
H  43.66000 49.35400 45.00600
H  44.99300 50.44500 44.22200
H  42.82500 45.85200 40.91300
H  40.30900 43.47700 44.09100
H  41.05000 44.25400 45.51800
H  41.64000 42.75800 44.90100

