158

Mg 24.68100 -7.05800 45.36700
C  26.96800 -4.51500 44.24600
C  22.28100 -5.66400 43.39500
C  23.06600 -10.00100 45.60400
C  27.46800 -8.56200 47.00300
N  24.71800 -5.26800 44.00800
C  25.70700 -4.41000 43.64100
C  25.17700 -3.35900 42.63300
C  23.62400 -3.58200 42.72600
C  23.51700 -4.91700 43.38900
C  22.89600 -2.47600 43.45400
C  25.66500 -3.55300 41.24000
C  26.26100 -2.25100 40.53300
H  26.03800 -2.25400 39.02500
N  22.83700 -7.67600 44.67800
C  22.01300 -7.00400 43.86800
C  20.83400 -7.80600 43.49900
C  20.96400 -9.01800 44.16300
C  22.34500 -8.96700 44.86200
C  19.73900 -7.33900 42.58800
C  19.85100 -10.10500 44.24700
O  18.83500 -10.02000 43.59800
C  19.98700 -11.26400 45.26400
N  25.16200 -8.95400 46.31900
C  24.34900 -10.00300 46.24800
C  24.90600 -11.22700 47.00200
C  26.24200 -10.77100 47.42400
C  26.26200 -9.32900 46.97500
C  24.01600 -11.73500 48.13600
C  27.40200 -11.74800 46.90000
C  28.71300 -11.70300 47.65100
N  26.73900 -6.57900 45.74200
C  27.70100 -7.30100 46.38600
C  28.94200 -6.47900 46.48200
C  28.74800 -5.43500 45.63500
C  27.35600 -5.54100 45.16600
C  30.21500 -6.92900 47.23100
C  29.26000 -4.22100 45.02700
O  30.39300 -3.84300 45.08900
C  28.14100 -3.57400 44.15600
C  27.86000 -2.21700 44.71800
O  27.42400 -1.98600 45.82900
O  27.85900 -1.33500 43.66900
C  27.38700 0.01000 43.74200
H  21.55400 -5.10200 42.80400
H  22.69700 -11.02800 45.56700
H  28.22400 -9.13600 47.54300
H  25.34900 -2.37000 43.06000
H  23.21000 -3.74600 41.73100
H  22.07200 -2.88000 44.04200
H  22.42000 -1.83200 42.71400
H  23.59000 -1.92400 44.08800
H  24.81100 -3.85800 40.63600
H  26.45600 -4.30200 41.28500
H  27.31500 -2.26700 40.81100
H  25.88200 -1.30400 40.91500
H  19.81000 -7.90000 41.65600
H  19.83300 -6.25900 42.47600
H  18.73200 -7.42500 42.99600
H  19.02500 -11.77500 45.21600
H  20.21600 -10.92700 46.27500
H  20.71200 -12.03500 45.00500
H  25.04000 -11.98600 46.23100
H  26.29900 -10.82900 48.51100
H  24.60000 -11.88400 49.04400
H  23.49000 -12.65900 47.89700
H  23.23900 -11.01700 48.39700
H  27.64800 -11.56000 45.85500
H  26.98800 -12.75600 46.92900
H  29.51900 -11.19400 47.12300
H  29.13200 -12.70600 47.72100
H  28.58900 -11.34400 48.67300
H  30.10700 -6.90200 48.31500
H  31.06100 -6.36000 46.84700
H  30.37500 -7.97800 46.98100
H  28.67200 -3.44400 43.21300
H  27.49600 0.38200 44.76100
H  26.32600 0.12800 43.52200
H  28.06300 0.66400 43.19100
Mg -6.36000 25.03600 25.97300
C  -4.57000 26.59100 28.51900
C  -8.13200 23.30600 28.38400
C  -7.48400 22.89300 23.56800
C  -4.16000 26.52900 23.68900
N  -6.20900 24.85300 28.25100
C  -5.48400 25.70200 29.09200
C  -5.88200 25.50600 30.54700
C  -6.90100 24.31500 30.46700
C  -7.09000 24.11600 28.93100
C  -6.48400 22.99800 31.28500
C  -6.36600 26.83600 31.19000
C  -6.04000 27.00500 32.64100
H  -5.84900 25.84100 33.55300
N  -7.71300 23.38900 25.96400
C  -8.44800 22.96100 27.02800
C  -9.43400 22.02700 26.50700
C  -9.22600 21.89400 25.07700
C  -8.06000 22.70000 24.81800
C  -10.49600 21.39100 27.35400
C  -10.04300 20.96700 24.01100
O  -9.80900 21.00800 22.78800
C  -11.13900 20.07500 24.52900
N  -5.83000 24.75100 23.96500
C  -6.42900 23.78800 23.11200
C  -5.65600 23.70700 21.76100
C  -4.95500 25.16000 21.73600
C  -4.94600 25.49900 23.24200
C  -4.70600 22.47500 21.76300
C  -5.67300 26.29500 20.93200
C  -4.72700 27.13300 19.97400
N  -4.84900 26.40400 25.97200
C  -4.10400 26.90900 25.00600
C  -3.15700 27.89300 25.55000
C  -3.40400 27.80000 26.95200
C  -4.36700 26.84900 27.12600
C  -2.12300 28.66200 24.79000
C  -2.86900 28.29500 28.22300
O  -1.89600 28.99800 28.48300
C  -3.63600 27.45400 29.35000
C  -2.63000 26.77500 30.24000
O  -2.41700 25.56500 30.23000
O  -2.26600 27.57500 31.24800
C  -1.68100 27.04800 32.47200
H  -8.61500 22.67600 29.13400
H  -7.86000 22.26800 22.75500
H  -3.44000 27.02100 23.03300
H  -4.97100 25.19600 31.05900
H  -7.80400 24.73600 30.91000
H  -6.38800 22.11400 30.65400
H  -7.17800 22.90600 32.12000
H  -5.48100 23.06700 31.70500
H  -7.44300 26.89900 31.34400
H  -6.08600 27.68300 30.56400
H  -6.68600 27.76300 33.08200
H  -5.02300 27.39300 32.70300
H  -11.47100 21.46900 26.87400
H  -10.55000 21.86000 28.33600
H  -10.35400 20.31400 27.43600
H  -12.06700 20.59000 24.77600
H  -10.69900 19.39800 25.26100
H  -11.37400 19.41200 23.69600
H  -6.27200 23.57800 20.87100
H  -3.92600 25.08600 21.38300
H  -4.88800 21.99300 20.80300
H  -4.91200 21.79500 22.58900
H  -3.68500 22.85600 21.78100
H  -6.26900 26.93700 21.58000
H  -6.39700 25.72300 20.35000
H  -4.81100 28.15700 20.33800
H  -5.18300 27.09200 18.98500
H  -3.65700 26.94900 20.07200
H  -1.71600 28.18000 23.90200
H  -1.32900 28.88700 25.50200
H  -2.53100 29.58700 24.38100
H  -4.20300 28.22800 29.86600
H  -0.87700 26.34100 32.26600
H  -2.50300 26.63500 33.05600
H  -1.26400 27.93200 32.95300

