158

Mg 48.51500 16.53700 28.87600
C  46.28300 16.27800 31.74800
C  50.81200 18.12300 30.89100
C  50.24900 17.01400 26.10300
C  45.71500 15.53400 26.95800
N  48.42200 17.23700 31.01600
C  47.52900 16.89500 32.04600
C  48.08800 17.36400 33.44800
C  49.34300 18.25700 32.96300
C  49.58700 17.77100 31.54500
C  49.22400 19.73600 33.22700
C  48.31500 16.19200 34.47400
C  47.48700 16.45800 35.84200
H  47.41400 17.92500 36.34200
N  50.31400 17.33500 28.54500
C  51.13600 17.84800 29.48600
C  52.38300 18.24000 28.77500
C  52.24800 17.91800 27.40200
C  50.86600 17.40000 27.30400
C  53.54800 19.00800 29.47000
C  53.27900 18.04200 26.23800
O  53.19300 17.59500 25.10400
C  54.60600 18.63900 26.63900
N  48.02800 16.33500 26.87600
C  49.02200 16.41300 25.94400
C  48.42400 16.10700 24.53100
C  47.00100 15.53900 24.87200
C  46.92300 15.75500 26.34100
C  48.37900 17.44000 23.74200
C  46.81000 14.11600 24.42600
C  46.20500 13.80600 23.05800
N  46.47200 15.84000 29.24000
C  45.45300 15.53300 28.29900
C  44.25600 15.16400 29.03300
C  44.52800 15.42700 30.39700
C  45.85600 15.97400 30.42500
C  43.01100 14.70200 28.54300
C  43.98500 15.38900 31.70100
O  42.89500 14.89600 32.09800
C  45.13800 15.89700 32.63300
C  44.59300 17.07900 33.40800
O  44.32900 18.22000 32.98700
O  44.14400 16.52100 34.59500
C  43.42100 17.38300 35.50000
H  51.54600 18.58800 31.55300
H  50.94700 17.10200 25.26800
H  44.93500 15.31500 26.22600
H  47.36500 18.11700 33.76500
H  50.15700 17.98200 33.63300
H  50.18000 20.13600 33.56700
H  48.49900 19.97900 34.00300
H  48.85800 20.34200 32.39800
H  49.38900 16.06000 34.60300
H  47.94000 15.30800 33.95900
H  48.02700 15.83900 36.55800
H  46.49000 16.10800 35.57300
H  53.74100 19.96700 28.98900
H  54.39800 18.32500 29.47000
H  53.23900 19.14900 30.50600
H  54.79100 19.70700 26.75500
H  55.30900 18.42900 25.83200
H  55.09900 18.17900 27.49500
H  49.10600 15.41900 24.03300
H  46.28500 16.14200 24.31400
H  48.55800 17.10600 22.72000
H  49.10900 18.22900 23.91800
H  47.43400 17.98300 23.76000
H  46.08700 13.67100 25.11000
H  47.79400 13.65000 24.46600
H  46.96800 13.55600 22.32100
H  45.70200 14.73000 22.77600
H  45.51100 12.97300 23.17000
H  42.44200 15.42800 27.96100
H  42.38700 14.52700 29.41900
H  43.13600 13.76400 28.00200
H  45.34500 15.11400 33.36200
H  42.44800 17.68900 35.11500
H  44.01300 18.28600 35.65000
H  43.28500 16.85300 36.44200
Mg -12.74000 16.28700 42.85000
C  -9.52400 14.97200 42.14300
C  -11.69700 19.18000 41.59900
C  -16.06200 17.18000 42.81500
C  -13.72300 13.06900 43.94500
N  -10.86400 16.96800 42.10500
C  -9.62200 16.34900 41.98200
C  -8.56400 17.35300 41.62700
C  -9.26800 18.64900 41.76600
C  -10.69200 18.22800 41.78500
C  -8.96900 19.40400 43.03900
C  -8.11200 17.02500 40.21700
C  -6.65700 17.40100 39.82400
H  -6.04000 16.42300 38.83600
N  -13.75000 17.95500 42.26700
C  -13.11700 19.08900 41.78600
C  -14.07500 20.11200 41.44800
C  -15.36300 19.52500 41.71700
C  -15.11700 18.15600 42.29400
C  -13.67200 21.44500 40.84000
C  -16.70600 20.22900 41.52400
O  -16.77700 21.38600 41.16800
C  -18.03900 19.54300 41.73200
N  -14.68900 15.22200 43.38800
C  -15.88000 15.84100 43.26400
C  -16.91900 14.93500 43.80600
C  -16.05400 13.76100 44.40800
C  -14.73100 13.94200 43.86600
C  -17.98000 15.60400 44.78300
C  -16.67900 12.34500 43.99200
C  -17.20700 11.43600 45.18900
N  -11.82800 14.37700 43.11000
C  -12.33400 13.17800 43.50900
C  -11.28100 12.16200 43.45000
C  -10.18100 12.78700 42.92800
C  -10.53800 14.12900 42.69300
C  -11.51900 10.69900 43.67100
C  -8.79200 12.62500 42.54200
O  -8.06200 11.63400 42.55800
C  -8.33700 14.04800 42.01400
C  -7.27200 14.51600 42.89400
O  -7.42800 14.72900 44.07400
O  -6.06800 14.63100 42.15600
C  -4.94600 15.21100 42.82700
H  -11.43600 20.23200 41.47100
H  -17.08400 17.56200 42.85600
H  -13.90400 12.01500 44.16700
H  -7.63100 17.27000 42.18500
H  -9.08500 19.29500 40.90700
H  -9.79000 19.30000 43.74800
H  -8.93600 20.47100 42.82000
H  -8.02100 19.08200 43.46800
H  -8.79300 17.52200 39.52500
H  -8.27900 15.96400 40.03400
H  -6.05500 17.54200 40.72200
H  -6.45000 18.39700 39.43200
H  -13.30800 21.24900 39.83200
H  -12.86400 21.81000 41.47500
H  -14.49100 22.16000 40.92000
H  -18.18500 19.37500 42.79900
H  -17.90900 18.56500 41.26700
H  -18.85200 20.13100 41.30600
H  -17.54700 14.64900 42.96300
H  -16.02300 13.76300 45.49700
H  -17.53200 16.55400 45.07400
H  -18.20900 14.99100 45.65400
H  -18.89400 15.73700 44.20300
H  -15.98800 11.77400 43.37200
H  -17.50200 12.48100 43.29000
H  -17.01900 10.38300 44.98400
H  -18.28700 11.54300 45.09600
H  -16.87900 11.53900 46.22400
H  -12.50700 10.37100 43.34900
H  -11.36400 10.33000 44.68500
H  -10.74700 10.20300 43.08300
H  -7.86600 13.85300 41.05100
H  -5.21700 16.15900 43.29300
H  -4.18300 15.35000 42.06200
H  -4.56400 14.58400 43.63200

