158

Mg 54.55600 23.58400 44.75000
C  52.03200 25.66400 43.57200
C  52.96000 20.97800 42.84500
C  57.31500 21.61300 44.85800
C  56.32500 26.32100 45.58700
N  52.85100 23.43400 43.14100
C  51.93900 24.40500 42.88400
C  50.84500 23.98400 41.87400
C  51.05500 22.42700 41.84500
C  52.34200 22.20900 42.70600
C  49.82700 21.58500 42.36100
C  51.06600 24.85500 40.59100
C  51.22000 24.12000 39.26300
H  51.30200 24.84900 37.90600
N  55.03000 21.55500 44.16300
C  54.20400 20.69600 43.42200
C  54.87300 19.36200 43.39400
C  56.06400 19.48100 44.12400
C  56.18300 20.88000 44.50700
C  54.30400 18.34300 42.51200
C  57.04000 18.40800 44.28800
O  56.92700 17.32700 43.67600
C  58.22800 18.46000 45.23400
N  56.53300 23.94900 45.01500
C  57.51400 22.91700 45.11700
C  58.81200 23.56600 45.51200
C  58.58400 25.11000 45.66000
C  57.06600 25.11800 45.43300
C  59.48000 22.95800 46.75500
C  59.44500 26.04600 44.80400
C  60.06400 27.15500 45.63800
N  54.22400 25.62700 44.85500
C  54.97400 26.57000 45.41900
C  54.28400 27.82300 45.46100
C  53.05600 27.50600 44.79000
C  53.12400 26.19400 44.33600
C  54.72700 29.08500 46.10000
C  51.79300 28.01800 44.39300
O  51.37300 29.15400 44.55200
C  51.06600 26.84000 43.60200
C  50.62900 27.42300 42.35400
O  51.38700 27.90300 41.52300
O  49.25800 27.44200 42.27900
C  48.67500 28.09300 41.06100
H  52.46600 20.11500 42.39400
H  58.18800 20.98600 44.66700
H  56.95100 27.15500 45.91100
H  49.89200 24.31500 42.28800
H  51.24100 22.07000 40.83200
H  49.07700 21.63300 41.57100
H  49.45700 21.88300 43.34200
H  50.24800 20.58200 42.29400
H  52.00500 25.40600 40.63500
H  50.31100 25.63800 40.51900
H  50.52300 23.28700 39.17800
H  52.21500 23.67500 39.24000
H  54.11500 18.77400 41.52900
H  53.38300 17.96500 42.95600
H  54.81800 17.40000 42.32300
H  58.17100 19.20000 46.03200
H  58.89300 18.94800 44.52200
H  58.51300 17.47500 45.60500
H  59.57400 23.44600 44.74200
H  58.56700 25.41600 46.70600
H  59.31600 23.60300 47.61700
H  60.56600 23.04600 46.71400
H  59.04400 21.97700 46.94300
H  58.82600 26.46300 44.01000
H  60.24100 25.48500 44.31400
H  59.74400 28.13200 45.27600
H  61.14000 26.98200 45.62300
H  59.80000 27.07800 46.69200
H  55.81000 29.12000 45.98600
H  54.59900 29.15800 47.18000
H  54.35400 29.87300 45.44500
H  50.17200 26.51600 44.13500
H  49.08600 27.64700 40.15600
H  48.91100 29.15600 41.00500
H  47.58700 28.11000 41.12200
Mg 47.71100 44.26000 42.69000
C  44.08500 43.63300 42.83900
C  48.09300 40.80600 42.23200
C  50.94400 44.76200 42.66600
C  46.99600 47.62400 42.85800
N  46.27800 42.42700 42.59100
C  44.84900 42.48000 42.58700
C  44.36200 41.03200 42.51200
C  45.58800 40.09600 42.33300
C  46.74600 41.15700 42.41900
C  45.77900 38.92600 43.42400
C  43.46600 40.90000 41.22500
C  43.95100 41.61200 39.91400
H  44.35000 40.79000 38.78000
N  49.35200 42.97300 42.40000
C  49.26400 41.60500 42.30500
C  50.65800 41.16500 42.03600
C  51.57100 42.26500 42.28100
C  50.67100 43.42900 42.51800
C  51.04100 39.70700 41.69300
C  53.07700 42.16800 42.21400
O  53.71900 41.12100 41.95100
C  53.86000 43.43200 42.53400
N  48.83400 45.93000 42.57900
C  50.17200 45.93800 42.70600
C  50.70800 47.35800 42.79400
C  49.43000 48.26800 42.65800
C  48.37300 47.21900 42.67900
C  51.77000 47.64500 43.97200
C  49.25700 49.11200 41.36700
C  49.82300 50.52600 41.46100
N  45.90600 45.41400 42.78200
C  45.84000 46.81400 42.95000
C  44.47200 47.17200 43.12100
C  43.78300 45.93600 43.01100
C  44.68200 44.86300 42.92600
C  43.73700 48.45300 43.32400
C  42.46600 45.39600 43.22200
O  41.35200 45.86300 43.41600
C  42.57800 43.86800 43.02400
C  41.88700 43.23200 44.14900
O  40.95000 42.45200 44.02100
O  42.43600 43.64100 45.40200
C  41.78100 43.12300 46.60000
H  48.33700 39.76700 42.00200
H  51.99300 45.04000 42.78900
H  46.74400 48.66900 43.05200
H  43.62400 40.97700 43.31200
H  45.75900 39.67500 41.34200
H  44.84800 38.76600 43.96900
H  46.50800 39.34700 44.11600
H  46.16900 37.95300 43.12400
H  42.46500 41.26200 41.45900
H  43.34000 39.84900 40.96500
H  44.80100 42.24800 40.16200
H  43.05600 42.21600 39.77000
H  50.14600 39.14300 41.42800
H  51.60200 39.27400 42.52100
H  51.78900 39.72100 40.90000
H  53.65800 44.11500 41.70900
H  54.94500 43.37500 42.45400
H  53.51400 43.86300 43.47400
H  51.29700 47.61400 41.91400
H  49.19500 48.82100 43.56700
H  52.79400 47.61900 43.60000
H  51.68900 46.83800 44.70000
H  51.53600 48.56800 44.50300
H  48.21800 49.20000 41.04900
H  49.85700 48.58500 40.62600
H  50.70000 50.61100 40.81900
H  50.19500 50.76100 42.45800
H  49.13900 51.33200 41.19400
H  43.17000 48.42500 44.25400
H  43.14200 48.50400 42.41200
H  44.54300 49.18000 43.43000
H  41.97900 43.51000 42.18700
H  40.78000 42.72900 46.42200
H  41.81900 43.81900 47.43800
H  42.44200 42.29400 46.85200

