158

Mg 36.04200 48.59800 24.83600
C  36.04500 46.67500 27.85700
C  34.14200 50.84000 26.47600
C  35.10100 49.93100 21.84000
C  37.13200 45.78800 23.18500
N  35.08500 48.63700 26.95800
C  35.34900 47.88900 28.01700
C  35.05300 48.68300 29.32000
C  34.25000 49.88300 28.76700
C  34.56100 49.82900 27.33000
C  32.69200 49.94600 29.18500
C  36.35000 49.13600 30.02700
C  36.29600 49.64900 31.54300
H  34.96900 49.64700 32.36100
N  34.99700 50.37200 24.22900
C  34.33900 51.14200 25.06300
C  33.83800 52.35900 24.37200
C  34.18400 52.05800 23.02300
C  34.71400 50.69200 22.96700
C  33.00500 53.49900 24.92600
C  34.15300 52.97300 21.83500
O  34.58600 52.60400 20.73700
C  33.68600 54.43300 22.02700
N  35.92500 47.92200 22.87600
C  35.57400 48.66000 21.85400
C  35.72800 47.91100 20.41400
C  36.52800 46.69800 20.87100
C  36.55500 46.76600 22.42400
C  34.31600 47.58000 19.82400
C  37.96100 46.65000 20.22800
C  38.89900 47.83900 20.57400
N  36.47700 46.59500 25.37600
C  37.08000 45.65000 24.59700
C  37.41100 44.51400 25.42200
C  37.09300 44.90100 26.76500
C  36.54300 46.19400 26.61700
C  37.97400 43.20400 24.99300
C  36.99700 44.53900 28.13300
O  37.22100 43.45000 28.64700
C  36.49900 45.77800 28.96600
C  35.54700 45.34600 30.07300
O  34.54800 44.71200 29.90600
O  36.04600 45.89300 31.20600
C  35.15000 45.61000 32.39900
H  33.44900 51.58500 26.87200
H  34.89300 50.36000 20.85800
H  37.47900 44.87500 22.69700
H  34.48500 48.08900 30.03500
H  34.55900 50.85500 29.15100
H  32.47700 49.10000 29.83700
H  32.06600 49.85500 28.29700
H  32.52300 50.90900 29.66600
H  36.78700 49.89000 29.37200
H  37.11800 48.36900 30.13000
H  36.55300 50.70800 31.52300
H  37.12400 49.21600 32.10500
H  33.56400 54.42700 25.04200
H  32.71000 53.30400 25.95700
H  32.10400 53.53400 24.31300
H  33.75600 54.96100 21.07500
H  34.46300 54.78600 22.70500
H  32.69000 54.44300 22.46800
H  36.28400 48.49400 19.67900
H  36.08500 45.74600 20.58000
H  34.33400 46.51100 19.61300
H  34.11300 48.12500 18.90200
H  33.58700 47.82100 20.59700
H  37.97500 46.58700 19.14000
H  38.48900 45.76200 20.57700
H  38.89300 48.51500 19.71900
H  39.88100 47.37500 20.67500
H  38.70300 48.49700 21.42000
H  38.57100 43.42900 24.10900
H  37.13600 42.58300 24.67900
H  38.63900 42.88800 25.79700
H  37.39100 46.09200 29.50800
H  35.22200 44.65100 32.91300
H  34.12500 45.70000 32.04100
H  35.34300 46.36800 33.15700
Mg -12.35900 16.01500 41.87000
C  -9.44600 14.10500 41.40500
C  -11.11200 18.65900 40.27900
C  -15.60100 17.18700 41.72600
C  -14.00600 12.75200 42.50400
N  -10.49000 16.32100 40.95100
C  -9.33900 15.50500 40.92600
C  -8.13400 16.25200 40.30900
C  -8.73800 17.64600 40.03400
C  -10.16800 17.61000 40.54000
C  -7.93100 18.93100 40.43700
C  -7.39300 15.62200 39.12000
C  -5.85900 15.54300 39.07000
H  -5.18500 16.36300 37.93700
N  -13.19500 17.76300 41.22600
C  -12.50500 18.73200 40.57100
C  -13.29900 19.88200 40.34300
C  -14.66200 19.43200 40.63600
C  -14.53900 18.07800 41.23000
C  -12.79900 21.31200 39.89300
C  -15.93800 20.17200 40.39800
O  -15.89700 21.25200 39.87500
C  -17.27500 19.65300 40.79800
N  -14.47700 15.06400 42.04400
C  -15.54500 15.88300 42.13800
C  -16.84800 15.12500 42.49800
C  -16.32900 13.61500 42.76200
C  -14.86100 13.80200 42.29200
C  -17.63000 15.65700 43.70400
C  -17.04000 12.42700 41.97600
C  -17.10000 12.45900 40.41500
N  -11.83200 13.87600 42.16300
C  -12.62000 12.75500 42.41900
C  -11.69400 11.57900 42.57700
C  -10.43000 12.10500 42.15300
C  -10.59800 13.46400 41.91400
C  -12.02100 10.18800 42.84700
C  -9.02800 11.74700 41.87000
O  -8.41100 10.75300 42.16000
C  -8.36100 13.03300 41.27500
C  -7.14500 13.28600 42.09400
O  -7.18400 13.55400 43.30000
O  -5.98400 13.17800 41.31700
C  -4.90000 13.66600 42.15400
H  -10.68100 19.56900 39.85700
H  -16.65500 17.45900 41.64400
H  -14.54800 11.81200 42.62500
H  -7.47800 16.37300 41.17100
H  -8.98100 17.80300 38.98300
H  -6.95000 18.49500 40.62700
H  -8.28000 19.27300 41.41100
H  -7.86000 19.79800 39.77900
H  -7.63700 16.09400 38.16900
H  -7.73200 14.58800 39.06300
H  -5.64400 14.48900 38.88900
H  -5.27300 15.68800 39.97800
H  -12.70700 21.35800 38.80700
H  -11.78300 21.42000 40.27300
H  -13.41600 22.10600 40.31300
H  -17.51100 18.76100 40.21700
H  -17.99900 20.41500 40.50800
H  -17.25500 19.47100 41.87200
H  -17.55400 15.08700 41.66900
H  -16.40700 13.31700 43.80800
H  -18.68400 15.58100 43.43800
H  -17.32100 16.68300 43.90700
H  -17.49700 15.05200 44.60000
H  -18.04000 12.32000 42.39700
H  -16.73900 11.39100 42.12800
H  -16.48300 13.31800 40.15000
H  -18.06000 12.68700 39.95100
H  -16.65700 11.53900 40.03200
H  -12.55300 9.75300 42.00100
H  -12.61100 10.29700 43.75800
H  -11.09400 9.61700 42.88300
H  -8.23500 12.90400 40.20000
H  -4.89400 14.70400 42.48900
H  -4.04200 13.59800 41.48500
H  -4.74400 13.08900 43.06500

