158

Mg 35.65600 2.18900 30.10400
C  32.95000 3.09600 32.24000
C  37.81800 2.59200 32.84700
C  38.15500 1.73400 28.01200
C  33.31800 2.22500 27.54400
N  35.42100 2.91100 32.34900
C  34.18500 2.95000 32.97800
C  34.44300 3.08200 34.51800
C  36.01400 3.42100 34.59700
C  36.46400 2.94600 33.22600
C  36.39100 4.90100 34.85000
C  34.07200 1.88600 35.32400
C  33.46700 2.09200 36.68600
H  34.17500 3.06400 37.62900
N  37.65300 1.99800 30.45500
C  38.38500 2.10800 31.58700
C  39.80200 1.86300 31.34600
C  39.93900 1.49900 29.94100
C  38.55900 1.74000 29.42900
C  40.85700 1.87400 32.46400
C  41.11700 1.07200 29.06800
O  41.13300 0.95200 27.88000
C  42.42400 0.76600 29.74300
N  35.68000 1.94200 28.06100
C  36.89900 1.80700 27.43500
C  36.71000 1.52200 25.93600
C  35.10900 1.26700 25.86400
C  34.61100 1.81900 27.22900
C  37.07600 2.75700 25.04200
C  34.63000 -0.19100 25.69500
C  33.60300 -0.39800 24.59500
N  33.62300 2.87000 29.82200
C  32.76300 2.77200 28.71000
C  31.31700 3.04400 29.07700
C  31.43500 3.27200 30.46300
C  32.81300 3.04900 30.82300
C  30.12600 3.01200 28.14800
C  30.62300 3.61600 31.64800
O  29.48700 3.83400 31.79900
C  31.57300 3.49200 32.85100
C  31.49200 4.78700 33.50700
O  31.93400 5.81900 33.07900
O  31.09500 4.56700 34.79200
C  31.35200 5.67700 35.69300
H  38.42300 2.70700 33.74900
H  38.95300 1.45900 27.32000
H  32.61100 1.97700 26.74900
H  33.83500 3.82900 35.02900
H  36.32100 2.84800 35.47200
H  35.47100 5.31500 35.26300
H  36.62800 5.52400 33.98700
H  37.10600 5.01300 35.66500
H  34.87100 1.14400 35.34700
H  33.34500 1.36100 34.70500
H  33.47300 1.12800 37.19300
H  32.48500 2.48300 36.41800
H  41.58100 1.06300 32.38900
H  40.41200 1.72900 33.44800
H  41.35300 2.84500 32.47000
H  42.24700 -0.18400 30.24800
H  42.60200 1.69000 30.29400
H  43.14200 0.73000 28.92400
H  37.15600 0.58000 25.61900
H  34.55300 1.92400 25.19500
H  37.20700 3.68000 25.60600
H  36.25100 2.91200 24.34700
H  38.02100 2.66300 24.50700
H  34.30600 -0.69000 26.60800
H  35.51400 -0.70700 25.32000
H  33.24400 0.52400 24.13900
H  32.64100 -0.79100 24.92100
H  33.98500 -1.04200 23.80200
H  29.41600 2.26800 28.51200
H  30.38800 2.63000 27.16200
H  29.78300 4.04500 28.10100
H  31.19800 2.73200 33.53600
H  32.22200 6.27700 35.42700
H  31.52900 5.30100 36.70000
H  30.47700 6.32300 35.61700
Mg 0.01900 43.94100 26.19700
C  2.40900 43.43500 28.69300
C  -2.50600 43.42000 28.42900
C  -1.92900 43.49500 23.52900
C  2.87300 43.98200 23.94500
N  0.01300 43.33400 28.37700
C  1.06800 43.30700 29.18500
C  0.63200 43.22800 30.65100
C  -0.93100 42.94300 30.37700
C  -1.18200 43.27600 28.96500
C  -1.49100 41.53000 30.67900
C  0.85400 44.54800 31.45400
C  1.37400 44.45600 32.86800
H  0.97500 43.09800 33.65100
N  -2.00500 43.52900 25.98100
C  -2.92000 43.47000 27.08800
C  -4.27200 43.45200 26.54600
C  -4.17600 43.49400 25.14100
C  -2.68500 43.47600 24.78100
C  -5.44800 43.57100 27.52500
C  -5.26600 43.50000 24.13100
O  -5.05200 43.45000 22.92100
C  -6.61100 43.31600 24.59900
N  0.46200 43.88600 24.05400
C  -0.58100 43.70700 23.21200
C  -0.09300 43.59500 21.76800
C  1.33400 44.26200 21.87900
C  1.61500 44.08300 23.35300
C  0.00400 42.16600 21.19100
C  1.49800 45.77000 21.42400
C  2.54800 46.16700 20.45900
N  2.20500 43.97800 26.30300
C  3.20000 43.93700 25.30800
C  4.55500 43.83500 25.89000
C  4.27100 43.69900 27.24100
C  2.81500 43.73800 27.44200
C  5.85000 43.74800 25.12000
C  4.88600 43.41400 28.54300
O  6.08100 43.45400 28.89300
C  3.64500 43.43700 29.58100
C  3.82300 42.30800 30.47400
O  3.47100 41.15800 30.27100
O  4.55000 42.68900 31.56100
C  4.71600 41.75000 32.65600
H  -3.34000 43.30700 29.12400
H  -2.58400 43.32800 22.67100
H  3.58200 43.95600 23.11500
H  1.00100 42.33000 31.14700
H  -1.42400 43.64400 31.05000
H  -2.43800 41.72100 31.18300
H  -0.91200 41.08000 31.48600
H  -1.69200 40.85300 29.85000
H  -0.04000 45.16600 31.53100
H  1.53800 45.12400 30.83000
H  0.88100 45.32700 33.29900
H  2.46200 44.50600 32.82300
H  -6.20200 44.23800 27.10800
H  -5.17500 44.01100 28.48400
H  -5.91200 42.61800 27.77700
H  -6.62300 42.61700 25.43500
H  -7.19200 42.83100 23.81500
H  -7.07300 44.28800 24.77200
H  -0.62000 44.31700 21.14500
H  2.08200 43.68500 21.33500
H  -0.64800 41.50200 21.75800
H  0.99200 41.74400 21.37800
H  -0.19900 42.08300 20.12300
H  1.57900 46.36100 22.33600
H  0.59700 46.07500 20.89200
H  2.21500 46.79200 19.63000
H  3.01400 45.30600 19.98000
H  3.32200 46.73000 20.98100
H  6.56000 44.53200 25.38300
H  5.62500 43.84600 24.05800
H  6.34800 42.79600 25.30000
H  3.68300 44.30300 30.24100
H  3.93500 40.99200 32.61500
H  4.73400 42.20200 33.64800
H  5.70400 41.29700 32.56700

