158

Mg 34.83100 2.47100 29.36600
C  32.38100 3.80500 31.63400
C  37.28500 2.92300 31.83800
C  37.15600 1.95800 27.03700
C  32.32000 2.50100 26.92700
N  34.82600 3.34000 31.43900
C  33.66100 3.55400 32.17100
C  33.98400 3.66500 33.70700
C  35.53500 3.55700 33.67400
C  35.91100 3.22500 32.25900
C  36.22400 4.84800 34.21200
C  33.28800 2.53900 34.54800
C  32.92600 2.80100 36.05900
H  33.97100 3.44000 36.93500
N  36.85200 2.31900 29.40200
C  37.67300 2.53500 30.52500
C  39.02400 2.14600 30.06100
C  39.00800 1.99900 28.65200
C  37.61500 2.13400 28.29500
C  40.18100 1.87900 31.00900
C  40.16900 1.62800 27.70300
O  39.98700 1.57100 26.48100
C  41.63600 1.33400 28.08000
N  34.78200 2.37800 27.22800
C  35.87900 2.06300 26.48000
C  35.47400 1.68100 25.04300
C  33.92200 1.54500 25.11900
C  33.62300 2.09500 26.52800
C  35.77500 2.71400 23.96500
C  33.41400 0.08900 24.94400
C  33.17800 -0.72900 26.21100
N  32.78500 3.01900 29.25700
C  31.92600 2.97700 28.16800
C  30.65200 3.53600 28.57400
C  30.76600 3.91300 29.96200
C  32.07200 3.53500 30.29300
C  29.38000 3.73800 27.67800
C  30.12000 4.40000 31.22000
O  28.99700 4.71500 31.43400
C  31.18700 4.32000 32.31900
C  31.50000 5.67200 32.94000
O  31.65700 6.70000 32.29000
O  31.31800 5.69400 34.32300
C  31.65700 6.88700 35.07800
H  38.08000 2.81300 32.57800
H  37.81300 1.53700 26.27300
H  31.51700 2.33000 26.20800
H  33.62200 4.58700 34.16100
H  35.84700 2.70600 34.28000
H  36.81600 4.47100 35.04600
H  35.61200 5.64000 34.64300
H  36.94700 5.30500 33.53700
H  33.90100 1.64200 34.46300
H  32.42900 2.16000 33.99600
H  32.66500 1.82500 36.46700
H  32.03200 3.42000 35.99100
H  39.83400 2.00800 32.03400
H  41.04400 2.51000 30.79700
H  40.55000 0.85400 31.01600
H  42.06300 1.88800 28.91600
H  42.16100 1.69800 27.19700
H  41.88100 0.29400 28.29500
H  35.91500 0.74100 24.71300
H  33.42800 2.23900 24.43900
H  36.77000 2.36800 23.68300
H  35.90500 3.76200 24.23400
H  35.07800 2.69400 23.12700
H  34.07900 -0.47700 24.29200
H  32.46300 0.21800 24.42700
H  33.78800 -0.29700 27.00500
H  33.48300 -1.77100 26.11400
H  32.11800 -0.65100 26.45300
H  28.50700 3.23300 28.09100
H  29.58800 3.60500 26.61600
H  29.13400 4.79400 27.56500
H  30.94600 3.68800 33.17400
H  31.46800 7.83900 34.58000
H  32.65400 6.86100 35.51700
H  30.94600 6.93400 35.90300
Mg 43.04300 42.08600 26.06100
C  42.20000 44.44600 28.47400
C  44.05300 40.02700 28.54800
C  43.78900 39.91100 23.70700
C  42.49600 44.60600 23.61500
N  42.84700 42.12800 28.28300
C  42.45600 43.18600 29.04900
C  42.65700 43.04300 30.57100
C  43.34000 41.60100 30.51200
C  43.44200 41.19400 29.03200
C  44.63600 41.37500 31.22000
C  41.25000 43.02600 31.25900
C  41.32000 42.76600 32.77800
H  40.76700 43.86200 33.69500
N  43.89200 40.26900 26.10500
C  44.25200 39.60700 27.23100
C  44.62000 38.23100 26.92300
C  44.54900 38.08900 25.51900
C  44.11200 39.42300 25.04100
C  45.13400 37.15600 27.86800
C  44.80900 36.94400 24.64600
O  44.70600 37.07200 23.41500
C  45.26300 35.61600 25.26700
N  43.37200 42.31100 23.93700
C  43.51300 41.16100 23.20400
C  43.44400 41.47500 21.65200
C  42.90500 42.98500 21.63300
C  42.96100 43.32300 23.11800
C  44.84600 41.34700 20.91500
C  41.49800 43.07800 21.05800
C  40.28300 42.65000 21.98800
N  42.46200 44.01400 25.95700
C  42.36000 44.91100 24.90800
C  42.01200 46.20700 25.45600
C  41.94400 46.03100 26.83900
C  42.24500 44.71700 27.07000
C  41.87100 47.44100 24.72200
C  41.70900 46.74200 27.99700
O  41.43700 47.90500 28.22500
C  41.80100 45.76000 29.19000
C  42.61800 46.26400 30.36600
O  43.86200 46.17200 30.42200
O  41.89100 46.68300 31.36400
C  42.68000 46.91200 32.59600
H  44.42800 39.36100 29.32800
H  43.96500 39.26100 22.84800
H  42.28200 45.31900 22.81600
H  43.37300 43.70200 31.06200
H  42.65100 40.91700 31.00700
H  45.44700 40.97500 30.61100
H  44.40700 40.68300 32.03000
H  44.97600 42.26900 31.74400
H  40.77900 42.17300 30.77100
H  40.62800 43.89600 31.05200
H  42.32200 42.52000 33.13000
H  40.80300 41.81600 32.91100
H  46.13800 36.89100 27.53500
H  44.51000 36.26300 27.87700
H  45.22100 37.45300 28.91300
H  45.25700 34.99700 24.37000
H  44.52700 35.32400 26.01500
H  46.28400 35.75200 25.62500
H  42.70300 40.85000 21.15300
H  43.60700 43.48400 20.96500
H  45.03700 42.16400 20.21800
H  44.92100 40.35600 20.46800
H  45.55500 41.35900 21.74300
H  41.43800 42.51700 20.12500
H  41.22800 44.10100 20.79600
H  40.59800 41.82400 22.62500
H  39.37100 42.38800 21.45100
H  40.10300 43.40000 22.75800
H  41.06300 48.00700 25.18600
H  41.65700 47.29800 23.66300
H  42.69400 48.13300 24.89600
H  40.75300 45.68700 29.48100
H  42.89900 45.93900 33.03400
H  41.98300 47.51400 33.18000
H  43.66400 47.37400 32.67300

