158

Mg 17.28500 -1.18000 28.61100
C  15.78400 0.87200 31.06300
C  19.06900 -2.78300 31.07500
C  18.78300 -2.88100 26.22700
C  15.83300 0.90800 26.17300
N  17.28700 -1.05400 30.88000
C  16.61800 -0.10300 31.67800
C  16.92100 -0.29800 33.15700
C  18.29300 -1.18100 33.01900
C  18.27100 -1.75900 31.54800
C  19.55800 -0.27600 33.36900
C  15.80000 -0.98300 33.97500
C  15.81500 -0.70500 35.49500
H  16.99700 -0.09600 36.24300
N  18.66400 -2.70500 28.63900
C  19.23600 -3.26000 29.73900
C  20.08700 -4.28500 29.32900
C  19.98100 -4.38300 27.92500
C  19.10700 -3.24300 27.50300
C  20.89200 -5.07300 30.40000
C  20.75100 -5.28600 26.96000
O  20.70500 -5.17300 25.76100
C  21.54500 -6.51600 27.45700
N  17.46800 -0.83400 26.52100
C  17.98100 -1.85100 25.78500
C  17.83900 -1.54200 24.29800
C  16.95000 -0.30400 24.22600
C  16.68400 -0.03400 25.71000
C  19.21500 -1.57100 23.49400
C  15.68000 -0.38200 23.25800
C  14.27000 -0.91900 23.64600
N  16.01300 0.48000 28.60800
C  15.52300 1.22200 27.49700
C  14.67400 2.27700 27.98200
C  14.81700 2.21000 29.37100
C  15.56300 1.09100 29.70300
C  13.97700 3.34500 27.14700
C  14.51000 2.89300 30.59000
O  13.96500 3.98400 30.81300
C  15.10800 2.05800 31.80200
C  16.01400 2.75600 32.67500
O  17.12500 3.07800 32.38100
O  15.33100 3.15400 33.88000
C  16.12900 3.87200 34.85600
H  19.63200 -3.31600 31.84400
H  19.18000 -3.57500 25.48400
H  15.30000 1.52400 25.44600
H  17.19500 0.62600 33.66400
H  18.38800 -2.02600 33.70100
H  20.36000 -0.82900 32.87900
H  19.69700 -0.24200 34.44900
H  19.47200 0.77500 33.09100
H  15.88600 -2.06000 33.82600
H  14.89000 -0.76500 33.41700
H  15.64300 -1.72500 35.83900
H  14.96000 -0.15400 35.88500
H  20.29000 -5.82600 30.90900
H  21.27400 -4.38900 31.15800
H  21.77300 -5.50100 29.92100
H  21.91200 -7.14000 26.64200
H  20.94700 -7.14200 28.11900
H  22.34000 -6.09000 28.07000
H  17.23400 -2.35000 23.88700
H  17.59300 0.51700 23.91100
H  20.08900 -1.50100 24.14200
H  19.37100 -0.66700 22.90500
H  19.19500 -2.47400 22.88300
H  15.97800 -0.91800 22.35700
H  15.48800 0.61400 22.85700
H  13.59000 -0.10100 23.88500
H  14.47700 -1.64500 24.43100
H  14.00300 -1.45600 22.73600
H  14.64400 3.42600 26.28900
H  13.79000 4.35800 27.50300
H  13.00800 2.92400 26.87900
H  14.24600 1.64800 32.32700
H  17.14100 4.08200 34.50900
H  16.12000 3.25500 35.75400
H  15.64500 4.80400 35.14800
Mg 25.83800 1.66900 29.26700
C  27.69500 1.18200 32.20500
C  22.96400 2.00400 31.27700
C  23.91700 1.36300 26.51100
C  28.71400 0.85300 27.26900
N  25.36500 1.54300 31.48500
C  26.30200 1.39500 32.49800
C  25.69100 1.57000 33.92800
C  24.19300 1.83400 33.52700
C  24.10100 1.73700 31.99700
C  23.10700 0.88600 34.18700
C  26.29000 2.75300 34.73600
C  25.46500 3.18200 35.94800
H  26.01200 3.00200 37.34600
N  23.75600 1.67100 28.97400
C  22.71100 1.84500 29.91200
C  21.48300 1.99700 29.13200
C  21.80500 1.86500 27.75900
C  23.22500 1.59800 27.74200
C  20.10200 2.12900 29.77000
C  20.87000 2.03600 26.55300
O  21.22800 2.10700 25.41500
C  19.34900 2.16200 26.76500
N  26.20300 1.09900 27.20800
C  25.25300 1.09500 26.32000
C  25.77800 0.88100 24.85600
C  27.35300 0.86500 25.00400
C  27.48700 0.99100 26.54800
C  25.10200 -0.42200 24.16400
C  28.10100 2.01000 24.18100
C  28.57500 1.60700 22.82600
N  27.85700 1.14500 29.56700
C  28.86700 0.89700 28.69900
C  30.09000 0.81000 29.46900
C  29.68100 0.81900 30.84600
C  28.29700 1.04800 30.85700
C  31.43300 0.63100 28.94600
C  30.10500 0.66000 32.21300
O  31.15300 0.31900 32.71500
C  28.90200 1.02500 33.14500
C  28.73600 -0.06200 34.11500
O  28.50200 -1.22400 33.79000
O  28.66800 0.39600 35.41800
C  28.85300 -0.55700 36.50400
H  22.13900 2.27900 31.93900
H  23.29900 1.17900 25.63000
H  29.62500 0.56400 26.74100
H  25.81400 0.69900 34.57200
H  23.96700 2.85600 33.83100
H  23.50800 0.27300 34.99400
H  22.90300 0.13400 33.42500
H  22.18700 1.42600 34.41200
H  26.43800 3.52300 33.97900
H  27.27400 2.47900 35.11500
H  24.53100 2.62900 35.85300
H  25.10600 4.19300 35.75400
H  19.31000 1.49400 29.37400
H  19.84000 3.14200 29.46400
H  20.10000 2.04700 30.85700
H  19.10000 1.15000 27.08600
H  18.88100 2.41200 25.81300
H  19.03400 2.94200 27.45800
H  25.55700 1.79400 24.30300
H  27.76200 -0.10000 24.70600
H  24.58900 -0.96100 24.96100
H  25.96600 -0.96900 23.78900
H  24.29300 -0.19900 23.46800
H  28.83100 2.51600 24.81300
H  27.28900 2.67400 23.88400
H  28.52600 0.52200 22.73000
H  29.65400 1.73200 22.73500
H  27.97500 2.05300 22.03300
H  31.49600 1.19400 28.01400
H  31.59600 -0.43000 28.75700
H  32.09800 1.05400 29.69800
H  29.12500 1.95600 33.66600
H  29.25100 0.03400 37.32900
H  29.40700 -1.46800 36.27600
H  27.80900 -0.82400 36.66800

