158

Mg 2.08200 -1.04700 43.98800
C  5.49800 -0.45400 43.71000
C  1.41600 1.94300 42.75000
C  -1.25000 -2.07200 43.69300
C  2.75700 -4.37300 44.95400
N  3.29600 0.50100 43.21900
C  4.68200 0.56600 43.17100
C  5.17900 1.84500 42.60000
C  3.86300 2.69600 42.61500
C  2.80400 1.67000 42.82700
C  3.87900 3.87700 43.65000
C  5.85600 1.53500 41.21800
C  7.09700 2.39500 40.83400
H  7.11000 2.73000 39.30800
N  0.29300 -0.11500 43.43600
C  0.25300 1.11400 42.88000
C  -1.07300 1.47800 42.69500
C  -1.90800 0.38500 43.04500
C  -0.97200 -0.74000 43.38300
C  -1.54100 2.84600 42.32700
C  -3.44600 0.40600 43.06600
O  -4.05000 1.44100 42.80500
C  -4.19900 -0.74500 43.55300
N  0.93200 -3.00500 44.14300
C  -0.41900 -3.05100 44.17500
C  -0.92200 -4.46900 44.54400
C  0.35900 -5.13900 45.10500
C  1.45100 -4.12400 44.72000
C  -2.22900 -4.58900 45.39800
C  0.64800 -6.61000 44.54200
C  0.81600 -7.69900 45.63800
N  3.77100 -2.17000 44.34400
C  3.88500 -3.53100 44.68000
C  5.28100 -3.83300 44.89200
C  5.95600 -2.69900 44.44300
C  4.99400 -1.67300 44.13700
C  5.69700 -5.21100 45.25100
C  7.25600 -2.17900 44.18500
O  8.39600 -2.63400 44.27200
C  7.04300 -0.64100 43.64800
C  7.65800 0.29900 44.54500
O  7.33800 0.62400 45.70900
O  8.49200 1.07300 43.84400
C  9.23900 2.15300 44.39800
H  1.16300 2.96000 42.44500
H  -2.31000 -2.33000 43.65200
H  2.90600 -5.33000 45.45900
H  5.99000 2.31600 43.15400
H  3.84000 3.20900 41.65400
H  4.86400 3.92900 44.11200
H  3.23000 3.53900 44.45800
H  3.51200 4.69200 43.02600
H  5.08100 1.45000 40.45700
H  6.25000 0.52000 41.25700
H  8.02200 1.87700 41.08900
H  7.13200 3.32700 41.39800
H  -2.52700 2.98000 41.88100
H  -0.83800 3.26800 41.60900
H  -1.45100 3.47800 43.21000
H  -5.24800 -0.45000 43.57700
H  -3.79100 -1.21500 44.44800
H  -4.17200 -1.49600 42.76400
H  -1.14500 -4.86100 43.55200
H  0.33100 -5.10200 46.19400
H  -2.08700 -5.24900 46.25300
H  -2.98200 -5.16000 44.85400
H  -2.60400 -3.60200 45.67000
H  1.61600 -6.60800 44.04100
H  -0.10800 -6.93000 43.82400
H  0.50700 -7.31200 46.60900
H  1.81600 -8.11800 45.74900
H  0.18900 -8.57000 45.44900
H  5.31800 -5.93800 44.53200
H  5.30800 -5.44200 46.24300
H  6.78600 -5.24200 45.24400
H  7.45800 -0.70900 42.64200
H  10.04900 2.37900 43.70400
H  9.65500 1.88600 45.36900
H  8.67400 3.07600 44.52500
Mg 48.38500 34.74100 26.71000
C  46.21800 33.54500 29.23300
C  48.79000 37.74900 28.61400
C  49.74500 36.32200 24.08300
C  47.36800 31.99800 24.80200
N  47.65800 35.47800 28.65400
C  46.93600 34.69400 29.55100
C  47.03200 35.34300 30.97500
C  47.45300 36.82600 30.68100
C  47.99300 36.72700 29.22400
C  46.37200 37.89000 30.94700
C  47.99800 34.61500 31.90100
C  47.92300 34.89100 33.35400
H  46.82400 35.83500 33.87600
N  49.26300 36.73700 26.38200
C  49.31800 37.82000 27.33300
C  50.15200 38.81900 26.74800
C  50.36500 38.42100 25.42400
C  49.79100 37.12000 25.25100
C  50.49000 40.07300 27.57900
C  51.06000 39.14000 24.28400
O  51.16100 38.64400 23.12900
C  51.67100 40.54100 24.46500
N  48.60100 34.14300 24.78000
C  49.23900 35.02800 23.92900
C  49.35100 34.27500 22.50500
C  48.78300 32.80000 22.77100
C  48.23300 32.97200 24.15900
C  48.69900 34.97500 21.29100
C  49.72800 31.57000 22.75500
C  50.19600 31.20100 21.39200
N  47.05300 33.06700 26.86400
C  46.76400 32.01400 26.05500
C  45.86100 31.09100 26.67600
C  45.56200 31.68000 27.89200
C  46.30300 32.90900 27.97400
C  45.47800 29.77800 26.06600
C  44.82600 31.43600 29.13300
O  44.14100 30.51100 29.52200
C  45.20100 32.69700 30.09800
C  45.61200 32.26900 31.46800
O  46.55500 31.57900 31.73200
O  44.71900 32.72000 32.40300
C  44.71900 31.99100 33.68400
H  48.95700 38.67000 29.17600
H  49.99200 36.78900 23.12700
H  47.11300 31.11500 24.21100
H  46.01300 35.33200 31.36000
H  48.31200 37.19100 31.24300
H  46.50700 38.65800 31.70800
H  45.46300 37.30200 31.08000
H  46.26500 38.43400 30.00800
H  48.94800 34.96200 31.49500
H  47.93500 33.53700 31.75400
H  48.89700 35.28600 33.64200
H  47.70900 33.95300 33.86500
H  51.54900 40.27800 27.73700
H  50.08700 40.06100 28.59100
H  49.91300 40.88700 27.13900
H  50.80000 41.05800 24.86800
H  51.95000 41.06100 23.54900
H  52.47400 40.62500 25.19600
H  50.42500 34.28600 22.32200
H  47.91100 32.61600 22.14400
H  48.03900 35.75900 21.66300
H  48.12400 34.24400 20.72200
H  49.41700 35.60600 20.76700
H  49.19900 30.75500 23.24800
H  50.56100 31.86600 23.39200
H  51.28000 31.12800 21.47600
H  49.79700 31.76200 20.54700
H  50.03800 30.13300 21.24500
H  44.74100 29.72500 25.26400
H  45.24000 29.12000 26.90200
H  46.37800 29.45700 25.54200
H  44.22300 33.15800 30.23500
H  45.75600 31.80800 33.96600
H  44.07200 31.11400 33.69800
H  44.17900 32.58500 34.42100

