158

Mg 34.83600 2.52100 29.29300
C  32.89300 3.59400 31.92200
C  37.61300 2.41000 31.56600
C  36.98400 1.98900 26.76400
C  32.33400 3.39900 27.09800
N  35.20200 3.03300 31.49300
C  34.16000 3.34400 32.33600
C  34.67700 3.28600 33.76300
C  36.22700 3.15400 33.57400
C  36.40700 2.86200 32.09900
C  37.00500 4.43000 34.00400
C  33.98100 2.10800 34.52900
C  33.83200 2.36900 36.06400
H  34.86700 3.22100 36.91600
N  37.02300 2.08600 29.22800
C  37.92800 2.01100 30.21100
C  39.19300 1.50400 29.73400
C  39.00700 1.26100 28.37300
C  37.64400 1.75100 28.07700
C  40.44400 1.49800 30.56800
C  39.96500 0.69400 27.31800
O  39.61100 0.57000 26.14500
C  41.33500 0.27600 27.71900
N  34.61000 2.50200 27.20400
C  35.69200 2.28500 26.32200
C  35.17300 2.29100 24.89200
C  33.68400 2.69500 25.00900
C  33.49800 2.88500 26.52400
C  36.02100 3.09000 23.84400
C  32.65100 1.76200 24.39800
C  32.22400 0.53200 25.21500
N  32.92000 3.15600 29.45900
C  32.04700 3.48400 28.48800
C  30.78800 3.85200 29.06400
C  31.03000 3.88100 30.47200
C  32.38800 3.56900 30.61200
C  29.63700 4.25200 28.28800
C  30.50000 4.12600 31.76300
O  29.39600 4.41400 32.14600
C  31.66200 3.91000 32.82100
C  31.77800 5.19800 33.53900
O  32.19300 6.26600 33.06800
O  31.15500 5.14100 34.73200
C  31.45800 6.21000 35.66800
H  38.44700 2.22100 32.24500
H  37.44300 1.90500 25.77700
H  31.64000 3.64400 26.29200
H  34.49300 4.22400 34.28700
H  36.56700 2.22400 34.03000
H  36.39400 5.14400 34.55500
H  37.32500 4.92500 33.08700
H  37.85000 4.23300 34.66400
H  34.55600 1.19900 34.35100
H  33.00800 1.90300 34.08200
H  33.61700 1.47900 36.65400
H  32.92100 2.96700 36.03100
H  41.04500 2.30100 30.14000
H  41.09900 0.62900 30.50800
H  40.25500 1.77900 31.60400
H  41.62300 0.94500 28.53000
H  41.85400 0.34500 26.76200
H  41.29000 -0.78800 27.95300
H  35.23100 1.24200 24.60200
H  33.56000 3.68600 24.57300
H  36.31300 2.37700 23.07200
H  36.86400 3.66900 24.21900
H  35.29100 3.81500 23.48500
H  33.16700 1.31500 23.54800
H  31.74300 2.29700 24.11800
H  32.36900 0.66900 26.28600
H  32.90500 -0.27200 24.93500
H  31.20900 0.22700 24.96000
H  29.43100 5.23300 28.71800
H  28.74400 3.63200 28.35600
H  29.77400 4.43200 27.22200
H  31.25000 3.17200 33.50900
H  32.47000 6.61500 35.70600
H  31.19100 5.92600 36.68600
H  30.88000 7.11400 35.47500
Mg 36.22600 49.59400 24.76400
C  36.33200 47.98700 27.95500
C  34.91000 52.37100 26.38700
C  35.97500 50.97000 21.83700
C  37.17900 46.54300 23.33200
N  35.55100 50.08600 26.88400
C  35.86800 49.30200 28.03200
C  35.57000 50.11200 29.28500
C  34.87900 51.42800 28.66500
C  35.00800 51.22800 27.19500
C  33.35000 51.61900 29.16000
C  36.83500 50.18800 30.26000
C  36.64300 49.64500 31.66200
H  36.66300 50.68200 32.78500
N  35.74100 51.47300 24.21200
C  35.20300 52.47200 24.96700
C  35.02500 53.64000 24.16200
C  35.37700 53.26900 22.80900
C  35.78700 51.85200 22.86500
C  34.35000 54.91000 24.67000
C  35.30400 54.06900 21.51600
O  35.57600 53.67800 20.40300
C  34.87500 55.49500 21.45900
N  36.40600 48.78300 22.87300
C  36.20400 49.53200 21.79900
C  36.58600 48.87500 20.51500
C  37.27500 47.53200 21.00200
C  36.92600 47.58700 22.50400
C  35.33300 48.71200 19.59100
C  38.75100 47.43600 20.72500
C  39.15900 46.19500 19.77000
N  36.50700 47.61200 25.41100
C  37.03000 46.55300 24.73200
C  37.18600 45.45300 25.67000
C  36.96100 45.96600 26.89600
C  36.52400 47.28500 26.72600
C  37.61600 44.08900 25.27400
C  36.99700 45.62400 28.30700
O  37.39500 44.62500 28.86400
C  36.52900 46.89000 29.06300
C  35.21700 46.54800 29.71600
O  34.16400 46.44100 29.15400
O  35.41200 46.31200 31.03100
C  34.23000 45.81800 31.70800
H  34.53000 53.23900 26.93100
H  35.99900 51.43000 20.84700
H  37.52700 45.62000 22.86500
H  34.77100 49.54000 29.75600
H  35.47900 52.30000 28.92900
H  33.00600 50.87600 29.88000
H  32.59200 51.57700 28.37800
H  33.27800 52.62700 29.56900
H  37.16800 51.21900 30.37800
H  37.66300 49.59700 29.86700
H  37.49600 48.98800 31.82700
H  35.72800 49.05400 31.71000
H  34.68100 55.73900 24.04400
H  34.56500 55.14500 25.71300
H  33.27300 54.82800 24.52600
H  35.02800 55.94600 20.47900
H  35.46900 56.11000 22.13500
H  33.79900 55.53200 21.62700
H  37.23300 49.59900 20.01900
H  36.66600 46.69800 20.65400
H  34.37600 48.53700 20.08200
H  35.46800 47.77800 19.04600
H  35.19000 49.50200 18.85300
H  39.13500 47.26800 21.73100
H  39.12200 48.37300 20.30900
H  39.87300 46.61400 19.06100
H  38.20200 45.82000 19.40600
H  39.68600 45.40300 20.30100
H  37.00900 43.86900 24.39500
H  37.45400 43.42200 26.12100
H  38.68000 44.07100 25.04000
H  37.27400 47.16900 29.80800
H  34.46200 45.94700 32.76500
H  34.03800 44.76700 31.48900
H  33.33100 46.37900 31.45400

