158

Mg 35.90900 49.69200 26.01200
C  35.77000 47.96200 29.02200
C  34.74600 52.43400 27.56200
C  35.62800 51.13900 22.95800
C  36.71800 46.66300 24.44300
N  35.33500 50.07900 28.06000
C  35.42400 49.32500 29.22500
C  35.07000 50.04300 30.53200
C  34.59100 51.41000 29.94500
C  34.89800 51.33700 28.37400
C  33.14100 51.84000 30.38000
C  36.19400 50.04100 31.56300
C  35.84300 49.89800 32.96300
H  34.36100 50.10000 33.51100
N  35.31100 51.50300 25.32600
C  34.94800 52.54300 26.20400
C  34.79600 53.71800 25.40500
C  34.89100 53.36500 24.04300
C  35.26800 51.91500 24.05200
C  34.51800 55.14800 25.90900
C  34.45300 54.17700 22.86600
O  34.47600 53.74100 21.68700
C  34.06500 55.59400 23.09300
N  36.08800 48.90300 24.02500
C  35.93700 49.73700 22.89800
C  36.22400 49.01200 21.62500
C  36.72800 47.67000 22.16200
C  36.51900 47.77100 23.66300
C  34.99900 48.95400 20.68100
C  38.19500 47.33800 21.78600
C  39.31600 47.91100 22.72100
N  36.24600 47.67300 26.58400
C  36.59500 46.53300 25.86400
C  36.64000 45.47400 26.73000
C  36.35700 45.95200 27.98500
C  36.06400 47.31000 27.85400
C  37.06900 43.99900 26.39600
C  36.24000 45.57500 29.40600
O  36.47000 44.50200 29.93500
C  35.73900 46.89600 30.09900
C  34.43900 46.53300 30.66100
O  33.42700 46.50800 30.00900
O  34.57300 46.12700 31.99200
C  33.38400 45.69200 32.75600
H  34.40000 53.32900 28.08500
H  35.59600 51.67400 22.00600
H  37.02800 45.78900 23.86700
H  34.24800 49.48100 30.97700
H  35.25100 52.21200 30.27500
H  32.61300 50.93100 30.66700
H  32.69300 52.17000 29.44300
H  33.12700 52.65300 31.10700
H  36.71800 50.98400 31.40600
H  37.00900 49.32700 31.44100
H  36.45800 50.67000 33.42600
H  36.26300 48.95400 33.31000
H  34.75000 55.05700 26.97100
H  33.47400 55.45500 25.83700
H  35.23700 55.89000 25.56300
H  33.81400 56.01200 22.11800
H  34.84400 56.30000 23.37900
H  33.17200 55.61800 23.71800
H  37.06700 49.56000 21.20300
H  36.16200 46.81600 21.78900
H  34.22500 49.55100 21.16300
H  34.60300 47.95200 20.51900
H  35.20800 49.51600 19.77100
H  38.58100 47.67200 20.82300
H  38.34600 46.26400 21.67600
H  40.10600 48.43600 22.18300
H  39.77800 47.13200 23.32800
H  38.90500 48.60700 23.45200
H  36.21200 43.33900 26.26300
H  37.73400 43.62100 27.17200
H  37.39800 43.89500 25.36100
H  36.50300 47.14900 30.83300
H  33.67300 45.69800 33.80700
H  33.05100 44.70000 32.44900
H  32.48600 46.28000 32.56600
Mg -5.30100 24.86400 26.18600
C  -3.58700 26.55600 28.68500
C  -6.49300 22.67500 28.57100
C  -6.92800 23.17800 23.73700
C  -3.84100 27.06000 23.83300
N  -5.00200 24.63300 28.30500
C  -4.40100 25.55000 29.21400
C  -4.65400 25.25700 30.66700
C  -5.25300 23.79200 30.50900
C  -5.71400 23.73400 29.00900
C  -4.31900 22.64800 30.86100
C  -5.67600 26.24400 31.27700
C  -5.62100 26.38200 32.83900
H  -5.58700 25.06500 33.65300
N  -6.48600 23.11300 26.12600
C  -6.86200 22.35100 27.25100
C  -7.68300 21.31300 26.85800
C  -7.80200 21.39000 25.45400
C  -7.13100 22.63100 25.01200
C  -8.30800 20.27700 27.75300
C  -8.47200 20.44300 24.46600
O  -8.46300 20.66700 23.27000
C  -8.99500 19.12700 24.92200
N  -5.51700 25.16800 24.08900
C  -6.12500 24.25600 23.23300
C  -5.80600 24.56200 21.75700
C  -5.05000 25.88500 21.84100
C  -4.80900 26.11200 23.36600
C  -5.17600 23.33500 21.20900
C  -5.80400 27.11700 21.15300
C  -4.99200 27.80000 20.01100
N  -3.94900 26.50200 26.19400
C  -3.45100 27.30100 25.19400
C  -2.47400 28.28400 25.77400
C  -2.62700 28.09700 27.10900
C  -3.49800 27.02500 27.34800
C  -1.76900 29.45100 25.16800
C  -2.19000 28.59100 28.46000
O  -1.50000 29.56700 28.78400
C  -2.81200 27.60000 29.47700
C  -1.61900 26.96000 30.23800
O  -0.76400 26.16400 29.82800
O  -1.69400 27.38000 31.53700
C  -0.75500 26.79500 32.36000
H  -6.95500 22.08500 29.36500
H  -7.40500 22.63400 22.91900
H  -3.45500 27.73200 23.06400
H  -3.73700 25.31000 31.25400
H  -6.14000 23.67700 31.13200
H  -4.30100 21.80600 30.16900
H  -4.35300 22.40500 31.92300
H  -3.30100 22.98700 30.67000
H  -6.68800 25.95500 30.99400
H  -5.38400 27.20400 30.85300
H  -6.50500 26.93800 33.14900
H  -4.76200 27.01900 33.05300
H  -7.85100 19.32700 27.47400
H  -9.38600 20.26200 27.58900
H  -8.11900 20.40900 28.81800
H  -8.15900 18.49700 25.22700
H  -9.40400 18.50100 24.12900
H  -9.81100 19.23300 25.63800
H  -6.67800 24.58900 21.10300
H  -4.15200 25.78400 21.23200
H  -5.61100 22.38700 21.52300
H  -4.12600 23.43000 21.48500
H  -5.29100 23.38500 20.12600
H  -5.85100 27.96600 21.83400
H  -6.80200 26.89500 20.77500
H  -5.55700 27.54600 19.11400
H  -3.97600 27.40700 19.97600
H  -4.84300 28.87400 20.11500
H  -0.77400 29.25500 24.76800
H  -1.65300 30.18700 25.96400
H  -2.34500 29.90700 24.36300
H  -3.37600 28.14200 30.23600
H  0.18000 27.05400 31.86300
H  -0.92200 25.72900 32.51100
H  -0.73600 27.36500 33.29000

