158

Mg 34.39000 2.91900 29.85500
C  32.33300 4.15800 32.39900
C  36.84500 2.70500 32.12600
C  36.56100 2.36400 27.31000
C  31.81300 3.03300 27.66100
N  34.50300 3.36200 32.05300
C  33.55900 3.79000 32.92000
C  34.04900 3.93300 34.39900
C  35.56800 3.77400 34.15000
C  35.62600 3.21700 32.70900
C  36.32900 5.14000 34.25300
C  33.48300 2.75000 35.35300
C  33.08200 3.22000 36.75500
H  33.98500 4.24300 37.44800
N  36.39200 2.48000 29.73600
C  37.22300 2.41200 30.80700
C  38.49600 2.04900 30.36600
C  38.50500 1.87400 28.93200
C  37.12000 2.25200 28.63500
C  39.73700 1.81000 31.22200
C  39.60400 1.41600 27.98600
O  39.41400 1.44200 26.77500
C  40.92800 0.95300 28.45000
N  34.26000 2.84700 27.70900
C  35.27700 2.61900 26.83600
C  34.69600 2.31500 25.44700
C  33.09800 2.25700 25.65700
C  33.03800 2.74400 27.09300
C  35.15000 3.10700 24.22200
C  32.41000 0.88300 25.48800
C  31.31200 0.75800 24.40000
N  32.52100 3.63100 29.92300
C  31.53100 3.52700 28.89900
C  30.33600 3.98900 29.45900
C  30.58600 4.27900 30.75000
C  31.93500 4.02900 31.06300
C  28.99400 4.22300 28.79900
C  29.96600 4.73000 32.06700
O  28.83100 4.99000 32.38200
C  31.08400 4.70600 33.18600
C  31.41500 6.07400 33.63200
O  32.23700 6.77100 33.09600
O  30.84800 6.30300 34.88000
C  31.59800 7.26300 35.73900
H  37.60200 2.58200 32.90300
H  37.30200 2.23800 26.51800
H  30.96200 2.96500 26.98000
H  33.83700 4.93100 34.78400
H  36.03700 3.10600 34.87200
H  36.62300 5.31600 35.28800
H  35.83100 6.02000 33.84700
H  37.21000 4.99900 33.62700
H  34.21600 1.94400 35.32400
H  32.58300 2.50000 34.78900
H  33.07200 2.31900 37.36800
H  32.10500 3.70300 36.72300
H  40.28400 0.91200 30.93200
H  39.62200 1.90200 32.30200
H  40.31600 2.73200 31.17600
H  41.57400 0.80100 27.58500
H  40.80700 0.04400 29.04000
H  41.41000 1.77700 28.97600
H  34.96200 1.27900 25.24000
H  32.71100 3.09200 25.07300
H  35.88300 2.49900 23.69100
H  35.63500 4.02500 24.55300
H  34.22700 3.20000 23.64900
H  31.98300 0.49100 26.41000
H  33.10900 0.10800 25.17400
H  30.34100 0.64100 24.88100
H  31.49500 -0.09400 23.74500
H  31.32500 1.64900 23.77200
H  28.56600 5.19800 29.02900
H  28.28200 3.47300 29.14400
H  29.05400 4.23300 27.71100
H  30.77100 4.06800 34.01200
H  31.29700 8.25700 35.40800
H  32.64400 7.14400 35.45400
H  31.34100 7.17800 36.79500
Mg 47.76000 25.28800 28.42000
C  48.58300 27.43100 31.09700
C  47.42700 22.75700 30.82200
C  46.95600 23.27800 25.87000
C  48.81900 27.85000 26.21900
N  47.84900 25.15400 30.74800
C  48.13000 26.21300 31.61700
C  47.98300 25.75600 33.04000
C  47.83000 24.22100 32.96100
C  47.69400 24.00000 31.45000
C  48.92100 23.33000 33.59900
C  46.84100 26.58900 33.82700
C  47.25400 27.59800 34.85100
H  46.41500 27.86200 36.09100
N  47.38800 23.24200 28.32700
C  47.18600 22.38000 29.39700
C  46.71700 21.10600 28.87600
C  46.58600 21.22700 27.49800
C  46.95500 22.64400 27.15400
C  46.54200 19.95900 29.83900
C  46.16400 20.20000 26.43500
O  46.01300 20.42100 25.25800
C  45.89200 18.82600 27.00200
N  47.89700 25.51400 26.34500
C  47.44500 24.52800 25.47900
C  47.86400 24.94400 24.04200
C  48.17600 26.46800 24.15600
C  48.28500 26.65400 25.62500
C  49.03200 24.08200 23.52900
C  47.09000 27.42100 23.56500
C  46.84400 27.39000 22.06900
N  48.57700 27.22600 28.57200
C  48.98000 28.06100 27.57600
C  49.36300 29.27900 28.18000
C  49.27700 29.10500 29.60500
C  48.72300 27.82800 29.76700
C  49.76300 30.49700 27.40800
C  49.47300 29.65200 30.84400
O  49.95400 30.75900 31.12500
C  49.03700 28.60300 31.91900
C  50.22900 28.25200 32.80900
O  51.08500 27.40000 32.57600
O  50.18800 29.10300 33.85600
C  51.21600 29.08700 34.96300
H  47.28100 22.01900 31.61300
H  46.67300 22.68100 25.00000
H  49.09700 28.67400 25.55900
H  49.01200 25.93600 33.35100
H  46.91400 24.06300 33.52900
H  49.80700 23.88900 33.90000
H  49.26400 22.52600 32.94800
H  48.50700 22.78900 34.45000
H  46.38100 25.74300 34.33700
H  46.11500 26.96400 33.10600
H  47.38600 28.58900 34.41700
H  48.15900 27.22100 35.32800
H  47.03900 20.04600 30.80500
H  46.91400 19.04200 29.38300
H  45.51400 19.69000 30.08100
H  45.38900 18.24100 26.23200
H  45.21200 18.86300 27.85300
H  46.88200 18.37900 27.09300
H  46.96000 24.77500 23.45700
H  49.13700 26.73500 23.71800
H  48.84800 23.55400 22.59400
H  49.35200 23.35100 24.27100
H  49.94100 24.62500 23.27300
H  47.36700 28.46100 23.73800
H  46.10100 27.22300 23.97900
H  47.44400 26.61800 21.58700
H  47.18300 28.32300 21.61900
H  45.79100 27.27000 21.81500
H  50.81400 30.68300 27.63000
H  49.17200 31.31000 27.82800
H  49.47000 30.51900 26.35900
H  48.15800 28.97000 32.44900
H  51.61800 30.07500 35.18800
H  52.12700 28.52100 34.76600
H  50.74600 28.71900 35.87500

