158

Mg 0.93200 -2.50700 43.57500
C  4.13400 -1.74900 42.93000
C  -0.04700 0.47000 42.16400
C  -2.29200 -3.55900 43.40200
C  1.86600 -5.82000 44.52000
N  1.95000 -0.94000 42.41600
C  3.28300 -0.78700 42.41700
C  3.65000 0.47600 41.66100
C  2.38200 1.40800 41.82400
C  1.30500 0.26900 42.14500
C  2.58300 2.42500 42.99500
C  3.89500 0.04300 40.12400
C  5.28900 0.30800 39.49600
H  5.99000 -0.79000 38.75200
N  -0.90200 -1.63400 43.08200
C  -1.02200 -0.39700 42.53300
C  -2.45600 -0.07600 42.32800
C  -3.14700 -1.22800 42.62900
C  -2.12800 -2.22400 43.05500
C  -2.83400 1.20900 41.68000
C  -4.57200 -1.43500 42.43300
O  -5.26200 -0.60100 41.94500
C  -5.31900 -2.61200 42.86500
N  -0.08400 -4.32700 44.01000
C  -1.37100 -4.55000 43.76700
C  -1.84200 -5.92000 44.39000
C  -0.50600 -6.58900 44.71600
C  0.50200 -5.50000 44.37600
C  -2.77900 -5.62200 45.56200
C  -0.26100 -7.94900 44.07800
C  -1.12400 -9.10400 44.60600
N  2.62300 -3.62700 43.68600
C  2.93600 -4.92200 44.16100
C  4.36100 -5.09800 44.21200
C  4.88800 -3.89600 43.69600
C  3.77300 -2.97400 43.43800
C  5.04700 -6.35100 44.75800
C  6.13900 -3.14800 43.48200
O  7.26900 -3.36400 43.74600
C  5.64500 -1.87300 42.76600
C  6.46500 -0.61700 43.23700
O  7.18000 0.10200 42.60200
O  5.89000 -0.19700 44.43500
C  6.57200 1.03700 44.97600
H  -0.26000 1.52000 41.95100
H  -3.27900 -4.01300 43.30000
H  2.24100 -6.79800 44.82800
H  4.49700 0.99600 42.10700
H  2.21200 1.92300 40.87900
H  3.61500 2.24400 43.29600
H  2.04500 2.12200 43.89300
H  2.36900 3.46400 42.74300
H  3.27200 0.65900 39.47600
H  3.64300 -1.01600 40.07400
H  5.98500 0.84300 40.14300
H  5.16900 1.08800 38.74400
H  -3.87400 1.53400 41.73000
H  -2.46300 1.27600 40.65700
H  -2.28100 2.04500 42.10800
H  -6.35000 -2.48500 42.53400
H  -5.19500 -2.79100 43.93300
H  -4.90800 -3.44900 42.30000
H  -2.29800 -6.60300 43.67400
H  -0.40400 -6.86400 45.76600
H  -2.45800 -5.98000 46.54100
H  -3.77400 -5.97500 45.28800
H  -3.03600 -4.57800 45.74100
H  0.76500 -8.30800 44.00300
H  -0.51600 -7.76900 43.03300
H  -1.69200 -8.88000 45.50900
H  -0.53200 -9.99600 44.80900
H  -1.91400 -9.40400 43.91700
H  5.99900 -6.08500 45.21900
H  5.20800 -7.09800 43.98100
H  4.50200 -6.74600 45.61600
H  5.96200 -1.94700 41.72600
H  7.65000 0.89900 45.06300
H  6.13900 1.35300 45.92500
H  6.43700 1.88700 44.30800
Mg 17.09000 -3.26100 28.66000
C  16.12100 -1.09900 31.27700
C  19.49100 -4.66600 30.71400
C  18.46800 -4.75500 26.00300
C  14.96400 -1.34800 26.61500
N  17.73400 -2.83000 30.71400
C  17.22800 -1.95400 31.61100
C  17.92000 -2.07800 33.03000
C  19.02300 -3.10900 32.73300
C  18.74800 -3.58200 31.27500
C  20.47200 -2.55800 32.90300
C  16.89700 -2.66700 34.15300
C  17.12100 -2.17300 35.58100
H  18.48100 -1.57300 35.83800
N  18.69500 -4.64900 28.38400
C  19.45100 -5.18400 29.42400
C  20.35000 -6.23700 28.88200
C  20.04500 -6.33200 27.46500
C  18.98000 -5.24400 27.21200
C  21.33100 -7.00300 29.78400
C  20.54500 -7.24700 26.41600
O  20.04800 -7.33700 25.29300
C  21.57800 -8.21600 26.85300
N  16.66700 -3.13600 26.60900
C  17.52400 -3.77400 25.74300
C  17.16500 -3.36600 24.26200
C  15.99800 -2.31800 24.40800
C  15.79400 -2.27700 25.98600
C  18.37500 -2.88300 23.40600
C  14.65500 -2.65900 23.72600
C  14.36700 -1.88700 22.45000
N  15.69900 -1.68600 28.88600
C  14.87200 -1.07900 27.94200
C  14.08700 -0.08100 28.54500
C  14.45200 -0.16700 29.87900
C  15.52200 -1.08100 30.04000
C  13.09600 0.78500 27.84500
C  14.23600 0.41800 31.18800
O  13.54900 1.32400 31.56400
C  15.16900 -0.26800 32.19300
C  15.70300 0.85300 33.00000
O  16.71700 1.44800 32.71700
O  14.83800 1.14800 34.05200
C  15.40000 2.25200 34.88400
H  20.22600 -5.10600 31.39100
H  18.83000 -5.26400 25.10700
H  14.43500 -0.59100 26.03300
H  18.26600 -1.10300 33.37200
H  18.85300 -3.90800 33.45400
H  20.59100 -1.52400 33.22700
H  21.07400 -2.65200 31.99900
H  21.04800 -3.09300 33.65800
H  16.93700 -3.75100 34.04300
H  15.88200 -2.32800 33.94800
H  17.01100 -3.00000 36.28200
H  16.37500 -1.46000 35.93000
H  21.05200 -8.05000 29.90000
H  21.47400 -6.63000 30.79800
H  22.28900 -6.95200 29.26600
H  21.73100 -8.77700 25.93100
H  21.35700 -8.96200 27.61600
H  22.52700 -7.71300 27.04100
H  16.81300 -4.26600 23.75900
H  16.35000 -1.36500 24.01400
H  19.19000 -2.68600 24.10300
H  18.03200 -1.99300 22.87700
H  18.66300 -3.64800 22.68500
H  13.78500 -2.72000 24.38000
H  14.90100 -3.67400 23.41400
H  14.24400 -2.55900 21.60000
H  15.05200 -1.05600 22.28200
H  13.38900 -1.48900 22.71900
H  12.51100 1.37600 28.55100
H  12.42400 0.30800 27.13100
H  13.74100 1.50700 27.34500
H  14.48200 -0.88100 32.77600
H  14.57200 2.59600 35.50400
H  15.95100 3.00700 34.32300
H  16.14900 1.86500 35.57500

