158

Mg 42.86900 4.16100 47.19700
C  41.14900 7.08700 47.10200
C  40.06000 2.36100 46.88100
C  44.77900 1.38200 46.68300
C  45.94800 6.25900 46.72900
N  40.82000 4.74800 46.87300
C  40.33500 5.92900 47.08400
C  38.75000 5.93800 47.07000
C  38.45800 4.40000 47.10100
C  39.89600 3.76400 46.91700
C  37.76500 3.88900 48.39500
C  38.16000 6.71800 45.90900
C  39.04500 6.69000 44.57400
H  38.31100 6.11600 43.33300
N  42.45400 2.06800 46.93300
C  41.23200 1.55900 46.75300
C  41.29900 0.18100 46.60400
C  42.69400 -0.17900 46.48100
C  43.39200 1.12400 46.71600
C  40.02500 -0.77100 46.38200
C  43.21700 -1.57500 46.24500
O  42.40600 -2.49700 46.30500
C  44.64400 -1.87000 46.26200
N  44.99000 3.89200 46.70600
C  45.46800 2.59000 46.68000
C  47.03500 2.65300 46.59700
C  47.35500 4.17200 46.52900
C  45.95900 4.83500 46.63400
C  47.69600 1.93600 47.72800
C  48.31300 4.65800 45.40600
C  49.53100 5.46800 45.78900
N  43.46100 6.29400 47.02000
C  44.68900 6.95300 46.87100
C  44.49800 8.33300 46.79400
C  43.10000 8.48500 46.96100
C  42.54200 7.19400 46.94800
C  45.57700 9.32600 46.38300
C  42.01900 9.39500 47.15200
O  42.08700 10.64700 47.25400
C  40.73300 8.56700 47.07500
C  39.77600 8.93900 48.21100
O  39.68300 8.43200 49.34400
O  38.93400 9.87200 47.69600
C  37.82700 10.14600 48.55500
H  39.16500 1.73700 46.84400
H  45.39900 0.50300 46.49200
H  46.93500 6.72200 46.65600
H  38.37800 6.43500 47.96600
H  37.84600 4.14400 46.23600
H  37.39600 4.73800 48.97000
H  38.52400 3.41800 49.02000
H  36.94400 3.18200 48.27400
H  38.01300 7.71500 46.32400
H  37.17400 6.34300 45.63200
H  39.95100 6.08700 44.63900
H  39.36000 7.71500 44.37600
H  39.67000 -0.75400 45.35100
H  39.21300 -0.34900 46.97400
H  40.26000 -1.77400 46.73900
H  45.16000 -1.45800 47.12900
H  45.05300 -1.64100 45.27800
H  44.62400 -2.95900 46.28000
H  47.33600 2.15000 45.67700
H  47.85900 4.38500 47.47200
H  48.00800 0.92800 47.45700
H  47.04800 1.85300 48.60100
H  48.61000 2.46500 47.99600
H  47.68700 5.21900 44.71300
H  48.61100 3.82000 44.77500
H  50.43500 4.90300 45.56100
H  49.52900 5.65900 46.86200
H  49.54100 6.37600 45.18700
H  46.00900 9.02000 45.43000
H  46.36700 9.32800 47.13400
H  45.27600 10.36800 46.27500
H  40.28900 8.65700 46.08300
H  37.04100 10.65300 47.99500
H  38.13300 10.64200 49.47600
H  37.43900 9.13800 48.70600
Mg 1.80800 41.43800 26.80200
C  3.36600 42.25200 29.92200
C  -0.79000 40.14800 28.54900
C  0.48400 40.62300 23.87100
C  4.83700 42.22400 25.28500
N  1.34700 41.25400 29.03300
C  2.07300 41.71700 30.10300
C  1.21400 41.71300 31.37200
C  -0.07600 40.84200 30.91300
C  0.14500 40.77300 29.41100
C  -0.14500 39.44400 31.63600
C  0.95600 43.15600 31.93700
C  1.31700 43.41400 33.38100
H  1.18800 42.35300 34.45200
N  0.05800 40.57300 26.21700
C  -0.85300 40.05800 27.08900
C  -1.98300 39.52500 26.22600
C  -1.53500 39.54500 24.88800
C  -0.27500 40.28500 24.97300
C  -3.18600 38.76200 26.81900
C  -2.20600 38.95100 23.64500
O  -1.63300 39.05200 22.57800
C  -3.56100 38.15200 23.76200
N  2.63000 41.32800 24.96100
C  1.84700 40.99200 23.88100
C  2.60800 41.24500 22.51100
C  3.99000 41.74800 22.95100
C  3.85900 41.68600 24.50200
C  2.63100 39.99700 21.61800
C  4.36700 43.19600 22.34900
C  3.75300 44.35200 23.05000
N  3.71000 42.12200 27.41000
C  4.81100 42.46800 26.66400
C  5.91300 42.85700 27.56300
C  5.30500 42.76800 28.82600
C  4.02000 42.35900 28.73100
C  7.33000 43.18200 27.32500
C  5.65400 42.80000 30.20500
O  6.73600 42.99500 30.66700
C  4.37600 42.57300 31.02600
C  4.75100 41.39400 31.82100
O  4.89100 40.25900 31.37200
O  4.71400 41.75800 33.11600
C  4.86700 40.69500 34.10300
H  -1.68500 39.79700 29.06800
H  0.04300 40.54200 22.87600
H  5.78200 42.53400 24.83300
H  1.69800 41.19200 32.19900
H  -1.03400 41.29200 31.17200
H  0.56100 39.35300 32.46200
H  -0.18000 38.62600 30.91700
H  -1.13400 39.19000 32.01500
H  -0.12600 43.28900 31.94500
H  1.39100 43.89500 31.26500
H  0.66200 44.24600 33.63900
H  2.37100 43.67900 33.46800
H  -3.34400 38.86300 27.89300
H  -3.13000 37.67400 26.83000
H  -4.15600 39.16500 26.52700
H  -3.57100 37.36100 24.51200
H  -3.70700 37.77600 22.74900
H  -4.43500 38.78600 23.90900
H  2.12100 42.04700 21.95600
H  4.82900 41.12500 22.64100
H  2.24100 39.17900 22.22300
H  3.67300 39.80900 21.35700
H  2.09400 40.17600 20.68600
H  3.84100 43.31700 21.40200
H  5.41300 43.36700 22.09500
H  3.05100 43.89400 23.74600
H  3.19400 45.10100 22.49000
H  4.57400 44.88200 23.53200
H  7.63600 42.84900 26.33300
H  7.82700 42.56800 28.07600
H  7.45000 44.24900 27.50800
H  4.11400 43.51900 31.50100
H  4.53000 39.76800 33.63900
H  4.40800 40.93800 35.06200
H  5.89400 40.66800 34.46700

