158

Mg 26.26300 0.78400 28.73700
C  28.09200 -0.05400 31.69800
C  23.52900 1.22600 30.66200
C  24.47300 0.84100 25.85600
C  29.11500 -0.30900 26.89700
N  25.93500 0.61900 30.92000
C  26.82400 0.41700 31.96500
C  26.22100 0.82900 33.32600
C  24.71800 1.01000 32.95300
C  24.71000 0.95300 31.42700
C  23.77000 -0.00800 33.71200
C  27.03400 1.98200 33.93200
C  27.55100 1.71000 35.31000
H  27.49500 2.81800 36.27600
N  24.24500 1.00500 28.33900
C  23.29200 1.23900 29.22200
C  22.03100 1.43300 28.50000
C  22.29400 1.23300 27.14300
C  23.70000 1.09700 27.06100
C  20.73500 1.71800 29.25000
C  21.36200 1.24500 25.93800
O  21.71100 1.11500 24.77300
C  19.89000 1.49800 26.24600
N  26.76900 0.30800 26.70500
C  25.85800 0.75300 25.69200
C  26.53700 0.58700 24.29900
C  28.06200 0.51500 24.69300
C  27.99000 0.09400 26.15800
C  26.02700 -0.65700 23.45400
C  28.90400 1.79800 24.34600
C  29.28500 1.90400 22.85400
N  28.14300 -0.00800 29.11300
C  29.18900 -0.47300 28.29200
C  30.28100 -0.95500 29.11800
C  29.90500 -0.72900 30.38700
C  28.63300 -0.21100 30.38800
C  31.58400 -1.35300 28.59400
C  30.37900 -0.86100 31.72500
O  31.41600 -1.24700 32.18000
C  29.22700 -0.44200 32.71600
C  28.83600 -1.42600 33.78300
O  27.95100 -2.22500 33.78600
O  29.62400 -1.21800 34.91100
C  29.39200 -2.11500 35.99100
H  22.85000 1.75200 31.33600
H  23.96400 1.02300 24.90700
H  30.07400 -0.52700 26.42200
H  26.43800 -0.04800 33.93700
H  24.41000 2.03700 33.14700
H  24.42400 -0.72100 34.21500
H  23.15700 -0.50200 32.95900
H  23.18100 0.53900 34.44800
H  26.47100 2.91400 33.88800
H  27.93400 2.10900 33.33000
H  28.60000 1.44700 35.17400
H  27.13100 0.80800 35.75600
H  19.98900 0.92500 29.21900
H  20.41100 2.74400 29.07400
H  21.11600 1.81600 30.26700
H  19.48700 0.94100 27.09200
H  19.38700 1.18200 25.33300
H  19.76300 2.54500 26.52100
H  26.25600 1.50500 23.78300
H  28.63400 -0.27900 24.21300
H  26.71000 -1.47600 23.23100
H  25.46900 -0.26900 22.60100
H  25.17200 -0.99400 24.03900
H  29.74700 1.93200 25.02300
H  28.29000 2.66200 24.59700
H  28.88800 1.14600 22.17900
H  30.36000 1.77200 22.73300
H  28.88300 2.83900 22.46500
H  32.34900 -1.10000 29.32800
H  31.91200 -0.77700 27.72900
H  31.55400 -2.42500 28.39900
H  29.67200 0.35900 33.30500
H  28.44500 -1.82000 36.44200
H  30.24400 -2.10900 36.67200
H  29.32400 -3.16100 35.69300
Mg 47.08200 15.46800 28.40500
C  44.99800 14.83800 31.09900
C  49.23800 17.00700 30.44600
C  48.74900 16.57700 25.66700
C  44.60500 14.16000 26.22700
N  47.02200 15.95700 30.55200
C  46.13900 15.52100 31.49300
C  46.62900 15.84900 32.94300
C  47.83600 16.71900 32.61400
C  48.10700 16.49200 31.11600
C  47.82600 18.19300 33.13300
C  46.82000 14.66400 33.91900
C  46.31900 14.81500 35.35000
H  46.15900 16.14700 35.98100
N  48.88700 16.48200 28.11800
C  49.65700 17.00900 29.10400
C  50.90700 17.53000 28.50100
C  50.73200 17.49400 27.10800
C  49.47900 16.86400 26.92300
C  52.11600 18.02500 29.34200
C  51.69300 17.91900 26.03400
O  51.43900 17.72700 24.84700
C  53.02100 18.56800 26.43700
N  46.74100 15.29900 26.30700
C  47.56700 15.89800 25.42500
C  47.12300 15.68100 23.96400
C  46.01200 14.64400 24.15300
C  45.69100 14.75900 25.67000
C  46.68200 17.04700 23.37000
C  46.47500 13.23200 23.67800
C  45.67500 12.76100 22.44100
N  45.12400 14.69100 28.58500
C  44.24700 14.17900 27.63400
C  43.18200 13.50300 28.36600
C  43.51600 13.71200 29.72900
C  44.59800 14.54500 29.79000
C  42.10300 12.72900 27.62700
C  42.95600 13.44200 31.03400
O  42.00200 12.79200 31.40600
C  43.85600 14.35700 32.06100
C  43.03900 15.35800 32.74500
O  42.42200 16.26100 32.16400
O  42.90400 15.11900 34.06700
C  42.10500 16.17700 34.79800
H  49.96500 17.46200 31.12200
H  49.23400 16.99400 24.78100
H  43.87300 13.79100 25.50500
H  45.86000 16.48000 33.38900
H  48.77700 16.34600 33.01800
H  47.68600 18.88000 32.29900
H  48.70700 18.40500 33.73800
H  46.97700 18.18000 33.81600
H  47.90600 14.63700 34.01200
H  46.37600 13.75500 33.51300
H  47.09700 14.32800 35.93900
H  45.38500 14.25600 35.40500
H  52.93300 17.34200 29.57700
H  51.67900 18.24300 30.31600
H  52.55500 18.95800 28.98800
H  53.64400 17.97100 27.10200
H  52.77400 19.52900 26.89000
H  53.60400 18.71400 25.52800
H  47.95200 15.34900 23.33800
H  45.09500 14.92100 23.63300
H  45.69300 17.02000 22.91300
H  47.34400 17.48600 22.62400
H  46.49100 17.80600 24.12900
H  46.09300 12.61600 24.49100
H  47.56300 13.16200 23.69600
H  46.41400 12.43400 21.71000
H  45.12600 13.55100 21.92800
H  45.06200 11.89800 22.69900
H  42.48800 12.25800 26.72200
H  41.32200 13.43100 27.33700
H  41.54100 11.98900 28.19700
H  44.14300 13.72000 32.89700
H  41.08400 16.28700 34.43400
H  42.77500 17.03200 34.88900
H  41.99200 15.84000 35.82800

