158

Mg 44.43300 2.20500 47.27500
C  44.05200 5.51900 46.30300
C  41.31400 1.52900 46.10000
C  45.14600 -1.08800 47.56300
C  47.84400 2.87300 47.90900
N  42.80000 3.41600 46.49700
C  42.86600 4.73100 46.05400
C  41.60100 5.17500 45.39200
C  40.63300 3.91000 45.55300
C  41.61900 2.88100 46.12900
C  39.44800 4.04000 46.59300
C  41.82700 5.60200 43.90800
C  41.37600 7.00000 43.47500
H  40.20300 7.16500 42.43300
N  43.34100 0.43100 46.96500
C  42.03100 0.39100 46.47700
C  41.60600 -1.01400 46.35300
C  42.70500 -1.80000 46.82300
C  43.79900 -0.85700 47.17600
C  40.21700 -1.45000 45.88500
C  42.73100 -3.32900 46.96600
O  41.70700 -3.93400 46.72700
C  43.90400 -4.12600 47.33500
N  46.27100 1.02000 47.73600
C  46.21200 -0.25600 47.85800
C  47.60000 -0.91000 48.11100
C  48.53200 0.39300 47.95200
C  47.50700 1.54200 47.90300
C  47.78400 -1.71000 49.41700
C  49.56100 0.45100 46.83500
C  51.00600 0.11600 47.16800
N  45.66600 3.89900 47.22500
C  46.98200 4.00500 47.62400
C  47.35300 5.42000 47.51700
C  46.23500 6.02600 47.03400
C  45.26100 5.08700 46.85400
C  48.57500 6.03700 47.90800
C  45.70400 7.28700 46.57100
O  46.20900 8.40800 46.52100
C  44.25200 6.97400 46.01400
C  43.32000 7.81000 46.79700
O  42.90600 7.62500 47.88900
O  43.11600 8.99000 46.09600
C  42.49200 10.04500 46.86300
H  40.33100 1.31500 45.67600
H  45.42000 -2.12500 47.76900
H  48.90600 3.10500 48.01600
H  41.09800 6.04000 45.82500
H  40.08100 3.57100 44.67600
H  39.80500 4.03300 47.62300
H  38.65300 3.30900 46.44400
H  39.09000 5.06100 46.46300
H  41.41000 4.82800 43.26300
H  42.88000 5.38100 43.73600
H  42.21800 7.44800 42.94800
H  41.20200 7.67900 44.31000
H  40.20900 -2.19600 45.09000
H  39.69400 -0.56100 45.53200
H  39.63300 -1.71900 46.76500
H  44.26500 -3.81100 48.31400
H  44.67400 -4.12800 46.56400
H  43.46300 -5.12100 47.40800
H  47.67000 -1.59400 47.26600
H  49.07900 0.47600 48.89100
H  48.47000 -1.16700 50.06700
H  48.10700 -2.72500 49.18700
H  46.87200 -1.66300 50.01200
H  49.60400 1.42800 46.35500
H  49.15300 -0.29400 46.15200
H  51.62900 0.86100 46.67300
H  51.25500 -0.85300 46.73600
H  51.27500 0.11200 48.22500
H  49.43300 5.38300 48.06100
H  48.41900 6.65600 48.79200
H  48.72200 6.66800 47.03200
H  44.26000 7.28500 44.96900
H  42.89100 10.98400 46.47800
H  42.57800 9.89200 47.93900
H  41.44700 9.95200 46.56700
Mg 48.31500 14.28700 27.21900
C  46.36300 14.38300 30.26300
C  50.68300 16.23000 28.79400
C  50.09700 14.05900 24.48300
C  45.49000 13.00000 25.67800
N  48.41700 15.23600 29.29200
C  47.49900 15.20900 30.32800
C  48.03100 15.96700 31.52600
C  49.29700 16.70000 30.91200
C  49.52800 16.00700 29.59100
C  48.83100 18.20500 30.66500
C  48.28300 15.04200 32.72000
C  47.59600 15.31000 34.16200
H  48.45600 15.09900 35.42200
N  50.13500 15.04600 26.66600
C  50.97500 15.76100 27.52500
C  52.23200 15.97300 26.83000
C  52.20900 15.18900 25.63000
C  50.76400 14.72000 25.54400
C  53.36900 16.69000 27.50000
C  53.34800 14.83400 24.71700
O  53.17100 14.13700 23.73700
C  54.82100 15.29300 24.99000
N  47.80000 13.79600 25.28700
C  48.72200 13.83900 24.32900
C  48.21300 13.16800 22.98400
C  46.69500 12.80100 23.37900
C  46.59600 13.33400 24.82900
C  48.48000 14.11700 21.79400
C  46.36200 11.29800 23.20700
C  47.02200 10.34300 24.09900
N  46.36600 13.81100 27.82600
C  45.38200 13.20300 27.02400
C  44.30400 12.76300 27.85200
C  44.73100 13.22300 29.06600
C  45.91500 13.90100 29.01800
C  43.13600 11.88700 27.51300
C  44.21900 13.27200 30.40300
O  43.12900 12.98700 30.85900
C  45.28100 14.11600 31.26200
C  44.43200 15.28600 31.81600
O  44.30800 16.34500 31.32700
O  43.87600 14.87400 32.99500
C  42.98200 15.79800 33.72600
H  51.50000 16.77600 29.27000
H  50.76400 13.84700 23.64500
H  44.62100 12.53200 25.21300
H  47.27900 16.71300 31.78200
H  50.16000 16.64000 31.57400
H  49.50700 18.91800 31.13700
H  47.82100 18.39200 31.03000
H  48.95300 18.42000 29.60300
H  49.34400 14.90700 32.93000
H  48.03400 14.01100 32.46600
H  46.73400 14.64400 34.19700
H  47.35300 16.37200 34.15900
H  53.09600 17.68700 27.84600
H  54.27400 16.70700 26.89300
H  53.63600 16.08900 28.36900
H  55.22400 14.91500 25.93000
H  54.85100 16.37600 24.87400
H  55.34500 14.84700 24.14500
H  48.78100 12.24700 22.85500
H  46.05700 13.47000 22.80200
H  49.19600 13.72100 21.07400
H  49.02300 14.95900 22.22200
H  47.55900 14.53000 21.38200
H  46.72100 11.05700 22.20600
H  45.28700 11.13000 23.14900
H  47.52900 10.88500 24.89700
H  47.65900 9.64400 23.55600
H  46.26800 9.70200 24.55600
H  42.72500 11.37000 28.38000
H  43.52800 11.20300 26.76000
H  42.32000 12.46300 27.07600
H  45.57800 13.54400 32.14100
H  43.63300 16.64800 33.93200
H  42.56200 15.23200 34.55700
H  42.24900 16.15700 33.00300

