158

Mg 47.98900 34.27700 26.83100
C  46.11300 32.62200 29.32400
C  47.90300 37.08500 28.83000
C  49.21000 36.00900 24.23300
C  47.15700 31.58300 24.60500
N  47.30500 34.67800 28.96400
C  46.76200 33.81400 29.74300
C  46.72500 34.48700 31.15700
C  47.03400 36.04800 30.94700
C  47.44300 35.95300 29.51000
C  45.69700 36.88000 31.00500
C  47.94200 33.86300 32.04500
C  48.00200 34.33900 33.57500
H  47.08300 35.41300 34.15000
N  48.49600 36.24600 26.53200
C  48.37500 37.22700 27.51200
C  48.93400 38.43900 26.99800
C  49.53000 38.12700 25.75200
C  49.05600 36.80800 25.39100
C  49.10600 39.67000 27.82800
C  50.35000 38.98400 24.90100
O  50.85400 38.57200 23.85400
C  50.85200 40.31400 25.39300
N  48.12300 33.77900 24.80000
C  48.68500 34.73700 23.88300
C  48.74600 34.20700 22.46100
C  48.22700 32.74200 22.59200
C  47.75100 32.67000 24.08200
C  47.96600 35.18500 21.56800
C  49.31900 31.73800 22.25300
C  49.17100 30.99300 20.87700
N  46.95400 32.39000 26.86500
C  46.77100 31.40300 25.94200
C  45.89300 30.35800 26.47300
C  45.58100 30.90200 27.76700
C  46.24800 32.09900 27.99200
C  45.45200 29.10300 25.74800
C  44.81100 30.59000 29.01000
O  44.17500 29.55700 29.31500
C  45.05800 31.78200 30.07100
C  45.29400 31.27800 31.44300
O  46.18100 30.52600 31.72800
O  44.43200 31.89000 32.24700
C  44.58200 31.69600 33.70500
H  47.85600 37.91200 29.54100
H  49.53500 36.64600 23.40800
H  47.02800 30.70300 23.97000
H  45.78100 34.31200 31.67300
H  47.84600 36.44900 31.55400
H  45.25000 37.10800 30.03800
H  45.89200 37.76800 31.60500
H  45.01200 36.38300 31.69300
H  48.83200 34.04000 31.44200
H  47.89900 32.77400 32.04100
H  49.04800 34.38100 33.87900
H  47.65100 33.49800 34.17300
H  50.09100 39.73200 28.29000
H  48.27900 39.79500 28.52700
H  48.86700 40.50500 27.16900
H  49.99700 40.98500 25.47300
H  51.65500 40.68200 24.75400
H  51.34600 40.09500 26.34000
H  49.79300 34.13900 22.16300
H  47.45700 32.51600 21.85500
H  47.84000 36.13400 22.08900
H  46.97200 34.85500 21.26900
H  48.55600 35.39400 20.67600
H  49.48200 31.01000 23.04800
H  50.26300 32.27900 22.32700
H  50.18300 30.97000 20.47300
H  48.42500 31.43600 20.21600
H  48.84400 29.98200 21.11800
H  44.36400 29.05200 25.71900
H  45.91000 28.24900 26.24800
H  45.86500 29.04300 24.74100
H  44.06500 32.23000 30.10400
H  45.64200 31.53500 33.89900
H  44.10300 30.78200 34.05800
H  44.23500 32.56900 34.25700
Mg 41.99500 40.69500 26.28200
C  41.31900 43.07700 28.68900
C  43.01800 38.49900 28.64500
C  42.74000 38.57700 23.63000
C  40.83200 43.06400 23.83200
N  42.29400 40.82200 28.36700
C  41.75200 41.89100 29.18300
C  41.86100 41.54300 30.62300
C  42.48300 40.07000 30.65900
C  42.62900 39.75500 29.13000
C  43.83000 39.95800 31.42900
C  40.50200 41.71500 31.42800
C  40.51200 42.59600 32.79100
H  40.01500 41.97500 34.07300
N  42.81400 38.81000 26.15800
C  43.16200 38.03200 27.26300
C  43.58300 36.68900 26.75600
C  43.63100 36.70700 25.29900
C  42.99200 38.05400 25.00200
C  44.08500 35.61700 27.75100
C  44.13100 35.72400 24.30900
O  44.13100 36.02500 23.10900
C  44.67900 34.40300 24.75200
N  41.85000 40.84400 24.08100
C  42.25900 39.82400 23.25600
C  42.00300 40.14600 21.83300
C  41.21400 41.48400 21.86500
C  41.27400 41.82700 23.36100
C  43.17300 40.32200 20.85000
C  39.71000 41.32500 21.37500
C  38.85300 40.34500 22.13800
N  41.24600 42.70900 26.25300
C  40.87600 43.49900 25.20400
C  40.40300 44.72800 25.75100
C  40.61600 44.65500 27.12000
C  41.13900 43.37200 27.37700
C  39.93100 45.83400 24.90600
C  40.44900 45.39000 28.31300
O  40.09000 46.54600 28.56400
C  40.92300 44.32400 29.38900
C  42.07900 44.85900 30.20300
O  43.29800 44.67300 29.96500
O  41.66200 45.64300 31.34600
C  42.74800 46.21500 32.14400
H  43.27900 37.75400 29.40000
H  42.93200 37.88100 22.81100
H  40.56900 43.65900 22.95500
H  42.63900 42.22200 30.97200
H  41.85700 39.34400 31.17700
H  44.64100 39.68400 30.75400
H  43.80100 39.27500 32.27700
H  44.14300 40.90500 31.86900
H  40.23400 40.71300 31.76400
H  39.70100 41.88700 30.71000
H  39.75900 43.34800 32.55500
H  41.51500 43.01000 32.89200
H  43.91800 35.95000 28.77600
H  45.16300 35.53000 27.61500
H  43.65900 34.62400 27.60800
H  43.77300 33.80800 24.87200
H  45.27600 34.44000 25.66300
H  45.16300 33.98900 23.86800
H  41.40100 39.31400 21.46900
H  41.64800 42.32600 21.32500
H  43.76300 39.43200 20.62900
H  43.80500 41.17100 21.11100
H  42.68000 40.60800 19.92100
H  39.70700 40.99400 20.33600
H  39.25700 42.30800 21.50800
H  38.36600 39.64300 21.46200
H  38.07400 40.85700 22.70400
H  39.46100 39.78100 22.84500
H  40.09500 45.55200 23.86600
H  40.58700 46.69900 25.01600
H  38.89100 46.12000 25.06100
H  40.11300 44.15200 30.09700
H  42.85100 45.47600 32.93900
H  42.58900 47.17500 32.63500
H  43.72700 46.30300 31.67500

