158

Mg 36.05600 1.77800 29.56700
C  33.84800 2.92500 32.05000
C  38.48400 1.62600 32.00600
C  38.19500 1.20600 27.17800
C  33.49300 2.46200 27.23400
N  36.12300 2.42900 31.71500
C  35.14100 2.69900 32.55100
C  35.52200 2.75000 34.02000
C  37.10200 2.73700 33.92900
C  37.24400 2.15300 32.49300
C  37.76600 4.16700 34.05600
C  34.75400 1.58000 34.73600
C  34.21200 1.83000 36.03800
H  34.79500 2.98100 36.82200
N  37.98300 1.27400 29.59700
C  38.74100 1.19800 30.68900
C  39.94900 0.57000 30.38000
C  39.94000 0.42000 28.91500
C  38.68800 1.03700 28.49400
C  40.92700 -0.01900 31.41600
C  40.82900 -0.30400 27.96500
O  40.64700 -0.57500 26.77200
C  42.10700 -0.80800 28.41500
N  35.87200 2.02700 27.52800
C  36.90400 1.57500 26.66100
C  36.50800 1.69400 25.16000
C  34.92400 1.73900 25.27400
C  34.74400 2.11800 26.74700
C  37.12400 2.97500 24.53500
C  34.32900 0.34200 24.99800
C  33.37700 0.18100 23.86200
N  34.02900 2.46400 29.57600
C  33.12900 2.68600 28.53500
C  31.88700 3.19900 29.11000
C  32.15700 3.28900 30.49600
C  33.48300 2.83300 30.69100
C  30.53400 3.38200 28.43300
C  31.51700 3.65200 31.67100
O  30.37000 4.02300 31.88400
C  32.61900 3.49500 32.82600
C  32.84900 4.73900 33.52100
O  33.67600 5.54700 33.20200
O  31.96500 4.80100 34.61300
C  32.14300 5.87800 35.62200
H  39.30700 1.53900 32.71800
H  38.97200 0.90300 26.47300
H  32.63400 2.59900 26.57400
H  35.37100 3.74600 34.43700
H  37.57200 2.14000 34.71100
H  38.71800 3.96100 33.56700
H  37.81100 4.55300 35.07500
H  37.21900 4.98200 33.58200
H  35.25300 0.63600 34.95300
H  33.94500 1.17700 34.12700
H  34.34300 0.97800 36.70400
H  33.13700 2.00500 36.00100
H  40.87500 -1.10600 31.48500
H  40.80800 0.40400 32.41300
H  41.93000 0.32600 31.16600
H  42.62000 -1.39100 27.65000
H  41.93800 -1.46900 29.26500
H  42.75300 0.00700 28.74200
H  36.78200 0.77100 24.64900
H  34.41500 2.50300 24.68600
H  36.26900 3.54400 24.16800
H  37.73700 2.57900 23.72500
H  37.81400 3.51000 25.18700
H  33.72300 0.07600 25.86300
H  35.15700 -0.33500 24.78800
H  32.40500 -0.23400 24.12800
H  33.86800 -0.50000 23.16700
H  33.19600 1.18000 23.46500
H  30.36800 4.46000 28.43600
H  29.79200 2.85200 29.03000
H  30.52000 2.99500 27.41400
H  32.08100 2.86400 33.53300
H  31.36600 6.63800 35.53500
H  33.05800 6.46700 35.68600
H  32.03400 5.47800 36.63000
Mg 41.37900 8.41800 29.30600
C  43.46700 9.36500 32.09100
C  39.13800 7.12500 31.62600
C  39.66900 7.38100 26.76600
C  44.13500 9.29400 27.18300
N  41.35600 8.32200 31.60100
C  42.25300 8.80700 32.50200
C  41.63100 8.79100 33.91300
C  40.39100 7.80700 33.78400
C  40.23800 7.73300 32.21900
C  40.57600 6.46500 34.60600
C  41.22000 10.14600 34.47900
C  40.91300 10.13900 35.99200
H  41.58400 11.28900 36.82900
N  39.65300 7.42700 29.17300
C  38.87500 6.94700 30.19600
C  37.70900 6.33700 29.52200
C  37.67700 6.50900 28.15700
C  39.06700 7.05000 27.97100
C  36.77500 5.44000 30.31700
C  36.78200 6.10600 27.09700
O  36.90800 6.28600 25.90900
C  35.45100 5.52500 27.52800
N  42.02700 8.11500 27.29700
C  40.95700 7.88400 26.44400
C  41.41700 8.07700 24.98700
C  42.68400 8.85500 25.12300
C  42.96800 8.74200 26.62800
C  41.60700 6.65200 24.19900
C  42.71300 10.22700 24.58000
C  41.63600 11.15500 25.18800
N  43.38300 9.22700 29.52500
C  44.40500 9.46000 28.56100
C  45.59100 9.92800 29.16200
C  45.25100 9.96800 30.57600
C  43.90400 9.46900 30.73800
C  46.79700 10.37900 28.49900
C  45.68500 10.35100 31.84900
O  46.75600 10.89200 32.11000
C  44.57300 9.99000 32.87800
C  45.13400 9.03700 33.90300
O  45.15700 7.81400 33.92500
O  45.72500 9.77500 34.92100
C  46.21400 9.12200 36.12800
H  38.35300 6.82700 32.32400
H  38.94000 7.25600 25.96200
H  44.88000 9.57700 26.43700
H  42.33500 8.39800 34.64700
H  39.47100 8.28100 34.12700
H  39.92500 6.22800 35.44800
H  41.53700 6.37000 35.11100
H  40.41500 5.61800 33.94000
H  40.28900 10.56500 34.09600
H  41.95800 10.92100 34.27000
H  41.22100 9.28400 36.59300
H  39.82700 10.22500 35.96900
H  36.57700 4.50500 29.79300
H  35.88100 6.02600 30.53000
H  37.17900 5.19700 31.30000
H  35.48800 4.47100 27.80300
H  34.77400 5.51900 26.67400
H  34.99500 6.24800 28.20400
H  40.70900 8.67700 24.41500
H  43.46400 8.36700 24.54000
H  41.06700 6.64900 23.25200
H  41.19000 5.81500 24.76000
H  42.67600 6.49000 24.05800
H  42.55400 10.12600 23.50600
H  43.67600 10.71900 24.71400
H  42.04300 12.09400 25.56400
H  41.02800 10.64400 25.93400
H  40.83900 11.34000 24.46700
H  46.96300 9.85300 27.55900
H  47.72600 10.17600 29.03100
H  46.68100 11.43700 28.26600
H  44.31100 10.90400 33.41100
H  45.40200 8.92300 36.82800
H  46.99300 9.71000 36.61300
H  46.60800 8.15700 35.81000

