158

Mg 9.93600 47.97200 26.30200
C  8.01700 48.09800 29.17800
C  12.55500 49.47800 28.04700
C  11.92400 47.28900 23.73000
C  7.11600 47.15800 24.40200
N  10.20600 48.67700 28.33800
C  9.38000 48.44300 29.44700
C  9.94900 49.01000 30.74700
C  11.12800 49.82300 30.23300
C  11.35300 49.36100 28.73200
C  10.96500 51.36000 30.46200
C  10.42200 47.92800 31.85800
C  9.81700 48.30900 33.30400
H  9.73100 47.17200 34.31900
N  12.01200 48.18000 26.01500
C  12.89000 48.79900 26.87000
C  14.18900 48.55400 26.39600
C  14.07500 48.02900 25.01700
C  12.65800 47.84600 24.83900
C  15.40900 49.13900 27.15100
C  15.18000 47.67200 23.98200
O  14.91500 47.33100 22.86000
C  16.66600 47.75700 24.38100
N  9.59100 47.52100 24.28700
C  10.57000 47.15900 23.39700
C  10.05900 46.54400 22.08200
C  8.55200 46.50000 22.32800
C  8.38300 47.03100 23.75300
C  10.41500 47.38600 20.82700
C  8.00400 45.05200 22.15700
C  8.42000 44.02300 23.26500
N  7.94700 47.93400 26.63600
C  6.93300 47.43000 25.77200
C  5.74700 47.22700 26.53300
C  6.07900 47.53500 27.90800
C  7.44700 47.91600 27.90100
C  4.44000 46.76800 26.02400
C  5.56800 47.71100 29.29000
O  4.45300 47.73900 29.80300
C  6.83600 47.94600 30.17500
C  7.17900 46.79100 31.08400
O  7.96200 45.86900 30.84500
O  6.41700 47.01400 32.20000
C  6.22200 45.85800 33.07700
H  13.27400 49.97000 28.70600
H  12.59500 47.05200 22.90100
H  6.33600 46.76900 23.74400
H  9.20900 49.70200 31.15000
H  12.02500 49.44300 30.72200
H  11.07700 51.78800 29.46600
H  11.65600 51.70000 31.23400
H  9.94100 51.59400 30.75200
H  11.50000 47.90200 32.01100
H  10.09000 46.98100 31.43300
H  8.79000 48.67100 33.25900
H  10.46700 49.11200 33.65200
H  15.14500 49.45300 28.16100
H  15.99100 49.81100 26.52100
H  16.10800 48.32200 27.33200
H  16.76200 47.33900 25.38300
H  17.10000 48.73700 24.57700
H  17.24800 47.25600 23.60700
H  10.60800 45.60300 22.13100
H  8.09800 47.12000 21.55400
H  11.44900 47.28700 20.49700
H  10.15500 48.40400 21.11700
H  9.77200 47.05800 20.01100
H  8.19900 44.71400 21.14000
H  6.92500 45.13000 22.29600
H  8.61900 44.47700 24.23600
H  9.34500 43.53300 22.96100
H  7.56200 43.35200 23.31200
H  3.82300 47.50700 25.51300
H  3.87800 46.50900 26.92100
H  4.56200 45.85500 25.44200
H  6.70700 48.85000 30.77000
H  5.17000 45.58300 33.00400
H  6.58500 46.13000 34.06900
H  6.77200 44.97900 32.74100
Mg -1.61700 34.67800 27.09000
C  -3.64300 33.03700 29.50600
C  -0.51400 36.70000 29.68400
C  -0.16200 36.68000 24.89000
C  -3.35700 33.02100 24.58600
N  -2.11900 34.87400 29.34000
C  -2.87800 34.04700 30.08100
C  -2.73200 34.28800 31.61800
C  -2.08400 35.71400 31.65000
C  -1.54700 35.80800 30.13300
C  -3.16600 36.86500 31.98000
C  -2.01600 33.11400 32.34100
C  -2.72600 32.46500 33.58100
H  -1.95100 32.55500 34.91400
N  -0.24700 36.20000 27.30800
C  0.11300 36.85200 28.45200
C  1.03900 37.93000 28.08900
C  1.25600 37.85800 26.73000
C  0.29300 36.87500 26.26000
C  1.74300 38.76200 29.21300
C  2.21600 38.70500 25.94600
O  2.38600 38.62100 24.70200
C  3.00700 39.82200 26.67500
N  -1.91700 34.87200 24.94200
C  -1.06000 35.74800 24.25100
C  -1.03800 35.45100 22.71000
C  -2.04700 34.19500 22.62200
C  -2.40600 33.95700 24.08300
C  -1.56500 36.60000 21.93100
C  -1.53000 32.91500 21.86800
C  -0.73900 31.87800 22.76500
N  -3.24500 33.32000 27.00500
C  -3.79000 32.69900 25.93600
C  -4.73400 31.69200 26.32700
C  -4.66900 31.75200 27.80500
C  -3.79200 32.78600 28.14100
C  -5.52100 30.75100 25.38700
C  -5.06800 31.08600 29.04800
O  -5.76400 30.12800 29.13000
C  -4.37300 31.86700 30.19800
C  -5.49900 32.24700 31.10400
O  -6.23200 33.19700 31.03100
O  -5.63100 31.22100 32.08200
C  -6.54700 31.55600 33.18300
H  -0.20500 37.36100 30.49700
H  0.41600 37.31500 24.21600
H  -3.83700 32.36500 23.85700
H  -3.74300 34.34600 32.02000
H  -1.23300 35.69800 32.33100
H  -2.94600 37.57800 31.18600
H  -2.90800 37.26900 32.96000
H  -4.17700 36.47300 31.86900
H  -1.05500 33.49700 32.68400
H  -1.84700 32.30500 31.63100
H  -2.86000 31.39500 33.42400
H  -3.74700 32.83200 33.68600
H  1.41600 39.80200 29.21100
H  2.81500 38.59600 29.11600
H  1.43400 38.44100 30.20800
H  3.49100 40.39000 25.88000
H  3.79000 39.30200 27.22700
H  2.34800 40.45300 27.27200
H  -0.05500 35.23600 22.29100
H  -3.01300 34.47800 22.20200
H  -1.54900 37.51900 22.51600
H  -2.58900 36.37700 21.63100
H  -1.00700 36.80400 21.01800
H  -1.04400 33.34500 20.99200
H  -2.44900 32.46100 21.49900
H  -0.60500 32.21800 23.79200
H  0.26000 31.75400 22.34600
H  -1.26300 30.92200 22.77600
H  -6.07300 31.37600 24.68400
H  -6.22100 30.19000 26.00600
H  -4.69300 30.15100 25.01000
H  -3.66000 31.17500 30.64500
H  -6.07800 32.28600 33.84200
H  -6.67300 30.69400 33.83800
H  -7.51900 32.00800 32.98800

