158

Mg 41.38200 9.26700 30.24300
C  42.96000 10.39200 33.10600
C  39.01400 7.66400 32.20900
C  39.64200 8.37500 27.47100
C  43.85200 10.61000 28.42500
N  41.06900 9.01700 32.35300
C  41.82500 9.58100 33.34100
C  41.08900 9.51700 34.67700
C  40.02400 8.35100 34.42500
C  40.04900 8.29200 32.90200
C  40.46400 6.99600 34.98400
C  40.45200 10.89300 35.01200
C  40.17500 11.08900 36.57100
H  40.89100 12.01300 37.51400
N  39.62600 8.20000 29.88400
C  38.77400 7.62600 30.84000
C  37.59600 7.00700 30.10500
C  37.68200 7.31700 28.71900
C  39.03000 7.98300 28.63600
C  36.45600 6.31000 30.81700
C  36.67900 7.10400 27.62100
O  36.84600 7.56300 26.49200
C  35.40400 6.25800 27.89400
N  41.68500 9.44800 28.29400
C  40.89000 8.98200 27.35700
C  41.56100 9.06800 25.95100
C  42.83100 9.96700 26.24400
C  42.80800 10.02100 27.74300
C  41.82900 7.71700 25.27500
C  42.85000 11.37900 25.55300
C  41.62900 12.32200 25.85700
N  43.08300 10.25700 30.63000
C  44.07100 10.73700 29.83600
C  45.07900 11.42700 30.57200
C  44.71200 11.31400 31.89500
C  43.51300 10.64500 31.87200
C  46.38100 12.01900 30.01500
C  45.07300 11.60100 33.28100
O  45.92000 12.27600 33.77000
C  43.87900 11.09500 34.08900
C  44.42500 10.21200 35.12700
O  44.99100 9.11400 34.87900
O  44.25600 10.80100 36.35900
C  44.57000 10.09100 37.59500
H  38.27500 7.13800 32.81700
H  39.15900 8.23700 26.50100
H  44.66500 11.11300 27.89700
H  41.62100 9.25500 35.59100
H  39.04400 8.58900 34.83900
H  39.55100 6.71000 35.50600
H  41.33000 6.85100 35.63000
H  40.74400 6.21100 34.28200
H  39.49200 10.96200 34.50000
H  40.95800 11.77400 34.61400
H  40.25800 10.13400 37.09000
H  39.18500 11.52700 36.69300
H  35.57400 6.88700 30.53700
H  36.59600 6.33400 31.89800
H  36.51600 5.28900 30.44000
H  34.81300 6.18800 26.98000
H  34.77000 6.80400 28.59200
H  35.72200 5.27500 28.24100
H  40.86100 9.75100 25.46900
H  43.66000 9.36200 25.87600
H  41.43400 6.88300 25.85300
H  42.90200 7.52300 25.24400
H  41.46100 7.75400 24.24900
H  42.79100 11.16800 24.48600
H  43.80800 11.86000 25.74800
H  41.96500 13.30500 26.18700
H  41.01900 11.92900 26.67000
H  41.00500 12.36100 24.96400
H  46.99700 11.20400 29.63500
H  46.92300 12.71700 30.65200
H  46.17300 12.62400 29.13300
H  43.48400 11.95300 34.63300
H  45.39700 10.58300 38.10700
H  44.90300 9.11800 37.23400
H  43.71700 9.94200 38.25600
Mg 42.23400 40.87100 26.50400
C  41.39300 43.39800 28.87200
C  43.00400 38.94100 29.06900
C  42.79400 38.58900 24.21800
C  41.79300 43.35400 23.98700
N  42.11200 41.12500 28.67000
C  41.69600 42.18800 29.44200
C  41.73300 41.89300 30.93800
C  42.66300 40.59300 30.92000
C  42.60400 40.15400 29.44400
C  44.09200 40.84200 31.49100
C  40.28600 41.69100 31.55600
C  39.88300 42.57900 32.74400
H  39.49100 41.76300 33.96000
N  42.82600 39.00100 26.65000
C  43.05600 38.32500 27.79500
C  43.55800 37.02900 27.42300
C  43.47400 36.94100 25.96500
C  42.94300 38.19900 25.55400
C  43.80300 36.00400 28.41000
C  43.83500 35.76700 25.11200
O  43.79600 35.76900 23.89100
C  44.46100 34.58400 25.57100
N  42.34800 41.06600 24.35500
C  42.54100 39.89800 23.62300
C  42.39200 40.16400 22.15200
C  42.20100 41.68800 22.08500
C  42.10200 42.08900 23.54300
C  43.45000 39.55600 21.15700
C  40.96000 42.11500 21.16000
C  41.27500 43.08600 19.99200
N  41.68400 42.94500 26.37800
C  41.53900 43.78400 25.29800
C  41.14000 45.11100 25.77000
C  40.97900 44.94800 27.19800
C  41.38800 43.65500 27.49800
C  40.84200 46.30700 24.92100
C  40.41700 45.58200 28.37100
O  39.72900 46.63100 28.45000
C  40.77700 44.63100 29.54100
C  41.71000 45.24900 30.50900
O  42.88200 45.46900 30.41300
O  41.01600 45.58700 31.57300
C  41.74900 46.25900 32.69500
H  43.25800 38.35000 29.95100
H  42.86800 37.86200 23.40600
H  41.54000 44.12800 23.25800
H  42.21500 42.67900 31.51900
H  42.27000 39.77000 31.51700
H  44.84900 41.08800 30.74600
H  44.43700 39.97900 32.06000
H  44.07900 41.73500 32.11600
H  40.00200 40.65300 31.72700
H  39.63600 41.95400 30.72100
H  38.94700 43.01400 32.39600
H  40.52300 43.43400 32.96200
H  44.87700 35.83700 28.32500
H  43.46800 34.97600 28.27200
H  43.44500 36.41100 29.35500
H  43.73300 33.91300 26.02600
H  45.10700 34.95100 26.36900
H  45.03900 34.11000 24.77800
H  41.41800 39.70700 21.97400
H  43.06200 42.16100 21.61400
H  44.09900 40.25400 20.62700
H  42.92100 38.97800 20.40000
H  44.11400 38.90000 21.71900
H  40.09100 42.50200 21.69200
H  40.57900 41.23600 20.63900
H  42.34100 43.20600 19.79800
H  40.86700 44.07000 20.22300
H  40.79700 42.81800 19.05000
H  41.26900 46.35200 23.91900
H  41.09100 47.13300 25.58600
H  39.75400 46.24700 24.90700
H  39.83500 44.28600 29.96700
H  42.59600 46.87100 32.38600
H  42.09600 45.49600 33.39200
H  41.08300 46.92800 33.24000

