158

Mg 9.23700 3.96200 27.86100
C  10.71000 2.24100 30.66100
C  7.26000 5.58800 30.00200
C  8.08100 5.25800 25.17700
C  10.93200 1.39100 25.83400
N  8.94400 3.65000 30.06500
C  9.78000 3.15300 31.05800
C  9.46400 3.67900 32.42700
C  8.23500 4.65300 32.19000
C  8.08000 4.62200 30.60500
C  6.91200 4.37600 32.96600
C  10.68800 4.31400 33.18600
C  10.31600 5.16600 34.45400
H  11.27600 5.03600 35.58900
N  7.86200 5.39900 27.58200
C  7.09400 5.91100 28.56800
C  6.29900 6.92600 27.99600
C  6.57000 6.99600 26.58600
C  7.52200 5.90900 26.37200
C  5.33800 7.83100 28.78400
C  6.13400 8.04200 25.55500
O  6.50900 8.10400 24.36100
C  5.26600 9.09400 25.96000
N  9.44900 3.42400 25.83400
C  8.93800 4.24800 24.84500
C  9.35800 3.78900 23.41700
C  9.90100 2.38900 23.67700
C  10.16200 2.40600 25.19100
C  8.28800 3.74400 22.26100
C  10.91300 1.81300 22.73200
C  10.31900 0.77600 21.83500
N  10.42400 2.12200 28.14300
C  11.07200 1.27600 27.22400
C  11.96800 0.34000 27.93500
C  11.86000 0.71700 29.25600
C  10.99300 1.78300 29.32200
C  12.79800 -0.76300 27.31800
C  12.24600 0.37500 30.64100
O  12.97300 -0.51100 31.03200
C  11.56700 1.44200 31.59000
C  10.75800 0.62000 32.54900
O  9.81300 -0.13000 32.29400
O  11.15900 0.88100 33.86400
C  10.37500 0.41700 35.00500
H  6.75000 6.31200 30.64000
H  7.63100 5.88700 24.40600
H  11.53400 0.73200 25.20600
H  9.19300 2.78900 32.99400
H  8.63600 5.65400 32.34700
H  6.00900 4.44400 32.35900
H  6.74400 5.25900 33.58200
H  6.94700 3.42700 33.50200
H  11.24100 4.96200 32.50600
H  11.34200 3.49100 33.47300
H  9.25200 5.11900 34.68400
H  10.51200 6.21300 34.22100
H  5.65200 8.86300 28.62600
H  5.39300 7.71400 29.86600
H  4.32800 7.57500 28.46300
H  4.26900 8.70300 26.16300
H  5.08900 9.75600 25.11200
H  5.57400 9.65100 26.84400
H  10.17600 4.44100 23.11200
H  9.03900 1.72200 23.66600
H  8.60300 4.51500 21.55800
H  7.33700 3.93500 22.76000
H  8.14100 2.79300 21.74800
H  11.71200 1.25800 23.22300
H  11.39000 2.58300 22.12700
H  10.63700 1.16300 20.86700
H  9.24300 0.61800 21.91500
H  10.84000 -0.16300 22.01700
H  12.88300 -1.62300 27.98200
H  13.80300 -0.46300 27.02100
H  12.23900 -1.16200 26.47100
H  12.28400 2.04900 32.14100
H  9.32300 0.64000 34.82700
H  10.49700 1.11300 35.83500
H  10.65700 -0.56900 35.37400
Mg 24.43500 -5.20500 45.88400
C  26.87800 -3.42000 44.27800
C  22.12500 -3.99800 43.84800
C  22.29200 -7.69800 46.89600
C  27.01500 -6.96700 47.65200
N  24.56400 -3.96700 44.25100
C  25.61500 -3.21800 43.79800
C  25.15600 -2.29000 42.70000
C  23.60400 -2.26200 42.84700
C  23.42600 -3.48300 43.69200
C  22.87000 -1.13400 43.55600
C  25.69400 -2.69000 41.31500
C  26.18100 -1.50400 40.50500
H  27.01200 -1.75300 39.14800
N  22.45000 -5.77200 45.45300
C  21.62400 -5.04400 44.62400
C  20.30200 -5.65900 44.64600
C  20.34900 -6.84900 45.48200
C  21.76100 -6.78200 46.04000
C  19.17100 -5.11900 43.72800
C  19.21400 -7.72800 45.77400
O  18.09300 -7.48800 45.26200
C  19.23100 -8.70300 46.86400
N  24.67700 -7.01000 47.26000
C  23.63900 -7.87300 47.40400
C  24.13100 -9.14600 48.09100
C  25.42000 -8.62400 48.77400
C  25.72100 -7.45500 47.88500
C  23.22900 -9.90300 49.05300
C  26.52700 -9.78600 48.86300
C  27.06300 -10.03400 50.32100
N  26.57900 -5.24400 45.97000
C  27.47200 -5.92600 46.78800
C  28.79000 -5.36400 46.65800
C  28.70800 -4.43400 45.57600
C  27.31800 -4.37100 45.26900
C  30.03600 -5.63400 47.34300
C  29.41900 -3.49100 44.82500
O  30.61500 -3.17300 44.92200
C  28.31300 -2.72400 43.90200
C  28.28300 -1.28600 44.39800
O  28.16400 -0.93000 45.56500
O  28.36000 -0.42500 43.37200
C  28.11400 1.01600 43.80400
H  21.32800 -3.40700 43.39100
H  21.66100 -8.58200 47.01200
H  27.92900 -7.44300 48.01300
H  25.54000 -1.28300 42.86200
H  23.04300 -2.43600 41.92900
H  23.54500 -0.41800 44.02400
H  22.22000 -1.54200 44.33000
H  22.22900 -0.64200 42.82500
H  24.90100 -3.24900 40.81900
H  26.51100 -3.40000 41.43700
H  26.73700 -0.76300 41.07900
H  25.24100 -1.08700 40.14500
H  18.40400 -4.63100 44.32900
H  18.68600 -5.87300 43.10900
H  19.46600 -4.39600 42.96700
H  18.21400 -8.92600 47.18700
H  19.67900 -8.18300 47.71100
H  19.85100 -9.55300 46.57800
H  24.36500 -9.78500 47.23900
H  25.31100 -8.16700 49.75800
H  22.37700 -9.25000 49.24000
H  23.93200 -9.99800 49.88100
H  22.89300 -10.83900 48.60700
H  27.42600 -9.44900 48.34700
H  26.15900 -10.71600 48.42900
H  26.67000 -9.27200 50.99400
H  28.15200 -10.00500 50.37300
H  26.72800 -11.03300 50.59800
H  29.79700 -5.61000 48.40700
H  30.75700 -4.95600 46.88700
H  30.45400 -6.63900 47.30100
H  28.42600 -2.75200 42.81800
H  27.75600 1.56400 42.93300
H  28.94500 1.48700 44.32800
H  27.17500 1.10900 44.35000

