158

Mg 40.82900 8.79700 29.51100
C  42.89900 9.85300 31.97500
C  38.73400 7.23600 31.75200
C  39.00500 7.47500 26.91400
C  43.43900 9.47000 27.23700
N  40.75900 8.64500 31.61200
C  41.69600 9.25600 32.40200
C  41.09400 9.32100 33.81400
C  40.01900 8.15000 33.88200
C  39.85300 7.93900 32.30500
C  40.67800 6.90900 34.56000
C  40.56500 10.70600 34.23600
C  40.09300 10.89200 35.63100
H  40.67300 11.95800 36.55700
N  39.10600 7.49600 29.35000
C  38.37500 7.02900 30.39600
C  37.34800 6.20000 29.86800
C  37.29500 6.48800 28.50100
C  38.47800 7.21600 28.19900
C  36.35300 5.39900 30.72900
C  36.10800 6.30200 27.54300
O  36.13800 6.64900 26.33400
C  34.79500 5.75100 28.05000
N  41.29400 8.35600 27.43000
C  40.24100 7.99800 26.55600
C  40.74600 8.04700 25.07200
C  42.17000 8.56300 25.15500
C  42.35800 8.86200 26.66900
C  40.71500 6.67900 24.29700
C  42.53400 9.73700 24.18100
C  41.84800 11.08700 24.49800
N  42.64600 9.61400 29.51400
C  43.56500 9.89800 28.57300
C  44.71200 10.61900 29.11700
C  44.42000 10.65400 30.43400
C  43.23100 10.05400 30.69000
C  45.96400 11.07500 28.35100
C  44.90600 11.09600 31.66200
O  45.90900 11.73100 31.97900
C  43.86500 10.62600 32.79400
C  44.63300 9.88300 33.85000
O  45.44400 9.05500 33.70300
O  44.18000 10.33500 35.04600
C  44.80200 9.61900 36.17600
H  38.04600 6.90900 32.53500
H  38.51700 7.17500 25.98400
H  44.26400 9.72900 26.57000
H  41.94700 9.04300 34.43200
H  39.08900 8.42300 34.38100
H  41.73900 7.09600 34.72600
H  40.57100 6.03500 33.91700
H  40.04800 6.66600 35.41600
H  39.68400 10.98700 33.65900
H  41.19900 11.54700 33.95500
H  40.26500 9.98400 36.20900
H  39.00300 10.89300 35.60700
H  36.62200 5.38200 31.78500
H  36.34200 4.37300 30.35900
H  35.34600 5.81300 30.76900
H  34.31400 6.33600 28.83500
H  34.95100 4.77900 28.51800
H  34.16600 5.66500 27.16400
H  40.05200 8.68800 24.52900
H  42.89100 7.79300 24.88000
H  40.10400 6.01200 24.90500
H  41.70100 6.23800 24.15400
H  40.22400 6.80000 23.33100
H  42.35700 9.48900 23.13400
H  43.61500 9.80700 24.30300
H  41.08500 11.48600 23.83000
H  42.68000 11.79200 24.49500
H  41.42900 10.94400 25.49400
H  45.73100 12.03600 27.89200
H  46.18900 10.35300 27.56600
H  46.85100 11.13100 28.98200
H  43.40000 11.55600 33.12000
H  45.82100 9.93200 36.40500
H  44.80400 8.53300 36.07900
H  44.21800 9.76500 37.08500
Mg 47.47900 16.01900 27.54600
C  45.52200 15.62600 30.57400
C  49.75000 17.64300 29.31200
C  49.11800 16.41300 24.66300
C  44.88800 14.49500 25.86800
N  47.61500 16.51800 29.77800
C  46.78400 16.25400 30.80300
C  47.23100 16.93200 32.12100
C  48.57700 17.61600 31.65500
C  48.71300 17.27700 30.18700
C  48.56200 19.19700 31.78900
C  47.41800 15.91300 33.20800
C  46.59200 16.09300 34.48700
H  46.38800 17.44300 35.05000
N  49.22300 16.97300 27.06400
C  50.09900 17.53900 27.94800
C  51.37400 17.72900 27.27800
C  51.22900 17.29300 25.91500
C  49.78600 16.84700 25.81200
C  52.58500 18.25600 28.02300
C  52.27800 17.30500 24.79100
O  52.05600 16.75700 23.69800
C  53.60100 17.95800 25.05100
N  47.19200 15.37000 25.59800
C  47.95400 15.70100 24.53900
C  47.35000 15.36600 23.16900
C  46.02900 14.64000 23.54500
C  46.01200 14.80500 25.12900
C  47.10300 16.59900 22.17000
C  45.92600 13.11700 23.18400
C  44.65900 12.70800 22.50200
N  45.66400 15.04300 28.09500
C  44.70500 14.62800 27.26700
C  43.59600 14.11200 28.02900
C  43.88200 14.53700 29.35400
C  45.16400 15.11300 29.34100
C  42.38900 13.39300 27.56700
C  43.35900 14.56700 30.72800
O  42.26200 14.18800 31.17900
C  44.42400 15.35800 31.56200
C  43.80300 16.48700 32.30400
O  43.78500 17.65700 32.10200
O  43.18800 15.90600 33.37500
C  42.29400 16.77400 34.15600
H  50.51200 18.11900 29.93300
H  49.72900 16.59500 23.77600
H  44.09700 14.00900 25.29300
H  46.51900 17.68100 32.46800
H  49.44300 17.34200 32.25900
H  47.73900 19.51100 32.43100
H  48.42900 19.73900 30.85300
H  49.48900 19.40900 32.32300
H  48.44300 15.83900 33.57100
H  47.04500 14.95800 32.83700
H  46.99800 15.47200 35.28600
H  45.55500 15.75800 34.53300
H  53.20800 17.38300 28.21600
H  52.50000 18.72100 29.00500
H  53.16800 18.96400 27.43500
H  53.47500 19.01400 25.29100
H  54.26300 17.93300 24.18500
H  54.00200 17.35400 25.86500
H  48.01800 14.68800 22.63700
H  45.12700 15.11800 23.16300
H  47.87300 16.58800 21.39800
H  47.26900 17.55400 22.66900
H  46.12100 16.60000 21.69600
H  46.10900 12.52700 24.08200
H  46.70400 12.91600 22.44800
H  44.65900 12.79000 21.41500
H  43.87400 13.32600 22.93700
H  44.53500 11.64400 22.70400
H  42.70300 12.43300 27.15600
H  41.98400 13.85900 26.66900
H  41.68900 13.20300 28.38100
H  44.90400 14.70700 32.29300
H  41.75700 17.48100 33.52300
H  42.83400 17.38100 34.88200
H  41.68400 16.03500 34.67500

