158

Mg 36.29300 0.47700 30.03500
C  33.82900 1.71300 32.28800
C  38.45600 0.43100 32.57900
C  38.53400 -0.20500 27.69500
C  33.74900 0.64500 27.39600
N  36.20900 1.16900 32.18000
C  35.09100 1.57400 32.90200
C  35.36600 1.71700 34.37300
C  36.90500 1.62800 34.32000
C  37.25900 1.04700 32.95700
C  37.57600 2.94100 34.76200
C  34.74600 0.73100 35.38900
C  34.23400 1.24700 36.68900
H  34.83000 2.44700 37.26400
N  38.21400 0.11300 30.09100
C  38.95300 0.08400 31.29700
C  40.29900 -0.31400 30.96400
C  40.34200 -0.56900 29.54900
C  39.00500 -0.24400 29.05600
C  41.34700 -0.39600 31.99400
C  41.47700 -1.16700 28.75000
O  41.45000 -1.35000 27.52400
C  42.78800 -1.54000 29.37800
N  36.12900 0.32000 27.89700
C  37.24800 0.04600 27.10200
C  36.90000 -0.32500 25.64900
C  35.37300 0.07000 25.59600
C  35.07700 0.38700 27.03200
C  37.73500 0.39400 24.55400
C  34.34800 -0.90800 24.87700
C  33.44700 -1.95200 25.58600
N  34.27900 1.20500 29.75800
C  33.35200 1.12200 28.69200
C  32.10200 1.50900 29.12400
C  32.22900 1.83000 30.45400
C  33.58100 1.58400 30.83900
C  30.87100 1.62400 28.28800
C  31.47100 2.11800 31.70200
O  30.27600 2.35300 31.95100
C  32.52000 2.09900 32.85100
C  32.57900 3.41200 33.45700
O  33.09200 4.40500 32.91500
O  31.99900 3.34400 34.72700
C  31.91300 4.64100 35.36100
H  39.13100 0.39200 33.43600
H  39.32100 -0.49400 26.99400
H  33.04600 0.72700 26.56400
H  34.98400 2.71500 34.58600
H  37.17000 0.89700 35.08300
H  38.34200 3.18600 34.02600
H  38.16900 2.84500 35.67200
H  36.94600 3.83100 34.75500
H  35.34100 -0.14700 35.64200
H  33.83900 0.38400 34.89400
H  34.15200 0.41400 37.38800
H  33.21200 1.51600 36.42200
H  41.81800 -1.37700 31.92100
H  40.95800 -0.32700 33.01000
H  41.97400 0.44400 31.69600
H  43.52500 -1.86500 28.64300
H  42.63400 -2.33500 30.10700
H  43.25600 -0.73400 29.94200
H  36.80400 -1.41000 25.62300
H  35.22200 0.99000 25.03100
H  38.47100 -0.28300 24.12000
H  38.20500 1.28800 24.96400
H  37.08900 0.76000 23.75500
H  34.94700 -1.53300 24.21600
H  33.62900 -0.27900 24.35100
H  32.46000 -1.99700 25.12700
H  33.46300 -1.89600 26.67400
H  33.97000 -2.87300 25.32700
H  30.01800 1.39600 28.92700
H  30.90600 0.98300 27.40700
H  30.87100 2.61500 27.83500
H  32.31300 1.30500 33.56800
H  31.06900 5.28200 35.10800
H  32.86000 5.15600 35.19600
H  32.02900 4.52900 36.43900
Mg 6.35100 54.80100 41.09900
C  5.55500 51.29100 40.92800
C  9.61700 53.96800 40.21700
C  7.01400 58.02500 41.00900
C  2.90300 55.33800 41.46400
N  7.40700 52.84000 40.40500
C  6.89200 51.58300 40.46800
C  7.85400 50.58700 39.89800
C  9.19600 51.36000 39.91700
C  8.74500 52.83600 40.22900
C  10.21500 51.00200 40.99500
C  7.49400 49.96400 38.47700
C  7.77500 50.79000 37.20200
H  6.89000 50.44200 36.00600
N  8.08700 55.81800 40.72300
C  9.31300 55.33000 40.42800
C  10.28300 56.45100 40.34200
C  9.53700 57.61100 40.58300
C  8.18200 57.18400 40.86800
C  11.72200 56.22400 39.99500
C  10.10000 58.99800 40.56700
O  11.28600 59.15900 40.40000
C  9.34400 60.30000 40.75400
N  5.06600 56.46800 41.18300
C  5.61200 57.70000 41.15400
C  4.60200 58.80400 41.38900
C  3.22300 57.94500 41.56600
C  3.70400 56.49100 41.40400
C  4.94800 59.76800 42.59700
C  2.07600 58.41000 40.54800
C  0.80300 59.00100 41.12300
N  4.53800 53.61800 41.25400
C  3.25800 53.96900 41.53800
C  2.44900 52.74100 41.94400
C  3.34500 51.78900 41.74400
C  4.60000 52.27800 41.27500
C  1.05100 52.70500 42.53900
C  3.47300 50.37500 41.94900
O  2.74500 49.52300 42.42900
C  4.79400 49.99000 41.31200
C  4.44000 49.26700 40.10600
O  3.76100 49.73000 39.16300
O  4.72300 47.92400 40.27900
C  4.44800 47.05100 39.08800
H  10.65600 53.80000 39.92700
H  7.21900 59.09400 40.92300
H  1.88300 55.58900 41.76200
H  7.81200 49.70500 40.53700
H  9.75100 51.23400 38.98700
H  10.41700 51.80500 41.70400
H  11.11300 50.74300 40.43600
H  9.78500 50.12400 41.47700
H  6.45700 49.64200 38.56800
H  8.02300 49.02200 38.33300
H  8.85700 50.75500 37.07200
H  7.60900 51.84500 37.42000
H  12.31400 57.13500 40.07800
H  11.74600 55.90800 38.95200
H  12.11400 55.46600 40.67300
H  8.73300 60.62800 39.91300
H  10.08900 61.09600 40.75600
H  8.81200 60.24000 41.70300
H  4.52400 59.45800 40.52000
H  2.74600 58.05800 42.54000
H  4.94300 60.83400 42.37100
H  5.88900 59.52300 43.08900
H  4.24500 59.50400 43.38600
H  1.71100 57.58200 39.94100
H  2.47000 59.20400 39.91300
H  0.98200 59.19500 42.18100
H  -0.06600 58.35400 41.00000
H  0.57700 59.94400 40.62600
H  1.17100 52.17000 43.48100
H  0.29900 52.12000 42.01000
H  0.61400 53.68200 42.74700
H  5.46800 49.42500 41.95600
H  5.22000 46.28600 39.00600
H  4.29400 47.52700 38.11900
H  3.51600 46.53600 39.32100

