158

Mg 30.03600 58.04200 40.58000
C  27.10300 56.04100 39.75000
C  31.88100 55.51600 39.50900
C  32.51800 60.12600 40.43000
C  27.85100 60.52200 41.49600
N  29.47400 55.97800 39.66500
C  28.29900 55.40900 39.33100
C  28.50400 54.26700 38.32500
C  29.97000 53.95800 38.59400
C  30.51200 55.22500 39.30400
C  30.32700 52.64500 39.39300
C  28.18000 54.76500 36.88500
C  27.64300 53.65900 35.96400
H  27.96200 53.62400 34.45800
N  32.00100 57.81700 40.08400
C  32.63200 56.70900 39.74600
C  34.01400 56.89400 39.67200
C  34.18200 58.25400 39.90600
C  32.87200 58.80000 40.18300
C  34.98500 55.83100 39.36700
C  35.57900 58.96200 39.94100
O  36.64600 58.32700 39.82900
C  35.75800 60.44400 40.11400
N  30.11600 60.02100 40.84300
C  31.27400 60.68800 40.69500
C  31.11700 62.21200 40.78500
C  29.71700 62.22500 41.54200
C  29.20100 60.84000 41.34900
C  32.17900 62.86000 41.73800
C  28.73400 63.41100 41.21500
C  28.19400 64.21100 42.37400
N  27.81800 58.31900 40.63800
C  27.16600 59.39600 41.12400
C  25.73600 59.05400 41.05200
C  25.67000 57.75800 40.44700
C  26.99800 57.33300 40.29500
C  24.62800 59.91300 41.40300
C  24.73300 56.69100 40.03600
O  23.49200 56.66100 40.10900
C  25.66100 55.56700 39.53000
C  25.32600 54.35700 40.29500
O  25.95100 53.88200 41.24800
O  24.19500 53.75200 39.69900
C  23.77600 52.41300 40.12600
H  32.48100 54.76300 38.99300
H  33.29700 60.89100 40.45100
H  27.23500 61.37500 41.78800
H  27.85400 53.45100 38.64100
H  30.41800 53.78800 37.61500
H  29.45800 52.20000 39.87800
H  31.14500 52.84300 40.08400
H  30.70400 51.91700 38.67400
H  29.10100 55.11200 36.41700
H  27.27100 55.36700 36.85000
H  26.56300 53.80200 35.98400
H  27.73500 52.66500 36.40300
H  35.96500 56.21100 39.07900
H  34.54600 55.05800 38.73600
H  35.07100 55.32100 40.32600
H  35.24200 60.98900 39.32300
H  36.81400 60.66300 39.96100
H  35.46700 60.72000 41.12800
H  30.97800 62.74000 39.84100
H  29.87900 62.25000 42.62000
H  31.66200 63.56100 42.39400
H  32.86100 63.41700 41.09500
H  32.70500 62.23500 42.45900
H  27.90700 63.06800 40.59300
H  29.35900 64.07900 40.62200
H  28.68300 63.84300 43.27600
H  27.11500 64.21400 42.53200
H  28.56200 65.23500 42.31800
H  23.93100 60.19600 40.61300
H  25.06200 60.84200 41.77200
H  24.06500 59.42600 42.19900
H  25.35300 55.44000 38.49200
H  22.88500 52.59200 40.72800
H  24.53000 51.81400 40.63800
H  23.47300 51.75700 39.31000
Mg 36.22800 49.44100 24.58600
C  36.62400 47.62600 27.53500
C  34.95600 52.06800 26.46300
C  35.44500 50.99600 21.68200
C  37.50500 46.84100 22.81900
N  35.67000 49.74600 26.80700
C  36.10700 48.88900 27.76400
C  35.82800 49.54300 29.15100
C  35.25700 50.91100 28.80500
C  35.33800 50.94100 27.27400
C  33.88800 51.29600 29.39000
C  37.14600 49.47900 30.04400
C  36.86700 49.45500 31.54400
H  35.43300 49.41700 32.12200
N  35.32200 51.24400 24.10400
C  34.92700 52.13100 25.03400
C  34.56800 53.35300 24.36300
C  34.55800 53.04500 22.96600
C  35.13000 51.71200 22.83000
C  34.38500 54.65200 25.06000
C  34.25300 53.99400 21.76900
O  34.33600 53.63200 20.60200
C  33.63200 55.33000 22.05600
N  36.30400 48.88100 22.48500
C  36.05900 49.77300 21.48900
C  36.43400 49.23600 20.15500
C  36.97700 47.73400 20.52700
C  36.93500 47.77900 22.01400
C  35.26000 49.15800 19.15200
C  38.37800 47.47200 19.86800
C  39.62600 48.26400 20.43800
N  36.95200 47.60600 24.99300
C  37.48300 46.69400 24.19500
C  38.01700 45.58300 25.01600
C  37.56100 45.89400 26.32100
C  37.01500 47.16800 26.27700
C  38.69700 44.34200 24.51900
C  37.59300 45.41400 27.61200
O  38.01500 44.37800 28.08000
C  36.84100 46.49100 28.44700
C  35.58800 45.97200 29.01400
O  34.63500 45.51600 28.33100
O  35.66200 46.02700 30.37700
C  34.53000 45.34400 31.04300
H  34.59300 52.93100 27.02500
H  35.18400 51.55000 20.77800
H  38.06600 45.99300 22.42100
H  35.02200 48.93200 29.55700
H  35.95400 51.69000 29.11700
H  33.30800 51.91800 28.70700
H  34.02700 51.79600 30.34800
H  33.40200 50.36500 29.68300
H  37.51200 50.47800 29.80800
H  37.83900 48.69600 29.73400
H  37.29900 50.41100 31.83900
H  37.41100 48.63600 32.01500
H  33.33000 54.78700 25.29800
H  34.82700 55.48800 24.51800
H  35.02200 54.59200 25.94300
H  34.48300 55.93600 22.36900
H  32.89400 55.05700 22.81100
H  33.06000 55.57300 21.16100
H  37.31600 49.76600 19.79400
H  36.28700 46.95600 20.19900
H  35.28500 50.14400 18.68700
H  34.34200 49.04500 19.72900
H  35.42100 48.26100 18.55300
H  38.38800 47.72200 18.80700
H  38.67600 46.42700 19.94800
H  39.41100 49.14900 21.03700
H  40.16100 48.69100 19.59000
H  40.28700 47.62300 21.02100
H  37.96000 43.69600 24.04300
H  39.28200 44.01800 25.38100
H  39.30400 44.47100 23.62300
H  37.50100 46.63200 29.30300
H  34.33200 44.38600 30.56300
H  33.64300 45.96000 30.89000
H  34.84900 45.16800 32.07000

