158

Mg 6.34500 54.12900 41.67300
C  5.88000 50.64900 41.41500
C  9.51000 53.60700 40.41000
C  6.63100 57.48700 41.23400
C  2.98700 54.52800 42.59500
N  7.57600 52.29900 41.02300
C  7.20900 50.94500 41.04600
C  8.26800 50.10300 40.33800
C  9.52100 51.02300 40.51500
C  8.82900 52.38700 40.63400
C  10.41700 50.74900 41.75700
C  8.03300 49.65700 38.89900
C  7.39400 50.76300 38.01300
H  6.25400 50.41000 37.04900
N  7.92400 55.41100 40.94900
C  9.13800 54.97700 40.44700
C  9.87300 56.08300 40.02100
C  9.07600 57.32900 40.30500
C  7.81100 56.76700 40.84800
C  11.32300 56.04000 39.45800
C  9.41300 58.77800 40.04300
O  10.57100 58.96400 39.61100
C  8.59700 59.93800 40.26300
N  4.91100 55.76600 41.76400
C  5.36900 57.05000 41.60200
C  4.24000 58.11500 42.01800
C  3.13500 57.07900 42.52300
C  3.72500 55.69600 42.29000
C  4.68000 59.26700 43.02000
C  1.78000 57.18600 41.83800
C  0.56000 57.11600 42.68600
N  4.76000 52.92700 41.96000
C  3.47200 53.24700 42.39700
C  2.73500 52.03200 42.60100
C  3.66600 51.03800 42.27200
C  4.87200 51.57400 41.85700
C  1.27100 51.96800 43.06000
C  3.79400 49.63500 42.22000
O  3.07100 48.74800 42.55500
C  5.20000 49.36000 41.50700
C  4.79100 48.69600 40.24600
O  4.08300 49.11400 39.34800
O  5.44500 47.40000 40.20800
C  5.09300 46.70900 38.96300
H  10.49600 53.43300 39.97500
H  6.68700 58.57600 41.17200
H  1.95700 54.76500 42.87200
H  8.40800 49.21200 40.95000
H  10.20200 51.02700 39.66400
H  9.96200 50.06000 42.46900
H  10.49400 51.74300 42.19700
H  11.43100 50.42100 41.52700
H  7.51500 48.71900 38.70100
H  9.03700 49.53500 38.49200
H  8.07800 51.37800 37.42900
H  6.84200 51.41800 38.68800
H  11.37900 56.24100 38.38800
H  11.80200 55.09100 39.69900
H  11.82000 56.88300 39.93700
H  7.73400 59.90100 39.59800
H  9.25400 60.80600 40.21000
H  8.27100 60.00300 41.30100
H  3.94100 58.60000 41.08900
H  3.12300 57.23600 43.60100
H  4.89700 60.23700 42.57200
H  5.59900 59.00200 43.54300
H  3.94800 59.35800 43.82200
H  1.68400 56.42500 41.06400
H  1.75100 58.11100 41.26100
H  0.69900 56.65200 43.66200
H  -0.23400 56.53700 42.21400
H  0.15400 58.11100 42.87300
H  0.87200 52.98200 43.04600
H  1.22100 51.44800 44.01600
H  0.79400 51.44200 42.23300
H  5.64800 48.67000 42.22200
H  5.35400 45.67200 39.17700
H  5.72800 46.97700 38.11800
H  4.03900 46.84200 38.72000
Mg 0.86000 41.66300 26.65100
C  3.09800 42.27100 29.33500
C  -1.21500 40.27400 28.98100
C  -1.06500 40.75600 24.09700
C  3.52000 42.38100 24.44900
N  0.83100 41.51900 28.91500
C  1.80700 41.88300 29.76400
C  1.27000 41.89200 31.16500
C  0.03200 40.96600 31.06500
C  -0.18300 40.96900 29.58700
C  0.34000 39.59200 31.67300
C  1.10900 43.39500 31.60500
C  1.48500 43.71500 33.07700
H  1.36000 42.61300 34.15700
N  -0.93700 40.66600 26.51300
C  -1.56300 40.05000 27.59500
C  -2.73100 39.30700 27.07700
C  -2.74600 39.49600 25.69000
C  -1.56400 40.30800 25.35200
C  -3.58500 38.52600 28.03300
C  -3.65400 38.87100 24.62600
O  -3.46300 38.88500 23.41000
C  -4.74800 37.98900 25.07100
N  1.09300 41.82100 24.62300
C  0.13200 41.48200 23.72500
C  0.56900 41.72000 22.22600
C  1.95900 42.26600 22.41000
C  2.20000 42.26600 23.90000
C  0.26700 40.50700 21.34300
C  2.14800 43.59300 21.70000
C  1.78300 44.99800 22.38300
N  2.87400 42.29400 26.77800
C  3.79700 42.48200 25.82800
C  5.08300 42.71500 26.42600
C  4.82700 42.63500 27.82400
C  3.47400 42.40500 27.98500
C  6.43900 42.87900 25.77600
C  5.50100 42.64600 29.10600
O  6.66100 42.69900 29.49000
C  4.32800 42.56300 30.11000
C  4.60000 41.44400 31.04300
O  4.72200 40.25000 30.77800
O  4.87600 41.89900 32.26200
C  5.29400 40.92800 33.26300
H  -1.76900 39.77300 29.77700
H  -1.74400 40.72800 23.24200
H  4.41500 42.48000 23.83200
H  2.07200 41.41600 31.72700
H  -0.78200 41.48900 31.56700
H  0.96000 39.72400 32.56000
H  0.96200 39.17400 30.88200
H  -0.60000 39.05900 31.81600
H  0.08500 43.64600 31.33000
H  1.59300 44.06600 30.89500
H  0.85600 44.53400 33.42800
H  2.54200 43.94100 33.21400
H  -3.39000 37.46600 27.86900
H  -4.63600 38.74300 27.84100
H  -3.44600 38.80400 29.07800
H  -5.60700 38.56700 25.41200
H  -4.39900 37.23200 25.77400
H  -5.12200 37.41000 24.22600
H  -0.02700 42.51500 21.77800
H  2.64000 41.59200 21.89000
H  -0.28300 40.87800 20.47800
H  -0.40100 39.78800 21.81800
H  1.11200 40.02900 20.84700
H  1.48200 43.55600 20.83800
H  3.07000 43.66200 21.12200
H  1.50300 45.67000 21.57200
H  2.58900 45.48500 22.93100
H  0.86100 44.69300 22.87800
H  6.85900 41.99200 25.30100
H  7.25800 43.38800 26.28300
H  6.24200 43.60900 24.99000
H  4.15200 43.53300 30.57700
H  4.53100 40.15900 33.38300
H  5.51300 41.37400 34.23300
H  6.26800 40.49100 33.04200

