158

Mg 53.25700 23.62700 44.90100
C  50.46000 25.72300 44.02100
C  51.25900 20.97600 43.98000
C  56.01200 21.88300 45.02200
C  55.13300 26.63000 45.49000
N  51.17200 23.36100 43.79800
C  50.19900 24.40400 43.68600
C  48.93100 23.82300 43.11200
C  49.01000 22.37800 43.63600
C  50.61100 22.18900 43.81300
C  48.24300 22.02900 44.88700
C  48.97900 23.90900 41.58800
C  47.65900 24.53200 40.93200
H  46.91200 23.53100 39.99300
N  53.63400 21.67900 44.49400
C  52.66500 20.69600 44.16400
C  53.34000 19.42000 43.95200
C  54.71000 19.68900 44.26300
C  54.85200 21.08700 44.68600
C  52.69700 18.08500 43.68900
C  55.82900 18.66800 44.20800
O  55.49400 17.48900 43.93500
C  57.16500 18.92300 44.45800
N  55.24800 24.24300 45.16800
C  56.16200 23.22800 45.32900
C  57.56400 23.83200 45.36500
C  57.30800 25.36400 45.50200
C  55.82200 25.39700 45.37000
C  58.61000 23.35600 46.40300
C  57.88200 26.28100 44.42600
C  58.58000 27.48200 44.93100
N  52.81800 25.69500 44.98400
C  53.71500 26.74100 45.36500
C  52.98900 27.95100 45.34000
C  51.66200 27.58200 44.86400
C  51.67100 26.19900 44.62600
C  53.46200 29.31600 45.70500
C  50.40400 28.17400 44.47800
O  50.00800 29.38000 44.50600
C  49.56400 26.96000 43.95800
C  49.05000 27.21500 42.58900
O  49.68600 27.21300 41.57100
O  47.83900 27.81100 42.74100
C  47.18400 28.18600 41.52500
H  50.55600 20.17600 43.73700
H  56.96700 21.35500 45.01900
H  55.77200 27.47600 45.75000
H  48.09800 24.35600 43.57200
H  48.71700 21.64800 42.88200
H  47.86600 22.84900 45.49700
H  48.82800 21.32600 45.48000
H  47.30600 21.51700 44.66900
H  49.21300 22.99700 41.03800
H  49.81300 24.56100 41.32700
H  47.96500 25.46700 40.46100
H  46.95100 24.78100 41.72300
H  53.01400 17.76100 42.69700
H  51.63200 18.31600 43.71200
H  52.86700 17.35200 44.47700
H  57.79900 18.04500 44.33100
H  57.23400 19.33700 45.46400
H  57.40000 19.69100 43.72200
H  58.00100 23.58100 44.39900
H  57.54400 25.63300 46.53100
H  59.05500 24.18700 46.95100
H  59.52100 22.90100 46.01300
H  58.25800 22.51600 47.00200
H  57.20700 26.56500 43.61900
H  58.61500 25.61600 43.96800
H  58.19300 28.37300 44.43700
H  59.63400 27.51200 44.65500
H  58.39100 27.57600 46.00100
H  53.09200 29.69900 46.65500
H  53.15500 29.98400 44.90100
H  54.54900 29.35200 45.63200
H  48.68500 26.80500 44.58400
H  46.25500 27.62100 41.45400
H  47.66900 27.85900 40.60600
H  46.94600 29.24900 41.50700
Mg 8.61300 47.78200 25.80000
C  6.39500 47.65200 28.49100
C  11.08600 48.90200 27.94900
C  10.71300 47.83700 23.23200
C  5.89600 47.36900 23.69100
N  8.63500 48.37500 27.90300
C  7.68600 48.07500 28.86200
C  8.16800 48.38600 30.25600
C  9.51200 49.16100 29.96800
C  9.77000 48.81800 28.56000
C  9.50500 50.70300 30.17100
C  8.11100 47.18700 31.26500
C  9.11000 47.18300 32.43000
H  8.69100 46.56000 33.77500
N  10.65600 48.01800 25.68000
C  11.53000 48.48800 26.64200
C  12.83100 48.41700 26.05500
C  12.77300 48.02200 24.73200
C  11.35100 47.96000 24.47100
C  14.04200 48.73300 26.89400
C  13.86600 47.79100 23.62000
O  13.68400 47.51900 22.45200
C  15.34100 47.81900 24.02300
N  8.30100 47.76700 23.75700
C  9.36100 47.75500 22.88200
C  8.89200 47.70100 21.43000
C  7.33800 47.58700 21.56400
C  7.14100 47.55100 23.10100
C  9.38900 48.87800 20.60500
C  6.66900 46.37100 20.86700
C  5.75700 46.61300 19.64600
N  6.57200 47.58400 25.95700
C  5.58700 47.38100 25.02800
C  4.28800 47.14100 25.66900
C  4.62500 47.21900 27.03500
C  6.00600 47.52100 27.16900
C  2.93300 46.97300 25.08400
C  3.94500 47.14700 28.34400
O  2.74800 46.93400 28.53000
C  5.11000 47.42500 29.35500
C  5.05100 46.36000 30.37700
O  5.62500 45.32200 30.38800
O  4.17700 46.75800 31.39000
C  4.42300 46.28300 32.75400
H  11.85100 49.15300 28.68700
H  11.39100 47.97700 22.38700
H  5.08100 47.25800 22.97300
H  7.49000 49.17600 30.57900
H  10.39400 48.75900 30.46500
H  9.20700 51.05600 29.18400
H  10.42800 51.13400 30.56100
H  8.83600 50.95400 30.99400
H  8.05300 46.24400 30.72200
H  7.17000 47.41000 31.76800
H  9.42600 48.22300 32.50900
H  9.96400 46.57700 32.12700
H  14.68700 49.39500 26.31600
H  14.64000 47.85100 27.12400
H  13.76900 49.17800 27.85100
H  15.47800 46.93500 24.64600
H  15.62100 48.72100 24.56600
H  16.08800 47.64900 23.24800
H  9.34300 46.81100 20.99200
H  6.73900 48.47600 21.36600
H  9.71800 48.40600 19.68000
H  10.10300 49.52100 21.12000
H  8.49000 49.42500 20.32000
H  6.17300 45.81100 21.66000
H  7.49800 45.71400 20.60200
H  6.05500 45.89100 18.88500
H  5.84500 47.62300 19.24600
H  4.73100 46.44200 19.97300
H  3.08000 46.53400 24.09800
H  2.54600 47.98700 24.98000
H  2.43700 46.23300 25.71200
H  4.92300 48.38500 29.83700
H  3.65900 45.59100 33.11000
H  4.57300 47.06900 33.49500
H  5.36500 45.73900 32.82700

