158

Mg 17.18400 -0.33600 28.01200
C  16.09700 1.70500 30.66400
C  19.16000 -2.05600 30.47800
C  18.73200 -1.98300 25.53300
C  15.79700 1.82600 25.70600
N  17.74200 -0.08000 30.33000
C  16.95600 0.69600 31.15800
C  17.32100 0.40600 32.67700
C  18.56100 -0.60200 32.57400
C  18.45900 -0.99000 31.08700
C  19.96000 0.01000 32.94000
C  16.15100 0.02900 33.65100
C  16.15300 0.73300 35.04900
H  17.43300 1.32000 35.71600
N  18.62300 -1.88600 28.02700
C  19.32200 -2.44900 29.11100
C  20.23700 -3.45200 28.58200
C  20.16600 -3.35100 27.11600
C  19.06900 -2.41400 26.84000
C  20.94600 -4.43500 29.60500
C  21.13900 -4.22100 26.01700
O  21.06700 -4.06900 24.80800
C  22.19700 -5.16100 26.65700
N  17.31700 -0.01900 25.91200
C  17.99500 -0.88500 25.16600
C  17.86500 -0.56100 23.68300
C  16.69300 0.57900 23.69400
C  16.61000 0.83300 25.19100
C  19.15800 -0.15900 22.98700
C  15.39100 0.37900 22.96900
C  14.30000 -0.47000 23.64600
N  16.05800 1.29800 28.09400
C  15.52500 2.07700 27.03700
C  14.62200 3.10700 27.59500
C  14.85900 3.07700 28.99800
C  15.75100 1.94700 29.26400
C  13.79200 4.05700 26.78800
C  14.50500 3.65300 30.35700
O  13.74000 4.54300 30.69300
C  15.39700 2.83300 31.41800
C  16.29500 3.77400 32.18900
O  17.27800 4.28500 31.73500
O  15.89000 3.91800 33.52200
C  16.86200 4.79700 34.25600
H  19.82800 -2.51300 31.21200
H  19.26500 -2.54600 24.76500
H  15.21900 2.34000 24.93500
H  17.69100 1.36800 33.03300
H  18.39500 -1.42700 33.26700
H  19.89700 0.97900 33.43500
H  20.58600 0.11500 32.05500
H  20.38700 -0.68400 33.66500
H  16.14000 -1.05700 33.73200
H  15.29600 0.32500 33.04200
H  15.53300 0.10600 35.69000
H  15.56800 1.63700 34.88000
H  22.00900 -4.19900 29.56800
H  20.70400 -5.45600 29.31000
H  20.68900 -4.38300 30.66300
H  22.67500 -5.69900 25.83800
H  21.71300 -5.80700 27.39000
H  22.95100 -4.54000 27.14100
H  17.50100 -1.46900 23.20100
H  17.01000 1.56500 23.35500
H  19.97000 -0.02900 23.70100
H  19.07600 0.82000 22.51400
H  19.47300 -0.83900 22.19600
H  15.59900 -0.13300 22.02900
H  15.00100 1.37700 22.76700
H  13.45700 0.10700 24.02600
H  14.71700 -1.05300 24.46600
H  13.80900 -0.97400 22.81300
H  14.07300 3.93600 25.74100
H  13.89200 5.08500 27.13500
H  12.72000 3.87500 26.72000
H  14.61000 2.50200 32.09600
H  16.43000 5.78300 34.08700
H  17.85200 4.62100 33.83500
H  16.69500 4.70000 35.32900
Mg 7.21200 55.59300 40.57100
C  6.05600 52.25500 40.27400
C  10.39000 54.46800 39.78000
C  8.28600 58.86400 40.25100
C  3.95300 56.59600 40.96200
N  8.01700 53.58800 39.83200
C  7.38000 52.34800 39.96300
C  8.43100 51.27700 39.67900
C  9.80000 52.03100 39.81600
C  9.40500 53.47400 39.77200
C  10.66100 51.64000 41.02400
C  8.32200 50.62500 38.26500
C  7.89500 51.55900 37.07200
H  6.43400 51.44000 36.52100
N  9.05500 56.53400 40.07500
C  10.25000 55.89300 39.80100
C  11.27200 56.87600 39.50600
C  10.72000 58.12900 39.69400
C  9.32800 57.87000 40.13200
C  12.70500 56.54800 39.19200
C  11.46100 59.43500 39.50000
O  12.65700 59.49800 39.36000
C  10.76800 60.72500 39.64700
N  6.17600 57.43900 40.46700
C  6.88400 58.61700 40.48100
C  5.83000 59.76800 40.53600
C  4.44700 59.06500 40.94900
C  4.87200 57.59400 40.84300
C  6.17300 60.93200 41.52000
C  3.29200 59.54600 40.03900
C  2.08300 60.15700 40.80000
N  5.41600 54.63000 40.62300
C  4.19900 55.22500 40.90700
C  3.19200 54.20800 41.12400
C  3.91400 52.99300 40.92200
C  5.22800 53.33700 40.63600
C  1.67200 54.33700 41.35200
C  3.91200 51.54000 40.92100
O  2.96000 50.86100 41.18200
C  5.30000 51.00400 40.45300
C  5.11300 50.09100 39.33000
O  4.41900 50.42400 38.38500
O  5.59500 48.79400 39.54500
C  5.33000 47.81500 38.53700
H  11.40300 54.06000 39.75400
H  8.53000 59.91800 40.10300
H  2.90400 56.82300 41.16100
H  8.40900 50.48800 40.43100
H  10.46300 51.69600 39.01800
H  11.55300 51.12000 40.67500
H  10.11500 51.02100 41.73600
H  11.03900 52.49900 41.57800
H  7.64100 49.77500 38.31500
H  9.30900 50.27200 37.96600
H  8.49900 51.29600 36.20300
H  8.05700 52.62400 37.24200
H  12.83100 55.48800 38.97000
H  13.33900 56.91900 39.99800
H  12.94600 57.08200 38.27300
H  11.50000 61.51200 39.46400
H  10.34700 60.74100 40.65200
H  10.02500 60.61700 38.85700
H  5.82100 60.01800 39.47500
H  4.27000 59.19500 42.01700
H  6.44600 61.87000 41.03500
H  7.05500 60.61200 42.07400
H  5.32300 61.13800 42.17000
H  3.10600 58.71700 39.35600
H  3.60300 60.36300 39.38700
H  1.38900 59.32300 40.69800
H  1.73500 61.08700 40.35000
H  2.18500 60.23200 41.88200
H  1.15100 53.49700 41.81100
H  1.10400 54.44200 40.42800
H  1.40000 55.22600 41.92100
H  5.60300 50.45200 41.34200
H  6.05100 46.99800 38.49900
H  5.12600 48.16000 37.52300
H  4.37400 47.41500 38.87600

