158

Mg -1.46400 17.68000 27.66100
C  -2.06600 15.36300 30.30900
C  -2.31900 20.15000 29.82500
C  -1.23300 19.75400 25.14200
C  -1.26300 14.90800 25.36900
N  -1.96300 17.75400 29.82800
C  -2.08200 16.74300 30.73900
C  -2.23900 17.24800 32.11600
C  -2.40700 18.79500 31.88500
C  -2.25200 18.95500 30.44500
C  -3.60400 19.43000 32.50100
C  -0.99900 16.71600 32.92200
C  -0.40900 17.70800 33.93800
H  -0.15600 17.02700 35.31800
N  -1.70000 19.71800 27.53000
C  -2.10100 20.60400 28.48300
C  -2.22800 21.93000 27.92300
C  -1.77800 21.87600 26.52000
C  -1.57400 20.41900 26.31800
C  -2.74100 23.09400 28.72000
C  -1.55700 22.96700 25.45400
O  -1.09000 22.69900 24.33800
C  -1.65100 24.32300 25.94000
N  -1.39800 17.34100 25.51100
C  -1.17800 18.43800 24.74800
C  -0.97000 17.95400 23.27900
C  -0.77900 16.41200 23.39900
C  -1.18200 16.17100 24.81500
C  -2.15600 18.33800 22.30200
C  0.71200 15.86900 23.23800
C  1.78800 16.50200 24.11000
N  -1.69800 15.61400 27.72100
C  -1.63400 14.66000 26.73900
C  -1.97200 13.37100 27.28300
C  -2.11200 13.59900 28.66700
C  -1.85900 14.98800 28.87400
C  -1.98300 12.01800 26.59600
C  -2.36900 13.01100 29.94800
O  -2.60600 11.89700 30.16200
C  -2.25200 14.10700 31.09200
C  -1.17000 13.73100 31.95300
O  0.00100 14.06800 31.77400
O  -1.69200 13.04800 33.06400
C  -0.67300 12.81500 34.12500
H  -2.47200 20.98900 30.50700
H  -1.17400 20.41700 24.27600
H  -1.14100 13.94800 24.86400
H  -3.14900 16.85900 32.57400
H  -1.58600 19.33400 32.35800
H  -4.34400 18.68200 32.78400
H  -4.08500 20.06200 31.75400
H  -3.34800 19.99500 33.39800
H  -0.23000 16.58700 32.16100
H  -1.27900 15.79600 33.43600
H  -1.14500 18.48100 34.15800
H  0.58400 17.99800 33.59500
H  -3.32400 23.79100 28.11800
H  -1.84900 23.59300 29.09900
H  -3.33600 22.74900 29.56600
H  -1.38700 25.04900 25.17100
H  -0.93400 24.33800 26.76100
H  -2.67500 24.55800 26.23100
H  -0.10500 18.54900 22.98600
H  -1.42300 15.92300 22.66900
H  -2.53900 19.18100 22.87700
H  -2.96100 17.65400 22.03400
H  -1.71000 18.77300 21.40800
H  0.98800 15.84400 22.18400
H  0.69300 14.79500 23.42400
H  2.54300 16.89700 23.43000
H  2.12600 15.69700 24.76200
H  1.51200 17.35600 24.72800
H  -1.00900 11.53000 26.61500
H  -2.31200 12.17700 25.56900
H  -2.63000 11.28000 27.06900
H  -3.16200 14.08400 31.69300
H  -1.08400 13.52700 34.84000
H  0.36000 13.07700 33.89500
H  -0.74400 11.82600 34.57600
Mg -10.08800 38.68100 40.88200
C  -8.53200 35.58900 40.07300
C  -7.41700 40.24300 39.09500
C  -11.94200 41.42600 40.58500
C  -12.94100 36.84300 41.80200
N  -8.14400 38.01900 39.82900
C  -7.76000 36.69200 39.64400
C  -6.39400 36.58400 38.82600
C  -6.00200 38.10100 38.64100
C  -7.29100 38.85400 39.16100
C  -4.69600 38.62400 39.42600
C  -6.45000 35.87500 37.49800
C  -7.73900 35.97600 36.55000
H  -7.48300 36.37500 35.15100
N  -9.62400 40.65100 40.25000
C  -8.52700 41.06600 39.52900
C  -8.69100 42.41900 39.22000
C  -10.07200 42.77600 39.55900
C  -10.61300 41.58000 40.12900
C  -7.58900 43.16700 38.54700
C  -10.70600 44.13500 39.26100
O  -10.05200 44.94000 38.73200
C  -12.22000 44.38300 39.53900
N  -12.28200 39.04000 41.04300
C  -12.66100 40.31100 41.04100
C  -14.18000 40.52900 41.31600
C  -14.58900 39.02600 41.81200
C  -13.17500 38.25900 41.58000
C  -14.48800 41.57200 42.44700
C  -15.73200 38.47400 40.86300
C  -16.87200 37.74800 41.54400
N  -10.59300 36.73200 41.11300
C  -11.81200 36.13100 41.48900
C  -11.62100 34.68200 41.54300
C  -10.39800 34.45400 40.90700
C  -9.77700 35.71400 40.75300
C  -12.63100 33.53300 42.00100
C  -9.51700 33.36800 40.36500
O  -9.74900 32.14800 40.32400
C  -8.30200 34.11300 39.76700
C  -7.02600 33.68800 40.45800
O  -6.82400 33.85300 41.64300
O  -6.28500 32.98000 39.63300
C  -5.05000 32.27200 40.08900
H  -6.59900 40.83400 38.68000
H  -12.48800 42.36600 40.68400
H  -13.82500 36.22000 41.95400
H  -5.68100 36.14400 39.52300
H  -5.93100 38.33300 37.57800
H  -4.42300 37.87800 40.17200
H  -4.96800 39.52000 39.98400
H  -3.85600 38.84700 38.76700
H  -6.43200 34.80000 37.67500
H  -5.47900 36.10500 37.05700
H  -8.34000 36.77500 36.98300
H  -8.27000 35.02400 36.52500
H  -7.58700 44.23800 38.74900
H  -7.46300 42.92500 37.49200
H  -6.61900 42.93900 38.98900
H  -12.48500 44.60400 40.57300
H  -12.80100 43.55500 39.13300
H  -12.53600 45.24500 38.95000
H  -14.71400 40.73200 40.38800
H  -14.88300 38.92400 42.85700
H  -14.63200 42.51100 41.91300
H  -13.53800 41.79300 42.93300
H  -15.21000 41.39000 43.24300
H  -15.35300 37.71500 40.17800
H  -16.25600 39.24500 40.29800
H  -17.55700 37.50200 40.73200
H  -17.30500 38.34200 42.35000
H  -16.52100 36.80100 41.95400
H  -12.79000 33.57400 43.07800
H  -12.34900 32.50600 41.76600
H  -13.65800 33.66600 41.66200
H  -8.20000 33.93100 38.69800
H  -5.10200 31.67700 41.00000
H  -4.26300 32.99000 40.32100
H  -4.71000 31.64100 39.26800

