158

Mg 5.36400 55.25800 40.52700
C  4.35900 51.85300 40.50500
C  8.31100 54.07200 39.00200
C  6.34100 58.36300 40.08400
C  2.44800 56.10500 41.94200
N  6.06300 53.18600 39.58600
C  5.53400 51.97500 39.73700
C  6.28900 50.90500 38.82900
C  7.69000 51.56100 38.76400
C  7.38100 53.01200 39.14300
C  8.81700 50.82900 39.59200
C  5.68900 50.71700 37.35600
C  5.23800 49.36300 36.79900
H  5.81500 48.79900 35.55600
N  7.14000 56.10700 39.63800
C  8.17100 55.47500 39.10100
C  9.19700 56.44800 38.73000
C  8.71500 57.73900 39.08000
C  7.31800 57.45000 39.62400
C  10.60500 56.11900 38.09100
C  9.41600 59.05500 38.90900
O  10.59500 59.14800 38.48600
C  8.83600 60.30600 39.16500
N  4.53700 57.00000 40.89800
C  5.13100 58.19600 40.73000
C  4.12500 59.29700 41.20900
C  2.91400 58.59500 41.69600
C  3.30100 57.11300 41.59600
C  4.80100 60.14300 42.42900
C  1.65800 58.95400 40.94100
C  1.36000 60.37600 40.32100
N  3.69500 54.20400 41.13800
C  2.59600 54.73000 41.74100
C  1.77100 53.63500 42.15400
C  2.45700 52.46000 41.75800
C  3.64000 52.88400 41.13200
C  0.45300 53.58400 42.77200
C  2.43100 50.98500 41.69900
O  1.65800 50.20700 42.23500
C  3.69500 50.50600 40.91900
C  3.48300 49.44900 39.93100
O  2.88400 49.50700 38.90600
O  3.98000 48.20800 40.37400
C  3.70300 47.09100 39.51800
H  9.27800 53.68100 38.68000
H  6.55400 59.42200 39.92300
H  1.45900 56.44800 42.25500
H  6.38200 49.91800 39.28300
H  8.03800 51.58000 37.73100
H  9.34600 51.61800 40.12600
H  9.52300 50.44100 38.85700
H  8.44900 50.00900 40.20800
H  6.28900 51.10500 36.53200
H  4.80400 51.34700 37.44700
H  4.17200 49.36200 36.57200
H  5.52800 48.64800 37.56800
H  11.29000 56.67200 38.73300
H  10.71900 56.44400 37.05700
H  10.89200 55.07200 38.19100
H  8.00200 60.46100 38.48100
H  9.52400 61.14100 39.03600
H  8.50700 60.49900 40.18600
H  3.91800 59.97800 40.38400
H  2.68400 58.67100 42.75900
H  4.81600 61.19800 42.15700
H  5.81000 59.78100 42.63000
H  4.23500 60.11900 43.36000
H  0.93600 58.92200 41.75700
H  1.51200 58.16300 40.20500
H  1.36500 60.31500 39.23200
H  2.07900 61.03400 40.80800
H  0.32500 60.55700 40.61300
H  -0.21400 53.49400 41.91500
H  0.21900 54.43300 43.41500
H  0.38500 52.69400 43.39800
H  4.39900 50.12300 41.65800
H  2.80900 46.53000 39.78900
H  4.53600 46.40300 39.66600
H  3.71800 47.24600 38.43900
Mg -11.84200 16.70200 42.91500
C  -8.45300 15.62800 42.41700
C  -10.85000 19.75800 41.58000
C  -15.12700 17.34700 42.40100
C  -12.57400 13.56400 44.04100
N  -9.85600 17.47600 41.92200
C  -8.64900 16.90200 41.99000
C  -7.60400 17.81600 41.38200
C  -8.27900 19.29300 41.48500
C  -9.74500 18.88900 41.63800
C  -7.72300 20.28400 42.55200
C  -6.97600 17.28100 40.06900
C  -5.46400 17.19500 40.00000
H  -4.75300 16.27100 38.93600
N  -12.86100 18.29100 42.13200
C  -12.24400 19.44900 41.64700
C  -13.30900 20.32800 41.14700
C  -14.57500 19.65500 41.28000
C  -14.24300 18.38100 41.96600
C  -13.08600 21.65200 40.34900
C  -15.95300 20.20700 40.77800
O  -15.99200 21.29100 40.18000
C  -17.23100 19.47200 40.84900
N  -13.72000 15.61500 43.17000
C  -14.95200 16.10800 42.97100
C  -15.98900 15.21200 43.42000
C  -15.16800 14.09800 44.08500
C  -13.70700 14.39700 43.73500
C  -17.12100 15.73400 44.29800
C  -15.67400 12.63000 43.75900
C  -15.59400 11.52900 44.85900
N  -10.77100 14.88300 43.19400
C  -11.19700 13.73200 43.81400
C  -10.03100 12.82000 43.95100
C  -8.96300 13.52500 43.42400
C  -9.46400 14.77900 42.93500
C  -10.01800 11.38600 44.57300
C  -7.55500 13.51900 43.27800
O  -6.82000 12.62000 43.64600
C  -7.08800 14.89400 42.63100
C  -6.28000 15.67700 43.60400
O  -6.73300 16.45800 44.45400
O  -4.98500 15.41100 43.44700
C  -4.04300 16.35800 44.17300
H  -10.60700 20.79500 41.33800
H  -16.17000 17.57300 42.16800
H  -12.87900 12.64600 44.54600
H  -6.76900 17.87000 42.08000
H  -8.22500 19.74400 40.49400
H  -7.42000 21.19500 42.03600
H  -6.88600 19.96000 43.17100
H  -8.57000 20.55000 43.18300
H  -7.45100 17.90800 39.31400
H  -7.39800 16.30500 39.82900
H  -5.03400 16.90900 40.96000
H  -5.13000 18.21500 39.81000
H  -13.67900 21.76300 39.44100
H  -12.04900 21.71700 40.02100
H  -13.31400 22.46400 41.04000
H  -17.61700 19.54600 41.86600
H  -17.12100 18.42100 40.58400
H  -17.97500 20.00800 40.26000
H  -16.38100 14.90100 42.45200
H  -15.33900 14.25800 45.15000
H  -17.97100 16.16900 43.77100
H  -16.67900 16.47900 44.95900
H  -17.46800 14.87400 44.87000
H  -15.11800 12.28900 42.88600
H  -16.74400 12.62100 43.54800
H  -15.15300 11.92400 45.77400
H  -15.07000 10.69000 44.40200
H  -16.60900 11.16400 45.01600
H  -9.13100 11.08300 45.12800
H  -10.12000 10.60300 43.82200
H  -10.93700 11.30000 45.15300
H  -6.47600 14.80400 41.73400
H  -4.03600 16.03100 45.21300
H  -4.33100 17.40900 44.17300
H  -3.01200 16.22800 43.84300

