158

Mg 46.81200 17.42300 28.44500
C  44.89300 17.06700 31.40600
C  49.00500 19.31300 30.32300
C  48.40300 17.92100 25.59300
C  44.07900 15.78400 26.81900
N  46.84400 18.22600 30.51800
C  46.08400 17.76800 31.58900
C  46.57600 18.18300 32.94500
C  47.71600 19.19600 32.55600
C  47.94200 18.84000 31.04100
C  47.30900 20.78100 32.60200
C  47.06500 16.95500 33.85700
C  46.66900 17.09400 35.34200
H  46.39200 18.46700 35.84100
N  48.51900 18.43300 28.03200
C  49.30300 19.16300 28.92100
C  50.30100 19.91800 28.19100
C  50.05600 19.55000 26.83000
C  48.99400 18.53200 26.76300
C  51.34500 20.71000 28.90500
C  50.79200 20.07900 25.70000
O  50.72400 19.58900 24.56900
C  51.56700 21.44100 25.77300
N  46.37400 16.85100 26.51800
C  47.20200 17.16300 25.50000
C  46.57200 16.65100 24.21700
C  45.31300 15.83600 24.62400
C  45.28800 16.12300 26.10900
C  46.35800 17.74600 23.10600
C  45.39600 14.34700 24.28600
C  44.78100 13.80900 22.97400
N  44.86600 16.59800 28.97000
C  43.88000 15.93000 28.21000
C  42.69200 15.53400 29.03200
C  43.08700 15.89400 30.28200
C  44.34800 16.63600 30.17900
C  41.35300 14.89300 28.63100
C  42.57500 15.92200 31.66700
O  41.56500 15.48800 32.11700
C  43.78200 16.70200 32.45800
C  43.04700 17.95200 32.95000
O  42.75800 18.94600 32.27900
O  42.76500 17.89000 34.28200
C  42.13900 19.06000 34.91600
H  49.75100 19.89900 30.86500
H  48.78400 18.13100 24.59100
H  43.17200 15.52200 26.26900
H  45.72900 18.63800 33.45800
H  48.68500 18.90300 32.96100
H  47.18100 21.09300 31.56600
H  48.16500 21.27600 33.06200
H  46.39200 20.80600 33.19000
H  48.15200 16.87700 33.86100
H  46.61600 16.00700 33.56100
H  47.27500 16.45600 35.98500
H  45.69300 16.63300 35.49500
H  52.29700 20.50200 28.41800
H  51.41500 20.27200 29.90100
H  51.06600 21.76400 28.90800
H  51.15900 22.09300 26.54600
H  51.64100 21.89000 24.78300
H  52.57700 21.27300 26.14800
H  47.33600 15.98700 23.81200
H  44.38600 16.24000 24.21800
H  46.80300 18.67700 23.45500
H  45.29000 17.89700 22.94800
H  46.87600 17.43600 22.19900
H  44.96400 13.76000 25.09600
H  46.36500 13.85300 24.21900
H  45.56000 13.67400 22.22300
H  44.08900 14.48100 22.46600
H  44.25900 12.89500 23.25700
H  41.14900 15.19700 27.60500
H  40.52900 15.13900 29.30100
H  41.34400 13.81400 28.47300
H  44.11900 16.23900 33.38500
H  41.29200 19.50600 34.39400
H  42.89900 19.80900 35.13900
H  41.67800 18.59600 35.78800
Mg 1.05900 41.39600 25.17600
C  2.93200 41.90000 28.10300
C  -1.60500 40.46200 27.23700
C  -0.64300 40.57800 22.42800
C  4.09600 41.67300 23.28900
N  0.63500 41.32900 27.49200
C  1.61100 41.51400 28.39600
C  1.04600 41.30800 29.80700
C  -0.42200 40.77200 29.54900
C  -0.51100 40.86700 28.04200
C  -0.64200 39.22100 29.92200
C  1.04200 42.62900 30.65400
C  0.28200 42.71100 31.93100
H  0.07400 41.45400 32.76000
N  -0.82700 40.87600 24.87300
C  -1.77200 40.48200 25.86300
C  -3.02200 40.12300 25.15300
C  -2.75000 40.23700 23.76000
C  -1.34300 40.60400 23.58600
C  -4.34500 39.87600 25.91100
C  -3.79500 40.15400 22.60900
O  -3.43900 40.17400 21.42200
C  -5.25100 39.99400 22.80300
N  1.63200 41.06200 23.14600
C  0.74400 40.82500 22.16600
C  1.35500 40.87500 20.73500
C  2.82700 41.32800 21.03300
C  2.87500 41.44200 22.59400
C  1.33000 39.50500 19.99400
C  3.12500 42.69100 20.28800
C  3.06500 43.98500 21.18100
N  3.05200 41.79400 25.52900
C  4.17800 41.91800 24.66600
C  5.29100 42.20600 25.45900
C  4.91900 42.26000 26.78200
C  3.52100 41.96000 26.73600
C  6.63400 42.43900 24.93800
C  5.32200 42.43800 28.16200
O  6.43000 42.66300 28.59700
C  4.02700 42.19000 29.04200
C  4.29600 41.10500 30.03500
O  4.37600 39.88200 29.77500
O  4.75600 41.70600 31.16700
C  5.33800 40.66200 32.09800
H  -2.43400 40.04500 27.81400
H  -1.26200 40.50700 21.53100
H  5.04700 41.74900 22.75700
H  1.68100 40.61700 30.36100
H  -1.19100 41.36900 30.03900
H  0.24400 38.70600 30.29400
H  -1.04600 38.69100 29.06000
H  -1.39200 39.28800 30.71000
H  0.68600 43.41200 29.98500
H  2.06700 42.91600 30.89000
H  -0.65600 43.26200 31.86700
H  0.85700 43.26600 32.67200
H  -4.34900 39.94900 26.99900
H  -4.73600 38.90900 25.59500
H  -5.05500 40.62000 25.54900
H  -5.70600 40.85700 23.29100
H  -5.43900 39.06000 23.33300
H  -5.61100 39.98200 21.77500
H  0.83900 41.54900 20.05100
H  3.50200 40.54000 20.70000
H  2.27300 38.96900 20.10800
H  1.11900 39.68900 18.94100
H  0.55900 38.84800 20.39800
H  2.30300 42.98600 19.63600
H  4.02600 42.66200 19.67400
H  4.05000 44.15900 21.61300
H  2.35500 43.89300 22.00300
H  2.73300 44.80000 20.53800
H  6.52000 43.17600 24.14400
H  7.00200 41.52600 24.47100
H  7.25700 42.77500 25.76700
H  3.87600 43.11000 29.60700
H  5.95800 40.98300 32.93500
H  5.88400 39.92000 31.51500
H  4.43000 40.27800 32.56300

