158

Mg 47.02200 34.32100 28.02000
C  45.26600 32.50400 30.29600
C  47.30400 36.85400 30.19000
C  48.11700 36.31300 25.45200
C  46.06300 31.98500 25.58200
N  46.46100 34.57300 30.02500
C  45.84200 33.64100 30.82200
C  45.97200 34.03300 32.28900
C  46.27700 35.57100 32.20800
C  46.64400 35.72200 30.78200
C  45.10100 36.49600 32.69900
C  47.16000 33.32100 32.99700
C  46.93000 33.05200 34.47500
H  46.15800 34.05400 35.20500
N  47.89900 36.23200 27.94100
C  47.98000 37.12000 28.95900
C  48.72500 38.23300 28.62000
C  48.91000 38.20200 27.23500
C  48.34000 36.90400 26.80000
C  49.09200 39.24600 29.68000
C  49.55500 39.21900 26.31500
O  49.71600 38.95100 25.11600
C  50.05700 40.50800 26.83300
N  47.20300 34.05400 25.81500
C  47.55900 35.07700 25.03600
C  47.36500 34.74400 23.50800
C  46.97400 33.25400 23.54900
C  46.78800 33.06000 25.09100
C  46.26300 35.62600 22.73800
C  47.93400 32.22700 22.92200
C  48.94500 31.53100 23.80800
N  46.00300 32.52400 27.89800
C  45.69200 31.67800 26.85700
C  44.99200 30.55300 27.43100
C  44.74000 30.91000 28.76900
C  45.41800 32.06600 28.98000
C  44.56700 29.31800 26.61800
C  44.06300 30.42300 29.98200
O  43.51000 29.35100 30.22700
C  44.21900 31.58200 30.89800
C  44.37100 31.12100 32.33000
O  45.32900 30.59900 32.78000
O  43.23400 31.25300 33.03100
C  43.30500 30.88100 34.47900
H  47.34800 37.55100 31.02900
H  48.33400 36.96200 24.60000
H  45.68100 31.22600 24.89600
H  45.01500 33.84300 32.77400
H  47.13000 35.86500 32.82000
H  45.04500 36.67100 33.77300
H  44.12200 36.08000 32.46000
H  45.27600 37.41500 32.13900
H  48.07900 33.88800 32.85100
H  47.37200 32.36100 32.52500
H  47.89800 32.91900 34.95900
H  46.36100 32.12900 34.58700
H  50.13600 39.52000 29.52300
H  49.00600 38.86900 30.69900
H  48.45100 40.12100 29.57600
H  49.29000 41.20400 27.17200
H  50.45500 41.11000 26.01700
H  50.86400 40.44900 27.56400
H  48.36100 34.89200 23.09100
H  45.98500 33.06300 23.13300
H  45.66300 35.02900 22.05000
H  46.81600 36.43300 22.25700
H  45.55900 35.94900 23.50600
H  48.48500 32.82200 22.19300
H  47.38400 31.46500 22.36900
H  49.94700 31.68200 23.40600
H  48.71700 30.46900 23.72200
H  48.89700 31.71200 24.88200
H  45.18600 29.14400 25.73700
H  43.50900 29.30000 26.35600
H  44.68700 28.37400 27.15000
H  43.29000 32.15100 30.88400
H  43.56200 29.83200 34.62000
H  42.31800 31.09500 34.89000
H  44.03000 31.50800 34.99900
Mg 9.29600 47.86600 27.42300
C  7.52000 47.44700 30.35100
C  12.10900 48.49700 29.28800
C  10.88200 48.53600 24.55400
C  6.18300 47.92600 25.58500
N  9.69300 48.13600 29.57700
C  8.87900 47.66100 30.58500
C  9.55900 47.98700 31.93400
C  11.07600 48.09000 31.57400
C  10.94500 48.20700 30.07100
C  11.68000 49.31700 32.26300
C  9.26800 46.92400 32.99600
C  10.33000 46.49300 34.06700
H  9.83800 45.80200 35.35300
N  11.24900 48.54300 26.96600
C  12.27000 48.68800 27.88100
C  13.46500 48.97500 27.20100
C  13.22200 48.90200 25.80400
C  11.75900 48.69500 25.73800
C  14.87500 49.08600 27.85800
C  14.16200 49.01600 24.60600
O  13.80300 48.95700 23.44800
C  15.60700 49.06500 24.89000
N  8.57400 48.14600 25.33000
C  9.52300 48.38700 24.35900
C  8.79000 48.59800 22.98100
C  7.29100 48.33800 23.29600
C  7.33800 48.06800 24.80000
C  9.14700 50.11400 22.49800
C  6.72400 47.18200 22.45600
C  6.66600 47.52600 20.95600
N  7.27400 47.51200 27.83200
C  6.18300 47.62500 26.99700
C  4.97300 47.37900 27.84000
C  5.48200 47.28700 29.13100
C  6.85300 47.38500 29.06800
C  3.51700 47.46400 27.47600
C  5.10500 47.09300 30.48200
O  3.95000 46.89700 30.90700
C  6.42100 47.19800 31.37700
C  6.48700 45.87200 32.11100
O  7.02500 44.86800 31.70300
O  5.66400 46.00500 33.24400
C  5.66500 44.85900 34.19800
H  13.10100 48.54900 29.74000
H  11.48200 48.60900 23.64400
H  5.19200 48.02800 25.13600
H  9.03000 48.90600 32.18500
H  11.56900 47.13000 31.73100
H  12.75200 49.32300 32.46300
H  11.09700 49.43100 33.17700
H  11.53500 50.14100 31.56500
H  9.03700 46.04200 32.39700
H  8.33900 47.23300 33.47500
H  10.70200 47.45900 34.40900
H  11.14100 45.96300 33.56800
H  15.45900 48.24200 27.49300
H  14.93300 49.04600 28.94500
H  15.22400 50.10400 27.68200
H  15.83500 49.88400 25.57200
H  16.09000 49.19900 23.92200
H  15.86300 48.05900 25.22100
H  9.31900 47.94600 22.28600
H  6.82500 49.31500 23.16900
H  9.88800 50.13700 21.69900
H  9.50800 50.70600 23.33900
H  8.23600 50.57800 22.12000
H  5.67500 47.04300 22.71800
H  7.12100 46.21900 22.77900
H  6.84400 46.64300 20.34200
H  7.35500 48.34500 20.74800
H  5.68200 47.81700 20.58700
H  3.11400 48.46100 27.65200
H  2.93400 46.76900 28.08100
H  3.40700 47.27900 26.40800
H  6.36700 48.02500 32.08500
H  5.62300 45.14400 35.24900
H  6.44800 44.10100 34.15800
H  4.64200 44.51100 34.05100

