158

Mg 1.12900 7.38300 26.10700
C  1.68700 9.59300 28.98200
C  0.77000 4.89200 28.32900
C  0.68900 5.45800 23.46500
C  1.60400 10.17700 24.06200
N  1.31500 7.32500 28.43300
C  1.53300 8.23500 29.37200
C  1.57700 7.60900 30.76200
C  1.36000 6.13300 30.43600
C  1.18600 6.06200 28.96600
C  2.43400 5.09900 30.94800
C  0.57800 8.22100 31.80600
C  0.81700 8.00600 33.30300
H  2.08900 7.43400 33.88600
N  0.86700 5.37400 25.93300
C  0.61300 4.52300 26.89700
C  0.24900 3.22100 26.40500
C  0.35000 3.32400 24.99000
C  0.63000 4.75700 24.75500
C  0.12700 1.97700 27.25600
C  0.16800 2.29900 23.90200
O  0.42400 2.54000 22.72000
C  -0.11900 0.87200 24.31200
N  1.04600 7.81600 24.10800
C  0.84900 6.81700 23.16600
C  0.62000 7.37100 21.74300
C  1.06800 8.87800 21.91800
C  1.26000 8.98900 23.41800
C  1.40800 6.62800 20.67200
C  -0.00600 9.99900 21.51400
C  0.19900 10.74300 20.18500
N  1.54000 9.42300 26.41300
C  1.70200 10.37400 25.46500
C  1.94600 11.71400 26.16200
C  1.96100 11.39800 27.57500
C  1.67600 10.01500 27.67300
C  2.23700 13.05600 25.49700
C  2.20500 11.91000 28.90500
O  2.52200 12.97600 29.31600
C  2.04800 10.77300 29.93800
C  3.35500 10.70600 30.70000
O  4.38700 10.19400 30.33400
O  3.14200 11.07300 32.02200
C  4.40100 11.55300 32.68000
H  0.66800 4.16000 29.13300
H  0.48900 4.84400 22.58500
H  2.03700 10.93600 23.40800
H  2.56800 7.76400 31.18900
H  0.42300 5.85100 30.91500
H  3.13700 5.57100 31.63400
H  2.95500 4.61700 30.12100
H  1.95100 4.24500 31.42400
H  -0.43400 7.86600 31.61400
H  0.58500 9.30800 31.72900
H  -0.06100 7.46700 33.66000
H  0.71700 9.01700 33.69800
H  0.67600 1.11300 26.88200
H  -0.94200 1.84300 27.41700
H  0.63000 2.24600 28.18500
H  -0.31400 0.31600 23.39600
H  -1.02100 0.82500 24.92200
H  0.72300 0.41500 24.83100
H  -0.44400 7.27200 21.52700
H  2.04600 8.96700 21.44700
H  2.04900 7.31200 20.11600
H  0.81900 6.03100 19.97700
H  2.05300 5.89000 21.15000
H  -0.24000 10.69300 22.32200
H  -0.94200 9.44000 21.52300
H  -0.60600 10.54200 19.47900
H  1.04400 10.39300 19.59300
H  0.38900 11.80000 20.37400
H  3.22500 13.50000 25.62100
H  1.49900 13.70800 25.96400
H  2.07500 13.02200 24.42000
H  1.31400 11.03900 30.69800
H  4.96100 12.11600 31.93300
H  5.03200 10.79500 33.14400
H  3.95400 12.29700 33.33900
Mg -9.59100 18.00100 42.53100
C  -6.13600 17.45800 42.55700
C  -8.91300 21.44600 41.87200
C  -12.84900 18.40100 41.69900
C  -10.06200 14.46500 42.67800
N  -7.78000 19.29700 42.33000
C  -6.48500 18.84600 42.42800
C  -5.44800 20.00100 42.15500
C  -6.40400 21.31400 42.29200
C  -7.79100 20.68700 42.19600
C  -6.13900 22.24500 43.46900
C  -4.71500 19.84500 40.72200
C  -5.64900 19.18700 39.69700
H  -5.04100 19.16700 38.30600
N  -10.74100 19.74200 42.02200
C  -10.30400 20.98300 41.72100
C  -11.41900 21.79400 41.34400
C  -12.60600 20.97000 41.45600
C  -12.11600 19.64200 41.70100
C  -11.33300 23.25300 40.94800
C  -14.06200 21.43600 41.24800
O  -14.30200 22.63100 40.91900
C  -15.27000 20.60200 41.35500
N  -11.18900 16.59200 42.16500
C  -12.42600 17.09000 41.89900
C  -13.46000 15.92500 41.91300
C  -12.56000 14.67100 42.29100
C  -11.14800 15.23300 42.31700
C  -14.67100 16.22000 42.76800
C  -12.74300 13.50800 41.29500
C  -14.06700 12.68200 41.46200
N  -8.39200 16.27000 42.70600
C  -8.69200 14.91600 42.79800
C  -7.44100 14.15700 42.95200
C  -6.46400 15.07700 42.77300
C  -7.06500 16.38600 42.68200
C  -7.28200 12.72900 43.05600
C  -5.05200 15.22600 42.81800
O  -4.13600 14.47100 43.05500
C  -4.78300 16.73900 42.59700
C  -3.74300 17.19200 43.56100
O  -2.58300 17.27800 43.35600
O  -4.37300 17.54200 44.70700
C  -3.53400 18.25100 45.68900
H  -8.89300 22.52700 41.71900
H  -13.85500 18.46900 41.27800
H  -10.18500 13.39400 42.84600
H  -4.70900 20.06400 42.95300
H  -6.19200 21.84800 41.36600
H  -5.30000 21.82700 44.02600
H  -7.11000 22.42100 43.93200
H  -5.69900 23.17500 43.10900
H  -3.79200 19.28300 40.86400
H  -4.50500 20.86800 40.41200
H  -6.56500 19.72000 39.44100
H  -5.98900 18.17400 39.91400
H  -12.15800 23.42900 40.25800
H  -10.41100 23.50200 40.42200
H  -11.29900 23.92400 41.80700
H  -15.08500 19.80200 42.07200
H  -15.50500 20.08100 40.42700
H  -16.15300 21.20900 41.55400
H  -13.87200 15.83700 40.90800
H  -12.79800 14.31400 43.29400
H  -14.63600 17.24500 43.13500
H  -14.80700 15.47800 43.55500
H  -15.58100 16.06700 42.18700
H  -11.91300 12.81500 41.43000
H  -12.76400 13.89900 40.27800
H  -14.34100 13.02900 42.45800
H  -13.71300 11.65100 41.46900
H  -14.86900 12.93900 40.77000
H  -8.23600 12.28400 42.77200
H  -6.97900 12.47300 44.07200
H  -6.46200 12.50900 42.37300
H  -4.27700 16.85200 41.63800
H  -2.62800 17.69500 45.93200
H  -4.05700 18.31300 46.64300
H  -3.35300 19.30000 45.45400

