158

Mg 47.21700 24.54500 28.58600
C  47.81000 26.76400 31.33300
C  46.53400 22.11500 30.76500
C  46.68800 22.56500 25.92800
C  48.50800 27.02700 26.43600
N  47.33700 24.42500 30.82200
C  47.51800 25.43700 31.74200
C  47.29000 24.95800 33.18600
C  46.66900 23.53300 32.92700
C  46.85400 23.33100 31.42600
C  47.24100 22.39800 33.80600
C  46.40000 25.92700 34.01000
C  45.41800 25.51300 35.11900
H  45.51800 26.36500 36.46300
N  46.66500 22.60600 28.38300
C  46.36600 21.69300 29.41300
C  45.88900 20.41800 28.90600
C  46.03900 20.52700 27.46600
C  46.47400 21.98400 27.20200
C  45.39200 19.31400 29.85400
C  45.85500 19.50700 26.41700
O  45.68800 19.74500 25.21700
C  45.58000 18.09800 26.84600
N  47.65100 24.73300 26.47900
C  47.27500 23.78000 25.54100
C  47.63700 24.14500 24.14100
C  47.88600 25.64400 24.34400
C  48.13100 25.83000 25.84200
C  48.80900 23.39400 23.56400
C  46.76400 26.60600 23.90600
C  45.29700 26.23600 24.36400
N  47.95200 26.48100 28.76300
C  48.41800 27.36900 27.82100
C  48.98200 28.55700 28.47900
C  48.64900 28.39400 29.83100
C  48.07200 27.11200 29.95300
C  49.62000 29.80300 27.83300
C  48.59700 29.01400 31.05100
O  48.95600 30.13500 31.41100
C  48.08000 28.04800 32.08100
C  48.87600 27.96900 33.28500
O  49.86600 27.28500 33.50500
O  48.34700 28.90300 34.18100
C  48.90400 28.88400 35.48500
H  46.30100 21.25700 31.40000
H  46.60300 21.82900 25.12600
H  48.94600 27.79000 25.78900
H  48.21300 24.85400 33.75600
H  45.59900 23.69600 33.05200
H  46.47900 21.75700 34.25000
H  47.84300 22.87200 34.58200
H  47.80500 21.70100 33.18500
H  45.82200 26.54000 33.31800
H  47.09600 26.51800 34.60500
H  45.35300 24.44800 35.34300
H  44.45400 25.75500 34.67200
H  44.42200 18.99500 29.47200
H  45.38400 19.57500 30.91200
H  46.08700 18.47500 29.83100
H  46.23600 17.82300 27.67200
H  45.71600 17.26800 26.15300
H  44.52400 18.09900 27.11600
H  46.75500 23.92600 23.53900
H  48.69800 26.01200 23.71800
H  49.74700 23.94800 23.56400
H  48.67800 23.02300 22.54800
H  48.91500 22.49300 24.16800
H  46.70300 26.59800 22.81800
H  46.92200 27.64700 24.19100
H  44.83800 25.78300 23.48500
H  44.81600 27.17500 24.63500
H  45.33900 25.61000 25.25500
H  48.96900 30.62300 27.53000
H  50.20600 29.52300 26.95700
H  50.32500 30.26600 28.52400
H  47.10200 28.38800 32.42100
H  48.59300 28.11400 36.19100
H  48.67200 29.84000 35.95300
H  49.99300 28.83900 35.49800
Mg 16.32000 51.51900 25.62900
C  18.09200 50.12900 28.44200
C  13.92800 52.43500 27.91400
C  14.28100 51.87200 23.06600
C  18.83800 50.35600 23.55100
N  16.16900 51.33200 27.98000
C  17.03300 50.85700 28.90900
C  16.58800 51.16000 30.31800
C  15.12300 51.65600 30.11300
C  15.07800 51.86900 28.59100
C  13.96300 50.73300 30.54600
C  17.55600 52.10100 31.05800
C  18.16800 51.61900 32.41500
H  17.30100 50.81500 33.37900
N  14.42600 52.12200 25.45500
C  13.58000 52.59800 26.51200
C  12.32600 52.99700 25.97600
C  12.34300 52.63700 24.57900
C  13.71600 52.21600 24.30100
C  11.20800 53.58900 26.87600
C  11.19600 52.75900 23.58400
O  11.31100 52.41000 22.42100
C  9.90100 53.44000 23.97000
N  16.64000 51.21900 23.58800
C  15.61600 51.47000 22.71300
C  16.12200 51.28900 21.25300
C  17.65300 51.11500 21.43800
C  17.72200 50.86300 22.97900
C  15.45000 50.15400 20.42400
C  18.61200 52.21100 21.03600
C  18.34900 53.67400 21.59800
N  18.14000 50.46700 25.94800
C  19.04300 50.07000 24.94200
C  20.16900 49.41500 25.58400
C  19.78900 49.43100 26.98400
C  18.54400 50.04500 27.08700
C  21.44800 48.96200 25.02200
C  20.29700 49.02900 28.29600
O  21.37700 48.56800 28.66600
C  19.16300 49.49500 29.29100
C  18.67200 48.28400 30.16800
O  17.62700 47.68200 30.03300
O  19.51100 48.11000 31.27500
C  19.09100 47.00800 32.19500
H  13.21500 52.62500 28.71800
H  13.70200 52.20400 22.20100
H  19.69900 49.93500 23.02700
H  16.47600 50.31200 30.99200
H  15.03800 52.56900 30.70100
H  14.31500 49.85300 31.08400
H  13.23000 50.32400 29.85100
H  13.36000 51.21000 31.31800
H  17.10700 53.08200 31.21200
H  18.42300 52.27500 30.42100
H  18.40300 52.43700 33.09700
H  18.99800 50.97200 32.13300
H  10.47800 52.78800 26.99400
H  10.76200 54.42900 26.34300
H  11.74600 54.02100 27.71900
H  9.09000 53.14100 23.30600
H  10.19700 54.48900 23.93700
H  9.71300 53.00800 24.95300
H  16.00400 52.20400 20.67400
H  18.00500 50.22300 20.92000
H  14.37800 49.96400 20.47600
H  15.83400 49.16300 20.66800
H  15.66000 50.27300 19.36100
H  18.55600 52.32600 19.95400
H  19.65000 51.90700 21.17700
H  18.36100 54.44900 20.83200
H  19.14300 53.91700 22.30400
H  17.34300 53.66500 22.01800
H  21.85700 49.60700 24.24300
H  21.29800 47.97200 24.59200
H  22.24600 48.88300 25.76100
H  19.67700 50.27100 29.85900
H  18.50100 46.19800 31.76600
H  18.43500 47.30700 33.01200
H  20.00100 46.53400 32.56400

