158

Mg 7.99800 1.28300 28.83300
C  9.73200 0.12200 31.68100
C  6.07200 3.19600 30.82300
C  6.25600 2.21700 26.03500
C  9.63300 -1.21000 26.93000
N  8.00400 1.63900 31.07000
C  8.86800 1.17600 32.02800
C  8.65400 1.91500 33.41000
C  7.35400 2.76000 33.09700
C  7.14600 2.57900 31.52700
C  6.08600 2.21800 33.79900
C  9.98700 2.65400 33.88200
C  10.58800 2.32500 35.27400
H  9.64200 2.32300 36.50300
N  6.45000 2.49600 28.50800
C  5.80700 3.23300 29.44600
C  4.69800 3.90400 28.88100
C  4.85200 3.77700 27.43200
C  5.91200 2.78200 27.24200
C  3.64300 4.70400 29.71400
C  3.99600 4.37000 26.28100
O  3.99600 3.96300 25.15700
C  3.05000 5.46000 26.60900
N  8.07200 0.67800 26.82600
C  7.26900 1.27100 25.84700
C  7.47000 0.66600 24.45400
C  8.65500 -0.37100 24.74300
C  8.74400 -0.39500 26.26100
C  6.16700 -0.07200 23.88200
C  10.00600 0.01300 24.14500
C  10.78500 1.30000 24.42400
N  9.38800 -0.21700 29.20500
C  9.96800 -1.13200 28.32000
C  10.98900 -1.86800 28.99800
C  10.90200 -1.46000 30.32600
C  9.87400 -0.48200 30.37300
C  11.66900 -3.05100 28.57300
C  11.46500 -1.62500 31.63900
O  12.34000 -2.40000 32.01400
C  10.72500 -0.57600 32.57100
C  9.99200 -1.26200 33.79200
O  8.82700 -1.70400 33.71900
O  10.76000 -1.31400 34.96000
C  10.05100 -1.78600 36.09300
H  5.54900 4.00900 31.33100
H  5.69200 2.51600 25.14900
H  10.21000 -1.93900 26.35800
H  8.40500 1.14000 34.13600
H  7.48800 3.82100 33.31000
H  6.01000 2.80300 34.71600
H  6.20300 1.14700 33.96000
H  5.18100 2.38300 33.21500
H  9.75500 3.69500 34.10700
H  10.77900 2.65400 33.13300
H  11.25300 3.17200 35.44400
H  11.21600 1.43500 35.25800
H  4.07500 5.62900 30.09600
H  3.41400 4.23200 30.66900
H  2.67100 4.87500 29.25100
H  2.64000 6.01100 25.76300
H  3.77000 6.12000 27.09400
H  2.17000 5.16100 27.17800
H  7.72000 1.37500 23.66600
H  8.39600 -1.39500 24.47300
H  5.38500 0.15800 24.60600
H  6.37100 -1.14300 23.84800
H  5.80900 0.34200 22.93900
H  9.88700 0.00500 23.06200
H  10.63500 -0.86300 24.30000
H  10.44700 1.87400 25.28600
H  10.90100 1.84700 23.48800
H  11.75700 0.96500 24.78800
H  11.28600 -3.35700 27.59900
H  11.67500 -3.90500 29.25000
H  12.71800 -2.75600 28.56900
H  11.35400 0.18400 33.03500
H  8.97600 -1.60700 36.09900
H  10.54600 -1.30600 36.93800
H  10.05100 -2.87600 36.12500
Mg 47.33500 25.57500 27.42300
C  48.39900 27.58200 29.79600
C  45.99300 23.40700 29.75400
C  46.46600 23.34600 24.91800
C  49.05400 27.42100 25.03100
N  47.10200 25.58200 29.51200
C  47.52300 26.61900 30.28300
C  47.33900 26.31200 31.79400
C  46.66900 24.88400 31.80500
C  46.55200 24.57900 30.25300
C  47.49800 23.86700 32.61000
C  46.48000 27.42400 32.50400
C  46.99400 27.90700 33.94000
H  46.00100 28.15700 35.00300
N  46.39500 23.57000 27.38400
C  45.88700 22.93400 28.42000
C  45.28100 21.66500 28.01200
C  45.37300 21.66300 26.57200
C  46.09400 22.91000 26.22300
C  44.57400 20.74400 29.02900
C  44.97200 20.62700 25.62300
O  45.13500 20.64800 24.38800
C  44.31300 19.36100 26.16500
N  47.53000 25.48700 25.30800
C  47.22700 24.49000 24.48200
C  47.52600 24.75500 23.02400
C  48.13700 26.12300 23.06500
C  48.35700 26.34700 24.59300
C  48.33300 23.66700 22.26700
C  47.27300 27.18900 22.48800
C  47.86300 27.60100 21.10000
N  48.42200 27.27600 27.42300
C  49.10600 27.92900 26.37500
C  49.78700 29.13000 26.89900
C  49.55900 28.99200 28.30600
C  48.73400 27.82900 28.49700
C  50.45900 30.20900 26.14900
C  49.82800 29.58000 29.60900
O  50.55600 30.51500 29.94900
C  48.99500 28.77100 30.62200
C  49.88800 28.28900 31.70600
O  50.58300 27.26200 31.66100
O  49.84000 29.09000 32.80900
C  50.66900 28.63500 33.94800
H  45.66400 22.78200 30.58700
H  46.29100 22.81800 23.97800
H  49.50000 28.04600 24.25500
H  48.31800 26.16500 32.25200
H  45.72800 24.92300 32.35400
H  46.90200 23.46100 33.42700
H  48.26400 24.36700 33.20300
H  47.80700 23.12800 31.87100
H  45.45400 27.09800 32.67900
H  46.43400 28.29200 31.84700
H  47.70900 28.72400 33.84300
H  47.57700 27.04100 34.25600
H  45.02900 19.75400 29.00600
H  43.53800 20.61800 28.71500
H  44.54800 21.17300 30.03100
H  43.85900 18.72700 25.40300
H  43.42300 19.49800 26.78000
H  45.03400 18.74400 26.70000
H  46.50200 24.82700 22.66000
H  49.17700 26.09800 22.74000
H  47.64600 23.19100 21.56700
H  48.82200 23.08100 23.04500
H  49.18500 24.06300 21.71300
H  47.32600 28.07000 23.12700
H  46.21900 26.95800 22.33300
H  47.37900 27.02200 20.31300
H  48.95200 27.63800 21.07600
H  47.51300 28.62800 20.99500
H  50.60900 31.14000 26.69600
H  49.88200 30.35800 25.23600
H  51.44500 29.88600 25.81500
H  48.24000 29.53700 30.79800
H  50.89000 29.47500 34.60700
H  51.64400 28.30700 33.58600
H  50.23100 27.84400 34.55700

