158

Mg 25.97100 0.41300 29.80000
C  27.70300 0.18800 32.74900
C  23.04500 0.68700 31.43400
C  24.48900 0.48800 26.78800
C  29.08100 -0.30000 28.04500
N  25.49300 0.43500 31.83000
C  26.29500 0.39800 32.87200
C  25.51600 0.71000 34.22800
C  24.06300 0.54600 33.76400
C  24.17900 0.54300 32.25200
C  23.42100 -0.83500 34.22100
C  25.98500 2.12200 34.73500
C  26.68900 2.15700 36.05300
H  26.22000 3.28500 37.09200
N  24.07400 0.44200 29.18800
C  22.92600 0.57600 29.98700
C  21.70900 0.58700 29.22600
C  22.19200 0.41000 27.85500
C  23.66500 0.50500 27.87100
C  20.32800 0.65000 29.87400
C  21.30800 0.31800 26.55900
O  21.76700 0.21800 25.42100
C  19.79000 0.37400 26.77700
N  26.75900 0.17000 27.67200
C  25.82400 0.18800 26.65000
C  26.58300 0.19900 25.34000
C  28.08100 -0.06000 25.70500
C  28.04700 -0.01100 27.22300
C  26.04700 -0.99100 24.52800
C  29.16200 0.88300 25.21100
C  28.90600 1.57100 23.90800
N  27.93900 -0.01100 30.28000
C  29.05200 -0.34400 29.50200
C  30.24500 -0.40300 30.37100
C  29.76600 -0.10400 31.66500
C  28.36900 0.04100 31.55900
C  31.57800 -0.70000 29.86300
C  30.15300 0.11500 33.04400
O  31.27200 0.21800 33.53300
C  28.85800 0.29200 33.80400
C  28.91900 -0.67900 34.90200
O  28.57100 -1.82400 34.74000
O  29.29400 -0.16800 36.11800
C  29.18200 -0.91400 37.37400
H  22.15500 0.76300 32.06100
H  24.12000 0.64400 25.77200
H  30.01400 -0.52200 27.52300
H  25.80900 -0.04300 34.96000
H  23.45300 1.33600 34.20200
H  22.94300 -0.63000 35.17900
H  24.24000 -1.51900 34.44500
H  22.73600 -1.40100 33.59000
H  25.06700 2.69700 34.85600
H  26.64200 2.52400 33.96400
H  27.77200 2.23600 35.95100
H  26.47700 1.21300 36.55600
H  20.28500 0.10500 30.81700
H  19.55400 0.09300 29.34700
H  19.97800 1.67300 30.00700
H  19.40900 -0.41000 27.43100
H  19.33300 0.28400 25.79100
H  19.50800 1.35500 27.15800
H  26.26900 1.06200 24.75300
H  28.38900 -1.09500 25.55700
H  25.32800 -1.56100 25.11600
H  26.85600 -1.62400 24.16200
H  25.44700 -0.64800 23.68500
H  30.10900 0.34500 25.17000
H  29.33300 1.61300 26.00300
H  29.69800 1.18300 23.26600
H  29.10900 2.63800 24.00300
H  27.95000 1.47300 23.39400
H  31.67600 -1.63600 29.31300
H  32.23200 -0.83300 30.72500
H  31.76200 0.08300 29.12800
H  28.83800 1.28600 34.25200
H  28.83600 -1.92800 37.17600
H  28.58400 -0.31900 38.06400
H  30.11800 -1.07300 37.91100
Mg 43.07300 41.63900 25.95400
C  42.45300 44.02000 28.58200
C  43.86700 39.41200 28.27400
C  44.19800 39.75000 23.44800
C  42.55900 44.27200 23.68800
N  43.24400 41.74900 28.19400
C  42.80500 42.75700 29.07000
C  43.13600 42.36700 30.52000
C  43.59300 40.85700 30.43000
C  43.53200 40.60700 28.86800
C  44.94800 40.50900 31.06200
C  41.90000 42.44800 31.41800
C  42.09300 41.87500 32.85900
H  41.92700 42.83000 34.06000
N  43.96400 39.72700 25.87000
C  44.12700 38.95100 26.92100
C  44.66800 37.68400 26.47800
C  44.81300 37.77200 25.04300
C  44.36200 39.11500 24.72100
C  45.00000 36.56200 27.51200
C  45.04100 36.74800 24.02800
O  45.08600 36.96600 22.84900
C  45.36800 35.33900 24.57300
N  43.58200 42.04500 23.89500
C  43.97100 41.03600 23.04100
C  43.94300 41.49500 21.52500
C  43.20500 42.91800 21.66400
C  43.11000 43.12200 23.18200
C  45.29500 41.65300 20.83600
C  41.82700 42.87300 21.00300
C  40.79600 41.90700 21.58600
N  42.52000 43.66800 26.03400
C  42.36600 44.55500 25.03500
C  41.97600 45.85500 25.56700
C  41.92300 45.61800 26.95800
C  42.36000 44.32600 27.17300
C  41.63300 47.15000 24.86100
C  41.68000 46.26200 28.28600
O  41.29900 47.37500 28.61000
C  41.91700 45.22300 29.35800
C  42.80700 45.76900 30.36300
O  44.03500 45.76700 30.30600
O  42.09900 46.37900 31.39000
C  42.88600 46.73100 32.53100
H  44.03300 38.58900 28.97200
H  44.43900 39.15100 22.56600
H  42.35700 45.02600 22.92400
H  43.97600 42.99500 30.81800
H  42.93900 40.13700 30.92300
H  44.85700 39.63400 31.70400
H  45.39000 41.36500 31.57200
H  45.71100 40.18800 30.35300
H  41.11300 41.78900 31.05300
H  41.40700 43.42000 31.44000
H  43.04200 41.33900 32.85900
H  41.41900 41.03800 33.04100
H  44.51200 35.64000 27.19800
H  44.71300 36.73000 28.55000
H  46.07100 36.36600 27.46500
H  46.04800 35.31700 25.42500
H  45.80800 34.85500 23.70200
H  44.41700 34.88900 24.85900
H  43.39000 40.63900 21.13900
H  43.78200 43.79600 21.37400
H  45.33700 40.86100 20.08800
H  46.17100 41.62500 21.48300
H  45.32000 42.59100 20.28200
H  42.07200 42.59200 19.97900
H  41.48800 43.90800 21.02500
H  40.16000 42.48000 22.26100
H  41.24200 41.03900 22.07100
H  40.12600 41.49500 20.83100
H  42.40600 47.13500 24.09300
H  41.85800 47.93700 25.58100
H  40.69100 47.17400 24.31300
H  40.93400 45.07600 29.80600
H  43.39500 47.65300 32.25300
H  43.55100 45.94300 32.88500
H  42.08600 46.99800 33.22100

