158

Mg -10.49200 40.05500 39.79700
C  -9.19100 36.88200 39.19600
C  -7.36800 41.34400 39.17100
C  -11.85400 43.10500 39.73200
C  -13.75500 38.62200 39.85900
N  -8.59900 39.21200 39.13500
C  -8.26500 37.88400 38.97700
C  -6.77500 37.70700 38.43800
C  -6.21900 39.13700 38.74300
C  -7.47300 39.96200 39.08600
C  -5.01500 39.12400 39.78800
C  -6.63800 37.18200 36.99800
C  -7.40300 37.90400 35.88900
H  -8.67500 37.30900 35.30600
N  -9.71200 41.96200 39.58400
C  -8.39400 42.25400 39.38200
C  -8.25600 43.67600 39.32700
C  -9.48200 44.27700 39.51200
C  -10.43000 43.12600 39.68400
C  -6.88800 44.31400 39.05200
C  -9.82100 45.80400 39.58500
O  -8.91900 46.64700 39.46400
C  -11.18100 46.25700 40.04600
N  -12.50700 40.75500 39.66100
C  -12.82500 42.07200 39.80400
C  -14.29000 42.33100 40.00900
C  -14.87300 40.89800 40.16100
C  -13.64900 40.01700 39.85200
C  -14.74200 43.36900 41.09400
C  -16.11500 40.48500 39.27800
C  -17.38600 41.32600 39.56200
N  -11.33600 38.24200 39.66700
C  -12.69600 37.78300 39.79200
C  -12.72600 36.34900 39.68600
C  -11.37400 35.99000 39.45700
C  -10.59300 37.17200 39.46500
C  -13.93900 35.45300 39.64800
C  -10.63200 34.77700 39.11100
O  -10.93800 33.62100 38.89500
C  -9.17500 35.30300 39.02200
C  -8.41200 34.63100 40.12000
O  -8.75800 34.52200 41.24600
O  -7.19400 34.18200 39.70400
C  -6.41600 33.31000 40.58600
H  -6.34200 41.70900 39.10200
H  -12.34600 44.07800 39.79000
H  -14.75800 38.21300 39.99900
H  -6.30800 36.96300 39.08300
H  -5.78600 39.68400 37.90600
H  -4.95200 38.22600 40.40300
H  -5.22100 39.86500 40.56000
H  -4.03100 39.33000 39.36500
H  -6.91400 36.12700 36.97900
H  -5.59500 37.19200 36.68300
H  -6.68700 37.98900 35.07200
H  -7.66400 38.91200 36.21000
H  -6.53700 43.95900 38.08300
H  -6.25500 44.08900 39.91100
H  -6.97900 45.39000 38.90600
H  -11.63200 45.66200 40.84100
H  -11.72900 46.33600 39.10700
H  -11.06800 47.29300 40.36700
H  -14.58600 42.67600 39.01700
H  -15.08800 40.71900 41.21400
H  -15.29800 44.20400 40.66800
H  -13.90300 43.85900 41.58800
H  -15.43500 42.91200 41.80000
H  -16.39000 39.48700 39.62000
H  -15.82000 40.56600 38.23100
H  -18.15200 40.55400 39.62700
H  -17.42600 42.03100 38.73200
H  -17.34500 41.99600 40.42100
H  -14.90000 35.95100 39.52400
H  -13.90100 34.95000 40.61500
H  -13.80800 34.72400 38.84800
H  -8.75600 35.06900 38.04400
H  -6.11500 32.39000 40.08500
H  -6.92000 33.07400 41.52300
H  -5.51000 33.71600 41.03500
Mg -6.35100 25.48500 26.82200
C  -5.30000 27.37800 29.59300
C  -8.00100 23.45400 28.95900
C  -7.26500 23.61600 24.13100
C  -4.37900 27.49600 24.68000
N  -6.41000 25.34700 29.11300
C  -6.04100 26.25500 30.03200
C  -6.70300 26.01200 31.37300
C  -7.32000 24.61500 31.16500
C  -7.29600 24.48200 29.62200
C  -6.51700 23.46600 31.92000
C  -7.58100 27.15600 31.84200
C  -7.88300 27.19700 33.38000
H  -7.27100 26.01500 34.31600
N  -7.55900 23.77700 26.59000
C  -8.17900 23.08800 27.59700
C  -9.00400 22.10200 26.92900
C  -8.70900 22.07200 25.51300
C  -7.76100 23.15200 25.36200
C  -9.88600 21.26500 27.67200
C  -9.27900 21.15300 24.44100
O  -8.92000 21.07400 23.25700
C  -10.48400 20.31500 24.79800
N  -5.82300 25.42000 24.72500
C  -6.33700 24.57300 23.75300
C  -5.73700 24.80700 22.38800
C  -5.15300 26.23300 22.57300
C  -5.07000 26.41700 24.12800
C  -4.66400 23.72700 21.86800
C  -5.98700 27.38500 21.87000
C  -5.28000 28.00600 20.64700
N  -5.09200 27.10100 26.99200
C  -4.36100 27.87600 26.06400
C  -3.69300 28.97800 26.87300
C  -3.99800 28.80000 28.14200
C  -4.87400 27.67000 28.22300
C  -2.78900 30.11500 26.28100
C  -3.85600 29.42400 29.45700
O  -3.27700 30.46300 29.77300
C  -4.65700 28.47200 30.41300
C  -3.77000 27.98700 31.49900
O  -3.00200 27.03600 31.50800
O  -4.00000 28.78500 32.57200
C  -3.11500 28.59400 33.69000
H  -8.42000 22.68000 29.60500
H  -7.58500 22.93000 23.34400
H  -3.82500 28.11900 23.97400
H  -5.81400 25.86100 31.98500
H  -8.33800 24.49900 31.53600
H  -5.89400 23.02600 31.14100
H  -7.23600 22.69400 32.19400
H  -5.96700 23.76900 32.81100
H  -8.47700 27.09200 31.22500
H  -7.18300 28.08800 31.44200
H  -8.96400 27.06700 33.40800
H  -7.78200 28.21300 33.76400
H  -9.83000 20.24300 27.29900
H  -10.94000 21.54400 27.64400
H  -9.58000 21.19800 28.71600
H  -11.11400 20.81700 25.53300
H  -10.34200 19.29300 25.15100
H  -11.11600 20.19800 23.91800
H  -6.51400 24.84600 21.62500
H  -4.14500 26.27000 22.16200
H  -3.81400 24.30400 21.50500
H  -5.20300 23.20600 21.07600
H  -4.35300 23.00700 22.62500
H  -6.30200 28.15300 22.57600
H  -6.84000 26.89100 21.40500
H  -5.89400 27.87900 19.75500
H  -4.27600 27.64000 20.43200
H  -5.24400 29.07500 20.85600
H  -1.82900 29.70200 25.97200
H  -2.59700 30.83300 27.07800
H  -3.38800 30.48700 25.45000
H  -5.51000 29.04700 30.77300
H  -3.23700 29.46900 34.32800
H  -2.06400 28.53600 33.40700
H  -3.45600 27.73600 34.26900

