158

Mg 1.15400 7.59100 25.92900
C  1.70600 9.63300 28.69100
C  1.47600 4.79000 28.00500
C  0.91100 5.60900 23.15600
C  1.65800 10.39100 23.86800
N  1.60700 7.28900 28.09700
C  1.64500 8.28500 29.06600
C  1.56500 7.63100 30.41900
C  1.91800 6.09300 30.15900
C  1.69600 6.03800 28.68600
C  3.35700 5.60700 30.60900
C  0.23000 7.93400 31.16100
C  0.34100 8.33700 32.62400
H  1.58700 7.89800 33.51700
N  1.08700 5.52700 25.65200
C  1.19900 4.52600 26.62000
C  1.06000 3.26700 26.02800
C  0.85700 3.45700 24.60200
C  0.89600 4.87700 24.38100
C  1.00200 1.92600 26.82300
C  0.79000 2.41800 23.50500
O  0.78700 2.77100 22.36100
C  0.65900 0.89300 23.79800
N  1.29100 7.96500 23.72200
C  1.03700 6.97100 22.87100
C  0.98000 7.55500 21.44800
C  1.41200 9.03000 21.67800
C  1.38800 9.21600 23.16000
C  1.78100 6.77300 20.37000
C  0.56900 10.06300 20.95600
C  -0.66200 10.52600 21.68800
N  1.54100 9.58100 26.17100
C  1.70900 10.59100 25.26100
C  1.88200 11.85100 25.91800
C  1.83800 11.52500 27.32300
C  1.71500 10.14900 27.39700
C  2.14200 13.16800 25.32600
C  1.95800 12.05000 28.64200
O  2.33800 13.17400 28.98500
C  1.83500 10.87400 29.60500
C  3.01800 10.79300 30.49700
O  4.10700 10.20900 30.32100
O  2.73400 11.47500 31.66900
C  3.93100 11.92300 32.45700
H  1.46100 3.92300 28.66800
H  0.80000 5.03700 22.23300
H  1.80200 11.25700 23.21900
H  2.34100 8.15100 30.98000
H  1.18000 5.44500 30.63200
H  3.93300 6.46200 30.96300
H  3.78800 5.07600 29.76000
H  3.29700 4.94700 31.47400
H  -0.38600 7.05000 31.33200
H  -0.28700 8.71300 30.60200
H  -0.56600 7.96600 33.10300
H  0.30300 9.42400 32.70500
H  0.06700 1.62000 27.29300
H  1.69300 2.08800 27.65000
H  1.41500 1.07500 26.28300
H  0.40500 0.53000 22.80200
H  -0.15500 0.68100 24.49100
H  1.64200 0.54800 24.12100
H  -0.04400 7.59700 21.07600
H  2.40700 9.19200 21.26400
H  2.17500 5.84200 20.77800
H  2.57500 7.40900 19.97900
H  1.04000 6.37900 19.67500
H  0.12500 9.74900 20.01100
H  1.25500 10.87600 20.71700
H  -0.53400 11.58900 21.89300
H  -0.84600 9.92000 22.57500
H  -1.51700 10.33500 21.04100
H  1.39400 13.38700 24.56400
H  3.18400 13.33300 25.05100
H  2.08100 13.91900 26.11300
H  0.92400 10.98100 30.19400
H  4.51500 12.40400 31.67200
H  4.34600 10.99100 32.84000
H  3.43500 12.46300 33.26400
Mg 44.36600 4.31800 46.77800
C  42.15700 7.06500 46.62700
C  41.39200 2.23700 46.58400
C  46.26000 1.67500 46.47700
C  47.09100 6.45300 46.56600
N  42.14000 4.62000 46.40300
C  41.47900 5.83400 46.43800
C  39.95700 5.66000 46.29700
C  39.78900 4.14200 46.50900
C  41.18000 3.64100 46.50900
C  38.89800 3.80000 47.71500
C  39.52800 6.22700 44.85300
C  38.11100 6.74200 44.55600
H  37.62600 6.79900 43.11000
N  43.95100 2.28600 46.57600
C  42.71300 1.62300 46.56700
C  42.93000 0.23100 46.48800
C  44.35900 0.01200 46.51200
C  44.93600 1.37700 46.53600
C  41.72000 -0.81000 46.60200
C  45.09200 -1.37200 46.44300
O  44.35400 -2.32500 46.45100
C  46.56900 -1.54300 46.21900
N  46.44900 4.14400 46.53300
C  46.97100 2.91700 46.46700
C  48.54000 3.09100 46.45300
C  48.83200 4.63200 46.66800
C  47.42100 5.15500 46.61700
C  49.31900 2.09500 47.40700
C  49.94600 5.33300 45.75800
C  51.29700 4.55400 45.67300
N  44.58700 6.33500 46.69900
C  45.78800 7.07000 46.64600
C  45.47100 8.45600 46.73900
C  44.06700 8.52300 46.74800
C  43.56400 7.17200 46.72900
C  46.45700 9.63900 46.61500
C  42.95400 9.37800 46.84900
O  43.02300 10.58700 46.88500
C  41.70000 8.50100 46.78100
C  40.91700 8.64500 48.04800
O  40.81500 7.74400 48.86200
O  40.10300 9.80300 48.07000
C  39.02200 9.69000 49.06800
H  40.47000 1.65100 46.59200
H  46.99700 0.87000 46.48300
H  47.94600 7.12500 46.47100
H  39.39200 6.21500 47.04700
H  39.33600 3.67300 45.63600
H  38.12500 3.07600 47.45700
H  38.33000 4.67700 48.02500
H  39.47100 3.44900 48.57300
H  39.60600 5.33100 44.23800
H  40.25100 6.97400 44.52600
H  37.87200 7.69800 45.02200
H  37.44700 6.13400 45.17100
H  41.88300 -1.43900 47.47700
H  41.84900 -1.44100 45.72300
H  40.75900 -0.30000 46.53100
H  47.12000 -1.20300 47.09600
H  46.75100 -0.96100 45.31600
H  46.67400 -2.62500 46.14500
H  48.71100 2.77700 45.42400
H  49.25000 4.86600 47.64700
H  50.07100 2.64700 47.97000
H  49.79100 1.24500 46.91300
H  48.60000 1.87100 48.19400
H  50.07600 6.30500 46.23200
H  49.56200 5.55000 44.76100
H  51.34300 3.55400 46.10400
H  52.06900 5.20500 46.08400
H  51.50300 4.63400 44.60500
H  46.91400 9.64600 45.62600
H  47.34400 9.52300 47.23800
H  46.01500 10.62900 46.72900
H  41.11900 8.84800 45.92700
H  39.42500 9.63600 50.07900
H  38.33900 8.89800 48.75900
H  38.40800 10.58200 48.94500

