158

Mg 8.72700 3.25900 26.91300
C  10.11600 1.48500 29.69200
C  6.92400 5.11400 28.98100
C  7.83100 4.75400 24.15800
C  10.22100 0.66700 24.80700
N  8.49100 3.26300 29.11600
C  9.25000 2.61000 30.03300
C  8.91300 3.08800 31.50000
C  7.60500 3.96800 31.25000
C  7.67300 4.11900 29.68400
C  6.33400 3.32300 31.69300
C  10.17800 3.75700 32.11800
C  10.73000 3.10200 33.41800
H  11.49600 4.03600 34.45100
N  7.51600 4.76200 26.60700
C  6.99600 5.46900 27.66400
C  6.32200 6.59700 27.09500
C  6.43500 6.49700 25.68200
C  7.31800 5.31700 25.43800
C  5.51900 7.55900 27.92100
C  5.82100 7.37300 24.69500
O  5.99000 7.04300 23.50200
C  5.24700 8.70700 24.99300
N  8.99800 2.73100 24.78700
C  8.52700 3.63300 23.84900
C  8.81400 3.16400 22.40900
C  9.46800 1.79800 22.62900
C  9.60400 1.70900 24.17200
C  7.65200 3.16500 21.41100
C  10.60000 1.26200 21.68500
C  10.56100 -0.23300 21.33300
N  9.82900 1.38600 27.16000
C  10.38000 0.51700 26.21300
C  11.06200 -0.55600 26.83100
C  11.07700 -0.17200 28.19000
C  10.29900 0.98800 28.38100
C  11.67300 -1.77800 26.24000
C  11.60900 -0.38500 29.49100
O  12.26200 -1.27800 29.92700
C  10.93300 0.61300 30.56400
C  10.02400 -0.11800 31.45800
O  9.22800 -0.96400 31.11400
O  10.30000 0.26500 32.74300
C  9.29000 -0.30600 33.74000
H  6.31200 5.66400 29.69900
H  7.59000 5.45000 23.35100
H  10.72000 -0.05900 24.16100
H  8.51600 2.32700 32.17100
H  7.76300 4.98100 31.62100
H  6.36200 3.22800 32.77900
H  6.19800 2.29400 31.36100
H  5.42100 3.85300 31.42200
H  10.03800 4.81300 32.35200
H  10.88100 3.71100 31.28600
H  11.49700 2.37800 33.14500
H  9.96100 2.63000 34.02900
H  5.76800 7.47200 28.97900
H  4.47400 7.34900 27.69400
H  5.84000 8.56200 27.64200
H  6.05600 9.23600 25.49600
H  4.37800 8.55500 25.63400
H  4.95200 9.15300 24.04300
H  9.52800 3.84200 21.94200
H  8.68200 1.04700 22.56000
H  6.74400 3.65000 21.76800
H  7.27800 2.19900 21.07100
H  7.88300 3.81700 20.56800
H  11.50600 1.33900 22.28800
H  10.80800 1.85200 20.79300
H  9.53800 -0.60900 21.30400
H  11.15800 -0.83100 22.02100
H  11.01000 -0.40900 20.35600
H  12.32400 -1.38700 25.45800
H  10.96600 -2.30100 25.59500
H  12.22900 -2.37300 26.96300
H  11.62900 1.26600 31.09000
H  9.36700 -1.37700 33.93100
H  8.28100 -0.09800 33.38400
H  9.52700 0.12500 34.71200
Mg 26.32900 50.00600 25.35600
C  24.34500 51.33600 28.03100
C  28.83000 49.44500 27.61800
C  28.39800 48.98200 22.82900
C  24.20000 51.53300 23.09000
N  26.52000 50.25200 27.65000
C  25.59700 50.81300 28.48500
C  26.19900 50.89300 29.88500
C  27.55700 50.12800 29.76200
C  27.68400 49.96000 28.27000
C  28.63100 51.03000 30.43600
C  25.28200 50.34900 31.09500
C  25.87600 49.56000 32.21400
H  25.14700 49.26600 33.52500
N  28.31800 49.23000 25.25600
C  29.16900 49.07700 26.31500
C  30.46600 48.54500 25.82300
C  30.37600 48.50500 24.36600
C  29.00500 48.96400 24.09800
C  31.63200 48.27700 26.80500
C  31.47900 48.20800 23.41100
O  31.31500 48.25900 22.21500
C  32.78500 47.73100 23.98100
N  26.23700 50.15000 23.26100
C  27.23200 49.62000 22.43400
C  26.84300 49.72100 20.91700
C  25.47700 50.55800 20.95600
C  25.28400 50.74800 22.51000
C  27.92700 50.40300 20.06500
C  24.35100 49.83800 20.14700
C  23.79500 50.64800 18.99800
N  24.50500 51.08000 25.47600
C  23.79300 51.71300 24.47100
C  22.66600 52.45900 25.00700
C  22.84400 52.35100 26.38700
C  23.96000 51.51500 26.62800
C  21.75700 53.25300 24.17800
C  22.31600 52.73500 27.70400
O  21.44400 53.54800 28.06000
C  23.26100 52.11700 28.82300
C  23.80600 53.23600 29.62000
O  24.45200 54.17800 29.18400
O  23.41800 53.09800 30.89400
C  23.94500 54.11900 31.80000
H  29.59500 49.30300 28.38400
H  28.82700 48.59300 21.90300
H  23.64200 52.03000 22.29300
H  26.41400 51.95200 30.02300
H  27.65600 49.15600 30.24600
H  28.33100 51.87000 31.06200
H  29.35600 51.22600 29.64600
H  29.09900 50.45800 31.23800
H  24.62700 49.66400 30.55600
H  24.65700 51.13200 31.52400
H  26.90000 49.91900 32.31600
H  26.01100 48.60100 31.71500
H  31.87200 47.21400 26.84200
H  31.44500 48.44100 27.86600
H  32.54800 48.83100 26.59700
H  32.75200 46.84800 24.62000
H  33.15400 48.64000 24.45600
H  33.48900 47.39800 23.21800
H  26.64700 48.73900 20.48600
H  25.72900 51.58800 20.70400
H  28.29600 49.77300 19.25500
H  28.71100 50.66000 20.77600
H  27.51100 51.31200 19.63100
H  23.58100 49.64600 20.89500
H  24.68900 48.88000 19.75200
H  22.74900 50.43900 18.77200
H  24.41300 50.34200 18.15300
H  23.77200 51.72900 19.13200
H  21.03800 52.60800 23.67200
H  22.33900 53.83600 23.46400
H  21.07200 53.82800 24.80100
H  22.70600 51.47400 29.50700
H  23.95300 55.06300 31.25600
H  24.94800 53.95300 32.19400
H  23.36700 54.28400 32.71000

