158

Mg -0.14300 7.36800 26.70200
C  0.36600 9.84500 29.22800
C  -0.19700 5.08800 29.21900
C  -0.03600 5.14600 24.34000
C  0.09000 10.03900 24.27100
N  0.20600 7.44200 28.91000
C  0.29000 8.54200 29.70800
C  0.41800 8.14000 31.22100
C  0.51600 6.58400 31.16500
C  0.04100 6.36300 29.68400
C  2.00300 6.12700 31.49500
C  -0.76800 8.66900 32.12800
C  -0.40500 9.23300 33.51400
H  -0.84800 8.64500 34.85600
N  -0.23100 5.35700 26.74700
C  -0.24400 4.58700 27.87700
C  -0.49700 3.22000 27.46500
C  -0.33800 3.15300 26.07100
C  -0.20300 4.60100 25.66900
C  -0.68900 2.03100 28.50500
C  -0.51800 1.97000 25.06900
O  -0.35500 2.11200 23.88200
C  -0.71900 0.61200 25.52400
N  0.27200 7.54800 24.55900
C  0.12000 6.49100 23.81000
C  0.12400 6.88400 22.36100
C  -0.36800 8.40000 22.34000
C  -0.02600 8.67100 23.79600
C  1.42500 6.62200 21.60400
C  -1.87700 8.60700 22.02200
C  -2.27500 9.90600 21.40600
N  0.16900 9.50800 26.68000
C  0.26000 10.45400 25.63200
C  0.48100 11.82200 26.11600
C  0.40300 11.58900 27.53400
C  0.37500 10.21800 27.83300
C  0.54200 13.15000 25.38900
C  0.54200 12.28800 28.81300
O  0.68300 13.48600 29.09500
C  0.40500 11.16000 29.93100
C  1.57500 11.20600 30.83000
O  2.75000 11.03300 30.67200
O  1.05400 11.50900 32.07400
C  2.10900 11.84500 33.04400
H  -0.34100 4.35100 30.01100
H  -0.08400 4.43700 23.51100
H  0.07200 10.85700 23.54900
H  1.29900 8.69500 31.54100
H  -0.11800 6.17700 31.95300
H  2.42200 5.55700 30.66600
H  2.03400 5.47500 32.36700
H  2.73200 6.88400 31.78400
H  -1.56100 7.92200 32.12000
H  -1.22300 9.51600 31.61300
H  -0.71100 10.27900 33.46900
H  0.68100 9.30300 33.44300
H  -1.38000 1.30700 28.07300
H  -1.04200 2.19100 29.52400
H  0.31400 1.62800 28.64200
H  -1.79000 0.51800 25.70300
H  0.00600 0.33700 26.28900
H  -0.46800 -0.03500 24.68400
H  -0.65700 6.24400 21.95000
H  0.27100 9.01400 21.70600
H  1.92600 5.87300 22.21800
H  2.04300 7.51000 21.47100
H  1.18000 6.16700 20.64400
H  -2.35900 8.55200 22.99700
H  -2.12600 7.81200 21.31900
H  -3.08400 10.31300 22.01300
H  -2.78300 9.71000 20.46200
H  -1.49700 10.63000 21.16900
H  0.78800 14.00400 26.02000
H  -0.26800 13.36900 24.69200
H  1.43000 13.13200 24.75700
H  -0.43000 11.45000 30.56900
H  2.70200 12.68500 32.68200
H  2.67100 10.93200 33.24100
H  1.66100 12.22800 33.96000
Mg -2.11300 34.51100 27.41100
C  -3.78600 32.50600 29.66000
C  -0.56600 36.07600 30.00900
C  -0.75300 36.46200 25.05800
C  -4.11300 32.98100 24.82100
N  -2.43400 34.53200 29.64700
C  -2.92200 33.39800 30.27000
C  -2.48500 33.40800 31.83600
C  -1.59400 34.69700 31.91000
C  -1.50200 35.08900 30.43900
C  -2.13600 35.89000 32.77300
C  -1.81500 32.04300 32.28500
C  -2.49800 31.44400 33.55300
H  -1.72100 31.43000 34.85200
N  -0.89900 36.14600 27.48900
C  -0.31900 36.53500 28.66600
C  0.72400 37.53700 28.24700
C  0.64500 37.77900 26.81400
C  -0.39500 36.77500 26.39600
C  1.54400 38.27600 29.27800
C  1.43500 38.68000 25.90500
O  1.16100 38.78300 24.70700
C  2.63100 39.42300 26.50700
N  -2.31100 34.58400 25.19800
C  -1.60600 35.51300 24.46800
C  -1.95100 35.51500 23.02600
C  -3.08500 34.33000 22.92200
C  -3.26500 33.98100 24.41200
C  -2.57400 36.85300 22.48300
C  -2.68400 33.06100 22.03300
C  -2.59700 33.25300 20.49400
N  -3.65600 33.09200 27.18700
C  -4.27500 32.56600 26.13100
C  -5.15300 31.53100 26.53300
C  -4.95100 31.34200 27.89300
C  -3.99500 32.35500 28.29800
C  -6.02600 30.79900 25.56700
C  -5.29500 30.62300 29.05600
O  -6.01800 29.63400 29.26900
C  -4.56400 31.32800 30.20600
C  -5.60900 31.76600 31.17400
O  -6.41800 32.68200 30.97500
O  -5.67600 30.97300 32.26400
C  -6.63900 31.26800 33.30300
H  0.17000 36.41500 30.74100
H  -0.26100 36.93200 24.20300
H  -4.68200 32.53900 24.00100
H  -3.37000 33.66500 32.41900
H  -0.58700 34.37800 32.17900
H  -1.26000 36.29300 33.28200
H  -2.67300 35.50200 33.63800
H  -2.71400 36.67700 32.28900
H  -0.77700 32.25200 32.54700
H  -1.67600 31.32900 31.47300
H  -2.46100 30.42000 33.18300
H  -3.49700 31.87300 33.63100
H  2.58900 38.21700 28.97500
H  1.52100 37.99300 30.33000
H  1.19900 39.31000 29.28000
H  3.47200 38.76500 26.72600
H  2.47900 40.11000 27.34000
H  2.95800 40.10600 25.72300
H  -1.09700 35.19800 22.42900
H  -4.06900 34.65500 22.58400
H  -3.49500 36.66000 21.93200
H  -1.80300 37.26100 21.82900
H  -2.83500 37.55200 23.27800
H  -3.45000 32.29000 22.11500
H  -1.76200 32.71800 22.50200
H  -3.02200 32.42800 19.92300
H  -1.54700 33.32500 20.21000
H  -2.95700 34.24800 20.23000
H  -6.74300 30.16700 26.09100
H  -5.44400 30.21700 24.85200
H  -6.58600 31.46600 24.91100
H  -3.95800 30.70300 30.86200
H  -7.25600 32.14700 33.11500
H  -6.00600 31.50500 34.15800
H  -7.33000 30.42500 33.32600

