158

Mg 46.82400 45.88000 43.39000
C  43.48800 44.79500 42.83500
C  47.90600 42.87900 42.32800
C  49.99300 47.28900 42.78100
C  45.50800 49.27000 43.48100
N  45.83300 44.11500 42.38400
C  44.47400 43.82100 42.54300
C  44.13300 42.43300 42.01000
C  45.51000 41.73900 42.18300
C  46.48900 42.98300 42.30000
C  45.60500 40.64800 43.28200
C  43.61000 42.52000 40.54000
C  42.30300 41.79000 40.16000
H  42.36500 41.04900 38.83200
N  48.69900 45.06600 42.86100
C  48.89300 43.77700 42.53800
C  50.31200 43.55700 42.60000
C  50.92900 44.81300 42.76700
C  49.85400 45.81600 42.81800
C  50.95200 42.20800 42.56800
C  52.49400 45.08100 42.91400
O  53.29600 44.16400 42.73500
C  53.03100 46.43200 43.23700
N  47.56800 47.91700 43.08100
C  48.92600 48.22400 42.73900
C  49.17300 49.70600 42.60100
C  47.80300 50.34800 42.86400
C  46.88500 49.11300 43.17600
C  50.44400 50.24000 43.43700
C  47.19700 51.27700 41.76700
C  47.32300 52.83600 42.08300
N  44.95700 46.85300 43.47400
C  44.59800 48.17900 43.52800
C  43.11200 48.23400 43.70800
C  42.65500 46.93000 43.44300
C  43.79800 46.11300 43.23400
C  42.32700 49.45800 44.25100
C  41.45100 46.10900 43.33400
O  40.27600 46.41600 43.34300
C  41.95200 44.69900 42.80900
C  41.40700 43.71100 43.81400
O  40.62000 42.80100 43.52700
O  41.92400 43.86300 45.03100
C  41.46100 42.96500 46.09300
H  48.11500 41.83400 42.09200
H  50.93500 47.80100 42.57400
H  45.05700 50.26200 43.41400
H  43.35400 41.90800 42.56300
H  45.85100 41.25100 41.27000
H  46.51700 40.73700 43.87200
H  45.56200 39.65100 42.84300
H  44.77100 40.75500 43.97700
H  44.45900 42.39300 39.86700
H  43.40800 43.58900 40.46600
H  41.49200 42.51800 40.14100
H  42.09000 41.10100 40.97700
H  51.84900 42.20700 43.18800
H  51.37000 41.97700 41.58900
H  50.21300 41.44000 42.79800
H  52.64300 46.70000 44.21900
H  52.97400 47.16900 42.43600
H  54.10100 46.40400 43.44300
H  49.39600 49.73200 41.53400
H  47.85000 51.02100 43.72000
H  50.68200 49.50700 44.20700
H  50.35200 51.28200 43.74500
H  51.28500 50.19300 42.74500
H  46.12600 51.09700 41.67700
H  47.67100 51.06800 40.80700
H  46.59000 53.24700 42.77800
H  47.06000 53.35300 41.16000
H  48.35300 53.01500 42.39400
H  42.65100 49.73100 45.25500
H  41.26500 49.22300 44.32700
H  42.39700 50.38400 43.68100
H  41.64400 44.41500 41.80300
H  40.60000 43.51400 46.47400
H  42.23500 42.85500 46.85300
H  41.10300 41.95700 45.88400
Mg 46.76300 34.53800 28.12600
C  45.28500 33.04300 30.89700
C  47.24600 37.44800 30.15900
C  47.88600 36.21900 25.45700
C  45.95000 31.91200 26.18300
N  46.25400 35.18500 30.25500
C  45.82600 34.28500 31.20400
C  46.16400 34.80700 32.58900
C  46.33900 36.33300 32.30600
C  46.53000 36.36000 30.78800
C  45.20500 37.38600 32.79600
C  47.39400 34.17600 33.31300
C  47.51100 34.31100 34.78600
H  46.64000 35.20000 35.67400
N  47.30200 36.63700 27.81100
C  47.58500 37.57300 28.77500
C  48.12000 38.75600 28.15300
C  48.27700 38.44100 26.77100
C  47.82000 37.04200 26.59600
C  48.36300 40.03400 28.89100
C  48.86900 39.32600 25.59000
O  48.87200 38.88500 24.43400
C  49.42400 40.72600 25.76100
N  47.01800 34.05900 26.17800
C  47.49300 34.92500 25.17100
C  47.67700 34.11000 23.85100
C  46.94100 32.77500 24.10300
C  46.71100 32.86700 25.59200
C  47.25000 34.90600 22.61200
C  47.84400 31.53400 23.69300
C  47.08500 30.31200 23.45400
N  45.77800 32.78500 28.42900
C  45.52600 31.76100 27.53000
C  44.89300 30.65200 28.15400
C  44.82000 31.09300 29.49600
C  45.34000 32.42100 29.60400
C  44.45400 29.31300 27.47400
C  44.23500 30.80500 30.77600
O  43.59500 29.87100 31.11300
C  44.46600 32.09700 31.59100
C  44.82200 31.79200 32.96700
O  45.82900 31.25600 33.40500
O  43.64100 31.97400 33.69200
C  43.60500 31.58400 35.13500
H  47.61000 38.24700 30.80800
H  48.23300 36.47300 24.45300
H  45.86500 31.04200 25.52900
H  45.23700 34.64800 33.14100
H  47.34500 36.60000 32.63000
H  44.39200 36.73100 33.10700
H  44.85500 37.92900 31.91700
H  45.39500 38.15500 33.54400
H  48.31600 34.63000 32.95000
H  47.44600 33.11800 33.05600
H  48.53500 34.66500 34.90700
H  47.32300 33.28700 35.10900
H  48.40000 40.89900 28.22900
H  49.39600 39.91800 29.21800
H  47.62100 40.33300 29.63100
H  49.76100 40.93300 26.77600
H  48.56800 41.39400 25.66600
H  50.22000 40.86000 25.02800
H  48.74500 33.90800 23.77700
H  45.93600 32.66400 23.69300
H  46.53700 35.69300 22.85400
H  46.80200 34.28200 21.83900
H  48.18000 35.30000 22.20100
H  48.65000 31.36100 24.40600
H  48.47400 31.71300 22.82100
H  47.13800 29.72000 24.36800
H  47.53300 29.75300 22.63200
H  46.03600 30.51700 23.24400
H  43.52000 29.45900 26.93100
H  44.33400 28.56500 28.25800
H  45.15200 28.93500 26.72700
H  43.47900 32.55500 31.64700
H  42.57700 31.53200 35.49400
H  44.17100 32.40700 35.57100
H  44.10500 30.64600 35.37800

