158

Mg 46.90800 16.02600 28.21800
C  45.04100 15.60700 31.01300
C  48.87200 18.25800 29.74900
C  48.70000 16.29200 25.25600
C  44.65800 13.96300 26.46000
N  47.00200 16.79300 30.18300
C  46.07600 16.54100 31.17300
C  46.40600 17.34100 32.46400
C  47.54200 18.24300 31.98000
C  47.85600 17.71500 30.52600
C  47.24700 19.75900 31.94000
C  46.92100 16.33200 33.52200
C  47.15600 16.92200 34.94200
H  48.55700 16.73900 35.53500
N  48.53400 17.13800 27.61200
C  49.24200 17.97200 28.38700
C  50.26400 18.61700 27.63900
C  50.21100 18.14800 26.25300
C  49.13800 17.08800 26.35800
C  51.19400 19.70900 28.08300
C  51.00000 18.51100 24.97900
O  50.81800 18.00200 23.89400
C  52.01900 19.57700 25.04200
N  46.65800 15.33000 26.10300
C  47.55200 15.44500 25.12400
C  47.09200 14.77200 23.84400
C  45.79800 14.00900 24.20000
C  45.70900 14.40300 25.71300
C  46.90100 15.81900 22.72500
C  45.75100 12.53500 23.82700
C  46.46100 11.64600 24.78700
N  45.18800 15.02100 28.54000
C  44.32000 14.36200 27.77200
C  43.19400 13.85800 28.57400
C  43.41900 14.29400 29.85700
C  44.61400 15.00400 29.75400
C  42.12600 12.91200 28.08200
C  42.99800 14.17200 31.20600
O  42.07800 13.57700 31.73800
C  43.98700 15.07700 32.02900
C  43.16200 16.11100 32.70700
O  42.39900 16.81800 32.09100
O  43.41400 16.18600 34.05200
C  42.46900 17.00100 34.86300
H  49.55600 18.92800 30.27400
H  49.32300 16.41200 24.36700
H  44.02000 13.24800 25.93700
H  45.55500 17.88900 32.86700
H  48.46000 18.14100 32.55900
H  47.37900 20.14000 30.92700
H  48.01000 20.25400 32.53900
H  46.21400 19.99300 32.19600
H  47.85100 15.86900 33.19200
H  46.07100 15.66400 33.66200
H  46.56500 16.48500 35.74600
H  46.95900 17.99100 35.02600
H  51.12700 20.03100 29.12200
H  50.94900 20.58000 27.47500
H  52.20400 19.30400 28.02800
H  51.65700 20.58300 25.25500
H  52.64400 19.54300 24.15000
H  52.74100 19.41200 25.84200
H  47.77000 13.93100 23.70300
H  44.93200 14.56000 23.83400
H  45.94300 15.66000 22.23000
H  47.74300 16.00300 22.05800
H  46.78700 16.72600 23.31900
H  46.26200 12.45400 22.86800
H  44.67800 12.34000 23.81800
H  46.91100 12.13200 25.65300
H  47.25300 11.15900 24.21900
H  45.72800 11.00200 25.27300
H  42.55600 12.35400 27.25000
H  41.25700 13.49300 27.77400
H  41.83300 12.19700 28.85000
H  44.40600 14.44600 32.81300
H  42.00600 17.76500 34.23900
H  43.08000 17.48700 35.62500
H  41.70100 16.42300 35.37700
Mg -8.75300 40.26200 43.09000
C  -7.72600 37.11900 41.89900
C  -5.90000 41.67000 41.57400
C  -10.22200 43.33600 43.20000
C  -11.78800 38.80400 44.09900
N  -7.02100 39.46800 41.69400
C  -6.82600 38.17200 41.45000
C  -5.64000 37.98900 40.49900
C  -4.87400 39.35000 40.63600
C  -5.94600 40.26700 41.31100
C  -3.57300 39.25800 41.53700
C  -6.07400 37.47800 39.03100
C  -5.19400 36.33000 38.52400
H  -4.22200 36.65400 37.39700
N  -8.18300 42.20000 42.48600
C  -6.96500 42.55400 42.00000
C  -6.85400 44.01900 41.98200
C  -8.03700 44.52800 42.61200
C  -8.87900 43.35100 42.74600
C  -5.82100 44.78900 41.27000
C  -8.24500 45.95800 42.80700
O  -7.30100 46.76000 42.74000
C  -9.63700 46.54200 43.14700
N  -10.68500 40.92800 43.52700
C  -11.05200 42.23600 43.53400
C  -12.49800 42.44900 43.86300
C  -12.99600 41.00600 44.28700
C  -11.77300 40.16800 43.97600
C  -12.77100 43.49600 45.02500
C  -14.37200 40.52500 43.70100
C  -14.35900 40.34800 42.13100
N  -9.51300 38.26800 43.22100
C  -10.73900 37.88700 43.70200
C  -10.74000 36.43700 43.64900
C  -9.55200 36.07400 42.91500
C  -8.88800 37.22300 42.69100
C  -11.78600 35.48700 44.16400
C  -8.84100 34.95500 42.31100
O  -9.04400 33.71100 42.28300
C  -7.58300 35.65700 41.56700
C  -6.39000 34.97100 42.10700
O  -5.97100 34.94000 43.24500
O  -5.82700 34.13100 41.19000
C  -4.68700 33.27400 41.63000
H  -4.99700 42.20400 41.27100
H  -10.72900 44.28900 43.36600
H  -12.69200 38.30000 44.44900
H  -5.09500 37.13100 40.89300
H  -4.53600 39.74700 39.67800
H  -3.54700 38.18900 41.74900
H  -3.71700 39.83400 42.45200
H  -2.63500 39.49300 41.03400
H  -6.06700 38.40900 38.46400
H  -7.13200 37.23500 39.13400
H  -5.87400 35.55200 38.17900
H  -4.50500 35.89300 39.24600
H  -6.16500 45.42700 40.45600
H  -5.03200 44.27200 40.72300
H  -5.22300 45.37300 41.96900
H  -9.63700 47.62400 43.28100
H  -9.89900 46.09900 44.10800
H  -10.39600 46.31700 42.39800
H  -13.02100 42.75000 42.95500
H  -13.01700 40.89200 45.37100
H  -13.67700 43.19800 45.55200
H  -12.88700 44.54000 44.73200
H  -11.93800 43.50300 45.72800
H  -15.03600 41.35000 43.95600
H  -14.70900 39.57200 44.10900
H  -13.37400 40.60300 41.73900
H  -15.04600 41.05600 41.66800
H  -14.72000 39.33800 41.93800
H  -11.33600 34.50300 44.03200
H  -12.55200 35.69600 43.41700
H  -12.24800 35.70800 45.12600
H  -7.63300 35.50700 40.48800
H  -3.84000 33.96000 41.59600
H  -4.51200 32.64400 40.75900
H  -4.65400 32.65400 42.52600

