158

Mg 8.94900 48.36400 25.65500
C  6.57800 48.91500 28.23600
C  11.35600 49.13800 27.78200
C  11.01600 48.21500 23.04100
C  6.23600 48.31700 23.42600
N  8.94400 48.97100 27.74600
C  7.88400 48.99600 28.66800
C  8.45500 49.00800 30.13000
C  9.89400 49.50500 29.86000
C  10.12700 49.21100 28.41400
C  10.17500 50.95200 30.36300
C  8.41900 47.62800 30.79800
C  9.21300 47.41100 32.09800
H  8.56700 46.81600 33.35100
N  10.91800 48.54200 25.46100
C  11.73600 48.84200 26.44900
C  13.13600 48.76700 25.94000
C  13.11600 48.59700 24.55900
C  11.61600 48.51600 24.30400
C  14.41900 49.02000 26.84000
C  14.20900 48.56900 23.50300
O  13.95800 48.45800 22.27900
C  15.66000 48.53400 23.88300
N  8.74400 48.28000 23.62200
C  9.70600 48.21100 22.68500
C  9.26900 47.81800 21.31800
C  7.71900 48.03000 21.40900
C  7.54900 48.18400 22.93400
C  9.95600 48.50700 20.15500
C  6.86800 46.78500 20.87600
C  5.43900 47.12400 20.44200
N  6.81700 48.33400 25.75600
C  5.90000 48.33100 24.78100
C  4.58500 48.51900 25.32900
C  4.82300 48.64000 26.71200
C  6.19900 48.66800 26.89400
C  3.41400 48.69800 24.35600
C  4.09700 48.81400 27.90700
O  2.90100 48.90800 28.17600
C  5.30800 49.05800 28.96600
C  5.03700 48.09300 30.18400
O  4.87500 46.88200 30.15600
O  4.98500 48.86000 31.32600
C  4.80300 48.15800 32.61000
H  12.17000 49.28500 28.49600
H  11.71100 47.98100 22.23200
H  5.47100 48.35600 22.64700
H  7.96900 49.81800 30.67300
H  10.69700 48.92800 30.31800
H  9.34500 51.32900 30.96200
H  10.41200 51.56300 29.49300
H  10.93200 50.91800 31.14700
H  8.64300 46.93200 29.98900
H  7.36100 47.55600 31.05100
H  9.57700 48.37800 32.44400
H  10.11600 46.85600 31.84400
H  14.82800 50.00700 26.62700
H  15.10200 48.21900 26.55500
H  14.21000 48.98100 27.90900
H  16.16500 48.82300 22.96100
H  15.93800 47.58100 24.33100
H  15.88000 49.34500 24.57800
H  9.63700 46.79800 21.20700
H  7.41800 48.98100 20.96800
H  9.31000 48.61200 19.28300
H  10.83500 47.94300 19.84300
H  10.26300 49.51900 20.41900
H  6.87000 46.01900 21.65100
H  7.45200 46.32800 20.07700
H  4.74100 46.54300 21.04400
H  5.25300 46.87200 19.39800
H  5.20600 48.18900 20.44200
H  3.64100 49.38900 23.54400
H  2.44000 48.84000 24.82300
H  3.25700 47.78700 23.77800
H  5.23200 50.09600 29.28900
H  4.73500 48.83600 33.46000
H  5.62700 47.46800 32.79500
H  3.89200 47.56000 32.60700
Mg -2.08000 35.20200 27.05900
C  -4.10700 33.44000 29.20800
C  -1.15700 37.10800 29.76800
C  0.00400 36.82600 25.05200
C  -3.36400 33.43500 24.27500
N  -2.60500 35.28900 29.29200
C  -3.24900 34.30600 29.94000
C  -3.20300 34.52800 31.52600
C  -2.47700 35.94400 31.61100
C  -2.06700 36.14400 30.12300
C  -3.41100 37.00500 32.28400
C  -2.39400 33.36600 32.26500
C  -3.25800 32.68600 33.33100
H  -3.67700 33.49400 34.50300
N  -0.72800 36.73200 27.36700
C  -0.52700 37.47100 28.53600
C  0.37600 38.55900 28.29100
C  0.58200 38.51300 26.82600
C  -0.00600 37.26400 26.37200
C  0.80500 39.47900 29.28600
C  1.16300 39.63500 25.86700
O  1.16000 39.60000 24.70000
C  1.71200 40.86500 26.47800
N  -1.68100 35.09300 24.94700
C  -0.74700 35.87900 24.40000
C  -0.77400 35.71700 22.91200
C  -1.90800 34.70400 22.60700
C  -2.32200 34.37700 24.02800
C  -0.74800 37.06300 22.09200
C  -1.57800 33.45900 21.75900
C  -2.54500 32.93700 20.71800
N  -3.43400 33.76500 26.74300
C  -3.87600 33.12100 25.62000
C  -4.85500 32.10600 25.92100
C  -4.84600 32.16300 27.33400
C  -4.07400 33.25200 27.74000
C  -5.56400 31.12100 25.05500
C  -5.39600 31.51300 28.49300
O  -6.02700 30.44400 28.60400
C  -4.95100 32.38900 29.69700
C  -6.11600 32.90000 30.27400
O  -6.81500 33.81000 29.79700
O  -6.27300 32.38000 31.55700
C  -7.22000 33.04600 32.42700
H  -0.80100 37.58100 30.68600
H  0.70700 37.32700 24.38400
H  -3.93200 32.97200 23.46500
H  -4.24100 34.58600 31.85400
H  -1.57100 35.96600 32.21600
H  -2.91800 37.49700 33.12200
H  -4.35600 36.54900 32.57800
H  -3.72700 37.84500 31.66600
H  -1.50800 33.77300 32.75300
H  -2.12000 32.61500 31.52500
H  -2.61300 31.86400 33.64300
H  -4.13500 32.28900 32.82000
H  0.23100 40.37700 29.05600
H  1.87900 39.65800 29.33000
H  0.46900 39.12600 30.26100
H  0.86800 41.35600 26.96100
H  2.23300 41.43200 25.70600
H  2.43800 40.50100 27.20500
H  0.16000 35.19700 22.70200
H  -2.74100 35.07500 22.01000
H  -0.91200 37.88900 22.78400
H  -1.50800 36.96000 21.31700
H  0.23300 37.28200 21.67200
H  -1.36400 32.65400 22.46200
H  -0.65000 33.57900 21.20000
H  -2.20400 33.01200 19.68600
H  -3.45900 33.52900 20.68000
H  -2.81200 31.90200 20.93200
H  -4.95800 30.21600 25.08300
H  -5.59300 31.43900 24.01300
H  -6.57700 31.02500 25.44500
H  -4.49900 31.78100 30.48100
H  -7.98300 32.27900 32.56000
H  -7.67400 33.99800 32.15300
H  -6.74300 33.16300 33.40100

