158

Mg 24.29100 -4.36100 46.24700
C  26.24300 -1.92500 44.79900
C  21.60400 -3.50000 44.09300
C  22.72800 -7.36100 47.03200
C  27.06600 -5.39500 48.25500
N  23.96300 -2.77700 44.74000
C  24.89200 -2.05200 44.18100
C  24.41200 -1.21800 43.02700
C  22.86500 -1.41500 43.11800
C  22.77600 -2.67200 44.11800
C  21.93700 -0.18900 43.57400
C  25.10500 -1.59300 41.63200
C  25.64000 -0.45000 40.74500
H  25.40200 -0.59300 39.26600
N  22.38300 -5.19100 45.82400
C  21.46300 -4.67700 44.86200
C  20.28700 -5.62200 44.81000
C  20.57500 -6.72200 45.67600
C  21.92000 -6.45700 46.27800
C  19.07600 -5.20000 43.93300
C  19.57900 -7.87200 45.99900
O  18.51500 -7.86700 45.41300
C  19.91700 -8.97600 46.91100
N  24.83300 -6.14300 47.49300
C  23.98000 -7.18000 47.65500
C  24.68200 -8.30700 48.46200
C  25.87400 -7.53900 49.19400
C  26.03800 -6.33000 48.22300
C  23.70700 -9.16000 49.44000
C  27.15800 -8.33700 49.45100
C  27.48700 -8.80000 50.90300
N  26.27300 -3.87400 46.44600
C  27.26600 -4.31800 47.36100
C  28.44900 -3.51300 47.18200
C  28.14800 -2.61000 46.14700
C  26.77500 -2.84100 45.78100
C  29.68500 -3.54600 47.99900
C  28.65300 -1.54200 45.36100
O  29.77700 -1.06000 45.34300
C  27.41500 -1.07700 44.43400
C  27.09700 0.42700 44.56600
O  26.92900 1.15500 45.51700
O  27.21300 0.97800 43.24300
C  27.34400 2.47400 43.10200
H  20.91400 -3.04200 43.38100
H  22.26900 -8.34000 47.18400
H  27.85100 -5.61400 48.98100
H  24.59800 -0.15000 43.13900
H  22.58800 -1.81800 42.14400
H  21.31500 0.18500 42.76100
H  22.58900 0.68300 43.59800
H  21.46500 -0.30100 44.55000
H  24.38300 -2.02900 40.94200
H  25.89300 -2.26300 41.97600
H  26.71600 -0.35000 40.89300
H  25.11000 0.42500 41.12100
H  19.01300 -4.11200 43.89800
H  18.20300 -5.69900 44.35300
H  19.24700 -5.54100 42.91200
H  20.69900 -9.48300 46.34600
H  19.08600 -9.67100 47.02800
H  20.33700 -8.83100 47.90600
H  25.07800 -9.01600 47.73500
H  25.49900 -7.10100 50.11900
H  22.70100 -8.74100 49.45500
H  23.96800 -9.08500 50.49600
H  23.66500 -10.20200 49.12300
H  27.97100 -7.75800 49.01400
H  27.09700 -9.18100 48.76400
H  27.42700 -9.88100 50.77700
H  26.65800 -8.43500 51.51000
H  28.49800 -8.57400 51.23900
H  29.51100 -3.99200 48.97800
H  29.94800 -2.49600 48.13400
H  30.44800 -4.08500 47.43800
H  27.71700 -1.19900 43.39400
H  27.74700 2.88700 44.02700
H  26.37900 2.90000 42.82600
H  28.03800 2.64600 42.27900
Mg 41.06500 9.19600 29.50200
C  42.76900 10.19700 32.35200
C  38.62500 8.07900 31.52000
C  39.47400 8.09700 26.73600
C  43.63500 10.42700 27.48000
N  40.91000 8.90300 31.70500
C  41.54900 9.63300 32.69800
C  40.90100 9.63400 34.06900
C  39.69700 8.62800 33.81900
C  39.75800 8.49600 32.25900
C  39.82300 7.25400 34.61300
C  40.44400 11.03000 34.47700
C  40.34800 11.11400 35.96800
H  41.16500 12.21000 36.65500
N  39.37600 8.09000 29.18800
C  38.36500 7.84000 30.11000
C  37.18400 7.31700 29.43600
C  37.43600 7.40400 28.08400
C  38.81300 7.82700 27.92900
C  35.83500 6.89100 30.10500
C  36.48000 7.22400 26.93100
O  36.75900 7.48900 25.76300
C  35.09000 6.72900 27.16300
N  41.54700 9.09900 27.35300
C  40.76100 8.55100 26.48900
C  41.29200 8.75700 25.05000
C  42.44700 9.76200 25.31600
C  42.57100 9.74600 26.81200
C  41.58900 7.38400 24.31600
C  42.18600 11.20000 24.77500
C  41.03300 12.03000 25.34500
N  42.89900 9.95200 29.79200
C  43.82800 10.46900 28.87100
C  44.96700 11.00800 29.57100
C  44.61700 10.98800 30.92500
C  43.31800 10.37500 31.03600
C  46.25400 11.64100 29.12500
C  45.05600 11.34700 32.25900
O  46.12500 11.85000 32.65500
C  43.80200 10.94100 33.25600
C  44.33300 9.99000 34.27500
O  44.75700 8.85800 34.09400
O  44.47600 10.75300 35.41900
C  45.17200 10.14800 36.56200
H  37.68800 7.95000 32.06400
H  39.01700 7.83000 25.78100
H  44.38400 10.89900 26.84000
H  41.65000 9.22500 34.74700
H  38.75500 9.07700 34.13400
H  40.81200 7.15600 35.06200
H  39.68600 6.38100 33.97500
H  39.03000 7.23700 35.36000
H  39.49100 11.26400 34.00300
H  41.16300 11.75600 34.09600
H  40.48600 10.12600 36.40800
H  39.31200 11.38200 36.17700
H  35.93700 6.74700 31.18000
H  35.65400 5.89600 29.69800
H  35.06800 7.63000 29.87700
H  35.00700 5.87500 27.83400
H  34.58200 6.71200 26.19800
H  34.77200 7.60300 27.73200
H  40.51800 9.15800 24.39600
H  43.36400 9.44700 24.81700
H  42.50100 7.48400 23.72700
H  40.72900 7.13200 23.69600
H  41.75700 6.67100 25.12300
H  41.95900 11.13100 23.71100
H  43.15700 11.68900 24.84700
H  40.48600 12.52600 24.54300
H  41.40300 12.78500 26.03900
H  40.24500 11.49900 25.87900
H  46.39200 12.53000 29.74000
H  46.08700 11.92300 28.08500
H  47.08600 11.03600 29.48400
H  43.42800 11.85700 33.71200
H  44.58500 10.08600 37.47800
H  46.07400 10.75100 36.66600
H  45.49100 9.12400 36.36900

