158

Mg 47.32800 16.02700 28.22300
C  45.03600 15.95700 30.89700
C  49.41500 17.92900 30.49000
C  49.20600 16.83700 25.75000
C  44.81700 14.82000 26.16100
N  47.17600 16.99300 30.44600
C  46.10800 16.70500 31.32400
C  46.51900 17.05500 32.76400
C  47.72000 17.99500 32.56900
C  48.19000 17.55200 31.13200
C  47.57600 19.56800 32.61400
C  46.96800 15.79400 33.54600
C  46.63500 15.94400 35.06200
H  46.38700 17.27800 35.70400
N  49.23900 17.06900 28.13500
C  49.90300 17.75100 29.16600
C  51.19200 18.22400 28.63300
C  51.17000 17.98900 27.21800
C  49.87400 17.27600 26.95500
C  52.32000 18.85100 29.47500
C  52.16400 18.33200 26.12900
O  51.86700 18.37000 24.96500
C  53.51400 18.96800 26.42400
N  47.02900 15.88700 26.28900
C  48.00200 16.20500 25.40600
C  47.57900 15.97100 23.94600
C  46.52600 14.91000 24.19700
C  46.05900 15.21600 25.61700
C  47.17600 17.23300 23.05400
C  47.23900 13.51500 24.19300
C  46.46900 12.41500 23.40800
N  45.32700 15.52700 28.41900
C  44.46800 14.90200 27.50900
C  43.30700 14.41500 28.19300
C  43.53300 14.73300 29.52300
C  44.72000 15.46800 29.62500
C  42.15300 13.56200 27.59300
C  42.94700 14.61300 30.83300
O  41.91600 14.05300 31.23600
C  43.92100 15.38400 31.79900
C  43.10500 16.32800 32.61100
O  42.69000 17.46700 32.23000
O  42.88600 15.84100 33.87100
C  42.03800 16.69100 34.71800
H  50.18800 18.30600 31.16400
H  49.84900 16.94900 24.87500
H  44.12400 14.22100 25.56600
H  45.73800 17.65500 33.23100
H  48.49700 17.73100 33.28700
H  47.58400 19.92600 31.58400
H  48.46000 20.02800 33.05700
H  46.68000 19.92400 33.12200
H  48.03100 15.58000 33.43600
H  46.47500 14.91500 33.13000
H  47.33500 15.33800 35.63700
H  45.72800 15.38200 35.28500
H  53.13800 18.15200 29.65000
H  51.96700 19.20900 30.44200
H  52.68800 19.69500 28.89100
H  53.42800 19.99300 26.78500
H  54.22100 18.94500 25.59500
H  53.89100 18.37400 27.25600
H  48.49100 15.67400 23.42800
H  45.71900 14.82200 23.46900
H  47.58300 18.15600 23.46700
H  46.09600 17.35400 22.97700
H  47.44400 17.04300 22.01500
H  47.28800 13.17600 25.22800
H  48.27800 13.54600 23.86200
H  47.19000 12.02400 22.69000
H  45.54000 12.78500 22.97400
H  46.07700 11.53800 23.92400
H  41.23500 13.97300 28.01200
H  42.24700 12.50500 27.84400
H  42.03500 13.65800 26.51300
H  44.32100 14.61400 32.45800
H  42.52400 16.68200 35.69400
H  41.07300 16.19500 34.82600
H  41.95300 17.73900 34.43100
Mg 48.28300 34.46500 26.64300
C  46.54600 32.96500 29.25700
C  48.23800 37.46500 28.65800
C  49.61700 36.17800 24.13400
C  47.79900 31.64500 24.64800
N  47.49000 35.11800 28.66000
C  47.03000 34.26000 29.63700
C  47.09800 34.86300 31.04300
C  47.16300 36.34700 30.71600
C  47.75700 36.32100 29.28300
C  45.90000 37.13900 30.85200
C  48.25400 34.36900 31.90800
C  48.05600 34.03000 33.39400
H  47.25100 34.93800 34.31600
N  48.88700 36.48800 26.44600
C  48.80600 37.52900 27.34500
C  49.36300 38.69500 26.69400
C  49.80000 38.31100 25.38100
C  49.49700 36.92200 25.31800
C  49.46500 40.08000 27.26200
C  50.59300 39.14500 24.24100
O  51.03300 38.68800 23.17600
C  50.78800 40.61700 24.51200
N  48.69900 33.94600 24.74100
C  49.24700 34.82700 23.89400
C  49.38800 34.26400 22.49100
C  48.90000 32.78300 22.72100
C  48.44200 32.75500 24.11800
C  48.62200 34.96600 21.29400
C  49.94000 31.67300 22.45900
C  51.27300 31.83200 23.13100
N  47.36300 32.62500 26.83000
C  47.28000 31.54000 25.96100
C  46.32800 30.61000 26.56800
C  46.02600 31.07300 27.87200
C  46.73900 32.32300 27.99200
C  45.78200 29.41400 25.95900
C  45.44100 30.70200 29.13800
O  44.75400 29.76400 29.43800
C  45.53500 32.06200 29.93900
C  45.69300 31.75500 31.35800
O  46.48500 30.93600 31.71900
O  44.80500 32.40800 32.12900
C  44.78900 31.94000 33.56400
H  48.21300 38.36100 29.28100
H  49.87900 36.71100 23.21800
H  47.51800 30.78300 24.04000
H  46.23500 34.63100 31.66700
H  47.91300 36.87700 31.30400
H  45.93900 38.06000 30.27100
H  45.91800 37.47400 31.88900
H  45.03700 36.48300 30.73800
H  49.08600 35.06500 31.80200
H  48.56300 33.43600 31.43700
H  49.07500 34.05400 33.78000
H  47.85400 32.96700 33.52200
H  48.97900 40.03700 28.23600
H  49.09300 40.85300 26.58900
H  50.47000 40.30100 27.62100
H  49.76800 40.92900 24.74000
H  50.91900 41.11300 23.55100
H  51.52900 40.96900 25.22900
H  50.42700 34.25600 22.16200
H  48.00800 32.71400 22.09700
H  48.12100 35.80100 21.78300
H  47.90900 34.33700 20.76200
H  49.29800 35.34400 20.52600
H  50.06400 31.66900 21.37700
H  49.55700 30.66400 22.61100
H  52.07300 32.06700 22.42900
H  51.66400 30.97400 23.67600
H  51.28500 32.57700 23.92700
H  45.77400 29.56900 24.88000
H  44.80200 29.08800 26.30800
H  46.48700 28.58600 26.03800
H  44.54700 32.51100 29.83500
H  44.40900 32.69800 34.24900
H  45.76100 31.70100 33.99600
H  44.26400 30.98900 33.65900

