158

Mg -2.00100 17.17100 25.80300
C  -2.70700 14.72500 28.49800
C  -2.28800 19.56400 28.12900
C  -1.96400 19.11100 23.29700
C  -2.66800 14.35700 23.61600
N  -2.49100 17.11600 28.10200
C  -2.51500 16.06900 28.96600
C  -2.50900 16.47000 30.39200
C  -2.68300 18.05500 30.26000
C  -2.48300 18.29700 28.74100
C  -4.10500 18.61100 30.64100
C  -1.23200 16.19100 31.31700
C  -0.91100 17.08600 32.48800
H  -0.61600 16.43400 33.82700
N  -2.03700 19.05600 25.73100
C  -2.18600 19.97600 26.72600
C  -2.30200 21.31400 26.27400
C  -2.21300 21.16500 24.85000
C  -2.05900 19.71600 24.57600
C  -2.59300 22.59600 27.18000
C  -2.23900 22.27900 23.76500
O  -2.12700 22.07400 22.55700
C  -2.30100 23.69700 24.24400
N  -2.40400 16.78900 23.73800
C  -2.09200 17.80200 22.91300
C  -2.06200 17.37300 21.38700
C  -2.48400 15.85800 21.49500
C  -2.42000 15.59700 23.03800
C  -3.04700 18.25300 20.65900
C  -1.52500 14.81000 20.67600
C  -2.17400 13.68300 19.81800
N  -2.46800 14.98100 25.97800
C  -2.70400 14.05300 24.97500
C  -2.92300 12.74000 25.52300
C  -2.90700 12.95700 26.95600
C  -2.73000 14.36700 27.11300
C  -2.96100 11.31700 24.83600
C  -2.90200 12.31500 28.19000
O  -3.06500 11.13500 28.48700
C  -3.05000 13.41300 29.26000
C  -2.08200 13.09100 30.33500
O  -0.91000 13.30100 30.21500
O  -2.69700 12.40200 31.35800
C  -1.79600 11.95400 32.37400
H  -2.10000 20.37300 28.83800
H  -1.96600 19.82000 22.46700
H  -2.76600 13.52500 22.91600
H  -3.37300 16.12400 30.95900
H  -1.94600 18.69300 30.74800
H  -4.52000 19.26700 29.87600
H  -4.10000 19.15300 31.58700
H  -4.72300 17.72000 30.74900
H  -0.31400 16.13700 30.73000
H  -1.31000 15.20300 31.77100
H  -1.83000 17.64400 32.66800
H  -0.19100 17.85800 32.21500
H  -1.98100 23.45000 26.88900
H  -2.43400 22.42000 28.24400
H  -3.63900 22.87300 27.04700
H  -2.52500 24.18100 23.29400
H  -1.35000 24.03800 24.65300
H  -3.06300 23.94100 24.98500
H  -1.02400 17.53200 21.09400
H  -3.45000 15.66500 21.02900
H  -3.99200 18.28700 21.20000
H  -3.18800 17.66400 19.75300
H  -2.64300 19.25300 20.50100
H  -0.99800 14.23600 21.43800
H  -0.86000 15.40500 20.05100
H  -2.11800 12.68600 20.25600
H  -1.85600 13.57500 18.78100
H  -3.25000 13.84800 19.85200
H  -3.12600 11.31100 23.75800
H  -3.74100 10.76500 25.36000
H  -2.00300 10.80000 24.89200
H  -4.05400 13.41700 29.68300
H  -0.87900 11.49100 32.00900
H  -2.27100 11.17400 32.96800
H  -1.42600 12.76300 33.00300
Mg -2.50900 34.33900 26.64500
C  -3.96200 32.60100 29.24100
C  -0.85400 36.28000 29.02200
C  -1.06100 35.98700 24.21300
C  -4.37100 32.47700 24.36500
N  -2.55500 34.41400 28.95400
C  -3.22300 33.62700 29.78500
C  -2.86700 33.84000 31.21900
C  -2.02600 35.24800 31.15100
C  -1.74100 35.35900 29.62200
C  -2.60400 36.51700 31.76800
C  -2.06500 32.68900 31.87000
C  -2.65000 32.15900 33.18900
H  -1.76600 32.32300 34.45400
N  -1.12600 35.91300 26.65900
C  -0.54200 36.51100 27.70900
C  0.40500 37.53000 27.21100
C  0.34000 37.48900 25.81400
C  -0.69500 36.46600 25.48300
C  1.24700 38.39700 28.12700
C  1.03700 38.37300 24.79600
O  0.80700 38.36400 23.59500
C  2.18200 39.25200 25.17500
N  -2.77900 34.29600 24.54700
C  -2.00800 35.05100 23.76400
C  -2.32100 34.82900 22.33600
C  -3.44800 33.74700 22.31200
C  -3.45800 33.40700 23.82200
C  -2.58700 36.05700 21.49200
C  -3.24900 32.52000 21.37000
C  -4.33500 32.03200 20.45000
N  -3.96400 32.93500 26.69400
C  -4.65900 32.28200 25.68600
C  -5.45900 31.23400 26.29800
C  -5.15200 31.27900 27.65700
C  -4.23500 32.35000 27.86600
C  -6.36100 30.17700 25.61100
C  -5.47000 30.62300 28.86400
O  -6.23600 29.71200 29.05800
C  -4.70000 31.40700 29.98200
C  -5.75500 31.87700 30.88800
O  -6.50200 32.80700 30.64100
O  -5.77800 31.14100 32.02200
C  -6.64700 31.58800 33.15700
H  -0.35500 36.81000 29.83600
H  -0.59900 36.58900 23.42800
H  -4.87700 31.84400 23.63300
H  -3.79000 34.01900 31.77000
H  -1.06800 35.07700 31.64100
H  -3.68100 36.68600 31.77100
H  -2.14500 37.38200 31.28900
H  -2.22600 36.70900 32.77200
H  -1.04500 32.93300 32.16700
H  -2.07900 31.84600 31.17900
H  -2.68200 31.07100 33.12000
H  -3.65200 32.54800 33.37100
H  1.28900 37.90400 29.09800
H  0.77700 39.37100 28.26000
H  2.25300 38.52100 27.72800
H  2.45000 39.89200 24.33500
H  2.97700 38.56500 25.46700
H  1.92300 39.94900 25.97200
H  -1.48400 34.33600 21.84000
H  -4.41700 34.20800 22.11900
H  -2.36200 36.95500 22.06700
H  -3.56900 36.02600 21.02000
H  -1.94100 35.80400 20.65100
H  -3.04400 31.62500 21.95700
H  -2.37900 32.69000 20.73600
H  -4.10400 32.33000 19.42700
H  -5.30200 32.35000 20.84000
H  -4.33000 30.94300 20.41300
H  -5.87600 29.23900 25.34000
H  -6.78000 30.56200 24.68100
H  -7.13000 29.89600 26.32900
H  -4.13900 30.66500 30.55100
H  -7.39900 32.23400 32.70500
H  -6.11800 32.19500 33.89200
H  -7.04500 30.67300 33.59700

