158

Mg 35.50000 2.50100 29.61500
C  33.34200 3.87100 32.13000
C  37.90800 2.39500 31.95900
C  37.67500 1.76400 27.22500
C  33.08700 3.44300 27.28700
N  35.61400 3.11700 31.79700
C  34.59200 3.51300 32.61400
C  35.03400 3.58100 34.06000
C  36.51400 3.36400 33.96900
C  36.71000 2.87900 32.47600
C  37.37600 4.64000 34.19900
C  34.15400 2.53100 34.81600
C  33.66100 2.93100 36.18600
H  34.26800 4.16200 36.90900
N  37.46400 1.99700 29.67700
C  38.27000 1.89200 30.73800
C  39.54900 1.37800 30.33200
C  39.53600 1.27100 28.88800
C  38.15000 1.70600 28.53100
C  40.71900 1.05700 31.30600
C  40.54300 0.72500 27.87500
O  40.33100 0.78500 26.68100
C  41.74400 0.10200 28.38700
N  35.38700 2.55000 27.58400
C  36.38700 2.18300 26.78300
C  35.90500 2.07700 25.30100
C  34.46700 2.60600 25.33100
C  34.26400 2.85700 26.80400
C  36.80700 2.84700 24.38900
C  33.39200 1.49400 25.00700
C  32.06600 1.93600 24.24700
N  33.61900 3.42800 29.58800
C  32.70800 3.69100 28.62600
C  31.50700 4.13300 29.12700
C  31.75100 4.31200 30.49800
C  33.01800 3.85400 30.74100
C  30.30200 4.40400 28.33200
C  31.05800 4.69700 31.69400
O  29.91700 5.10900 31.91100
C  32.08500 4.35900 32.87600
C  32.31000 5.54400 33.71400
O  33.04800 6.44100 33.31500
O  31.52300 5.54500 34.80900
C  31.32600 6.79200 35.51500
H  38.78600 2.31300 32.60300
H  38.27600 1.45700 26.36700
H  32.43000 3.80000 26.49100
H  34.84900 4.56800 34.48400
H  36.77500 2.63100 34.73300
H  36.77800 5.54300 34.32000
H  38.08200 4.82300 33.38900
H  37.87100 4.58700 35.16900
H  34.74600 1.62300 34.92800
H  33.39200 2.06700 34.19100
H  33.77200 2.03900 36.80200
H  32.57200 2.91200 36.23400
H  41.50600 1.76500 31.04700
H  41.15600 0.06400 31.19700
H  40.37500 1.24900 32.32200
H  41.47400 -0.83200 28.87900
H  42.25200 0.72000 29.12700
H  42.47600 -0.10300 27.60500
H  35.90600 1.07000 24.88300
H  34.36900 3.53900 24.77600
H  36.39700 3.84600 24.23800
H  36.84400 2.29200 23.45200
H  37.82600 2.92300 24.76900
H  33.15500 0.90100 25.89000
H  33.90900 0.78200 24.36400
H  31.98100 3.02200 24.28000
H  31.23900 1.59300 24.86900
H  31.94400 1.55700 23.23200
H  30.55500 5.14500 27.57400
H  29.56500 4.96600 28.90600
H  29.92200 3.52200 27.81600
H  31.50000 3.59900 33.39500
H  31.15200 7.59900 34.80300
H  32.20000 7.09300 36.09400
H  30.48200 6.80200 36.20500
Mg 41.99200 9.08500 29.69100
C  43.59200 10.10900 32.61300
C  39.65300 7.57100 31.61100
C  40.55900 7.90600 26.81600
C  44.75200 10.05400 27.83600
N  41.70400 8.77900 31.82800
C  42.33400 9.46200 32.79400
C  41.72900 9.19300 34.17900
C  40.75800 8.04300 33.85000
C  40.63900 8.23900 32.32200
C  41.15700 6.66200 34.30000
C  41.15300 10.46400 34.87900
C  41.07600 10.59900 36.41300
H  41.26600 11.94300 37.07100
N  40.27500 8.00900 29.27600
C  39.42400 7.39900 30.25900
C  38.30300 6.73300 29.56800
C  38.48700 7.05200 28.14100
C  39.84100 7.71700 28.02600
C  37.29700 5.86800 30.33700
C  37.60900 6.55700 27.01800
O  37.79200 6.76000 25.80700
C  36.34400 5.74000 27.37700
N  42.52100 8.98700 27.63800
C  41.83600 8.44600 26.65100
C  42.56100 8.47900 25.28000
C  43.91500 9.25700 25.69200
C  43.67200 9.56500 27.17100
C  42.90400 7.11300 24.67000
C  44.05800 10.59900 24.93100
C  43.14100 11.76900 25.24500
N  43.85800 9.96300 30.11600
C  44.83300 10.27700 29.25600
C  45.80200 11.09300 29.99400
C  45.33400 11.12300 31.34400
C  44.21400 10.31900 31.32800
C  47.00300 11.75500 29.50400
C  45.50800 11.54800 32.73900
O  46.31000 12.34100 33.18500
C  44.45100 10.90100 33.64000
C  44.97100 10.03200 34.73500
O  45.72100 9.10100 34.55500
O  44.48800 10.48400 35.96900
C  45.12400 9.91600 37.10800
H  38.96200 7.25100 32.39400
H  40.18000 7.45400 25.89700
H  45.57500 10.47000 27.25200
H  42.57300 8.84000 34.77100
H  39.81200 8.20700 34.36600
H  40.37300 6.26200 34.94300
H  42.18200 6.57500 34.66100
H  41.13500 6.05600 33.39400
H  40.11500 10.50800 34.55000
H  41.73900 11.29500 34.48600
H  41.64300 9.76100 36.81900
H  40.02800 10.38700 36.62600
H  37.32700 4.79200 30.17100
H  36.28200 6.20900 30.13200
H  37.54900 5.90600 31.39700
H  36.59200 4.75200 27.76500
H  35.78700 5.54700 26.46000
H  35.64400 6.19500 28.07800
H  42.01600 9.08400 24.55500
H  44.78800 8.61800 25.56100
H  43.97200 6.92700 24.56100
H  42.39400 7.12700 23.70700
H  42.50600 6.31100 25.29200
H  43.99000 10.37700 23.86700
H  45.09200 10.93000 25.02400
H  42.29500 11.46500 25.86000
H  42.66900 12.26300 24.39600
H  43.78600 12.51800 25.70400
H  46.76200 12.73100 29.08300
H  47.60800 11.17400 28.80800
H  47.67300 12.04000 30.31500
H  43.98200 11.79700 34.04500
H  46.15400 9.58400 36.98200
H  44.60300 8.99400 37.36600
H  45.20900 10.57600 37.97100

