158

Mg 0.72700 7.75400 26.84600
C  1.54200 9.71100 29.66000
C  0.65100 5.05900 28.84500
C  0.46900 5.93100 24.09300
C  1.38300 10.58900 24.75700
N  1.04800 7.45700 29.01500
C  1.31700 8.35200 30.02800
C  1.22800 7.75200 31.44700
C  1.27600 6.18900 31.09400
C  0.99600 6.25300 29.50400
C  2.69500 5.51300 31.25300
C  -0.15600 8.27100 31.96400
C  -0.37200 8.60600 33.48000
H  0.67500 8.23300 34.51200
N  0.55000 5.86300 26.51300
C  0.51500 4.85800 27.46700
C  0.15200 3.55400 26.88000
C  0.22200 3.80600 25.49600
C  0.39600 5.21600 25.29100
C  -0.25600 2.32700 27.71000
C  -0.23100 2.84100 24.41700
O  -0.48100 3.11300 23.23700
C  -0.41300 1.34800 24.76500
N  0.77100 8.20900 24.74100
C  0.63900 7.27000 23.79400
C  0.76200 7.80600 22.37300
C  0.67600 9.36600 22.68200
C  0.98100 9.38200 24.16800
C  2.03900 7.36300 21.63000
C  -0.73000 9.95400 22.38100
C  -0.87100 11.44800 22.10800
N  1.32200 9.77500 27.12600
C  1.58000 10.80700 26.17700
C  1.94900 12.05300 26.85600
C  2.01600 11.65300 28.24200
C  1.54900 10.32400 28.34900
C  2.05100 13.48500 26.23000
C  2.18700 12.14400 29.66600
O  2.45200 13.26500 30.10100
C  1.84100 10.91900 30.54800
C  2.77200 10.84100 31.77100
O  3.86800 10.23400 31.75000
O  2.29200 11.48700 32.85800
C  3.26600 11.85300 33.92700
H  0.60800 4.21500 29.53600
H  0.62000 5.34100 23.18700
H  1.59400 11.39200 24.04600
H  2.11600 8.01200 32.02400
H  0.58100 5.57500 31.66700
H  2.73600 5.03300 32.23000
H  3.32800 6.39900 31.29200
H  3.00700 4.83700 30.45700
H  -0.83600 7.42600 31.86100
H  -0.52100 9.07600 31.32600
H  -1.32300 8.17600 33.79500
H  -0.34000 9.69500 33.49400
H  -0.96800 1.62500 27.27600
H  -0.79100 2.84200 28.50800
H  0.72300 1.92600 27.97400
H  0.40300 1.00600 25.40200
H  -0.36200 0.80000 23.82400
H  -1.39300 1.18500 25.21200
H  -0.08000 7.57900 21.71900
H  1.46100 9.87200 22.12100
H  2.47800 8.13500 20.99600
H  1.81700 6.52600 20.96800
H  2.75000 6.94100 22.34000
H  -1.39200 9.73400 23.21800
H  -1.08800 9.37900 21.52800
H  -0.88500 11.63800 21.03400
H  0.04300 11.79500 22.58900
H  -1.79500 11.90800 22.46000
H  1.94200 13.58800 25.15000
H  2.91900 14.00000 26.64100
H  1.16900 13.93700 26.68500
H  0.81100 11.12300 30.84200
H  4.32100 11.64000 33.75300
H  2.93400 11.48100 34.89600
H  3.26300 12.93800 34.02500
Mg 48.17300 16.72500 28.92000
C  46.23100 16.39900 31.93400
C  50.29000 18.52800 30.63800
C  49.48500 17.48700 26.08500
C  45.41400 15.27300 27.19800
N  48.24200 17.38900 31.00700
C  47.45400 17.03500 32.07700
C  48.01200 17.56000 33.44800
C  49.11300 18.56700 32.84900
C  49.19800 18.16700 31.40000
C  48.83600 20.07200 32.97600
C  48.62700 16.47300 34.38000
C  48.16200 16.48600 35.89800
H  47.76000 17.84700 36.54200
N  49.73900 17.71800 28.44600
C  50.59400 18.32000 29.29500
C  51.77200 18.75900 28.63300
C  51.56900 18.49900 27.30000
C  50.22200 17.86300 27.22600
C  53.07400 19.11400 29.35400
C  52.49900 18.84100 26.12400
O  52.25400 18.51400 25.00800
C  53.81700 19.44600 26.26400
N  47.48200 16.53700 26.90400
C  48.27500 16.86100 25.86500
C  47.72600 16.46800 24.46000
C  46.47500 15.60800 24.92200
C  46.46800 15.80300 26.42900
C  47.34900 17.62900 23.70000
C  46.47200 14.10500 24.51500
C  45.85800 13.66600 23.13200
N  46.20200 15.91500 29.41900
C  45.20700 15.42300 28.56800
C  44.08300 15.01300 29.42700
C  44.46800 15.29400 30.70400
C  45.73100 15.82300 30.68800
C  42.70900 14.53400 28.97600
C  44.05100 15.27100 32.12600
O  43.03700 14.88400 32.64300
C  45.14600 15.97100 32.92300
C  44.49100 17.04500 33.69300
O  44.24200 18.11200 33.19000
O  44.01000 16.56600 34.95600
C  43.16200 17.53600 35.73800
H  51.00700 19.12500 31.20600
H  50.04200 17.73100 25.17700
H  44.56500 14.72000 26.79000
H  47.22700 18.16400 33.90200
H  50.09100 18.50700 33.32600
H  49.59200 20.58800 33.56900
H  47.87800 20.20900 33.47700
H  48.85700 20.46500 31.96000
H  49.71200 16.57500 34.35700
H  48.38300 15.52200 33.90700
H  48.91500 16.02300 36.53700
H  47.27400 15.85800 35.96800
H  53.87200 18.43200 29.06000
H  52.98800 19.01900 30.43600
H  53.37700 20.14100 29.14500
H  53.71700 20.25500 26.98700
H  54.20000 19.67100 25.26800
H  54.61400 18.77600 26.58700
H  48.60800 15.97300 24.05400
H  45.56000 16.06700 24.54800
H  46.34100 17.56900 23.29100
H  48.03600 17.67800 22.85400
H  47.47900 18.55300 24.26400
H  46.16900 13.59500 25.42900
H  47.54500 13.94400 24.41800
H  46.50700 13.08300 22.47900
H  45.35100 14.51000 22.66600
H  45.06400 12.93400 23.28000
H  42.25700 15.21100 28.25100
H  42.06500 14.40700 29.84700
H  42.75400 13.54000 28.53200
H  45.81600 15.34300 33.51100
H  42.12400 17.37400 35.44600
H  43.45700 18.56900 35.55500
H  43.14700 17.28500 36.79900

