158

Mg 56.36100 24.13300 44.84100
C  54.35400 26.88800 44.11900
C  53.73500 22.03800 44.33000
C  58.55900 21.54500 45.16000
C  58.93300 26.36600 45.50500
N  54.36800 24.40200 44.02300
C  53.76700 25.64200 43.86900
C  52.32600 25.37700 43.40100
C  52.07700 23.95600 43.90100
C  53.42400 23.38200 44.07000
C  51.21300 23.82500 45.19700
C  52.16300 25.56300 41.84800
C  50.86200 26.06800 41.35000
H  50.34900 25.38400 40.04200
N  56.20300 22.04500 44.61600
C  54.99900 21.37800 44.46100
C  55.24700 19.97400 44.47700
C  56.65200 19.80100 44.64300
C  57.23400 21.17400 44.80000
C  54.12900 18.85900 44.31000
C  57.35100 18.33200 44.57800
O  56.69600 17.35900 44.24100
C  58.85200 18.25000 44.70000
N  58.55400 24.03300 44.95800
C  59.15700 22.83900 45.29600
C  60.55100 23.04900 45.88100
C  60.75800 24.57500 45.94000
C  59.35600 25.08700 45.40700
C  60.72200 22.34000 47.21900
C  61.92100 25.14300 45.12500
C  63.14900 25.63600 45.95700
N  56.71300 26.19600 44.77800
C  57.72400 26.91400 45.23400
C  57.36800 28.34400 45.23900
C  56.02900 28.34100 44.82500
C  55.67900 27.02500 44.54000
C  58.12600 29.56500 45.61600
C  54.86400 29.20100 44.48400
O  54.77200 30.42400 44.57900
C  53.73500 28.25700 43.85900
C  53.76900 28.50300 42.38100
O  54.69800 28.20400 41.58400
O  52.62400 29.12200 41.98300
C  52.47500 29.27700 40.51200
H  52.90100 21.35100 44.16800
H  59.27000 20.72400 45.27300
H  59.74100 27.01200 45.85600
H  51.60300 26.04900 43.86300
H  51.62600 23.37400 43.09700
H  50.38000 23.12800 45.11400
H  50.69100 24.76500 45.37700
H  51.83100 23.64100 46.07600
H  52.12300 24.56900 41.40300
H  52.96300 26.10400 41.34200
H  50.97900 27.14500 41.23400
H  50.03600 25.91200 42.04400
H  54.44800 18.34100 43.40600
H  53.13700 19.30600 44.37600
H  54.20000 18.10800 45.09600
H  59.16100 19.03300 44.00800
H  59.20100 17.31800 44.25600
H  59.23400 18.41600 45.70800
H  61.24600 22.63900 45.14800
H  60.78200 24.95900 46.96000
H  59.77200 21.85900 47.45600
H  60.99100 22.97200 48.06600
H  61.43400 21.51600 47.16200
H  61.65200 26.03300 44.55600
H  62.27500 24.34100 44.47700
H  63.05700 25.32500 46.99700
H  63.10800 26.72500 45.94500
H  64.08000 25.23900 45.55200
H  58.11700 30.13500 44.68700
H  59.13000 29.41200 46.01300
H  57.59100 30.12600 46.38300
H  52.78700 28.44700 44.36200
H  52.85000 28.38400 40.01100
H  53.13600 30.08000 40.18800
H  51.40500 29.34700 40.31500
Mg 9.13500 48.59300 26.02200
C  7.07900 48.95100 28.90700
C  11.76500 49.86300 27.80000
C  11.00700 48.59000 23.16600
C  6.13800 48.33700 24.04200
N  9.28700 49.21800 28.16700
C  8.41900 49.25100 29.17100
C  9.05100 49.55600 30.51000
C  10.41300 50.22000 30.02500
C  10.50900 49.73500 28.57500
C  10.41800 51.79400 30.08600
C  9.20700 48.27100 31.36900
C  8.81700 48.49000 32.85900
H  8.50000 47.32600 33.77200
N  11.16100 48.83500 25.60800
C  12.07300 49.40200 26.50300
C  13.38300 49.28700 25.90500
C  13.20000 48.76600 24.59200
C  11.73500 48.73800 24.40100
C  14.67800 49.65700 26.61600
C  14.20200 48.30500 23.52900
O  13.84400 47.84300 22.44400
C  15.66100 48.21300 23.91000
N  8.61500 48.75000 23.89000
C  9.61900 48.60200 22.93800
C  9.06000 47.97200 21.64200
C  7.49100 47.90300 21.88300
C  7.37400 48.51500 23.32600
C  9.44900 48.59100 20.25800
C  6.86800 46.46400 21.73800
C  7.45100 45.41400 22.72900
N  7.09300 48.56200 26.36300
C  6.02800 48.38200 25.44100
C  4.78900 48.36700 26.16600
C  5.15900 48.52900 27.55500
C  6.55900 48.58800 27.61800
C  3.40800 48.44800 25.61200
C  4.59600 48.71300 28.90000
O  3.40300 48.82800 29.10900
C  5.85100 48.94600 29.83900
C  5.70800 47.86600 30.89500
O  6.16700 46.73800 30.71200
O  4.96600 48.26200 31.94500
C  4.36300 47.17300 32.76800
H  12.61200 50.30300 28.33000
H  11.64000 48.60800 22.27600
H  5.22400 48.29900 23.44600
H  8.41200 50.31200 30.96600
H  11.24300 49.91400 30.66200
H  9.51300 52.08600 30.61900
H  10.44100 52.27300 29.10700
H  11.32600 51.99500 30.65400
H  10.27900 48.11600 31.24100
H  8.85700 47.34500 30.91400
H  7.87600 49.03300 32.76800
H  9.67900 48.95900 33.33300
H  15.25400 50.50300 26.24100
H  15.22000 48.72100 26.48300
H  14.56700 49.61200 27.69900
H  16.30800 47.69900 23.19900
H  15.82400 47.60100 24.79700
H  16.09700 49.20000 24.06700
H  9.33300 46.92500 21.51200
H  6.94100 48.60100 21.25200
H  10.22700 49.31600 20.49700
H  8.55400 49.11200 19.91900
H  9.61600 47.82300 19.50200
H  7.00100 46.13900 20.70600
H  5.78300 46.56500 21.75000
H  7.53100 45.85300 23.72300
H  8.37700 45.07600 22.26300
H  6.80800 44.53500 22.77300
H  3.08700 49.48900 25.61700
H  2.72700 47.87900 26.24500
H  3.45300 48.16900 24.55900
H  5.90900 49.91000 30.34300
H  3.50000 46.92000 32.15100
H  3.89500 47.49300 33.69900
H  4.98700 46.30200 32.97100

