158

Mg 35.70800 0.34600 30.20900
C  33.49300 1.78100 32.39800
C  38.10800 0.57100 32.82700
C  38.25700 -0.63500 28.08000
C  33.69700 0.86300 27.42600
N  35.74000 1.06100 32.31000
C  34.64500 1.49700 33.03800
C  34.92600 1.61000 34.49900
C  36.59800 1.67400 34.48900
C  36.87000 1.01000 33.13500
C  37.32000 3.09900 34.69000
C  34.36700 0.45500 35.32300
C  33.38500 0.83700 36.41400
H  33.59200 2.13800 37.22400
N  37.85800 -0.16000 30.47800
C  38.58100 0.00500 31.59800
C  39.97500 -0.42500 31.34800
C  39.94200 -0.98400 30.02200
C  38.66000 -0.53900 29.44100
C  41.06700 -0.45100 32.37300
C  40.98900 -1.72800 29.17700
O  40.79900 -2.13800 28.00600
C  42.26400 -2.09200 29.87300
N  36.08300 0.51100 27.97100
C  37.12400 -0.11400 27.41100
C  36.95800 -0.28700 25.89100
C  35.40300 0.10000 25.63600
C  35.03200 0.48400 27.11500
C  37.87200 0.52100 25.06000
C  34.47000 -0.97600 25.15700
C  33.43800 -0.52500 24.06500
N  33.95800 1.14000 29.87100
C  33.19200 1.20100 28.74700
C  31.85500 1.71800 29.06300
C  31.93600 1.93900 30.48200
C  33.23200 1.58600 30.94400
C  30.77200 1.87200 28.12100
C  31.26000 2.46400 31.61900
O  30.16600 2.95100 31.71500
C  32.20300 2.35000 32.88000
C  32.30400 3.61800 33.58000
O  33.05800 4.54400 33.27400
O  31.39400 3.76400 34.47800
C  31.35500 5.02800 35.29200
H  38.89600 0.56100 33.58200
H  38.81800 -1.23700 27.36100
H  32.97000 0.76700 26.61700
H  34.39900 2.49500 34.85600
H  36.99000 1.02900 35.27600
H  37.93500 3.51000 33.89000
H  37.85300 3.03000 35.63800
H  36.52500 3.81500 34.90100
H  35.13100 -0.09100 35.87600
H  33.63900 -0.09300 34.72400
H  33.47400 0.07600 37.19000
H  32.35900 0.81700 36.04800
H  41.26900 -1.52100 32.41000
H  40.66400 -0.21400 33.35800
H  41.96100 0.14200 32.18000
H  42.71100 -1.12200 30.08800
H  42.84900 -2.49200 29.04400
H  42.02600 -2.65600 30.77400
H  37.04600 -1.31100 25.52900
H  35.36600 0.98400 24.99900
H  38.82600 -0.00800 25.05300
H  37.92900 1.55500 25.40000
H  37.47400 0.49300 24.04600
H  34.04000 -1.41300 26.05700
H  35.02100 -1.82700 24.75800
H  32.46800 -0.74200 24.51200
H  33.52700 -1.17500 23.19400
H  33.29700 0.54300 23.90000
H  30.73500 0.88000 27.67200
H  31.06600 2.67500 27.44500
H  29.83400 2.06900 28.64100
H  31.74600 1.72500 33.64800
H  30.66300 5.85400 35.12900
H  32.34100 5.48300 35.38900
H  31.04600 4.66400 36.27100
Mg 6.17600 53.84000 40.58200
C  5.76700 50.48100 40.37200
C  9.58800 53.24300 40.02100
C  6.63100 57.09400 40.30700
C  2.82600 54.31100 41.27900
N  7.45000 51.99000 39.90200
C  7.05500 50.74600 39.91300
C  8.21400 49.81700 39.71700
C  9.51800 50.68700 39.98500
C  8.80800 52.06900 39.95500
C  10.39700 50.39400 41.22800
C  8.09200 49.14800 38.33500
C  7.83300 50.04800 37.10100
H  6.61100 49.66800 36.27100
N  7.84100 55.01400 40.20700
C  9.16600 54.61500 39.97300
C  10.04200 55.68700 39.83200
C  9.22000 56.87400 40.01200
C  7.82600 56.38200 40.13100
C  11.48200 55.51700 39.47000
C  9.67400 58.31300 40.09500
O  10.81800 58.56100 39.75900
C  8.83800 59.47100 40.25200
N  4.81500 55.46100 40.48900
C  5.31500 56.71400 40.61100
C  4.20000 57.74200 40.97600
C  2.92700 56.83300 40.94600
C  3.59200 55.46300 40.94300
C  4.35100 58.69000 42.11700
C  1.92000 57.02500 39.75000
C  0.55800 56.47000 39.91400
N  4.54200 52.66000 40.61900
C  3.30300 52.95500 41.09600
C  2.54000 51.75700 41.34000
C  3.47000 50.78700 41.07500
C  4.69300 51.37600 40.58700
C  1.13200 51.53500 41.83600
C  3.68900 49.34300 41.05300
O  2.91400 48.42100 41.41000
C  5.02400 49.10700 40.43000
C  4.67100 48.37300 39.14500
O  4.17200 48.88100 38.13500
O  4.91500 47.01200 39.24900
C  4.44900 46.24700 38.12500
H  10.66000 53.03900 39.98000
H  6.73500 58.18100 40.32800
H  1.75200 54.39900 41.45900
H  7.96400 49.12300 40.51900
H  10.16500 50.62900 39.11000
H  10.49400 51.33700 41.76600
H  11.34000 49.92600 40.94500
H  9.77100 49.73900 41.83400
H  7.34500 48.35700 38.28000
H  9.03500 48.68100 38.05000
H  8.66500 49.97700 36.40200
H  7.83500 51.08900 37.42600
H  11.62100 55.45400 38.39100
H  11.91500 54.68500 40.02500
H  12.05500 56.39300 39.77500
H  8.06800 59.71400 39.52000
H  9.60500 60.24100 40.32600
H  8.30400 59.47700 41.20200
H  4.20600 58.42300 40.12500
H  2.35000 56.77100 41.86900
H  3.55100 58.59200 42.85100
H  4.31600 59.66000 41.62100
H  5.27100 58.50100 42.67100
H  2.35600 56.44400 38.93800
H  1.94400 58.06700 39.43000
H  -0.18900 57.16300 39.52700
H  0.23100 56.32300 40.94400
H  0.53100 55.54000 39.34500
H  0.41300 51.87100 41.08900
H  0.81100 52.02400 42.75600
H  0.99600 50.47000 42.02500
H  5.58600 48.42600 41.06900
H  5.00000 45.30800 38.19200
H  4.55700 46.73800 37.15800
H  3.38800 46.02800 38.24300

