158

Mg 17.33000 -0.54700 27.70500
C  15.97100 1.35800 30.31400
C  19.02900 -2.40400 29.97900
C  18.90600 -2.11500 25.13700
C  15.47200 1.34000 25.53900
N  17.36200 -0.54600 29.90300
C  16.80100 0.31300 30.78800
C  17.12500 -0.00800 32.22700
C  18.16900 -1.03700 32.10000
C  18.21200 -1.37700 30.58700
C  19.61100 -0.70600 32.66200
C  15.87700 -0.33300 33.08900
C  15.89200 0.27200 34.44000
H  17.22800 0.60700 34.98100
N  18.70700 -2.14100 27.55500
C  19.26100 -2.76800 28.62400
C  20.16200 -3.80700 28.16600
C  20.19200 -3.69100 26.76800
C  19.26400 -2.63400 26.42700
C  20.90000 -4.73400 29.17200
C  20.98300 -4.52000 25.71500
O  20.95300 -4.23200 24.49500
C  21.83600 -5.65100 26.17400
N  17.25200 -0.33000 25.66100
C  18.04000 -1.06500 24.80200
C  17.89400 -0.56600 23.35900
C  16.64100 0.32900 23.52600
C  16.38800 0.45700 24.98700
C  19.12600 0.13500 22.78200
C  15.33400 0.12800 22.66300
C  14.09500 -0.44400 23.33300
N  15.98400 1.06700 27.79800
C  15.27500 1.71400 26.84700
C  14.57200 2.85500 27.41500
C  14.86100 2.83500 28.81000
C  15.59200 1.60500 28.96200
C  13.58100 3.82300 26.76300
C  14.70400 3.48200 30.04000
O  14.06700 4.49500 30.34400
C  15.39600 2.51000 31.07600
C  16.37000 3.29400 31.91600
O  17.61800 3.31900 31.71300
O  15.74200 3.83100 33.03500
C  16.55000 4.58500 33.98100
H  19.63300 -2.90700 30.73700
H  19.39500 -2.58100 24.27900
H  14.91200 1.85200 24.75400
H  17.57200 0.92200 32.58000
H  17.84900 -1.94000 32.62000
H  19.88600 0.34600 32.72700
H  20.39400 -1.27200 32.15700
H  19.67500 -1.09100 33.68000
H  15.79200 -1.40200 33.28500
H  15.04300 0.08500 32.52600
H  15.38800 -0.49200 35.03000
H  15.13500 1.05500 34.38300
H  21.15200 -4.33100 30.15300
H  21.75800 -5.14100 28.63800
H  20.31700 -5.61900 29.42700
H  21.15900 -6.20200 26.82700
H  22.61200 -5.12800 26.73400
H  22.14100 -6.25200 25.31700
H  17.53600 -1.42000 22.78300
H  16.93100 1.30500 23.13900
H  19.87400 0.21700 23.57100
H  18.79200 1.13800 22.52000
H  19.44500 -0.40400 21.89000
H  15.55100 -0.66900 21.95300
H  15.01200 1.00600 22.10300
H  13.50500 0.37500 23.74300
H  14.35700 -1.21800 24.05400
H  13.50600 -0.95300 22.56900
H  14.17200 4.62200 26.31600
H  12.69500 4.19500 27.27600
H  13.14400 3.30500 25.90900
H  14.60700 2.18500 31.75500
H  16.23700 5.62800 34.03100
H  17.62700 4.49900 33.83800
H  16.21200 4.20200 34.94400
Mg 16.16800 51.80200 26.43300
C  18.22600 50.94100 29.11000
C  13.72200 52.77200 28.53100
C  14.50200 52.82600 23.72500
C  18.78400 50.68700 24.25000
N  15.99500 51.93200 28.65200
C  16.96500 51.45300 29.51000
C  16.49800 51.70800 30.97600
C  14.92900 51.98400 30.73300
C  14.81000 52.19800 29.21200
C  14.08600 50.80100 31.16700
C  17.30800 52.87200 31.58900
C  17.67800 52.69300 33.08800
H  16.80400 51.99800 34.11900
N  14.35500 52.73500 26.21400
C  13.48600 53.06300 27.17500
C  12.29500 53.61500 26.54800
C  12.50500 53.67600 25.07900
C  13.81100 53.02900 24.96400
C  11.07000 54.07100 27.41900
C  11.61500 54.31500 24.08200
O  11.84400 54.35000 22.86900
C  10.38000 54.93700 24.45300
N  16.65900 51.86600 24.38800
C  15.75200 52.33200 23.47100
C  16.30200 52.33800 22.02500
C  17.79500 51.84700 22.19300
C  17.80700 51.45500 23.71300
C  15.44400 51.43900 21.05700
C  18.79800 52.82300 21.58800
C  19.85000 53.51100 22.52900
N  17.96400 50.68200 26.62900
C  18.88900 50.29100 25.60400
C  20.01900 49.69700 26.27600
C  19.80700 49.93300 27.64600
C  18.56400 50.58700 27.81200
C  21.23300 48.99400 25.55800
C  20.32200 49.85000 28.94300
O  21.40900 49.42700 29.24700
C  19.32100 50.47200 29.96100
C  18.97400 49.40800 30.89900
O  18.37600 48.41400 30.61400
O  19.47200 49.64400 32.07500
C  19.28800 48.55600 33.09100
H  12.97000 53.04500 29.27500
H  13.87600 53.05200 22.85900
H  19.52200 50.25500 23.57100
H  16.53000 50.81400 31.59800
H  14.61700 52.88100 31.26900
H  14.59100 50.06800 31.79700
H  13.53600 50.28100 30.38300
H  13.33700 51.29600 31.78400
H  16.61700 53.71500 31.60200
H  18.18700 52.96800 30.95200
H  17.80100 53.74100 33.36100
H  18.61600 52.13900 33.13000
H  10.19000 53.56200 27.02600
H  10.84800 55.12300 27.23700
H  11.14000 53.94300 28.49900
H  9.78900 55.28700 23.60700
H  10.58200 55.85000 25.01300
H  9.81600 54.15000 24.95400
H  16.32300 53.37500 21.69100
H  17.85600 50.86000 21.73300
H  16.06300 50.82300 20.40500
H  14.81900 52.01100 20.37200
H  14.86600 50.80000 21.72500
H  18.30500 53.56100 20.95600
H  19.33200 52.26400 20.81900
H  20.23000 52.85100 23.30800
H  19.60700 54.47700 22.97000
H  20.67300 53.70700 21.84200
H  21.50100 49.58900 24.68500
H  20.78100 48.04900 25.25600
H  22.11300 48.93500 26.19800
H  19.83700 51.34500 30.36000
H  19.83900 47.62400 32.96500
H  18.36600 47.97600 33.12900
H  19.47600 49.07000 34.03400

