158

Mg 0.05100 6.89300 26.79700
C  1.22200 9.35500 29.14800
C  0.05000 4.58100 29.31200
C  -0.60800 4.65400 24.49400
C  0.44300 9.35400 24.25400
N  0.65000 6.97500 28.95000
C  0.89400 8.09000 29.68000
C  0.88800 7.73100 31.15200
C  0.84100 6.15800 31.19300
C  0.49300 5.86100 29.72200
C  2.08200 5.45200 31.67800
C  -0.42300 8.38600 31.78500
C  -0.42800 8.29800 33.34000
H  0.81300 7.91000 34.16400
N  -0.36600 4.83600 26.89700
C  -0.27100 4.12300 28.01100
C  -0.63800 2.78300 27.73200
C  -0.86800 2.71700 26.28500
C  -0.53700 4.11000 25.81900
C  -0.70500 1.73400 28.78400
C  -1.21800 1.58000 25.44500
O  -1.21300 1.63700 24.17200
C  -1.52600 0.20600 26.03300
N  -0.02900 7.02600 24.65600
C  -0.44300 5.95800 23.98400
C  -0.58900 6.30200 22.52800
C  -0.35900 7.80600 22.36100
C  0.04600 8.13500 23.82200
C  0.26100 5.36200 21.63100
C  -1.64400 8.66100 21.94600
C  -1.33400 10.00400 21.28100
N  0.79300 8.83500 26.64300
C  0.88400 9.73500 25.54100
C  1.33400 11.05000 26.02000
C  1.41900 10.93600 27.39700
C  1.11000 9.58700 27.74200
C  1.49900 12.37300 25.20600
C  1.80800 11.64000 28.62400
O  2.27400 12.76900 28.79400
C  1.69200 10.59200 29.76000
C  2.92400 10.65600 30.56100
O  3.94800 10.03600 30.32900
O  2.74300 11.35300 31.79000
C  3.80300 11.36800 32.79700
H  0.06600 3.93300 30.19000
H  -0.90800 3.99200 23.67900
H  0.47400 10.10400 23.46100
H  1.81200 8.10700 31.59300
H  0.01500 5.80600 31.81000
H  1.89000 5.07200 32.68100
H  2.95000 6.11100 31.68600
H  2.20700 4.52400 31.12000
H  -1.26100 7.78000 31.43900
H  -0.65100 9.43200 31.58100
H  -1.20400 7.59900 33.65200
H  -0.76900 9.28300 33.65700
H  -1.68200 1.85800 29.25100
H  -0.01600 2.00100 29.58600
H  -0.45000 0.84200 28.21300
H  -1.85800 -0.44800 25.22700
H  -2.28100 0.22000 26.82000
H  -0.56400 -0.17000 26.38200
H  -1.61500 6.16500 22.18600
H  0.43700 7.99000 21.63900
H  0.80300 4.61300 22.20800
H  0.90600 6.03000 21.06000
H  -0.43300 4.86900 20.95000
H  -2.17900 8.89700 22.86600
H  -2.18700 7.99800 21.27300
H  -1.50100 10.84700 21.95200
H  -1.85800 10.07700 20.32800
H  -0.26600 9.99400 21.06200
H  1.45900 12.25700 24.12300
H  2.46900 12.77700 25.49600
H  0.77000 13.14500 25.45200
H  0.82900 10.97300 30.30700
H  4.48500 12.13900 32.43800
H  4.41300 10.49100 33.01400
H  3.38300 11.71800 33.74000
Mg 25.74900 1.04700 28.80000
C  27.64500 0.63900 31.57000
C  23.04300 1.22200 30.83100
C  23.83900 1.12400 26.05800
C  28.61200 0.02300 26.85200
N  25.40900 0.95000 30.97300
C  26.32000 0.82300 31.96600
C  25.69400 0.80500 33.36700
C  24.11800 1.00400 33.08200
C  24.15100 1.14200 31.54000
C  23.19700 -0.11800 33.66400
C  26.27600 1.96300 34.26600
C  25.56300 2.01000 35.61300
H  26.42700 1.77900 36.83100
N  23.74800 1.10100 28.50700
C  22.77300 1.27100 29.46300
C  21.48400 1.44300 28.81100
C  21.69200 1.41600 27.38900
C  23.17300 1.27500 27.27200
C  20.18400 1.44200 29.58100
C  20.68300 1.56200 26.24300
O  20.98200 1.42200 25.05100
C  19.22800 1.93600 26.54500
N  26.13500 0.45100 26.79700
C  25.23700 0.81100 25.88300
C  25.88000 0.94100 24.50600
C  27.30700 0.55700 24.73300
C  27.38600 0.42800 26.20900
C  25.14800 0.02300 23.36700
C  28.39300 1.57200 24.11000
C  29.14300 1.16000 22.77500
N  27.74100 0.51900 29.05900
C  28.73800 0.09200 28.21100
C  29.92100 -0.19400 29.00100
C  29.50200 0.04200 30.34500
C  28.19300 0.46000 30.31700
C  31.27500 -0.58700 28.49200
C  29.99700 0.01000 31.69800
O  31.09900 -0.30900 32.12000
C  28.78300 0.33800 32.63700
C  28.45100 -0.90900 33.41200
O  27.93500 -1.97700 33.01600
O  28.94600 -0.69700 34.73000
C  28.51500 -1.57000 35.79500
H  22.16800 1.40500 31.45700
H  23.29800 1.10500 25.10900
H  29.54600 -0.27100 26.36800
H  25.92000 -0.21100 33.69200
H  23.90600 1.94200 33.59600
H  22.94100 -0.84800 32.89600
H  22.31500 0.39500 34.05000
H  23.71100 -0.66500 34.45300
H  26.06700 2.85000 33.66800
H  27.35300 1.93100 34.43000
H  24.84000 1.19400 35.65100
H  24.98000 2.92700 35.69300
H  19.38400 1.10400 28.92300
H  19.90100 2.46600 29.82500
H  20.27500 0.93400 30.54200
H  18.78100 1.04300 26.98200
H  18.68900 2.18900 25.63200
H  19.21600 2.76800 27.25000
H  25.77400 2.00700 24.30600
H  27.53600 -0.40900 24.28500
H  24.38100 -0.56200 23.87400
H  25.84000 -0.56200 22.76000
H  24.66200 0.65700 22.62600
H  29.21800 1.62700 24.82100
H  27.91000 2.52900 23.91000
H  28.48300 0.34800 22.47000
H  30.16500 0.84100 22.98100
H  29.03500 1.92300 22.00400
H  32.02900 -0.30400 29.22500
H  31.49200 -0.08100 27.55200
H  31.33700 -1.66400 28.33500
H  28.93000 1.12600 33.37600
H  28.56700 -2.59700 35.43300
H  27.46400 -1.35100 35.98200
H  29.09400 -1.45500 36.71200

