158

Mg -2.42900 17.02000 26.14100
C  -2.84200 14.72900 28.74100
C  -2.94700 19.61800 28.31400
C  -2.23000 19.15900 23.53200
C  -2.55300 14.37900 23.80600
N  -2.69400 17.12100 28.31900
C  -2.79400 16.07900 29.19600
C  -2.78500 16.56900 30.69900
C  -2.90400 18.16000 30.49900
C  -2.92600 18.34300 28.95500
C  -4.13400 18.82200 31.12200
C  -1.46700 16.13000 31.48500
C  -0.99400 16.81500 32.77200
H  -0.53200 15.96100 33.97200
N  -2.63100 19.04800 25.98600
C  -2.73600 19.99200 27.00700
C  -2.78200 21.33800 26.47400
C  -2.57200 21.13100 25.13300
C  -2.39400 19.73300 24.80100
C  -3.03800 22.63500 27.24000
C  -2.44500 22.17400 24.02200
O  -2.31700 22.02100 22.79200
C  -2.43700 23.57800 24.43300
N  -2.36800 16.76400 23.97400
C  -2.32900 17.82500 23.11600
C  -2.28300 17.37600 21.66400
C  -2.67100 15.86500 21.78400
C  -2.46000 15.66700 23.27100
C  -3.15500 18.05900 20.67800
C  -2.04500 14.87900 20.72300
C  -2.96500 14.26100 19.65800
N  -2.58100 14.99300 26.18800
C  -2.59300 13.99100 25.17700
C  -2.93600 12.69200 25.72500
C  -3.00300 12.89200 27.14500
C  -2.78200 14.29400 27.35100
C  -3.19100 11.49100 24.95600
C  -3.25900 12.28500 28.39800
O  -3.57700 11.14300 28.64400
C  -3.07600 13.42300 29.44500
C  -1.93600 13.09000 30.26300
O  -0.75400 13.36600 29.95300
O  -2.32900 12.46500 31.38800
C  -1.27300 12.08500 32.35700
H  -3.03200 20.38100 29.09100
H  -2.17000 19.76700 22.62800
H  -2.86100 13.59800 23.10700
H  -3.62800 16.13700 31.24000
H  -1.99900 18.60900 30.90900
H  -5.05300 18.82800 30.53700
H  -3.85100 19.82700 31.43500
H  -4.42200 18.39800 32.08400
H  -0.59400 16.19000 30.83500
H  -1.53300 15.08200 31.77600
H  -1.84600 17.42400 33.07500
H  -0.21200 17.45700 32.36800
H  -3.28400 22.39300 28.27400
H  -3.85900 23.20500 26.80400
H  -2.11700 23.21700 27.26200
H  -3.46100 23.75500 24.76100
H  -2.15500 24.25700 23.62800
H  -1.81300 23.79700 25.29900
H  -1.29100 17.44600 21.21700
H  -3.75000 15.83100 21.63300
H  -3.56900 17.41000 19.90600
H  -2.65800 18.82500 20.08300
H  -3.96500 18.55200 21.21700
H  -1.49300 14.02100 21.10800
H  -1.33900 15.47900 20.14800
H  -3.98100 14.58200 19.89000
H  -2.77400 13.18800 19.63700
H  -2.84900 14.73100 18.68100
H  -3.81300 10.75300 25.46400
H  -2.20100 11.08500 24.74800
H  -3.73100 11.80700 24.06300
H  -3.93400 13.47000 30.11400
H  -1.21500 10.99900 32.42900
H  -1.52300 12.63900 33.26200
H  -0.29400 12.49800 32.11300
Mg 17.40800 51.01000 26.20700
C  19.03500 49.61000 28.89600
C  14.99800 52.14100 28.26800
C  15.60300 52.04900 23.43100
C  19.71400 49.51100 24.07900
N  17.00100 50.75500 28.34600
C  17.87800 50.28400 29.26800
C  17.38300 50.71800 30.62900
C  15.99000 51.27900 30.34900
C  15.99500 51.42200 28.92900
C  14.81300 50.53600 30.99400
C  18.46500 51.73300 31.27100
C  18.18900 52.28100 32.69800
H  17.28800 51.39300 33.60000
N  15.68000 52.09000 25.93000
C  14.82900 52.38900 26.92700
C  13.71000 53.21700 26.38100
C  13.86800 53.15200 24.96600
C  15.11400 52.41900 24.72700
C  12.58800 53.79800 27.20900
C  12.79600 53.68000 23.87500
O  12.96900 53.63300 22.64200
C  11.55100 54.28100 24.33800
N  17.58200 50.89100 24.05400
C  16.73100 51.33100 23.16500
C  17.17600 51.10800 21.74100
C  18.57300 50.34900 21.96200
C  18.64800 50.25700 23.49900
C  16.25600 50.25300 20.87700
C  19.83700 51.07100 21.33200
C  20.70200 52.03700 22.15600
N  19.07700 49.82700 26.40200
C  19.93100 49.28300 25.44800
C  20.94100 48.49300 26.05900
C  20.66300 48.57900 27.45800
C  19.50800 49.40400 27.58100
C  21.89900 47.63400 25.31600
C  21.01600 48.16300 28.79300
O  21.82000 47.37100 29.22200
C  20.08500 48.95200 29.75700
C  19.52200 48.12600 30.77800
O  18.62300 47.28000 30.70800
O  20.03400 48.44500 31.94700
C  19.58500 47.71700 33.09600
H  14.25900 52.51000 28.98200
H  14.95400 52.24000 22.57400
H  20.51500 49.09000 23.46800
H  17.26500 49.79500 31.19700
H  16.01900 52.33800 30.60700
H  14.97900 50.47200 32.06900
H  14.65700 49.52500 30.61900
H  13.87600 51.09300 30.97300
H  18.44700 52.58500 30.59100
H  19.46700 51.33900 31.10400
H  17.90700 53.31600 32.50400
H  19.16900 52.31500 33.17300
H  12.66200 53.66300 28.28800
H  11.58600 53.44700 26.96500
H  12.65600 54.84500 26.91400
H  11.85700 55.06200 25.03300
H  11.02200 53.54800 24.94600
H  10.95200 54.59500 23.48300
H  17.33400 52.08200 21.27700
H  18.48700 49.30700 21.65400
H  16.78400 49.60100 20.18100
H  15.51500 50.90400 20.41300
H  15.92200 49.56500 21.65300
H  19.38700 51.54000 20.45600
H  20.57300 50.36800 20.94200
H  20.99500 52.87900 21.53000
H  21.51000 51.51500 22.66900
H  20.11500 52.55100 22.91800
H  21.48700 47.04300 24.49700
H  22.44000 46.88100 25.89000
H  22.51600 48.43800 24.91500
H  20.58900 49.74300 30.31100
H  19.79500 46.65800 32.94500
H  18.52000 47.78300 33.31600
H  20.11700 48.07100 33.97900

