158

Mg 16.80900 -1.26600 27.28300
C  15.60700 0.69900 30.13200
C  18.91700 -2.86800 29.34700
C  17.90700 -2.87700 24.56800
C  14.70200 0.76500 25.33000
N  17.16600 -1.09000 29.52900
C  16.50400 -0.36700 30.45100
C  17.06100 -0.60000 31.87500
C  18.22400 -1.70800 31.58900
C  18.11400 -1.95400 30.08400
C  19.60700 -1.38500 32.14500
C  15.91900 -1.04000 32.94100
C  16.03800 -0.46700 34.36400
H  17.40700 0.13600 34.86700
N  18.28400 -2.60800 26.99400
C  18.99400 -3.23200 27.96300
C  19.83000 -4.15700 27.42500
C  19.54400 -4.16200 26.05300
C  18.54400 -3.21300 25.81200
C  20.81200 -5.07700 28.26400
C  20.11500 -5.01300 25.03900
O  19.73800 -5.07100 23.86400
C  21.22900 -6.01300 25.39100
N  16.39400 -0.99100 25.23000
C  16.93900 -1.84800 24.29300
C  16.47400 -1.51400 22.88400
C  15.42000 -0.36900 23.17400
C  15.50000 -0.19200 24.63200
C  17.50800 -1.10200 21.93600
C  14.05800 -0.72300 22.60800
C  13.15900 -1.70000 23.41900
N  15.39400 0.32700 27.57700
C  14.70000 1.08200 26.71400
C  13.90100 2.10100 27.35200
C  14.24100 2.01500 28.66300
C  15.09500 0.91000 28.80700
C  12.95800 3.03500 26.67100
C  14.04000 2.57700 29.95500
O  13.30900 3.51100 30.29200
C  14.92700 1.69800 30.98800
C  15.75700 2.74900 31.62400
O  16.70300 3.36800 31.24900
O  15.05900 3.06600 32.73600
C  15.46700 4.20600 33.62000
H  19.64800 -3.34600 30.00300
H  18.02500 -3.40800 23.62000
H  14.07100 1.33400 24.64300
H  17.44000 0.38200 32.15900
H  17.93200 -2.64600 32.06100
H  19.92500 -2.18200 32.81700
H  19.64000 -0.46100 32.72300
H  20.26100 -1.37500 31.27300
H  16.12100 -2.09600 33.12000
H  15.01000 -0.76800 32.40500
H  15.62300 -1.17100 35.08600
H  15.39900 0.41500 34.31500
H  20.51500 -6.12400 28.20100
H  20.67900 -4.88700 29.32900
H  21.83500 -4.88500 27.94100
H  20.90300 -6.72900 26.14500
H  21.98200 -5.31100 25.74900
H  21.68800 -6.48800 24.52400
H  15.94600 -2.41800 22.57900
H  15.73700 0.57600 22.73300
H  18.47100 -1.07100 22.44400
H  17.22700 -0.13900 21.50900
H  17.61100 -1.88000 21.17900
H  14.19000 -1.14700 21.61300
H  13.52200 0.21000 22.43900
H  12.34200 -1.14500 23.88100
H  13.77000 -2.22100 24.15700
H  12.78300 -2.38600 22.66100
H  12.29000 3.52000 27.38200
H  12.27500 2.46200 26.04300
H  13.40000 3.88800 26.15600
H  14.20800 1.25300 31.67600
H  15.12300 4.11300 34.65000
H  15.22800 5.20000 33.24000
H  16.55700 4.22700 33.64300
Mg -2.60700 34.37500 26.01800
C  -4.08900 32.75300 28.78200
C  -1.44700 36.64200 28.42500
C  -1.22300 36.01500 23.60700
C  -4.35900 32.33400 23.93000
N  -3.00300 34.79300 28.45400
C  -3.40600 33.82400 29.29300
C  -3.11800 34.19800 30.79100
C  -2.41000 35.58200 30.67000
C  -2.21400 35.67000 29.08000
C  -3.30200 36.75200 31.08200
C  -2.35300 33.10000 31.55700
C  -2.80100 32.89700 32.97900
H  -2.34300 33.99900 33.98500
N  -1.48300 36.04200 26.01900
C  -1.06200 36.77000 27.10900
C  -0.16400 37.82900 26.65000
C  -0.13300 37.69000 25.20700
C  -0.97600 36.54500 24.90400
C  0.34500 38.92600 27.51900
C  0.67000 38.53300 24.15800
O  0.75000 38.30700 22.97300
C  1.41600 39.69400 24.80000
N  -2.88700 34.23900 24.03700
C  -2.18700 35.05000 23.20900
C  -2.55800 34.70500 21.71100
C  -3.49600 33.50100 21.80800
C  -3.61900 33.31900 23.39400
C  -3.16300 35.92800 21.00300
C  -3.00000 32.26500 21.10700
C  -2.25700 31.21300 21.92000
N  -4.03700 32.89500 26.22000
C  -4.62700 32.06300 25.28000
C  -5.30900 30.99700 25.92200
C  -5.11600 31.23100 27.32200
C  -4.41900 32.42700 27.43900
C  -6.12500 29.91300 25.22100
C  -5.47400 30.74100 28.63800
O  -6.04500 29.76500 28.98000
C  -4.79900 31.67700 29.61000
C  -5.83200 32.28900 30.54300
O  -6.75700 33.06200 30.26700
O  -5.84200 31.68200 31.80600
C  -6.69200 32.19700 32.90400
H  -0.92900 37.24500 29.17400
H  -0.76400 36.60200 22.80900
H  -4.82400 31.73100 23.14700
H  -4.09100 34.24700 31.28100
H  -1.43300 35.65900 31.14700
H  -2.71900 37.37100 31.76300
H  -4.16000 36.37000 31.63600
H  -3.71500 37.33000 30.25500
H  -1.33700 33.47700 31.67300
H  -2.28300 32.18500 30.97000
H  -2.47200 31.91700 33.32200
H  -3.88900 32.96400 32.98800
H  1.41300 38.89500 27.73100
H  -0.16800 38.90500 28.48100
H  0.05000 39.84400 27.01000
H  2.08100 39.32600 25.58100
H  0.72600 40.49900 25.05400
H  2.09900 40.11700 24.06400
H  -1.63000 34.42100 21.21500
H  -4.50100 33.64900 21.41300
H  -2.48300 36.33100 20.25300
H  -3.36500 36.72000 21.72500
H  -4.06600 35.82600 20.40000
H  -2.39200 32.43100 20.21800
H  -3.90400 31.79900 20.71400
H  -1.74600 31.73100 22.73100
H  -1.52600 30.63500 21.35500
H  -3.00800 30.47100 22.19400
H  -6.22000 29.13500 25.97900
H  -5.73200 29.39900 24.34300
H  -7.07500 30.37200 24.94700
H  -4.09000 31.07600 30.18000
H  -6.33300 31.80800 33.85700
H  -7.77100 32.13900 32.75800
H  -6.38600 33.24300 32.89000

