158

Mg 2.90700 -1.25100 42.04700
C  6.26200 -0.30300 41.90100
C  2.05400 1.65100 40.37200
C  -0.22900 -2.62400 41.46000
C  3.95600 -4.41800 43.24900
N  4.03400 0.55800 41.32700
C  5.39300 0.74000 41.41600
C  5.75700 2.00100 40.72600
C  4.39000 2.62700 40.43800
C  3.39800 1.56400 40.74800
C  4.09400 3.95300 41.25500
C  6.76300 1.82000 39.55300
C  6.97500 0.47700 38.80900
H  6.66900 0.45600 37.29900
N  1.18900 -0.57800 41.05500
C  1.04600 0.70200 40.53500
C  -0.37700 0.75700 40.09700
C  -1.07800 -0.39400 40.50200
C  -0.03600 -1.25100 41.07100
C  -0.96100 2.10300 39.48300
C  -2.57200 -0.55200 40.43500
O  -3.29700 0.32100 39.97400
C  -3.27800 -1.63600 41.19900
N  2.08100 -3.30400 42.26100
C  0.73400 -3.53000 41.91600
C  0.32100 -5.01200 42.19900
C  1.69300 -5.57100 42.78400
C  2.64700 -4.37500 42.77900
C  -0.96600 -5.17300 43.01800
C  2.28100 -6.82400 42.06100
C  2.87900 -7.90200 43.01200
N  4.70200 -2.14900 42.67400
C  4.98800 -3.43200 43.19900
C  6.41100 -3.56500 43.30400
C  6.94700 -2.38300 42.86000
C  5.84500 -1.53100 42.49100
C  7.03400 -4.78500 43.90400
C  8.19300 -1.63500 42.59600
O  9.32100 -2.01500 42.82300
C  7.76800 -0.30000 42.04000
C  8.38000 0.82300 42.81600
O  9.28500 1.49700 42.39100
O  7.98100 0.87500 44.14300
C  8.66000 1.77800 45.10700
H  1.63000 2.57500 39.97300
H  -1.09900 -3.15600 41.06700
H  4.21000 -5.44600 43.51800
H  6.32700 2.61700 41.42100
H  4.13000 2.84200 39.40100
H  3.04600 4.21000 41.09800
H  4.59100 4.85300 40.89300
H  4.31900 3.88800 42.31900
H  7.68900 2.23600 39.94900
H  6.54700 2.64200 38.87000
H  6.38100 -0.33600 39.22800
H  8.03500 0.22600 38.84800
H  -0.22900 2.78800 39.05500
H  -1.57300 2.63700 40.20900
H  -1.50200 1.74100 38.60800
H  -4.35800 -1.52000 41.10800
H  -2.95200 -1.35400 42.20000
H  -3.03700 -2.64200 40.85700
H  0.04100 -5.49100 41.26100
H  1.54100 -5.82300 43.83400
H  -1.36600 -4.18400 43.24600
H  -0.71800 -5.70400 43.93700
H  -1.76300 -5.66300 42.46000
H  3.06300 -6.44800 41.40200
H  1.57100 -7.23700 41.34400
H  3.87800 -8.07800 42.61300
H  2.31100 -8.82200 43.14900
H  3.09100 -7.60400 44.03900
H  7.28000 -5.46800 43.09200
H  6.34500 -5.25900 44.60300
H  7.94700 -4.42700 44.38000
H  8.23700 -0.24300 41.05800
H  8.19800 2.76300 45.04700
H  9.70000 1.99100 44.86200
H  8.57500 1.45100 46.14300
Mg 45.03800 5.38300 47.89400
C  43.17600 8.32700 47.28900
C  42.23500 3.58800 46.72700
C  46.93800 2.61700 47.64100
C  47.84700 7.40700 48.28400
N  42.94700 5.92300 47.22300
C  42.48300 7.17100 46.98600
C  41.03200 7.09000 46.42300
C  40.63400 5.57200 46.50600
C  42.04000 4.98900 46.84200
C  39.55700 5.25000 47.58800
C  41.04400 7.50900 44.94700
C  40.12200 8.66900 44.61000
H  39.20700 8.37600 43.37300
N  44.64300 3.31000 47.39200
C  43.39300 2.81500 46.95500
C  43.53900 1.42700 46.82900
C  44.92200 1.05300 47.00500
C  45.59300 2.31100 47.34300
C  42.40400 0.44400 46.43800
C  45.48600 -0.31100 46.65400
O  44.69900 -1.22500 46.30700
C  46.96500 -0.67300 46.67700
N  47.09100 5.06600 48.08700
C  47.62100 3.76100 48.00600
C  49.13500 3.79500 48.23900
C  49.48700 5.33800 48.11800
C  48.11900 6.00000 48.23800
C  49.55000 3.13400 49.59400
C  50.18800 5.75300 46.78100
C  51.59400 6.27500 46.86300
N  45.32700 7.48000 48.16400
C  46.61100 8.09800 48.18200
C  46.37700 9.48900 48.06900
C  45.06100 9.64200 47.65500
C  44.54100 8.35100 47.69400
C  47.38200 10.57900 48.19000
C  44.04000 10.68000 47.23100
O  44.16100 11.89900 47.01500
C  42.68000 9.73300 47.17900
C  41.63700 10.06800 48.16900
O  41.41000 9.44200 49.18300
O  40.79800 10.99900 47.69400
C  39.59100 11.27400 48.54000
H  41.36600 3.11500 46.26500
H  47.48100 1.67400 47.73300
H  48.68200 8.11000 48.27500
H  40.35200 7.65800 47.05600
H  40.20900 5.28500 45.54400
H  39.12800 6.13400 48.06100
H  39.93600 4.89800 48.54700
H  38.66200 4.78700 47.17200
H  40.70400 6.75800 44.23300
H  42.08100 7.75000 44.71200
H  40.75800 9.53700 44.43600
H  39.54500 9.00800 45.47000
H  42.29600 -0.32700 47.20100
H  42.57300 0.02000 45.44900
H  41.48300 1.02600 46.39600
H  47.53000 -0.04600 45.98600
H  47.10100 -1.73100 46.45500
H  47.41900 -0.43400 47.63800
H  49.67900 3.23300 47.48000
H  50.11100 5.64800 48.95600
H  48.61700 3.04700 50.15000
H  50.33600 3.69600 50.09800
H  49.88800 2.11200 49.42400
H  49.52100 6.44200 46.26200
H  50.27100 4.83200 46.20500
H  51.52300 7.36000 46.78200
H  52.26100 5.87300 46.10100
H  52.02900 6.08000 47.84300
H  48.10100 10.58300 47.37100
H  48.00600 10.51300 49.08200
H  46.75100 11.45900 48.06500
H  42.25400 9.75200 46.17600
H  39.20200 12.27200 48.33800
H  39.67100 11.01600 49.59600
H  38.77000 10.62700 48.23100

