158

Mg 1.01500 7.19800 25.74500
C  1.64100 9.20100 28.60000
C  1.38900 4.44500 27.61000
C  0.46300 5.38800 22.95400
C  1.14100 10.17100 23.78300
N  1.59300 6.93800 27.88300
C  1.60400 7.83900 28.86500
C  1.71100 7.06500 30.21600
C  2.03200 5.60900 29.80300
C  1.73400 5.65900 28.28600
C  3.47400 5.08400 30.08800
C  0.47600 7.25300 31.17500
C  0.76400 7.71400 32.61100
H  1.97300 7.12600 33.25900
N  0.79400 5.23100 25.38400
C  0.94100 4.21700 26.28100
C  0.62700 2.92900 25.71100
C  0.41300 3.13800 24.30500
C  0.49600 4.62200 24.17300
C  0.64900 1.61000 26.39400
C  0.09400 2.09500 23.20900
O  -0.13900 2.41500 22.02500
C  0.04400 0.58900 23.49100
N  0.52500 7.77800 23.75100
C  0.59100 6.73900 22.78600
C  0.66700 7.40700 21.34900
C  0.56400 8.93900 21.64100
C  0.71400 9.00600 23.14400
C  1.94100 6.98900 20.59800
C  -0.69500 9.68900 21.06300
C  -0.37600 10.90600 20.20600
N  1.35000 9.20700 26.03000
C  1.45500 10.30400 25.14000
C  1.57500 11.56100 25.89900
C  1.71700 11.13000 27.24100
C  1.52300 9.72700 27.28900
C  1.55600 12.96300 25.42600
C  1.98800 11.59400 28.57600
O  2.30500 12.72200 28.98200
C  1.86000 10.36900 29.53300
C  2.98100 10.19200 30.43100
O  4.06600 9.63200 30.26500
O  2.63900 10.80400 31.61400
C  3.70300 10.80900 32.63600
H  1.44000 3.55500 28.24000
H  0.30600 4.89900 21.99000
H  1.32100 11.05900 23.17200
H  2.55100 7.52200 30.74000
H  1.41800 4.90300 30.36200
H  4.05400 5.87300 30.56600
H  3.98000 4.89100 29.14200
H  3.49300 4.23800 30.77500
H  -0.14200 6.35900 31.26500
H  -0.13300 8.08400 30.82100
H  -0.11200 7.49900 33.22400
H  0.91700 8.79100 32.66400
H  0.41200 1.72900 27.45100
H  1.54900 0.99900 26.32000
H  -0.20000 0.99600 26.09300
H  0.94500 0.16300 23.93300
H  -0.19600 0.17600 22.51200
H  -0.82300 0.49600 24.14400
H  -0.10500 7.05400 20.66500
H  1.44900 9.41100 21.21500
H  2.31700 7.81800 19.99900
H  1.80800 6.11200 19.96500
H  2.74000 6.74300 21.29700
H  -1.32800 10.09200 21.85400
H  -1.19100 8.93700 20.45100
H  -1.27500 11.23100 19.68300
H  0.54200 10.87300 19.61800
H  -0.31000 11.76000 20.88000
H  0.55500 13.16900 25.04700
H  2.50400 13.19300 24.93900
H  1.63600 13.51300 26.36400
H  0.92700 10.52200 30.07500
H  3.61700 9.92100 33.26200
H  3.59300 11.59200 33.38600
H  4.74000 10.85100 32.30300
Mg 53.85000 23.17900 44.33800
C  50.90200 24.97000 43.51000
C  52.20400 20.29900 43.25100
C  56.70200 21.62700 44.48600
C  55.35000 26.23400 45.14600
N  51.82200 22.72500 43.07000
C  50.72700 23.65500 43.12500
C  49.43100 22.83300 42.81500
C  49.91000 21.33400 43.04900
C  51.40600 21.43600 43.18200
C  49.13200 20.57000 44.25400
C  49.04200 23.24800 41.34800
C  47.60200 23.46300 41.10200
H  47.05200 22.96700 39.73400
N  54.38800 21.20500 43.90000
C  53.60200 20.12100 43.52800
C  54.47500 18.96300 43.34200
C  55.82600 19.42000 43.58700
C  55.67200 20.80900 43.97000
C  54.08400 17.62300 42.76100
C  57.12300 18.57200 43.44300
O  56.98100 17.42600 43.02100
C  58.60200 19.02300 43.74400
N  55.77700 23.82600 44.73100
C  56.81900 23.01400 44.72600
C  58.15000 23.72100 45.01000
C  57.73400 25.22300 45.27200
C  56.23400 25.10800 45.01100
C  59.03400 23.06400 46.05500
C  58.46700 26.32100 44.39700
C  59.96300 26.13700 44.19100
N  53.30600 25.26200 44.42500
C  53.97500 26.31900 44.77900
C  53.13600 27.50100 44.90300
C  51.86800 26.97100 44.42700
C  52.06300 25.63600 44.09100
C  53.47300 28.89200 45.48000
C  50.46900 27.32000 44.24300
O  49.89900 28.37700 44.39600
C  49.86400 26.05300 43.52400
C  49.58800 26.44400 42.18300
O  50.33000 26.44000 41.20200
O  48.28700 26.89200 42.16300
C  47.76400 27.35800 40.86900
H  51.63600 19.46100 42.84100
H  57.73300 21.27900 44.58100
H  55.78200 27.17500 45.49200
H  48.63000 23.04300 43.52300
H  49.71500 20.72600 42.16600
H  48.69600 19.62700 43.92200
H  48.31200 21.19600 44.60500
H  49.79600 20.38000 45.09800
H  49.34900 22.53000 40.58800
H  49.54400 24.14700 40.99200
H  47.37300 24.51400 41.27800
H  46.99600 22.88500 41.80000
H  54.67600 17.43000 41.86600
H  53.05200 17.63000 42.41000
H  54.31800 16.78200 43.41300
H  58.82600 19.31700 44.76900
H  58.69200 19.85100 43.04100
H  59.22400 18.18700 43.42600
H  58.64600 23.67800 44.04000
H  57.80300 25.38400 46.34800
H  59.99400 22.63300 45.77100
H  58.47900 22.25600 46.53100
H  59.42300 23.86700 46.68000
H  58.20800 27.25500 44.89500
H  57.89300 26.28700 43.47100
H  60.54200 26.67000 44.94600
H  60.24200 26.58000 43.23500
H  60.18400 25.07300 44.27600
H  53.17000 28.86200 46.52600
H  52.92300 29.65600 44.93100
H  54.54400 29.08800 45.53600
H  48.94700 25.85000 44.07700
H  48.04900 28.40900 40.91100
H  46.67800 27.28100 40.92700
H  48.18500 26.76900 40.05400

