158

Mg 47.58900 33.85300 27.02700
C  46.17300 32.62600 29.88400
C  48.19400 36.94000 28.69500
C  48.86000 35.24900 24.06400
C  46.61500 31.09100 25.27300
N  47.29600 34.67900 29.07200
C  46.71400 33.93100 30.13200
C  47.02600 34.64500 31.47400
C  47.28600 36.05500 30.99000
C  47.71700 35.87300 29.53700
C  46.17100 37.12200 31.21500
C  48.16300 33.89100 32.14700
C  48.17800 33.92900 33.71600
H  47.23700 34.93300 34.35700
N  48.35700 35.75600 26.45800
C  48.49000 36.88800 27.28500
C  49.01000 37.98700 26.52800
C  49.20400 37.55000 25.23000
C  48.82200 36.13100 25.18000
C  49.44800 39.30900 27.17200
C  49.91700 38.24000 24.12400
O  50.26800 37.76500 23.05800
C  50.21100 39.69600 24.31400
N  47.74900 33.26300 24.97600
C  48.41500 33.93900 23.99400
C  48.37600 33.14600 22.65500
C  47.78700 31.72200 23.08500
C  47.26900 32.04200 24.51700
C  47.67600 33.87500 21.50900
C  48.80600 30.52000 23.02900
C  50.10000 30.63900 23.89400
N  46.59200 32.10100 27.45200
C  46.28900 31.02400 26.69700
C  45.58300 30.06700 27.47100
C  45.39700 30.68600 28.69800
C  46.10300 31.88300 28.69100
C  44.99800 28.78400 27.04300
C  44.83300 30.58400 30.02200
O  44.14000 29.67700 30.48700
C  45.20900 31.86900 30.76500
C  45.69900 31.57900 32.09400
O  46.58600 30.81800 32.43100
O  44.86800 32.15500 32.98300
C  44.90000 31.69100 34.38900
H  48.28300 37.83000 29.32200
H  49.39100 35.56100 23.16200
H  46.33200 30.27600 24.60400
H  46.16800 34.59800 32.14500
H  48.23500 36.44400 31.35900
H  45.27200 36.59000 31.52500
H  45.84100 37.58500 30.28500
H  46.44100 37.81500 32.01200
H  49.10000 34.32800 31.80100
H  48.18500 32.83400 31.87900
H  49.18600 34.15900 34.06200
H  48.05300 32.92700 34.12600
H  48.68000 40.08100 27.13600
H  50.42800 39.62800 26.81800
H  49.62700 39.15400 28.23600
H  49.38500 40.21200 24.80200
H  50.43000 40.09300 23.32300
H  51.16800 39.67400 24.83400
H  49.37800 32.96500 22.26900
H  46.90800 31.52000 22.47300
H  47.52000 34.95300 21.55400
H  46.67000 33.48800 21.34700
H  48.29800 33.67100 20.63800
H  49.08300 30.45300 21.97700
H  48.31900 29.56100 23.20300
H  50.33000 29.76000 24.49600
H  50.17500 31.59600 24.41000
H  50.92300 30.74300 23.18800
H  43.96700 28.73800 27.39500
H  45.54300 27.88900 27.34400
H  44.95900 28.60200 25.96900
H  44.32000 32.49500 30.84300
H  44.27300 32.31300 35.02800
H  45.94900 31.69500 34.68400
H  44.57800 30.65300 34.47100
Mg 16.54500 51.56200 26.78200
C  18.71800 50.46100 29.47400
C  14.46300 52.62700 29.01900
C  14.70700 52.59700 24.20700
C  19.08800 50.45200 24.65600
N  16.71300 51.63000 28.95300
C  17.59600 51.17300 29.87900
C  17.21000 51.48800 31.34800
C  15.74600 51.97500 31.08300
C  15.58300 52.08200 29.58700
C  14.66100 51.07400 31.69000
C  18.14100 52.48600 32.10000
C  18.45800 52.13100 33.55600
H  17.33600 51.58000 34.44600
N  14.79500 52.49500 26.69700
C  14.02500 52.88900 27.76100
C  12.86600 53.56700 27.29100
C  13.01400 53.65900 25.91200
C  14.15900 52.79400 25.51000
C  11.90100 54.19300 28.21000
C  12.18200 54.37100 24.84300
O  12.37900 54.41600 23.66100
C  11.03100 55.21400 25.20600
N  16.90600 51.55300 24.76500
C  15.92400 51.96500 23.86600
C  16.43900 51.94100 22.40600
C  17.79600 51.18500 22.55500
C  17.99300 51.07300 24.07100
C  15.39900 51.44000 21.30700
C  18.89000 51.88500 21.71000
C  20.09000 51.02700 21.16300
N  18.49700 50.54600 26.96100
C  19.39200 50.17200 25.98300
C  20.56700 49.53400 26.58100
C  20.28800 49.52600 27.98300
C  19.10300 50.29300 28.13400
C  21.77100 49.10000 25.89300
C  20.75800 49.16800 29.27200
O  21.82600 48.63900 29.61700
C  19.74500 49.74800 30.31400
C  19.26600 48.77700 31.29500
O  18.36400 47.94200 31.08700
O  20.03400 48.77500 32.46600
C  19.52800 47.98500 33.58700
H  13.67600 52.84900 29.74300
H  14.25200 53.00800 23.30400
H  19.85800 50.31700 23.89300
H  17.22900 50.49600 31.80000
H  15.72100 53.00000 31.45100
H  14.12900 51.69000 32.41400
H  15.13100 50.24000 32.21000
H  14.04300 50.63000 30.91000
H  17.81100 53.52400 32.08400
H  19.09400 52.36100 31.58600
H  18.88400 52.96200 34.11900
H  19.25400 51.39800 33.42800
H  12.27400 54.09200 29.23000
H  10.89700 53.77800 28.12700
H  11.91600 55.26700 28.02500
H  11.46900 56.08300 25.69600
H  10.37800 54.67700 25.89400
H  10.50900 55.58000 24.32200
H  16.61500 52.94500 22.01900
H  17.63600 50.18600 22.14900
H  14.90300 52.25300 20.77700
H  14.69400 50.75600 21.78100
H  15.91200 50.88200 20.52400
H  19.19500 52.78100 22.25000
H  18.43200 52.24900 20.79000
H  20.93000 51.67900 21.40200
H  19.97100 50.87200 20.09100
H  20.08100 50.06800 21.68100
H  22.47600 49.04200 26.72300
H  22.10300 49.82600 25.15200
H  21.49300 48.13900 25.45900
H  20.43700 50.42300 30.81700
H  19.85600 46.95000 33.49300
H  18.44600 47.98400 33.44900
H  19.94600 48.39000 34.50800

