158

Mg 24.64200 -7.11100 48.67000
C  27.13700 -5.12300 47.05400
C  22.54100 -6.47400 45.91900
C  22.61600 -9.58500 49.69600
C  27.16400 -8.14100 50.94700
N  24.87300 -5.96900 46.72200
C  25.96500 -5.24700 46.32100
C  25.64100 -4.55100 44.96700
C  24.11700 -4.84000 44.61200
C  23.79600 -5.79400 45.84400
C  23.19100 -3.58600 44.59300
C  26.56800 -4.95200 43.80900
C  27.39200 -3.92000 43.09900
H  27.21600 -3.69000 41.64100
N  22.68400 -7.76600 48.14500
C  22.04300 -7.28600 47.03200
C  20.70000 -7.89700 47.05200
C  20.63500 -8.81200 48.19000
C  22.03900 -8.82600 48.68200
C  19.69300 -7.73900 46.00500
C  19.49800 -9.63200 48.79600
O  18.39300 -9.62700 48.30600
C  19.61500 -10.33500 50.10700
N  24.86800 -8.57100 50.17000
C  23.88700 -9.60800 50.33100
C  24.16600 -10.39000 51.63700
C  25.56000 -9.84200 52.12600
C  25.88100 -8.77700 51.06600
C  23.00000 -10.43700 52.70200
C  26.56000 -11.03700 52.31200
C  27.25300 -10.96300 53.66700
N  26.67500 -6.57900 49.11400
C  27.54600 -7.18800 49.95900
C  28.87900 -6.62800 49.83400
C  28.76800 -5.75800 48.72300
C  27.43400 -5.86700 48.27700
C  29.99600 -6.95900 50.76600
C  29.46700 -4.84000 47.86800
O  30.64200 -4.36400 47.98800
C  28.44000 -4.39300 46.73400
C  28.31200 -2.92000 46.97000
O  27.98400 -2.35500 48.03400
O  28.55200 -2.28200 45.79800
C  28.69800 -0.80400 45.88100
H  21.86300 -6.28400 45.08400
H  22.13100 -10.43800 50.17300
H  27.90800 -8.54300 51.63700
H  25.75400 -3.48700 45.17800
H  24.00100 -5.39200 43.67900
H  22.64900 -3.56100 43.64800
H  23.62400 -2.61500 44.83700
H  22.40900 -3.64700 45.35000
H  26.00400 -5.41000 42.99600
H  27.23400 -5.69700 44.24500
H  28.45400 -4.16100 43.07400
H  27.17900 -2.96800 43.58600
H  18.68700 -7.71000 46.42300
H  19.77000 -8.56300 45.29700
H  19.81800 -6.76800 45.52600
H  20.09800 -11.29600 49.92800
H  18.59900 -10.51700 50.45600
H  20.16300 -9.64700 50.75100
H  24.28000 -11.41800 51.29200
H  25.48500 -9.30700 53.07200
H  22.12400 -9.91900 52.31300
H  23.36500 -9.89100 53.57100
H  22.66800 -11.42800 53.01300
H  27.36600 -10.85100 51.60200
H  26.15100 -12.04000 52.18900
H  28.29100 -10.73300 53.42700
H  27.18400 -11.93700 54.15300
H  26.93300 -10.28800 54.46000
H  30.07900 -6.23600 51.57700
H  30.87300 -6.90500 50.12100
H  29.83500 -7.96100 51.16400
H  28.92600 -4.66500 45.79600
H  28.93600 -0.54200 44.85000
H  29.43900 -0.43700 46.59100
H  27.69100 -0.46300 46.12400
Mg -9.97300 40.25700 42.59400
C  -9.05000 37.03600 41.71600
C  -7.18200 41.53900 41.14900
C  -11.52700 43.13800 42.31800
C  -13.21400 38.78300 43.31500
N  -8.27800 39.30700 41.61600
C  -8.07600 38.02300 41.33000
C  -6.66400 37.78400 40.70200
C  -6.08700 39.25500 40.69300
C  -7.20000 40.10300 41.20400
C  -4.78600 39.41700 41.42700
C  -6.73100 37.20100 39.18900
C  -5.61800 36.24300 38.74600
H  -4.56100 36.67500 37.67400
N  -9.35600 42.08500 42.05700
C  -8.13200 42.43000 41.57100
C  -8.02900 43.86600 41.48600
C  -9.28400 44.40400 41.69500
C  -10.13100 43.19400 42.05100
C  -6.75700 44.54100 40.96700
C  -9.62100 45.88100 41.64500
O  -8.80500 46.72600 41.29600
C  -10.91700 46.51300 42.03900
N  -12.05000 40.88700 42.96500
C  -12.40800 42.13500 42.63400
C  -13.91800 42.43100 42.70300
C  -14.50900 41.03200 43.21300
C  -13.20000 40.18000 43.13300
C  -14.31600 43.53200 43.72600
C  -15.59600 40.45700 42.33700
C  -16.85000 39.90800 43.06200
N  -10.98600 38.25700 42.68500
C  -12.28200 37.83400 42.90800
C  -12.38200 36.34400 42.92600
C  -11.09800 36.03400 42.49500
C  -10.31000 37.17500 42.30800
C  -13.54100 35.48400 43.27300
C  -10.18400 34.95300 42.17800
O  -10.35900 33.74100 42.25800
C  -8.95500 35.56100 41.58100
C  -7.83300 35.01000 42.29200
O  -7.52800 35.24500 43.44700
O  -7.24500 34.18000 41.39800
C  -6.25500 33.34700 41.99700
H  -6.29400 41.84900 40.59500
H  -12.04700 44.07000 42.08700
H  -14.21200 38.49300 43.65000
H  -5.96500 37.15600 41.25500
H  -5.79800 39.60600 39.70300
H  -4.12300 38.57400 41.23100
H  -4.98100 39.46900 42.49800
H  -4.24800 40.26100 40.99500
H  -6.68300 37.99300 38.44200
H  -7.62200 36.63300 38.92000
H  -6.18000 35.38000 38.39000
H  -5.03800 36.04600 39.64700
H  -6.88200 44.72100 39.90000
H  -5.98000 43.78900 41.10300
H  -6.51300 45.46400 41.49400
H  -11.64500 46.07100 41.35900
H  -10.87900 47.58000 41.82000
H  -11.12700 46.32400 43.09200
H  -14.20900 42.64200 41.67400
H  -14.79500 41.07000 44.26400
H  -14.77900 43.02900 44.57500
H  -15.06700 44.21200 43.32200
H  -13.45600 44.10500 44.07100
H  -15.31000 39.65800 41.65400
H  -15.93500 41.33400 41.78600
H  -16.97100 38.84700 42.84200
H  -17.69000 40.49500 42.69000
H  -16.87700 40.13900 44.12700
H  -14.32200 36.04800 43.78200
H  -13.27600 34.63200 43.89900
H  -14.00600 35.11100 42.36000
H  -8.88900 35.24100 40.54200
H  -6.39800 33.00800 43.02300
H  -5.28000 33.78800 41.79400
H  -6.25200 32.45600 41.36800

