158

Mg -1.72100 18.40200 26.95000
C  -2.21400 16.06700 29.76300
C  -2.74100 20.93900 29.11700
C  -1.73300 20.33600 24.35800
C  -1.41400 15.58800 24.94000
N  -2.14600 18.46400 29.18600
C  -2.12800 17.47900 30.11700
C  -2.42700 18.00800 31.56900
C  -3.05600 19.43700 31.23100
C  -2.56800 19.66200 29.76400
C  -4.62200 19.52900 31.29000
C  -1.19900 18.20400 32.48000
C  -1.46600 17.66000 33.92700
H  -0.27500 17.37700 34.76200
N  -2.05800 20.29000 26.75800
C  -2.53800 21.24900 27.75700
C  -2.53500 22.59200 27.12500
C  -2.11500 22.41700 25.76900
C  -1.89900 20.98400 25.56100
C  -2.88400 23.90300 27.86200
C  -1.75000 23.43900 24.68000
O  -1.35000 23.18900 23.55200
C  -1.99500 24.91300 24.93600
N  -1.76100 17.98800 24.91000
C  -1.62400 19.01800 24.05300
C  -1.41700 18.50200 22.65500
C  -0.90900 17.02900 22.91700
C  -1.37100 16.83000 24.35700
C  -2.62200 18.54300 21.82100
C  0.64800 16.97700 22.71000
C  1.62500 17.62100 23.71100
N  -2.03700 16.23400 27.18500
C  -1.87000 15.29600 26.22700
C  -2.00500 13.96500 26.82900
C  -2.26500 14.20900 28.15100
C  -2.18200 15.63400 28.35900
C  -1.93100 12.65300 26.10000
C  -2.58300 13.65300 29.48800
O  -2.76600 12.48100 29.76000
C  -2.52500 14.83300 30.54400
C  -1.53900 14.55100 31.62400
O  -0.37900 14.87400 31.58500
O  -2.09800 13.87700 32.67900
C  -1.24300 13.39900 33.82900
H  -3.10800 21.73800 29.76400
H  -1.66600 20.96800 23.47000
H  -1.11900 14.83900 24.20200
H  -3.25900 17.42400 31.96200
H  -2.72100 20.22200 31.90900
H  -5.06300 18.64500 31.74900
H  -5.08600 19.73700 30.32600
H  -4.93800 20.35300 31.92900
H  -0.97400 19.26900 32.53700
H  -0.30800 17.67700 32.13700
H  -2.01200 16.72000 33.84600
H  -2.07700 18.35100 34.50800
H  -3.45700 24.53000 27.17900
H  -1.96500 24.40700 28.16100
H  -3.50900 23.69300 28.73000
H  -1.88600 25.36300 23.94900
H  -1.30200 25.28600 25.68900
H  -3.02100 25.19300 25.17500
H  -0.65900 19.06800 22.11200
H  -1.43000 16.30100 22.29400
H  -3.42000 19.20800 22.15200
H  -3.13100 17.59300 21.65500
H  -2.38200 18.88000 20.81300
H  0.82600 17.54900 21.79900
H  0.97800 15.94600 22.58400
H  1.11300 17.94700 24.61700
H  2.16200 18.52600 23.42600
H  2.32700 16.83400 23.98300
H  -1.28200 11.96100 26.63700
H  -1.55300 12.75100 25.08200
H  -2.90200 12.17800 25.96100
H  -3.52000 14.91200 30.98300
H  -0.16500 13.52000 33.72800
H  -1.57600 12.39700 34.09800
H  -1.63200 14.07100 34.59400
Mg 24.40400 -5.25600 45.61300
C  26.63500 -2.84700 44.18500
C  22.04900 -4.16200 43.50100
C  22.69100 -8.06600 46.29200
C  27.24300 -6.48200 47.36900
N  24.42600 -3.73300 44.01000
C  25.45600 -2.91100 43.49000
C  25.01700 -2.08400 42.34000
C  23.50700 -2.47700 42.18300
C  23.31200 -3.61000 43.20200
C  22.51500 -1.27000 42.42500
C  25.86800 -2.32800 41.01100
C  26.18300 -1.07800 40.23400
H  25.90700 -1.19000 38.69800
N  22.57500 -5.88100 45.11800
C  21.74000 -5.27200 44.27700
C  20.41700 -5.86900 44.39200
C  20.56400 -7.04300 45.14600
C  21.98400 -7.05400 45.56900
C  19.25200 -5.42200 43.53900
C  19.46800 -8.02700 45.40200
O  18.29900 -7.75700 45.08200
C  19.70600 -9.38000 45.98000
N  24.95300 -7.05400 46.65800
C  23.98900 -8.09900 46.79500
C  24.65900 -9.30500 47.53600
C  26.00500 -8.67400 48.07100
C  26.13500 -7.35800 47.26800
C  23.68100 -10.00600 48.58800
C  27.24800 -9.64900 48.18200
C  27.79600 -10.10500 49.51400
N  26.53000 -4.75700 45.83600
C  27.46000 -5.28000 46.71500
C  28.63100 -4.46100 46.67200
C  28.31800 -3.50300 45.74800
C  27.02700 -3.73500 45.23400
C  29.89500 -4.64100 47.35600
C  28.99100 -2.35100 45.00400
O  30.05700 -1.73900 45.08800
C  27.85200 -1.93100 44.01700
C  27.56500 -0.52100 44.41500
O  27.24600 -0.15100 45.49000
O  27.86000 0.31700 43.33800
C  27.95300 1.76700 43.69700
H  21.33000 -3.76400 42.78200
H  22.12200 -8.93400 46.63200
H  28.13200 -6.82400 47.90300
H  25.18100 -1.05300 42.65200
H  23.19700 -2.95700 41.25500
H  22.88100 -0.40000 41.88000
H  22.30800 -0.94700 43.44500
H  21.53100 -1.42900 41.98300
H  25.24700 -2.88700 40.31100
H  26.79900 -2.85200 41.22900
H  27.23300 -0.81200 40.35700
H  25.57900 -0.27900 40.66400
H  18.32800 -5.17100 44.06000
H  18.99700 -6.26200 42.89400
H  19.45000 -4.69000 42.75600
H  18.81000 -10.00000 45.96000
H  19.90100 -9.08900 47.01200
H  20.43800 -9.77700 45.27600
H  24.88700 -10.07300 46.79700
H  25.74800 -8.41300 49.09800
H  23.06100 -9.21600 49.01100
H  24.21100 -10.41700 49.44700
H  23.13700 -10.84400 48.15300
H  28.09500 -9.16900 47.69100
H  27.00400 -10.50600 47.55400
H  28.79500 -9.67500 49.59200
H  27.91900 -11.15800 49.77000
H  27.15500 -9.73900 50.31600
H  29.75400 -5.47500 48.04400
H  30.11600 -3.72100 47.89800
H  30.65800 -4.74600 46.58500
H  28.11800 -1.93300 42.96000
H  27.87300 2.26400 42.73000
H  28.96100 1.82200 44.10900
H  27.25200 2.14100 44.44300

