158

Mg 35.85900 1.02300 30.02800
C  33.62700 2.47300 32.61600
C  38.41600 1.50300 32.34500
C  37.81800 0.28500 27.63700
C  33.14200 1.27200 27.83800
N  35.96200 1.83500 32.23700
C  34.93100 2.26500 33.07500
C  35.45400 2.44000 34.50900
C  37.02600 2.34700 34.32700
C  37.15200 1.83600 32.84000
C  37.64600 3.67100 34.43700
C  34.97600 1.25800 35.43000
C  34.44600 1.68500 36.77600
H  34.78700 3.03500 37.42700
N  37.87900 0.71000 30.01800
C  38.78400 1.03600 31.04900
C  40.16800 0.72000 30.56200
C  39.97300 0.25900 29.21900
C  38.53800 0.32000 28.88000
C  41.39500 0.83200 31.50000
C  41.09100 -0.15200 28.22900
O  40.80500 -0.44500 27.08800
C  42.42400 -0.40400 28.83500
N  35.49400 0.88400 28.07100
C  36.47500 0.50000 27.22100
C  35.95700 0.59700 25.81900
C  34.44500 0.27400 25.97600
C  34.31700 0.79600 27.36900
C  36.30100 1.92200 25.12000
C  33.99600 -1.18400 26.00300
C  33.46900 -1.67900 24.63200
N  33.86600 1.77500 30.09200
C  32.93900 1.78800 29.14100
C  31.67200 2.23300 29.58900
C  31.89100 2.50800 30.92300
C  33.26100 2.21800 31.23000
C  30.36700 2.35400 28.79400
C  31.20000 3.03800 32.14200
O  30.11100 3.55000 32.29500
C  32.35500 3.03800 33.24700
C  32.58000 4.46900 33.71900
O  33.38100 5.24000 33.17900
O  31.75900 4.80000 34.75000
C  31.92900 6.14500 35.33700
H  39.14200 1.63500 33.15000
H  38.46100 0.15000 26.76500
H  32.42200 1.44100 27.03500
H  35.06800 3.40700 34.83200
H  37.49800 1.64900 35.01900
H  36.94400 4.50400 34.49100
H  38.19200 3.92700 33.52900
H  38.29800 3.55600 35.30200
H  35.77400 0.55500 35.66800
H  34.19200 0.78600 34.83800
H  34.90900 0.97300 37.45900
H  33.37300 1.52000 36.87400
H  40.99900 0.87800 32.51400
H  41.89300 1.76200 31.22500
H  42.16000 0.05500 31.48600
H  42.32700 -1.13300 29.64000
H  42.84300 0.55700 29.13300
H  43.11000 -0.79100 28.08100
H  36.35800 -0.27800 25.30700
H  33.77400 0.87400 25.36100
H  35.61200 2.76200 25.02800
H  36.60900 1.66800 24.10600
H  37.19800 2.36300 25.55400
H  33.26200 -1.34800 26.79200
H  34.87400 -1.80800 26.16700
H  33.46900 -1.06300 23.73200
H  32.43600 -1.97200 24.82200
H  33.98700 -2.59200 24.33900
H  30.09800 3.37900 29.04800
H  29.62300 1.61000 29.07800
H  30.60400 2.40900 27.73100
H  31.96100 2.48800 34.10200
H  31.19300 6.57000 36.02100
H  32.03600 6.93900 34.59800
H  32.77700 6.00800 36.00900
Mg 40.51100 8.71000 29.30000
C  42.27400 10.34100 31.87400
C  38.64900 7.14700 31.67200
C  38.60100 7.46200 26.92100
C  42.61900 10.14200 27.00600
N  40.45900 8.71100 31.59200
C  41.20100 9.49100 32.40000
C  40.56500 9.53200 33.82400
C  39.33400 8.49600 33.68700
C  39.53200 8.03800 32.23400
C  39.31100 7.26000 34.64800
C  40.22300 10.96100 34.20100
C  39.23000 11.18000 35.48500
H  39.84600 12.16700 36.63800
N  38.92700 7.43100 29.29600
C  38.29500 6.86500 30.35900
C  37.22700 5.97600 29.85400
C  37.20900 6.01200 28.45400
C  38.31200 6.98100 28.13400
C  36.33500 5.10600 30.82900
C  36.29100 5.20000 27.48200
O  36.48600 5.32100 26.25600
C  35.15500 4.38800 27.95000
N  40.76700 8.60200 27.21900
C  39.72600 8.15600 26.43800
C  39.92700 8.56800 24.96700
C  41.14000 9.57300 25.02900
C  41.52200 9.44200 26.49400
C  40.12600 7.38100 24.09000
C  41.04300 11.01400 24.40900
C  40.09500 11.94500 25.15300
N  42.23800 9.82400 29.38300
C  43.07000 10.30600 28.34600
C  44.18000 11.07800 28.93900
C  43.86700 11.10200 30.26800
C  42.70200 10.36500 30.51800
C  45.25300 11.76400 28.23300
C  44.33300 11.63300 31.52200
O  45.24900 12.38000 31.80400
C  43.18200 11.26300 32.58400
C  43.84200 10.56300 33.73100
O  44.57000 9.58600 33.62300
O  43.45400 11.09700 34.94600
C  43.69300 10.12300 36.14000
H  37.98000 6.67400 32.39400
H  37.89900 7.19200 26.13000
H  43.15200 10.74200 26.26500
H  41.30900 9.09800 34.49300
H  38.39900 9.05200 33.76700
H  38.49500 7.49400 35.33200
H  40.24700 7.20700 35.20400
H  39.11700 6.27600 34.22000
H  39.84700 11.44000 33.29600
H  41.14700 11.46700 34.48100
H  38.86700 10.23600 35.89100
H  38.29200 11.61000 35.13500
H  35.29100 5.14000 30.51600
H  36.35300 5.55600 31.82100
H  36.71400 4.09300 30.96400
H  34.76700 3.92900 27.04100
H  34.38700 5.00700 28.41400
H  35.58800 3.83400 28.78300
H  39.03600 9.12400 24.67800
H  42.01200 9.18200 24.50500
H  41.13600 7.13000 23.76500
H  39.36100 7.31700 23.31600
H  39.80800 6.50400 24.65400
H  40.67100 10.83600 23.40100
H  42.04400 11.44600 24.38400
H  39.67500 11.53000 26.06900
H  39.27100 12.09600 24.45600
H  40.50900 12.92800 25.37600
H  46.15100 11.16600 28.38900
H  45.46000 12.75600 28.63300
H  44.96600 11.91800 27.19300
H  42.79900 12.24800 32.85100
H  43.63100 9.08100 35.82800
H  42.87000 10.30000 36.83200
H  44.64200 10.34900 36.62700

