158

Mg -2.11900 16.56300 26.92800
C  -2.43000 14.43900 29.60300
C  -2.56400 19.24700 28.92700
C  -2.07900 18.64600 24.13900
C  -1.74900 13.82400 24.80100
N  -2.68800 16.75000 29.03900
C  -2.57100 15.77700 30.00400
C  -2.75400 16.37400 31.43100
C  -2.94900 17.88200 31.04600
C  -2.63500 17.97400 29.58400
C  -4.37800 18.48700 31.45200
C  -1.58700 16.06400 32.38600
C  -1.32100 16.96100 33.57000
H  -0.80700 16.39000 34.87500
N  -2.29900 18.74700 26.61300
C  -2.46400 19.66700 27.56700
C  -2.50500 21.01900 27.00000
C  -2.38300 20.82900 25.55200
C  -2.30700 19.36500 25.38000
C  -2.53400 22.31000 27.82600
C  -2.38900 21.90700 24.47100
O  -2.52100 21.67500 23.25500
C  -2.40300 23.34000 24.84200
N  -1.79200 16.33800 24.88700
C  -1.91000 17.33800 23.90800
C  -1.70400 16.75500 22.49800
C  -1.38100 15.22800 22.74900
C  -1.63200 15.07500 24.23800
C  -2.86300 16.94200 21.41100
C  -0.01900 14.74800 22.17100
C  0.09800 13.31400 21.61400
N  -2.09300 14.57500 27.10900
C  -1.91000 13.59100 26.14300
C  -2.05800 12.32300 26.83200
C  -2.18800 12.60200 28.15500
C  -2.13700 13.96600 28.29400
C  -2.21300 11.00200 26.11700
C  -2.36900 12.03900 29.44300
O  -2.37400 10.85700 29.75900
C  -2.45100 13.20500 30.46800
C  -1.28100 13.05400 31.34600
O  -0.17500 13.47900 31.12900
O  -1.59800 12.27800 32.44800
C  -0.44800 11.92000 33.26200
H  -2.50300 20.13200 29.56400
H  -2.07000 19.29600 23.26300
H  -1.72500 12.94500 24.15400
H  -3.66200 16.09800 31.96700
H  -2.18000 18.37900 31.63600
H  -4.18100 19.30300 32.14800
H  -5.01600 17.76900 31.96600
H  -4.89100 19.02100 30.65200
H  -0.70300 15.92400 31.76400
H  -1.90800 15.12000 32.82600
H  -2.29100 17.43900 33.71200
H  -0.58100 17.71300 33.29800
H  -2.80400 22.17200 28.87300
H  -3.31500 22.96100 27.43400
H  -1.57200 22.76100 27.58300
H  -3.31600 23.44400 25.42800
H  -2.48200 24.07000 24.03600
H  -1.68400 23.56300 25.63000
H  -0.74300 17.15700 22.17800
H  -2.12400 14.54200 22.34000
H  -3.68500 16.22700 21.42700
H  -2.36300 16.83300 20.44900
H  -3.20900 17.96400 21.56800
H  0.70200 14.80200 22.98700
H  0.47100 15.45000 21.49600
H  0.48400 13.32800 20.59500
H  -0.82700 12.74400 21.53400
H  0.82000 12.69200 22.14300
H  -2.72300 10.29000 26.76600
H  -1.23300 10.67100 25.77400
H  -2.85500 11.23000 25.26600
H  -3.39600 12.98900 30.96700
H  0.42900 11.55500 32.72800
H  -0.85200 11.21700 33.99100
H  -0.05000 12.85800 33.65100
Mg 48.71700 35.83900 28.70100
C  46.51100 34.08800 30.81400
C  48.48100 38.55700 30.83500
C  50.60500 37.69400 26.62900
C  48.28500 33.38600 26.22100
N  47.76500 36.20700 30.66300
C  47.00300 35.27200 31.37900
C  46.49300 35.87200 32.73600
C  46.94500 37.36700 32.59800
C  47.68300 37.42100 31.25200
C  45.72300 38.35900 32.53400
C  47.07100 35.19600 33.98900
C  48.59800 34.81200 34.16300
H  49.64900 35.81800 34.52000
N  49.57500 37.79800 28.78000
C  49.43400 38.66800 29.80000
C  50.24200 39.84600 29.61400
C  50.80500 39.69500 28.31200
C  50.38500 38.35700 27.82600
C  50.33800 40.88000 30.66000
C  51.63000 40.74100 27.52500
O  52.07500 40.50500 26.43000
C  51.97500 42.10900 28.13500
N  49.18500 35.62900 26.68000
C  50.08400 36.46600 26.08400
C  50.43400 36.03100 24.64600
C  49.99000 34.50000 24.69300
C  49.04100 34.50000 25.87300
C  49.70400 36.79400 23.49200
C  51.15000 33.40800 24.80900
C  51.05400 32.20700 23.98100
N  47.61100 34.12200 28.44300
C  47.48400 33.25500 27.36500
C  46.40200 32.25400 27.69500
C  46.09200 32.57600 29.03900
C  46.81200 33.67000 29.48300
C  45.86800 31.18200 26.89500
C  45.25700 32.07200 30.12400
O  44.50000 31.14700 30.08600
C  45.36200 33.16500 31.22400
C  45.65800 32.48200 32.51500
O  46.69000 31.84200 32.69800
O  44.61100 32.57400 33.31300
C  44.58000 31.96000 34.63500
H  48.46500 39.38900 31.54200
H  51.32400 38.26800 26.04100
H  48.11500 32.54100 25.55000
H  45.42400 35.66400 32.68700
H  47.63100 37.66100 33.39200
H  45.70400 38.97800 33.43100
H  44.83600 37.72900 32.46000
H  45.63800 38.87300 31.57700
H  46.41500 34.35200 34.19800
H  46.84300 35.83800 34.84000
H  48.92400 34.36000 33.22600
H  48.70600 34.03200 34.91600
H  50.21500 40.37000 31.61600
H  49.45000 41.50600 30.57500
H  51.32100 41.35200 30.66000
H  51.03900 42.65400 28.25600
H  52.57600 42.65900 27.41100
H  52.45600 42.00300 29.10700
H  51.51500 35.94000 24.53300
H  49.27000 34.28500 23.90200
H  49.51000 37.79000 23.88700
H  48.76500 36.34400 23.16800
H  50.41500 37.03300 22.70100
H  51.25800 32.89600 25.76500
H  52.13100 33.79900 24.53700
H  50.54500 32.44400 23.04700
H  50.53000 31.37000 24.44200
H  52.09400 31.98500 23.74000
H  45.21000 30.59700 27.53800
H  46.67000 30.49000 26.63800
H  45.24900 31.53600 26.07000
H  44.37100 33.61700 31.16900
H  44.65600 32.80300 35.32200
H  45.37200 31.22700 34.78600
H  43.62200 31.47500 34.82200

