158

Mg 36.31700 49.79400 25.90800
C  36.83100 47.93800 28.81800
C  35.14600 52.27100 27.73400
C  35.94000 51.41000 23.01400
C  37.19300 46.89600 23.96300
N  35.95100 50.00300 28.04800
C  36.42400 49.22100 29.03700
C  36.19800 49.91900 30.39800
C  35.45200 51.25500 30.05700
C  35.44100 51.21100 28.48300
C  34.00000 51.32300 30.54200
C  37.49100 50.08400 31.21300
C  37.49200 49.61300 32.60600
H  36.22900 49.71400 33.40300
N  35.70500 51.63000 25.39200
C  35.26300 52.53000 26.33500
C  35.00500 53.81800 25.70600
C  35.17200 53.62800 24.30200
C  35.56700 52.20300 24.17700
C  34.55900 54.91100 26.52500
C  35.04700 54.61700 23.19600
O  35.08300 54.32000 21.99100
C  34.83100 56.11000 23.48500
N  36.36600 49.14300 23.90800
C  36.26300 50.05700 22.92700
C  36.40800 49.40600 21.52000
C  36.99800 48.01200 21.80200
C  36.79400 48.00200 23.30300
C  35.05500 49.33700 20.64500
C  38.53200 47.88000 21.38100
C  38.84200 47.08600 20.02300
N  36.75000 47.76000 26.27200
C  37.06400 46.70600 25.39700
C  37.48400 45.54900 26.14800
C  37.40000 45.97900 27.51900
C  36.98800 47.31900 27.55300
C  38.05900 44.29400 25.60500
C  37.62900 45.56900 28.91700
O  37.95500 44.46400 29.33700
C  37.20100 46.82100 29.79800
C  36.08800 46.37000 30.63200
O  34.91600 46.39100 30.38000
O  36.56700 45.99100 31.94200
C  35.57200 45.56300 32.96000
H  34.77900 53.13900 28.28600
H  35.89600 51.98000 22.08300
H  37.36500 46.04400 23.30200
H  35.45200 49.21900 30.77600
H  36.04800 52.09100 30.42300
H  33.37500 51.78300 29.77700
H  34.03300 51.97500 31.41500
H  33.70900 50.31800 30.84800
H  37.78400 51.12800 31.09600
H  38.23800 49.57100 30.60800
H  38.16000 50.22700 33.20900
H  37.85400 48.58900 32.69300
H  35.42500 55.57000 26.59400
H  34.10800 54.75300 27.50400
H  33.82800 55.50600 25.97800
H  35.51100 56.29900 24.31700
H  33.74900 56.18000 23.59600
H  35.12700 56.64100 22.58100
H  37.11100 50.00700 20.94300
H  36.39800 47.18100 21.43000
H  35.28900 49.08500 19.61100
H  34.40300 50.20800 20.71200
H  34.53300 48.47300 21.05500
H  39.02400 47.38800 22.22000
H  38.94900 48.88700 21.37400
H  37.87600 46.63500 19.79500
H  39.64600 46.38000 20.22800
H  39.06700 47.67200 19.13100
H  38.46100 44.45200 24.60400
H  37.22600 43.59600 25.52200
H  38.85400 44.03200 26.30200
H  38.03900 47.19800 30.38400
H  36.08000 45.13700 33.82500
H  35.03400 44.82500 32.36500
H  34.90200 46.39500 33.17900
Mg -10.09300 17.22500 41.40100
C  -6.63000 16.38400 41.39500
C  -9.10200 20.40600 40.50400
C  -13.29000 18.00300 41.06400
C  -10.77200 13.83900 41.41600
N  -8.05300 18.25900 40.96300
C  -6.79600 17.74900 41.03500
C  -5.74400 18.77800 40.55600
C  -6.54000 20.17600 40.72600
C  -8.00800 19.62300 40.83200
C  -6.04600 21.02700 41.87600
C  -5.25500 18.63000 39.08900
C  -3.81900 18.33700 38.73800
H  -3.42300 16.90900 38.28100
N  -11.08400 18.99900 40.88800
C  -10.44000 20.15300 40.50600
C  -11.50700 21.09800 40.13800
C  -12.71300 20.47900 40.35500
C  -12.42100 19.13900 40.78600
C  -11.29300 22.46400 39.68400
C  -14.05000 21.07000 40.12500
O  -14.23300 22.23400 39.75400
C  -15.20700 20.29100 40.50700
N  -11.77300 16.08100 41.08900
C  -13.01300 16.63900 41.12000
C  -14.19100 15.59600 41.14200
C  -13.39700 14.28100 41.33100
C  -11.86000 14.74700 41.29400
C  -15.29800 15.79300 42.15200
C  -13.69600 13.17900 40.20100
C  -13.94700 11.73400 40.87400
N  -9.01300 15.39500 41.52100
C  -9.40300 14.11600 41.57100
C  -8.23700 13.22500 41.62000
C  -7.14500 14.12700 41.64100
C  -7.65100 15.43600 41.55500
C  -8.20900 11.77100 41.43700
C  -5.67300 14.18800 41.67400
O  -4.82300 13.29400 41.59000
C  -5.32600 15.70400 41.72300
C  -4.88700 16.03400 43.12600
O  -5.32200 16.92800 43.82300
O  -3.94400 15.10700 43.55500
C  -3.48300 15.28000 44.89200
H  -8.77200 21.41500 40.24700
H  -14.37400 18.12400 41.03500
H  -11.10500 12.80300 41.33400
H  -4.88000 18.72200 41.21900
H  -6.52800 20.74600 39.79700
H  -6.76200 20.96700 42.69600
H  -5.98600 22.06400 41.54500
H  -5.07400 20.67400 42.22200
H  -5.67300 19.45300 38.50900
H  -5.78000 17.75700 38.70100
H  -3.18200 18.63800 39.57000
H  -3.57500 19.03400 37.93600
H  -11.45200 22.63500 38.62000
H  -10.26900 22.76900 39.90000
H  -11.85500 23.06300 40.40100
H  -15.34300 19.47200 39.80100
H  -16.07300 20.95200 40.46700
H  -15.10900 20.02200 41.55800
H  -14.57500 15.63300 40.12300
H  -13.51200 13.89200 42.34300
H  -16.09500 16.43000 41.76800
H  -15.02100 16.30300 43.07500
H  -15.73600 14.85000 42.47800
H  -12.86500 13.19100 39.49600
H  -14.60200 13.40100 39.63600
H  -13.28300 11.04100 40.35700
H  -14.95600 11.32600 40.80100
H  -13.68700 11.81300 41.92900
H  -9.22600 11.37800 41.41100
H  -7.61600 11.37500 42.26100
H  -7.88000 11.42600 40.45700
H  -4.44700 15.83000 41.09200
H  -4.21600 15.60800 45.62800
H  -2.64600 15.97700 44.94600
H  -3.03900 14.32100 45.16000

