158

Mg 40.53400 7.58700 29.94900
C  42.48000 8.91600 32.53700
C  38.39200 6.38000 32.29600
C  38.92200 5.92200 27.37000
C  43.16700 8.19400 27.76700
N  40.49500 7.61200 32.19400
C  41.26800 8.38500 33.03200
C  40.78300 8.28200 34.47900
C  39.56500 7.29500 34.33600
C  39.50900 6.95600 32.82300
C  39.75700 5.94000 35.19500
C  40.54700 9.69800 35.09200
C  39.61800 9.76100 36.37700
H  40.39400 9.96600 37.70400
N  38.81300 6.50900 29.78700
C  38.03000 6.05900 30.90400
C  36.82900 5.41400 30.43200
C  36.89100 5.37000 28.97400
C  38.25000 5.97200 28.65200
C  35.76700 4.96700 31.37000
C  35.84000 4.88900 28.00400
O  36.06500 4.89400 26.77700
C  34.55800 4.42200 28.53100
N  40.99200 7.19000 27.76900
C  40.19900 6.45000 26.97600
C  40.83400 6.32800 25.61700
C  42.15900 7.15400 25.67700
C  42.12700 7.62300 27.13500
C  40.97600 4.84200 25.09800
C  42.25800 8.37400 24.63600
C  41.42600 9.49400 24.99500
N  42.45600 8.30700 30.08500
C  43.42600 8.47100 29.10100
C  44.48500 9.21500 29.70300
C  44.20100 9.37800 31.07700
C  42.94100 8.84400 31.18700
C  45.76700 9.55700 28.88100
C  44.75300 9.83600 32.34500
O  45.82300 10.28800 32.60500
C  43.59300 9.53100 33.40200
C  44.11500 8.64000 34.51400
O  44.15600 7.40500 34.54000
O  44.50100 9.36300 35.60000
C  45.07800 8.78100 36.68600
H  37.69200 5.94700 33.01400
H  38.38200 5.39500 26.58000
H  43.90800 8.43500 27.00200
H  41.65700 7.84600 34.96400
H  38.59600 7.69900 34.62700
H  38.87100 5.65600 35.76300
H  40.71300 6.05200 35.70600
H  39.81400 5.11200 34.48900
H  40.18600 10.35100 34.29600
H  41.52600 10.13300 35.29200
H  39.19500 8.75900 36.45000
H  38.88600 10.56900 36.37300
H  35.01300 5.73900 31.53100
H  36.27000 4.67400 32.29100
H  35.21500 4.10000 31.00700
H  34.15800 5.15800 29.22800
H  34.69200 3.44300 28.99200
H  33.88000 4.28500 27.68900
H  40.11500 6.95500 25.08900
H  42.98000 6.45200 25.52500
H  41.87600 4.47300 24.60600
H  40.16900 4.72800 24.37400
H  40.65100 4.32100 25.99900
H  41.86300 7.88600 23.74400
H  43.30300 8.66000 24.51600
H  40.66200 9.23900 25.73000
H  40.73400 9.60800 24.16100
H  42.03200 10.37200 25.22100
H  46.63300 9.42000 29.52900
H  45.69000 10.62600 28.68500
H  45.82500 8.87300 28.03400
H  43.28800 10.48500 33.83200
H  45.92500 8.21500 36.29600
H  44.33900 8.07200 37.05900
H  45.33400 9.38800 37.55400
Mg 46.09400 44.87000 42.56900
C  42.63200 44.03300 42.36000
C  46.92600 41.67100 41.78100
C  49.30200 45.74400 42.35000
C  45.10900 48.15800 42.65600
N  44.86300 43.09400 42.04000
C  43.49100 42.93700 42.02200
C  43.08600 41.47100 41.97000
C  44.49700 40.78100 41.76700
C  45.51900 41.93100 41.84300
C  44.75800 39.63500 42.80700
C  42.00000 41.12000 40.85900
C  42.04400 41.93000 39.52700
H  41.81800 41.19600 38.11200
N  47.86600 43.89500 42.23000
C  48.00800 42.52600 41.97300
C  49.40400 42.11800 41.90400
C  50.18300 43.34400 42.02800
C  49.13700 44.43300 42.17200
C  49.95500 40.69000 41.83000
C  51.71400 43.40300 41.96700
O  52.40500 42.39700 41.87700
C  52.39200 44.73700 42.07300
N  47.05000 46.73400 42.22700
C  48.40500 46.82600 42.41600
C  48.85000 48.30400 42.55900
C  47.39400 49.00600 42.56500
C  46.47900 47.87200 42.57800
C  49.83600 48.72900 43.73300
C  47.11900 49.97600 41.40000
C  46.97200 51.47300 41.82500
N  44.25700 45.95600 42.67800
C  44.00000 47.29100 42.70500
C  42.63700 47.60100 42.77400
C  42.00300 46.37700 42.64700
C  43.06800 45.39200 42.55500
C  41.96800 48.97600 43.17100
C  40.75500 45.65500 42.56700
O  39.59400 46.02000 42.51900
C  41.12800 44.10200 42.42100
C  40.68600 43.40800 43.64900
O  40.40300 42.24300 43.68200
O  40.71200 44.11900 44.84200
C  40.90000 43.38200 46.15700
H  47.19100 40.63300 41.57100
H  50.31900 46.13200 42.43900
H  44.81800 49.19000 42.85800
H  42.76400 41.33800 43.00300
H  44.61800 40.34400 40.77600
H  45.51300 39.92300 43.53900
H  45.06300 38.77800 42.20600
H  43.87300 39.36700 43.38400
H  41.00600 41.13600 41.30700
H  42.31200 40.08600 40.71100
H  43.01400 42.42300 39.46500
H  41.31500 42.73400 39.42500
H  50.70900 40.67600 41.04300
H  49.19200 39.94600 41.60200
H  50.47400 40.50200 42.77000
H  51.98300 45.34300 41.26400
H  53.47300 44.68500 41.94100
H  52.13000 45.13100 43.05500
H  49.34600 48.74200 41.69300
H  47.28900 49.48100 43.54000
H  49.29000 49.37900 44.41600
H  50.72600 49.17800 43.29200
H  50.20900 47.77600 44.10800
H  46.23000 49.62700 40.87500
H  47.95100 50.01000 40.69700
H  47.63500 52.06100 41.19100
H  47.38700 51.56800 42.82800
H  45.96900 51.88300 41.70200
H  41.30300 48.82400 44.02200
H  41.33700 49.31700 42.35100
H  42.68200 49.77200 43.38500
H  40.64900 43.67400 41.54000
H  40.67200 44.04100 46.99500
H  41.98200 43.25300 46.13300
H  40.27800 42.48700 46.17900

