158

Mg -1.25700 16.82700 26.37400
C  -1.92400 14.49400 28.96500
C  -1.79700 19.37500 28.68400
C  -1.25400 19.15600 23.92000
C  -1.58000 14.27600 24.04900
N  -1.81500 16.89400 28.54000
C  -1.86800 15.82900 29.42000
C  -1.83200 16.37900 30.86000
C  -1.97600 17.94200 30.71600
C  -1.78800 18.12200 29.20200
C  -3.50100 18.48600 31.17400
C  -0.47500 15.94900 31.61100
C  -0.28900 16.62600 32.98600
H  -0.37600 15.74200 34.28800
N  -1.34300 18.96000 26.31600
C  -1.63100 19.83200 27.39100
C  -1.65700 21.23500 26.91000
C  -1.53900 21.16900 25.50800
C  -1.32200 19.76500 25.18000
C  -1.87900 22.41800 27.85100
C  -1.67600 22.30000 24.54300
O  -1.74100 22.16300 23.31100
C  -1.87700 23.70500 25.06800
N  -1.45400 16.70500 24.29800
C  -1.30000 17.80800 23.51200
C  -1.24500 17.35400 21.95800
C  -1.02400 15.78200 22.08500
C  -1.42700 15.55800 23.52700
C  -2.48800 17.85500 21.15500
C  0.37100 15.19100 21.57000
C  1.52300 15.69600 22.41200
N  -1.65400 14.79400 26.43300
C  -1.76700 13.86200 25.37000
C  -1.88500 12.54300 25.94700
C  -2.01100 12.73300 27.31000
C  -1.81200 14.12500 27.54200
C  -1.95300 11.23900 25.22700
C  -2.14100 12.07000 28.58900
O  -2.13800 10.86700 28.83000
C  -2.44400 13.14700 29.63900
C  -1.69200 12.71500 30.85900
O  -0.51000 12.51800 30.78900
O  -2.47400 12.53800 31.93800
C  -1.84200 12.30100 33.22700
H  -1.85400 20.16200 29.43900
H  -1.18200 19.76300 23.01500
H  -1.41700 13.37100 23.45900
H  -2.75500 15.96900 31.26800
H  -1.18100 18.42800 31.28200
H  -3.35300 19.35500 31.81400
H  -4.06900 17.70100 31.67300
H  -4.01300 18.88200 30.29700
H  0.33600 16.29000 30.96700
H  -0.47600 14.85900 31.64600
H  -1.09300 17.33300 33.18800
H  0.56600 17.30100 32.93900
H  -2.76800 22.93000 27.48300
H  -0.99500 23.05400 27.89700
H  -1.98100 22.10700 28.89000
H  -2.85900 23.73700 25.53900
H  -1.97400 24.32400 24.17600
H  -1.05800 24.10800 25.66400
H  -0.36200 17.82800 21.53100
H  -1.83700 15.43000 21.44900
H  -3.08800 18.38000 21.89900
H  -3.14000 17.06800 20.77500
H  -2.25400 18.58900 20.38400
H  0.66500 15.62800 20.61600
H  0.41800 14.10300 21.62400
H  1.25700 16.01100 23.42000
H  1.92700 16.63500 22.03500
H  2.33800 14.97200 22.40200
H  -2.20200 11.36400 24.17400
H  -2.80700 10.76100 25.70600
H  -1.08000 10.59900 25.36100
H  -3.49100 13.18000 29.94200
H  -0.76400 12.14600 33.19800
H  -2.29600 11.48900 33.79400
H  -1.99100 13.13500 33.91300
Mg 26.19200 -0.27600 29.11600
C  27.85800 -0.65100 32.08100
C  23.17700 0.16600 30.83700
C  24.54100 -0.27900 26.14100
C  29.22600 -0.87600 27.34800
N  25.53100 -0.50300 31.18200
C  26.44900 -0.41200 32.21900
C  25.63200 -0.08100 33.57200
C  24.12900 0.19700 33.04500
C  24.27100 -0.08600 31.56700
C  23.04400 -0.72700 33.81700
C  26.15100 1.04500 34.54000
C  26.46800 0.47200 35.94800
H  27.30100 1.39900 36.82600
N  24.16500 -0.03100 28.60100
C  23.06700 0.16300 29.43900
C  21.84800 0.37200 28.63100
C  22.24600 0.27200 27.22200
C  23.70100 -0.00900 27.27500
C  20.48000 0.55300 29.28100
C  21.45600 0.33300 25.92700
O  21.90300 0.24900 24.79800
C  19.98100 0.49900 26.11200
N  26.81500 -0.49100 27.08900
C  25.95000 -0.52300 26.04100
C  26.60500 -0.90100 24.72200
C  28.10800 -0.66600 25.01800
C  28.07900 -0.66900 26.62500
C  26.22300 -2.34900 24.37300
C  28.74500 0.72400 24.61800
C  29.12300 0.86900 23.06500
N  28.08700 -0.70700 29.60700
C  29.21800 -0.92000 28.78500
C  30.31700 -1.22400 29.67300
C  29.89500 -1.06200 30.96500
C  28.51200 -0.83900 30.84600
C  31.71000 -1.52300 29.28900
C  30.24100 -0.97700 32.34000
O  31.33500 -1.00900 32.96700
C  28.95000 -0.70600 33.13300
C  28.72300 -1.93200 34.05700
O  28.43200 -3.08400 33.77000
O  29.10400 -1.55700 35.33500
C  29.14100 -2.70400 36.30700
H  22.36800 0.49800 31.49100
H  24.09400 -0.38700 25.15100
H  30.14300 -1.04400 26.78000
H  25.68200 -1.04500 34.07900
H  23.90400 1.26100 33.11700
H  22.47400 -1.37700 33.15200
H  22.30600 -0.19100 34.41400
H  23.64500 -1.37900 34.45100
H  25.46200 1.88900 34.57200
H  27.14500 1.29800 34.17200
H  26.88900 -0.52600 35.82500
H  25.47500 0.35700 36.38200
H  20.07900 1.54000 29.05400
H  20.65000 0.54900 30.35700
H  19.83000 -0.27800 29.00600
H  19.51000 0.58100 25.13200
H  19.84100 1.40100 26.70800
H  19.57400 -0.42600 26.52000
H  26.22200 -0.36700 23.85200
H  28.73400 -1.49800 24.69400
H  25.28600 -2.62200 24.85800
H  26.98500 -3.04800 24.71800
H  26.00100 -2.53400 23.32200
H  29.69900 0.99000 25.07400
H  27.99400 1.47600 24.86200
H  28.45900 1.55300 22.53700
H  28.92100 -0.08500 22.57900
H  30.13700 1.22300 22.87900
H  31.91200 -1.22100 28.26100
H  31.89300 -2.59700 29.27600
H  32.44300 -1.13700 29.99700
H  29.06900 0.17600 33.76200
H  28.37300 -2.58000 37.07100
H  30.11500 -2.83400 36.78000
H  28.99000 -3.69600 35.88100

