158

Mg 51.91300 24.52000 45.28800
C  49.13200 26.49300 44.59700
C  50.22700 21.77000 44.09800
C  54.94200 22.76000 45.36000
C  53.73300 27.34900 46.35500
N  49.95000 24.16500 44.26400
C  48.95200 25.13100 44.11400
C  47.77000 24.51500 43.32900
C  47.94800 22.99300 43.63100
C  49.45200 22.93200 44.02600
C  47.03000 22.66800 44.74900
C  47.73600 24.93000 41.77900
C  49.14000 25.30200 41.20900
H  49.13200 25.48500 39.66600
N  52.53900 22.53900 44.81100
C  51.62000 21.57000 44.42900
C  52.39900 20.31500 44.37600
C  53.74100 20.59300 44.49100
C  53.81400 22.03100 44.94000
C  51.78400 19.03600 43.93500
C  54.90800 19.64600 44.27100
O  54.62400 18.59600 43.70900
C  56.38300 19.90700 44.54500
N  54.09000 25.01600 45.61700
C  55.05400 24.11600 45.65100
C  56.47200 24.69200 45.97000
C  56.09700 26.20000 46.32800
C  54.53900 26.22800 46.02600
C  57.23000 23.84600 47.13700
C  56.88500 27.20200 45.38900
C  57.65300 28.21600 46.12800
N  51.50300 26.53000 45.53500
C  52.32900 27.56500 45.97700
C  51.44800 28.74000 46.19300
C  50.21200 28.33700 45.63600
C  50.30800 27.01100 45.26700
C  51.88800 30.08200 46.77700
C  48.86900 28.76400 45.32600
O  48.40200 29.91000 45.44600
C  48.11600 27.66800 44.58800
C  47.68000 28.10500 43.29400
O  48.38200 28.31200 42.31200
O  46.32400 28.26100 43.38100
C  45.70000 28.86700 42.22500
H  49.63500 20.86200 43.96200
H  55.85000 22.16900 45.49100
H  54.27100 28.14000 46.88100
H  46.88800 24.94900 43.80000
H  47.73200 22.36500 42.76700
H  47.29600 21.66100 45.07000
H  46.02900 22.71900 44.32000
H  46.92300 23.37300 45.57300
H  46.99100 25.72400 41.71800
H  47.39400 24.10600 41.15300
H  49.76200 24.42200 41.37600
H  49.57600 26.19000 41.66600
H  51.41300 19.01800 42.91100
H  50.92800 18.76800 44.55400
H  52.50600 18.26100 44.19100
H  57.09700 19.20300 44.11700
H  56.55100 20.07100 45.60900
H  56.62200 20.82600 44.01000
H  57.04800 24.57000 45.05200
H  56.34900 26.50300 47.34400
H  56.45300 23.28400 47.65500
H  57.76400 24.56400 47.76000
H  57.91800 23.16800 46.63200
H  56.16200 27.84900 44.89300
H  57.52000 26.70400 44.65600
H  57.26200 29.21400 45.92800
H  58.71600 28.12100 45.91000
H  57.50100 28.14300 47.20500
H  51.06100 30.79100 46.73200
H  52.79500 30.34100 46.23000
H  52.16600 30.07700 47.83100
H  47.25000 27.50000 45.22800
H  44.62400 29.01800 42.31000
H  45.95000 28.36600 41.28900
H  46.06900 29.88200 42.08100
Mg 39.88100 41.48200 26.86700
C  39.05300 43.69100 29.47900
C  40.36000 38.94900 29.17500
C  40.81600 39.45000 24.27000
C  39.20700 43.99100 24.56100
N  39.90100 41.42800 29.21200
C  39.40500 42.39700 30.03400
C  39.29800 41.86100 31.44900
C  39.76600 40.34600 31.26200
C  40.04400 40.24200 29.76300
C  41.00300 39.97900 32.23500
C  37.88900 42.05400 32.09000
C  37.58700 41.34900 33.44500
H  37.06400 42.37000 34.51600
N  40.59500 39.44300 26.79600
C  40.74500 38.60100 27.88600
C  41.14300 37.24500 27.37500
C  41.23800 37.39500 25.95100
C  40.88700 38.79900 25.60800
C  41.46100 36.02700 28.24100
C  41.68500 36.40300 24.87700
O  41.83600 36.65600 23.69600
C  41.83800 34.91300 25.21300
N  40.06800 41.71400 24.69900
C  40.47300 40.72000 23.90900
C  40.29500 41.05200 22.43900
C  39.52900 42.39700 22.54100
C  39.64500 42.76100 23.96700
C  41.51300 41.13000 21.52300
C  38.11000 42.41200 21.82100
C  37.15300 41.46900 22.31500
N  39.31700 43.41000 26.95600
C  39.10800 44.33700 25.92500
C  38.72900 45.60600 26.43300
C  38.67500 45.34900 27.84600
C  39.09200 44.04200 28.10000
C  38.45500 46.94100 25.63700
C  38.14600 45.97600 29.08600
O  37.54000 47.05200 29.27700
C  38.45200 44.90500 30.21900
C  39.34100 45.55500 31.22500
O  40.50000 45.91600 30.97500
O  38.73100 45.83500 32.42200
C  39.36300 46.72300 33.40100
H  40.48800 38.17800 29.93700
H  40.96300 38.74500 23.44900
H  38.97100 44.74900 23.81200
H  39.98700 42.43900 32.06500
H  38.95000 39.67800 31.53700
H  40.95000 38.94600 32.57900
H  41.13500 40.69100 33.05000
H  41.86800 39.93600 31.57300
H  37.07600 41.93300 31.37400
H  37.94200 43.12700 32.27000
H  38.45900 40.86700 33.88900
H  36.84300 40.62500 33.11500
H  42.54100 36.02400 28.38700
H  41.12200 35.12200 27.73700
H  40.90200 36.01200 29.17700
H  42.01500 34.27600 24.34600
H  40.91900 34.66200 25.74100
H  42.70100 34.71700 25.84900
H  39.63800 40.28900 22.02100
H  39.98900 43.23400 22.01700
H  42.42000 40.80600 22.03400
H  41.51800 42.17200 21.20200
H  41.33500 40.55600 20.61300
H  38.40800 42.04800 20.83800
H  37.59300 43.37200 21.82600
H  36.50600 42.01700 23.00000
H  37.72800 40.73600 22.88200
H  36.66300 41.02300 21.45000
H  37.41600 46.97500 25.30700
H  39.23700 47.03300 24.88400
H  38.55400 47.71200 26.40100
H  37.49700 44.63800 30.66900
H  40.22500 46.36600 33.96500
H  38.56700 47.15800 34.00500
H  39.69100 47.58000 32.81300

