158

Mg 46.00900 4.75600 48.21000
C  43.73600 7.20200 47.45100
C  43.37200 2.47300 47.69400
C  48.17000 2.20800 48.12000
C  48.62500 7.06800 47.47100
N  43.71400 4.87800 47.82100
C  43.04800 5.96200 47.40200
C  41.60700 5.67800 46.92300
C  41.45400 4.19100 47.37800
C  42.89500 3.82700 47.72100
C  40.43200 4.03200 48.52200
C  41.68600 5.88400 45.37400
C  40.78100 7.03500 44.78800
H  41.33600 7.92600 43.65300
N  45.81100 2.66700 48.04800
C  44.64800 1.93400 47.84900
C  45.03200 0.54800 47.67400
C  46.38500 0.34300 47.89600
C  46.83800 1.72700 48.11300
C  44.01400 -0.56800 47.31900
C  47.21800 -0.93600 47.71000
O  46.61100 -2.01400 47.52800
C  48.65500 -0.97400 47.73700
N  48.07400 4.60800 47.98200
C  48.77600 3.44300 48.13300
C  50.31300 3.65300 47.96100
C  50.45600 5.22600 47.85400
C  48.98800 5.67800 47.76200
C  50.97900 3.01700 49.21900
C  51.35100 5.80000 46.79500
C  52.56300 6.58500 47.31700
N  46.23100 6.71800 47.77700
C  47.31500 7.51400 47.50700
C  46.92900 8.89500 47.50100
C  45.53600 8.83800 47.43600
C  45.12300 7.48100 47.63100
C  47.89000 10.08400 47.56800
C  44.37300 9.67200 47.34800
O  44.29500 10.90600 47.15900
C  43.13600 8.63900 47.31500
C  42.10000 8.97700 48.33500
O  41.94800 8.32200 49.35300
O  41.15100 9.87000 47.82400
C  40.12400 10.16800 48.76800
H  42.53900 1.77800 47.56900
H  48.96400 1.46200 48.18300
H  49.45300 7.78000 47.47100
H  40.86300 6.38000 47.29800
H  41.10200 3.47500 46.63400
H  40.98400 3.70400 49.40300
H  39.61000 3.34700 48.31300
H  39.85900 4.94700 48.67400
H  41.34800 5.01400 44.81000
H  42.64800 6.20500 44.97600
H  40.58900 7.70200 45.62900
H  39.76800 6.68100 44.59900
H  44.41400 -1.03500 46.41900
H  43.05200 -0.10600 47.09600
H  44.06700 -1.12700 48.25400
H  48.97300 -0.57200 48.69900
H  49.06400 -0.30300 46.98200
H  49.13400 -1.95200 47.69300
H  50.55800 3.16300 47.01900
H  50.89700 5.66100 48.75100
H  51.38300 2.11900 48.75200
H  50.20700 2.65600 49.89900
H  51.78700 3.65100 49.58400
H  50.91100 6.49500 46.08000
H  51.88900 4.98900 46.30400
H  52.36500 7.11700 48.24700
H  52.86000 7.31100 46.56100
H  53.40600 5.93200 47.54400
H  48.69400 9.91500 46.85100
H  48.32700 10.17300 48.56200
H  47.31800 10.98200 47.33500
H  42.61400 8.86000 46.38300
H  39.48500 10.91400 48.29400
H  40.37800 10.47200 49.78300
H  39.45100 9.31800 48.87800
Mg 8.92100 48.36000 25.59500
C  6.37200 48.75900 28.10600
C  11.14300 49.36000 28.04900
C  11.07900 48.14500 23.31500
C  6.19400 48.08800 23.37900
N  8.77800 48.84700 27.84700
C  7.66800 48.96400 28.65000
C  8.04700 49.11500 30.15000
C  9.53000 49.66600 30.04500
C  9.85800 49.26500 28.54000
C  9.63800 51.13800 30.41700
C  7.83100 47.84400 31.07200
C  7.60800 48.07500 32.63200
H  8.54300 47.49000 33.74400
N  10.90300 48.57700 25.72200
C  11.66600 49.06300 26.70400
C  13.04000 49.14700 26.20400
C  13.07100 48.70200 24.87400
C  11.69200 48.40500 24.58000
C  14.27700 49.72300 27.04900
C  14.15100 48.66700 23.83600
O  13.95100 48.39700 22.59300
C  15.59100 48.99000 24.30000
N  8.66900 48.32700 23.62600
C  9.74500 48.07100 22.89200
C  9.49300 47.57500 21.43900
C  7.89000 47.55700 21.44900
C  7.49400 47.98200 22.91300
C  10.16100 48.39000 20.31200
C  7.11500 46.32500 20.86100
C  6.25300 46.58800 19.60500
N  6.69300 48.27600 25.61700
C  5.77400 48.13200 24.68900
C  4.44100 47.91700 25.26600
C  4.59200 48.31200 26.56000
C  5.97000 48.42100 26.76600
C  3.17800 47.78000 24.47300
C  3.88600 48.70800 27.68600
O  2.67200 48.90100 27.89700
C  5.03300 49.10300 28.78300
C  4.71600 48.71600 30.11700
O  4.66200 47.57900 30.57000
O  4.54400 49.86500 30.86900
C  3.93100 49.81600 32.20600
H  11.88000 49.74200 28.75900
H  11.67200 47.78800 22.47100
H  5.44800 47.80000 22.63500
H  7.26800 49.76700 30.54600
H  10.10500 49.07600 30.75900
H  8.74800 51.48600 30.94200
H  9.84500 51.69900 29.50500
H  10.51000 51.23600 31.06300
H  8.71300 47.20300 31.08300
H  7.03400 47.28100 30.58700
H  6.58900 47.74400 32.83200
H  7.69500 49.15600 32.74400
H  14.47200 50.75400 26.75500
H  15.20100 49.16600 26.89400
H  14.04100 49.66600 28.11200
H  15.91300 48.15300 24.91900
H  15.73900 49.92700 24.83700
H  16.30600 48.98200 23.47700
H  9.59000 46.49000 21.43500
H  7.66300 48.42800 20.83500
H  10.24100 47.94800 19.31900
H  11.20000 48.62300 20.54800
H  9.63300 49.34300 20.26000
H  6.47300 45.76500 21.54100
H  7.86900 45.54800 20.73300
H  6.21700 47.66000 19.40900
H  5.26400 46.13900 19.70000
H  6.77100 46.06400 18.80200
H  2.46300 48.57700 24.67400
H  2.81500 46.78100 24.71300
H  3.36000 47.84400 23.40000
H  4.97700 50.19100 28.78400
H  3.07200 50.48600 32.21200
H  4.65600 50.24100 32.90000
H  3.54800 48.83300 32.47700

