158

Mg 2.59300 -0.98300 44.19300
C  5.98800 -0.17000 43.40500
C  1.55800 1.60400 42.36200
C  -0.55000 -2.20500 44.41500
C  3.77000 -4.16400 45.17000
N  3.67600 0.47900 42.94700
C  5.04100 0.67400 42.83200
C  5.30700 2.00000 42.08000
C  3.84900 2.61700 41.88200
C  2.95200 1.48600 42.37900
C  3.54700 4.06100 42.38400
C  6.25200 1.77500 40.88200
C  7.10400 2.95400 40.45700
H  6.71300 3.63200 39.09500
N  0.76400 -0.28300 43.59400
C  0.53700 0.79600 42.84700
C  -0.86300 0.96400 42.59200
C  -1.51100 -0.05900 43.25200
C  -0.37900 -0.94400 43.79700
C  -1.44300 2.16200 41.80600
C  -3.04900 -0.23700 43.32700
O  -3.85500 0.54800 42.84800
C  -3.59800 -1.36300 44.11500
N  1.73800 -2.90300 44.75600
C  0.42100 -3.14800 44.82500
C  0.16100 -4.60100 45.15100
C  1.56000 -5.22200 45.27700
C  2.42900 -4.01700 45.09200
C  -0.81800 -4.81500 46.28500
C  1.76200 -6.41500 44.27500
C  1.43200 -7.82400 44.76000
N  4.41900 -1.91700 44.41100
C  4.74600 -3.19600 44.89500
C  6.14400 -3.42700 44.90400
C  6.71700 -2.16300 44.45900
C  5.60700 -1.34200 44.11400
C  6.79200 -4.75000 45.32000
C  8.00100 -1.47300 44.20500
O  9.15300 -1.87500 44.42200
C  7.53300 -0.15100 43.45900
C  8.05900 1.02600 44.34200
O  7.46300 1.40900 45.36400
O  9.14500 1.64500 43.76000
C  9.71600 2.74400 44.59600
H  1.35200 2.54400 41.84700
H  -1.51900 -2.65700 44.63700
H  4.15400 -5.18400 45.23300
H  5.90700 2.60900 42.75700
H  3.73100 2.59900 40.79800
H  3.26000 4.65600 41.51600
H  4.46800 4.42100 42.84200
H  2.67300 4.22300 43.01500
H  5.62300 1.56400 40.01700
H  7.04100 1.03700 41.02600
H  8.14500 2.67100 40.30400
H  7.21400 3.70800 41.23600
H  -1.86300 1.76000 40.88400
H  -0.77900 2.99300 41.56600
H  -2.18100 2.66900 42.42700
H  -4.68400 -1.31000 44.04800
H  -3.24100 -1.23200 45.13700
H  -3.24500 -2.30500 43.69500
H  -0.28500 -4.94000 44.21500
H  1.67100 -5.49000 46.32800
H  -1.41500 -3.90600 46.34800
H  -0.31300 -4.95400 47.24100
H  -1.39000 -5.69900 46.00100
H  2.75000 -6.36400 43.81900
H  1.22100 -6.23500 43.34600
H  0.57700 -8.23100 44.22000
H  1.16700 -7.92600 45.81200
H  2.23600 -8.54500 44.60900
H  6.53800 -5.10000 46.32100
H  7.86700 -4.66200 45.16900
H  6.55200 -5.54600 44.61500
H  8.07200 -0.14700 42.51100
H  10.77000 2.88200 44.35500
H  9.67200 2.47800 45.65200
H  9.12800 3.65000 44.45600
Mg -11.09200 16.65700 41.72900
C  -7.76400 17.37400 41.56100
C  -11.83500 19.99100 41.14500
C  -14.37100 15.85600 41.60300
C  -10.34100 13.25200 42.13100
N  -9.94200 18.42400 41.34500
C  -8.61000 18.44300 41.26800
C  -8.07900 19.83400 40.91700
C  -9.36200 20.75900 41.16200
C  -10.43600 19.66300 41.26200
C  -9.34400 21.51800 42.51900
C  -7.67500 19.89000 39.44000
C  -6.20600 20.33300 39.19200
H  -5.52600 19.65100 38.02300
N  -12.85900 17.76700 41.17300
C  -12.95300 19.09200 41.08500
C  -14.33300 19.41400 40.90000
C  -15.07700 18.21600 40.96700
C  -14.08500 17.20400 41.28400
C  -14.73400 20.82700 40.73800
C  -16.59000 18.13600 40.58600
O  -17.26100 19.15000 40.38800
C  -17.20400 16.74400 40.33500
N  -12.19600 14.75300 41.80400
C  -13.54800 14.70100 41.83100
C  -14.10300 13.30200 42.04300
C  -12.76600 12.41700 42.01900
C  -11.70800 13.51100 41.96700
C  -14.89800 13.12300 43.27600
C  -12.84900 11.39800 40.80400
C  -13.14000 9.91200 41.09100
N  -9.37200 15.46700 41.86600
C  -9.22600 14.14400 42.13000
C  -7.75500 13.82300 41.98100
C  -7.17700 15.12900 41.90400
C  -8.20600 16.06600 41.80100
C  -7.13100 12.49600 41.94500
C  -5.86500 15.80800 41.83500
O  -4.67800 15.44700 41.93500
C  -6.23800 17.31100 41.65100
C  -5.64000 18.10700 42.72300
O  -6.29000 18.65900 43.54100
O  -4.28800 18.05800 42.57700
C  -3.53400 19.11800 43.32300
H  -12.04500 21.05700 41.03000
H  -15.41200 15.60300 41.81500
H  -10.13000 12.19000 42.27200
H  -7.24200 20.16000 41.53500
H  -9.59300 21.44200 40.34400
H  -8.66100 21.05300 43.23100
H  -10.34600 21.63400 42.93200
H  -8.94600 22.50900 42.30200
H  -8.27900 20.47600 38.74800
H  -7.78300 18.89800 39.00200
H  -5.59800 20.31300 40.09600
H  -6.24000 21.36900 38.85500
H  -14.66100 21.14400 39.69800
H  -14.16400 21.47800 41.40100
H  -15.73400 20.79200 41.17000
H  -18.11100 16.89000 39.74900
H  -17.46400 16.19300 41.23900
H  -16.52100 16.20000 39.68300
H  -14.72200 13.17500 41.15400
H  -12.68300 11.84000 42.94000
H  -15.81300 13.68700 43.09300
H  -14.26500 13.60900 44.01900
H  -14.95100 12.07400 43.56800
H  -11.86200 11.42800 40.34200
H  -13.57500 11.79300 40.09300
H  -13.70600 9.81500 42.01700
H  -12.18200 9.41000 41.23100
H  -13.68000 9.49500 40.24100
H  -6.85700 12.38700 40.89500
H  -7.88500 11.71100 41.99900
H  -6.22000 12.35900 42.52800
H  -5.81400 17.74000 40.74300
H  -4.07300 20.06600 43.34100
H  -2.52400 19.20500 42.92300
H  -3.41600 18.79300 44.35600

