158

Mg 0.70400 8.49000 26.18000
C  1.51300 10.23000 29.15600
C  1.18100 5.55700 27.96200
C  0.70300 6.78900 23.23400
C  1.15800 11.38000 24.39100
N  1.21400 8.00000 28.31400
C  1.40700 8.87700 29.36100
C  1.43300 8.11000 30.67200
C  1.51900 6.65600 30.29400
C  1.25900 6.72600 28.77100
C  2.87300 5.83200 30.65300
C  0.23600 8.51600 31.62300
C  0.36600 8.50800 33.26800
H  1.69100 7.95300 33.78400
N  0.83500 6.43600 25.68300
C  0.98700 5.40300 26.58600
C  0.93700 4.14500 25.87800
C  0.84100 4.52800 24.46400
C  0.74300 5.97600 24.37800
C  0.99400 2.80200 26.52700
C  0.88800 3.65500 23.20100
O  0.66300 4.14200 22.10900
C  1.39200 2.26300 23.31100
N  0.70000 8.95400 24.19800
C  0.76200 8.16100 23.17300
C  1.14300 8.89800 21.96700
C  0.49100 10.22400 22.28100
C  0.75300 10.20000 23.71800
C  2.68700 8.96700 21.71700
C  -1.04100 10.39500 22.04800
C  -1.49900 11.67800 21.46600
N  1.15800 10.46300 26.63800
C  1.41800 11.52700 25.78800
C  1.80200 12.72200 26.58200
C  1.76900 12.21300 27.93500
C  1.36700 10.86500 27.91200
C  2.09600 14.13900 26.08300
C  2.05900 12.61200 29.31700
O  2.50200 13.65300 29.75700
C  1.80500 11.27600 30.14400
C  2.88900 11.09100 31.13800
O  4.03200 10.71600 30.89600
O  2.50900 11.57200 32.35400
C  3.52800 11.41300 33.46000
H  1.28500 4.65500 28.56800
H  0.74200 6.39600 22.21600
H  1.45200 12.13200 23.65600
H  2.34800 8.24800 31.24700
H  0.64800 6.08300 30.61000
H  2.50500 4.80800 30.72100
H  3.33800 6.18800 31.57300
H  3.61300 5.97700 29.86600
H  -0.58400 7.84100 31.37600
H  -0.05800 9.53600 31.37500
H  -0.39800 7.88600 33.73500
H  0.23700 9.48000 33.74500
H  0.66800 2.71400 27.56400
H  1.95300 2.31000 26.36700
H  0.21700 2.27100 25.97700
H  1.69700 1.99800 22.29800
H  0.73600 1.53200 23.78300
H  2.24000 2.18200 23.99100
H  0.65900 8.41500 21.11800
H  0.94100 10.95000 21.60400
H  3.08900 9.97800 21.65600
H  3.04300 8.49700 20.80000
H  3.19400 8.46000 22.53800
H  -1.62600 10.23700 22.95400
H  -1.39200 9.74200 21.24900
H  -0.75000 12.45800 21.33800
H  -2.15000 12.20100 22.16700
H  -2.11800 11.58100 20.57300
H  1.21000 14.57700 25.62300
H  3.03800 14.25600 25.54600
H  2.34000 14.76000 26.94500
H  0.94600 11.44700 30.79200
H  3.68800 12.39100 33.91300
H  4.41400 10.80400 33.28200
H  2.96800 10.99500 34.29700
Mg 8.99300 4.15700 27.63200
C  10.29300 2.42400 30.37100
C  7.07800 5.96100 29.69400
C  7.66200 5.49100 24.90800
C  10.70700 1.83500 25.55300
N  8.62700 4.02800 29.76100
C  9.35700 3.43000 30.72500
C  9.22600 4.00900 32.09900
C  8.02600 4.98400 31.91600
C  7.83200 5.01000 30.35200
C  6.69600 4.64100 32.65300
C  10.57300 4.77700 32.57700
C  10.50300 5.51200 33.88400
H  11.41300 4.95000 35.02000
N  7.63900 5.57900 27.34700
C  6.94900 6.26700 28.34800
C  6.07200 7.26500 27.75000
C  6.13100 7.08300 26.31900
C  7.18200 6.06700 26.14100
C  5.08900 8.08100 28.59300
C  5.38900 7.86300 25.27000
O  5.52300 7.57300 24.08500
C  4.63500 9.15700 25.63800
N  9.31000 3.85300 25.50700
C  8.55400 4.51700 24.63500
C  8.61800 3.96000 23.19000
C  9.81600 2.97100 23.39100
C  9.89900 2.81400 24.87800
C  7.28800 3.27100 22.78700
C  11.25400 3.36500 22.87100
C  11.81700 2.25500 21.98200
N  10.33400 2.59500 27.88000
C  10.87300 1.69800 26.95300
C  11.67500 0.74000 27.60300
C  11.56100 0.98800 29.00600
C  10.70000 2.05800 29.07700
C  12.18600 -0.47200 27.02000
C  11.95300 0.56100 30.22300
O  12.77100 -0.34100 30.61000
C  11.17700 1.55100 31.25000
C  10.38700 0.83000 32.27900
O  9.45400 0.04400 32.06800
O  10.70500 1.31100 33.53300
C  9.84900 1.00700 34.67600
H  6.55700 6.58700 30.42200
H  7.16500 5.95600 24.05500
H  11.18300 1.02700 24.99300
H  8.97700 3.23500 32.82500
H  8.34000 5.99100 32.19100
H  6.90500 4.00700 33.51400
H  5.99000 4.14800 31.98500
H  6.30000 5.53600 33.13500
H  10.75000 5.47800 31.76100
H  11.35600 4.02000 32.62400
H  9.48600 5.44300 34.27200
H  10.83800 6.53200 33.69600
H  4.06600 7.80000 28.34500
H  5.20100 9.16100 28.49800
H  5.04500 7.93800 29.67200
H  4.30000 9.73700 24.77800
H  5.31900 9.71600 26.27600
H  3.75100 8.86500 26.20400
H  8.87700 4.85000 22.61800
H  9.59300 1.97000 23.02200
H  6.58500 3.88300 22.22100
H  6.75900 3.13800 23.73100
H  7.45200 2.36200 22.20900
H  11.89000 3.55000 23.73700
H  11.17800 4.28800 22.29500
H  11.59200 2.39900 20.92500
H  11.58900 1.24800 22.33300
H  12.90000 2.33400 22.06900
H  12.94600 -0.22500 26.27800
H  11.39400 -1.01900 26.50900
H  12.60000 -1.15600 27.76100
H  11.96100 2.09900 31.77200
H  10.16200 0.01400 34.99900
H  8.80500 1.05700 34.36600
H  10.00900 1.75100 35.45600

