158

Mg 35.76100 0.66300 29.37500
C  33.97700 2.06400 31.93000
C  38.40300 0.24100 31.41000
C  37.74200 0.17000 26.63400
C  33.26700 1.94300 27.14600
N  36.12800 1.06000 31.46100
C  35.24300 1.60800 32.36400
C  35.77000 1.51800 33.81700
C  37.30200 1.21000 33.53200
C  37.26500 0.76100 32.04200
C  38.21700 2.37400 33.82400
C  34.98700 0.55300 34.73800
C  34.52100 1.02600 36.10500
H  35.40500 2.12900 36.83500
N  37.75700 -0.01900 29.06400
C  38.63300 -0.18000 30.07000
C  39.88700 -0.61500 29.54000
C  39.72700 -0.65600 28.14600
C  38.34100 -0.14900 27.88800
C  41.18500 -0.82600 30.37800
C  40.70700 -1.16200 27.04300
O  40.49300 -1.10400 25.80900
C  42.07200 -1.86400 27.36900
N  35.52900 1.03700 27.22900
C  36.49600 0.70700 26.29100
C  36.03400 1.04700 24.86200
C  34.52000 1.22900 25.04900
C  34.36000 1.34300 26.58700
C  36.72100 2.42600 24.39400
C  33.68300 0.06000 24.51300
C  33.67200 -1.21800 25.35800
N  33.88800 1.62400 29.43400
C  32.95200 2.03700 28.54100
C  31.73700 2.57300 29.21400
C  32.09900 2.58400 30.54900
C  33.42900 2.00800 30.61600
C  30.61300 3.40700 28.69200
C  31.78900 3.15700 31.88700
O  30.89700 3.91300 32.24700
C  32.95200 2.65200 32.86800
C  33.32900 3.84100 33.59900
O  34.22800 4.60200 33.38700
O  32.52000 3.91800 34.69300
C  32.69700 5.09000 35.57500
H  39.25800 0.14800 32.08400
H  38.46000 0.03600 25.82300
H  32.45900 2.13800 26.43800
H  35.66900 2.51200 34.25400
H  37.55200 0.28300 34.04700
H  37.71300 3.21600 33.35000
H  39.19100 2.13700 33.39800
H  38.26000 2.53500 34.90100
H  35.49100 -0.37200 35.01700
H  34.04700 0.33700 34.23000
H  34.47800 0.13500 36.73100
H  33.49700 1.38600 36.00000
H  42.00900 -0.40600 29.80100
H  41.40800 -1.89100 30.42800
H  41.22900 -0.27300 31.31600
H  41.92900 -2.50400 28.24000
H  42.82600 -1.11500 27.60900
H  42.49700 -2.35100 26.49100
H  36.34100 0.24600 24.18900
H  34.16600 2.15200 24.58900
H  37.15600 2.45300 23.39500
H  37.53500 2.71300 25.06000
H  36.02500 3.26400 24.36700
H  34.07000 -0.12700 23.51100
H  32.65900 0.42800 24.44800
H  33.46600 -2.10300 24.75600
H  32.88900 -1.15800 26.11400
H  34.64400 -1.36500 25.83000
H  30.28700 4.23900 29.31700
H  29.73200 2.77500 28.57600
H  30.90800 3.73700 27.69500
H  32.54400 1.92000 33.56500
H  31.66200 5.41700 35.67100
H  33.46400 5.78400 35.23200
H  32.98900 4.72100 36.55900
Mg 26.53100 51.15700 25.79200
C  24.29500 52.41000 28.09800
C  28.76100 50.45900 28.30300
C  28.92100 50.67300 23.54100
C  24.40000 52.30500 23.18100
N  26.49000 51.46000 27.86400
C  25.52200 51.97200 28.61200
C  25.71800 51.96200 30.11600
C  27.25600 51.57700 30.09200
C  27.54400 51.16100 28.67000
C  28.25500 52.68400 30.51600
C  24.84100 51.01700 30.88000
C  23.93000 51.54800 32.05600
H  24.12700 50.93500 33.49300
N  28.42700 50.41800 25.93500
C  29.18900 50.22300 27.01700
C  30.49300 49.54100 26.63700
C  30.51300 49.54100 25.21300
C  29.27000 50.29400 24.77900
C  31.50200 49.10600 27.68300
C  31.59100 48.92200 24.25800
O  31.52400 49.11500 23.05300
C  32.81600 48.29100 24.91600
N  26.57100 51.40900 23.70000
C  27.67500 51.09100 23.00000
C  27.46100 51.24500 21.45000
C  26.00400 51.72300 21.32900
C  25.61000 51.73800 22.81300
C  28.48800 52.16400 20.73100
C  25.03800 50.88600 20.50500
C  24.56800 51.58200 19.19000
N  24.69700 52.10700 25.65700
C  23.93400 52.48500 24.53400
C  22.69300 53.14700 25.00000
C  22.84300 53.11700 26.43900
C  24.05100 52.48900 26.68900
C  21.60400 53.69300 24.15100
C  22.10500 53.45700 27.64400
O  20.98100 53.95400 27.87100
C  23.07400 53.04900 28.83300
C  23.62300 54.31100 29.51800
O  24.60000 54.99200 29.16200
O  22.78600 54.55200 30.52800
C  23.15100 55.67000 31.43600
H  29.45200 50.21100 29.11200
H  29.68700 50.59300 22.76600
H  23.70500 52.69200 22.43300
H  25.61900 52.95600 30.55400
H  27.38100 50.70400 30.73300
H  28.94400 53.04100 29.75000
H  28.87300 52.44700 31.38200
H  27.65500 53.57300 30.71200
H  25.46400 50.23600 31.31600
H  24.15900 50.45200 30.24400
H  22.88500 51.47200 31.75600
H  24.12000 52.60900 32.21600
H  31.38100 49.56400 28.66500
H  32.42600 49.61400 27.40900
H  31.49300 48.04500 27.93300
H  33.28400 49.13600 25.42100
H  33.51200 48.03500 24.11700
H  32.39100 47.37400 25.32300
H  27.51800 50.20900 21.11700
H  25.82100 52.70800 20.89800
H  28.86400 51.60100 19.87700
H  29.26600 52.41900 21.45100
H  28.00600 53.07200 20.37100
H  24.22400 50.58800 21.16600
H  25.44200 49.91900 20.20700
H  24.57200 50.83400 18.39700
H  25.16700 52.46600 18.97300
H  23.50400 51.81600 19.19300
H  21.26700 52.97200 23.40700
H  21.90800 54.60600 23.64000
H  20.78100 53.97600 24.80800
H  22.49900 52.38700 29.48000
H  23.66400 56.49000 30.93400
H  23.91700 55.35800 32.14600
H  22.19000 55.92000 31.88700

