158

Mg 35.61200 0.82800 29.73500
C  33.42100 2.54400 31.97400
C  38.05600 1.20900 32.32900
C  37.90200 -0.17900 27.56600
C  33.25500 1.29900 27.32700
N  35.72300 1.71600 31.90400
C  34.63700 2.26900 32.55700
C  34.88900 2.34500 34.03900
C  36.46600 2.26400 34.10100
C  36.77200 1.62500 32.74900
C  37.25000 3.71600 34.31300
C  34.14300 1.11100 34.78600
C  33.67500 1.41700 36.24100
H  34.15400 2.65500 36.96700
N  37.69100 0.39100 29.95700
C  38.49100 0.63500 31.07800
C  39.86800 0.18000 30.78400
C  39.79200 -0.23600 29.41900
C  38.40700 -0.00000 28.94000
C  40.83900 0.02600 31.90100
C  40.81600 -0.79200 28.49200
O  40.61600 -1.12600 27.33900
C  42.08300 -1.16800 29.08600
N  35.57800 0.64800 27.73300
C  36.64500 0.14200 27.07500
C  36.35400 0.19300 25.54700
C  34.80000 0.47600 25.56600
C  34.48500 0.77700 26.96100
C  37.05600 1.28800 24.71700
C  33.95000 -0.66300 24.92500
C  32.85000 -0.14800 23.87400
N  33.67400 1.67000 29.64800
C  32.82400 1.72200 28.62300
C  31.49100 2.25300 29.01500
C  31.70300 2.66000 30.31000
C  33.02700 2.22400 30.63300
C  30.20900 2.16500 28.22200
C  31.07600 3.25000 31.46000
O  29.92200 3.64400 31.60900
C  32.20600 3.20900 32.63300
C  32.41500 4.61600 32.94700
O  33.24700 5.35400 32.52700
O  31.59200 4.89600 34.02400
C  31.68000 6.25400 34.60500
H  38.81500 1.27700 33.11100
H  38.60500 -0.50400 26.79600
H  32.58400 1.29100 26.46500
H  34.54900 3.33300 34.34900
H  36.82300 1.56900 34.86100
H  36.54200 4.47900 34.63300
H  37.61900 4.07300 33.35100
H  38.01400 3.67500 35.08900
H  34.76800 0.21800 34.75000
H  33.21500 0.84000 34.28100
H  33.94300 0.48800 36.74400
H  32.59100 1.52900 36.26900
H  41.64000 0.75600 32.01800
H  41.48900 -0.83000 31.72000
H  40.52100 -0.11800 32.93400
H  41.95900 -2.08200 29.66800
H  42.57700 -0.39200 29.67100
H  42.73500 -1.49300 28.27500
H  36.48500 -0.80700 25.13400
H  34.53100 1.39600 25.04800
H  37.90800 1.75400 25.21200
H  36.37300 2.12100 24.55200
H  37.27000 0.71200 23.81700
H  33.52500 -1.34200 25.66500
H  34.66300 -1.24200 24.33800
H  33.25900 -0.34000 22.88200
H  32.55700 0.89700 23.97000
H  31.87100 -0.57300 24.09500
H  30.38300 1.26200 27.63700
H  30.03100 3.03000 27.58300
H  29.36100 2.16500 28.90700
H  31.76400 2.59000 33.41400
H  32.13000 6.17800 35.59500
H  30.65900 6.63200 34.65500
H  32.33900 6.94100 34.07400
Mg -0.11900 43.95200 26.37900
C  2.02000 43.22900 29.23300
C  -2.68100 42.72600 28.21700
C  -1.82700 44.12800 23.64100
C  2.86700 44.94800 24.62400
N  -0.28800 43.18800 28.47500
C  0.65300 42.95500 29.47000
C  0.01100 42.58800 30.76200
C  -1.43800 42.24100 30.32300
C  -1.49700 42.76900 28.92000
C  -1.84400 40.71900 30.37900
C  0.01200 43.68600 31.88000
C  0.62200 43.38000 33.28600
H  0.13300 42.08200 33.85500
N  -2.04700 43.53700 25.95100
C  -2.93900 42.99300 26.82400
C  -4.25500 42.85100 26.11400
C  -3.99200 43.08000 24.75700
C  -2.58900 43.65100 24.76100
C  -5.47900 42.34700 26.80100
C  -4.83700 42.97500 23.53900
O  -4.48200 43.28200 22.40900
C  -6.17800 42.36300 23.66300
N  0.38500 44.67400 24.46400
C  -0.54800 44.60500 23.51500
C  0.02500 44.96800 22.14000
C  1.48600 45.50600 22.50400
C  1.63100 45.01300 23.95300
C  -0.09900 43.82700 21.07200
C  1.72300 47.02300 22.39600
C  1.20600 47.95900 23.50500
N  2.04400 44.03000 26.80800
C  3.04700 44.48600 25.99800
C  4.25400 44.36900 26.78800
C  3.87400 43.90200 28.01600
C  2.51000 43.75300 28.00800
C  5.62400 44.74000 26.26000
C  4.40200 43.50100 29.30400
O  5.56200 43.40200 29.71600
C  3.19000 43.14600 30.15900
C  3.42000 41.85600 30.85800
O  3.20400 40.76000 30.39300
O  3.90700 42.08100 32.17200
C  4.14600 40.88500 32.98600
H  -3.54300 42.45200 28.82800
H  -2.41200 44.22200 22.72400
H  3.69800 45.20000 23.96200
H  0.57000 41.77100 31.21900
H  -2.15500 42.77200 30.94900
H  -1.08600 40.20200 30.96800
H  -1.74300 40.35100 29.35800
H  -2.83400 40.62800 30.82500
H  -0.97800 44.09500 32.08200
H  0.70300 44.42200 31.46800
H  0.50400 44.25900 33.92000
H  1.70000 43.40900 33.12800
H  -5.45800 42.42400 27.88800
H  -5.64200 41.32700 26.45200
H  -6.34800 42.87000 26.40100
H  -6.13300 41.48900 24.31300
H  -6.57400 42.04500 22.69800
H  -6.84400 43.06500 24.16500
H  -0.55600 45.83900 21.83600
H  2.27000 45.06300 21.89100
H  0.77100 43.95000 20.42600
H  -0.91700 43.92100 20.35900
H  -0.06000 42.79900 21.43400
H  1.28400 47.47800 21.50800
H  2.80300 47.10600 22.27400
H  2.01100 48.64300 23.77600
H  1.18000 47.39300 24.43600
H  0.23300 48.42400 23.34900
H  5.62800 44.47800 25.20200
H  6.29000 44.11100 26.85100
H  5.66000 45.82600 26.35100
H  3.12500 43.89600 30.94700
H  4.82500 40.18400 32.49900
H  3.22400 40.31900 33.11800
H  4.49300 41.13400 33.98900

