158

Mg -1.76800 34.45100 27.24100
C  -3.39600 32.42400 29.58400
C  -0.30000 36.21000 29.78800
C  -0.61600 36.60100 25.04700
C  -3.61700 32.76900 24.74300
N  -2.02600 34.46600 29.34800
C  -2.69100 33.55100 30.13500
C  -2.54600 33.84500 31.61100
C  -1.71400 35.16400 31.68800
C  -1.36600 35.34100 30.21900
C  -2.54400 36.34500 32.26600
C  -1.80200 32.58900 32.32200
C  -2.57500 31.99600 33.53300
H  -1.80400 31.81900 34.75300
N  -0.58500 36.20700 27.33000
C  -0.04900 36.76700 28.51300
C  0.89500 37.79400 28.14100
C  0.80100 37.95000 26.70400
C  -0.10900 36.89900 26.32200
C  1.86500 38.47700 29.04200
C  1.64400 38.74500 25.79700
O  1.61400 38.65800 24.54200
C  2.62100 39.68900 26.36900
N  -2.21300 34.73400 25.23300
C  -1.58400 35.68700 24.49600
C  -2.00100 35.73700 23.00400
C  -2.78200 34.34400 22.90900
C  -2.91200 33.90100 24.38100
C  -2.84500 37.04300 22.68900
C  -2.01200 33.26000 22.04800
C  -2.81200 32.40500 21.08400
N  -3.16700 32.86800 27.02300
C  -3.78000 32.25100 25.97100
C  -4.52500 31.11100 26.40100
C  -4.40500 31.15200 27.82600
C  -3.59300 32.24700 28.13100
C  -5.15100 30.00000 25.56300
C  -4.75500 30.50300 29.04200
O  -5.36500 29.43300 29.24200
C  -4.19600 31.38300 30.25500
C  -5.28300 31.90800 31.13800
O  -5.95200 32.89600 30.95400
O  -5.47100 31.06100 32.20800
C  -6.32400 31.55000 33.22800
H  0.31800 36.75300 30.50600
H  -0.09200 37.31500 24.40900
H  -4.18500 32.18000 24.01900
H  -3.55400 33.89900 32.02200
H  -0.78200 34.96300 32.21500
H  -2.09600 36.53500 33.24100
H  -3.57500 36.08700 32.51200
H  -2.44100 37.21800 31.62200
H  -0.83000 32.93000 32.67600
H  -1.73900 31.80800 31.56400
H  -2.81900 30.98500 33.20500
H  -3.49700 32.57100 33.62400
H  2.90900 38.41500 28.73300
H  1.65500 38.19200 30.07300
H  1.65600 39.54600 29.00600
H  2.72400 40.53100 25.68500
H  3.55900 39.21400 26.65800
H  2.26700 40.28400 27.21100
H  -1.18900 35.74300 22.27600
H  -3.76800 34.49500 22.46900
H  -2.30400 37.72500 22.03300
H  -3.05600 37.42600 23.68700
H  -3.81900 36.81700 22.25600
H  -1.43200 32.67400 22.76100
H  -1.28200 33.71900 21.38200
H  -2.31200 32.28500 20.12300
H  -3.78100 32.88800 20.95900
H  -2.93800 31.41400 21.52000
H  -6.02300 30.24900 24.95800
H  -5.47400 29.20100 26.23100
H  -4.32000 29.52200 25.04500
H  -3.59800 30.66100 30.81100
H  -6.30600 32.61000 33.48100
H  -6.13600 30.87000 34.05800
H  -7.33100 31.37500 32.85000
Mg -12.19100 17.01400 42.36000
C  -9.17300 15.40500 42.21900
C  -10.93000 19.74500 40.73300
C  -15.37900 18.18200 41.93400
C  -13.65300 13.80000 43.04600
N  -10.27400 17.45400 41.40500
C  -9.17300 16.69100 41.65000
C  -7.93800 17.29700 40.88400
C  -8.50100 18.77500 40.53800
C  -9.99300 18.67100 40.93800
C  -7.81800 20.02000 41.31700
C  -7.55400 16.41400 39.67100
C  -6.08500 15.99800 39.63400
H  -5.31800 16.38300 38.38600
N  -13.04500 18.75600 41.51100
C  -12.33900 19.80300 40.97900
C  -13.22200 20.86800 40.68800
C  -14.50800 20.50900 41.21000
C  -14.35800 19.10400 41.60200
C  -12.81400 22.19600 39.95800
C  -15.78000 21.35500 41.26600
O  -15.76500 22.35700 40.58800
C  -17.05400 20.99100 41.97600
N  -14.26500 16.13500 42.38400
C  -15.42000 16.89500 42.32100
C  -16.68700 16.11200 42.71300
C  -16.07800 14.65500 43.06000
C  -14.57800 14.87000 42.76800
C  -17.63800 16.77900 43.67800
C  -16.80100 13.45100 42.39600
C  -16.81400 12.19100 43.22000
N  -11.54400 15.04200 42.72300
C  -12.20600 13.86500 42.97800
C  -11.26400 12.76800 43.14900
C  -10.07100 13.34000 42.96100
C  -10.28700 14.70500 42.71000
C  -11.67700 11.39600 43.35300
C  -8.68000 13.09700 42.88300
O  -8.04400 12.08700 43.08600
C  -7.99900 14.41800 42.53100
C  -7.10200 15.01900 43.53400
O  -7.57900 15.77100 44.38300
O  -5.78300 14.65300 43.32100
C  -4.81800 15.33900 44.19900
H  -10.45100 20.64800 40.34900
H  -16.38400 18.59600 42.03600
H  -14.05800 12.79600 43.18900
H  -7.11900 17.41500 41.59200
H  -8.34100 18.87100 39.46400
H  -6.92700 19.74300 41.88100
H  -8.48300 20.51200 42.02600
H  -7.43500 20.76500 40.61900
H  -7.69800 16.93500 38.72500
H  -8.15400 15.51100 39.55800
H  -5.91900 14.92400 39.71900
H  -5.48800 16.43100 40.43700
H  -12.93800 23.11800 40.52700
H  -13.50300 22.25400 39.11500
H  -11.76900 22.10300 39.66200
H  -16.84200 20.69500 43.00400
H  -17.58900 20.17900 41.48200
H  -17.64500 21.90700 41.99800
H  -17.26900 15.87400 41.82200
H  -16.10000 14.71800 44.14800
H  -17.14100 17.49100 44.33800
H  -18.05100 16.14000 44.45900
H  -18.45000 17.31900 43.19200
H  -16.31300 13.27900 41.43700
H  -17.83500 13.58400 42.07600
H  -16.27800 11.39200 42.70700
H  -17.83700 11.83300 43.33400
H  -16.29100 12.32000 44.16800
H  -12.56200 11.34500 43.98700
H  -10.84300 10.78400 43.69500
H  -11.97300 10.99100 42.38500
H  -7.32500 14.27700 41.68600
H  -5.24300 15.54000 45.18200
H  -4.53500 16.34400 43.88600
H  -3.96200 14.71300 44.45100

