158

Mg 0.42000 43.29600 25.08700
C  2.85900 42.74200 27.69500
C  -1.92300 42.35000 27.32600
C  -1.53700 42.97700 22.43200
C  3.19500 43.85800 22.85800
N  0.45600 42.70300 27.29200
C  1.53800 42.47100 28.08000
C  1.00800 42.15600 29.46600
C  -0.49000 41.90800 29.33700
C  -0.66600 42.37300 27.87700
C  -0.95400 40.38300 29.62100
C  1.24900 43.38400 30.34200
C  0.92800 43.30200 31.82900
H  0.32000 41.92900 32.39600
N  -1.52500 42.75900 24.93000
C  -2.38700 42.43400 25.96300
C  -3.67800 42.03800 25.42900
C  -3.58800 42.23900 24.00500
C  -2.15500 42.66300 23.70100
C  -4.84400 41.58900 26.18000
C  -4.63700 42.02900 22.95100
O  -4.35700 42.16900 21.76800
C  -5.99900 41.55800 23.31900
N  0.76900 43.30100 23.01600
C  -0.24900 43.41300 22.12200
C  0.17700 43.82800 20.73200
C  1.64800 44.14000 20.91900
C  1.91000 43.68300 22.34300
C  -0.22700 42.87400 19.61500
C  2.10000 45.54800 20.54800
C  2.19300 46.65000 21.62100
N  2.57900 43.39600 25.20300
C  3.52000 43.66300 24.21300
C  4.83300 43.66000 24.81900
C  4.65900 43.31300 26.17000
C  3.24700 43.11400 26.36400
C  6.12300 43.84000 24.06100
C  5.36100 43.06400 27.43100
O  6.58000 43.07700 27.72100
C  4.15600 42.78200 28.47500
C  4.44800 41.63400 29.41100
O  4.53200 40.44900 29.12000
O  4.48600 42.16100 30.67700
C  4.64400 41.23900 31.72000
H  -2.70600 42.16600 28.06500
H  -2.20100 42.89500 21.56900
H  4.06200 44.25800 22.32800
H  1.46700 41.25300 29.86700
H  -1.03000 42.68500 29.87700
H  -0.22600 39.87700 30.25400
H  -1.08300 39.89200 28.65600
H  -1.80400 40.37300 30.30400
H  0.82100 44.33000 30.00900
H  2.31000 43.63500 30.35300
H  0.21400 44.07000 32.12800
H  1.83500 43.59300 32.36100
H  -5.25900 40.68600 25.73200
H  -5.55700 42.40400 26.30300
H  -4.52700 41.34200 27.19300
H  -6.48400 42.23100 24.02600
H  -5.90000 40.52100 23.63900
H  -6.61600 41.53000 22.42100
H  -0.38700 44.74700 20.57200
H  2.19800 43.36900 20.38100
H  -0.31100 41.84900 19.97500
H  0.57900 42.92800 18.88200
H  -1.15100 43.17700 19.12200
H  1.42100 45.95100 19.79600
H  3.08100 45.32900 20.12700
H  1.37200 46.42000 22.30000
H  2.22300 47.70100 21.33300
H  3.09300 46.56800 22.23000
H  6.92900 43.27300 24.52500
H  6.36000 44.89300 24.21700
H  5.96600 43.57600 23.01500
H  4.17800 43.64100 29.14600
H  4.04600 41.60700 32.55400
H  5.69100 41.19500 32.02000
H  4.28700 40.23300 31.49600
Mg -1.47000 34.17400 25.70000
C  -3.15500 32.37400 28.41300
C  -0.19700 36.28200 28.09900
C  -0.16100 35.91200 23.18800
C  -2.99200 32.08500 23.50200
N  -1.74600 34.27500 28.02200
C  -2.33300 33.39100 28.89600
C  -1.94200 33.79900 30.30700
C  -1.07500 35.08900 30.18700
C  -1.02400 35.25100 28.67300
C  -1.54800 36.46400 30.88600
C  -1.28400 32.60000 31.09800
C  -1.71400 32.47900 32.63400
H  -0.75800 32.27300 33.78000
N  -0.24300 35.87400 25.70900
C  0.16300 36.55900 26.77900
C  1.01200 37.69300 26.34400
C  1.07300 37.55900 24.86900
C  0.25200 36.38700 24.51800
C  1.67900 38.72300 27.20700
C  1.76000 38.46300 23.87600
O  1.87900 38.23000 22.68200
C  2.42400 39.80200 24.29200
N  -1.62100 34.00300 23.65900
C  -0.99600 34.84300 22.78700
C  -1.40900 34.46300 21.34700
C  -1.85500 33.03900 21.53500
C  -2.14700 32.99700 23.02200
C  -2.29100 35.48700 20.58200
C  -0.79500 31.91300 21.09200
C  0.60300 32.02800 21.64800
N  -2.91500 32.65800 25.87000
C  -3.45900 31.94300 24.85400
C  -4.42800 31.02700 25.40300
C  -4.37700 31.15800 26.79300
C  -3.36500 32.12200 27.03300
C  -5.35400 30.17000 24.55100
C  -4.98500 30.81100 28.02700
O  -5.97700 30.17700 28.36000
C  -4.20700 31.48500 29.15300
C  -5.19500 32.13200 30.08200
O  -5.92400 33.06600 29.76300
O  -5.34100 31.42000 31.27100
C  -6.38400 31.90500 32.22400
H  0.16000 36.94200 28.89300
H  0.20600 36.45500 22.31500
H  -3.49400 31.47700 22.74600
H  -2.91700 34.05100 30.72400
H  -0.09000 34.90000 30.61300
H  -0.66700 37.07300 31.08800
H  -2.14200 36.40000 31.79800
H  -2.15100 37.06700 30.20700
H  -0.20600 32.75200 31.03800
H  -1.45100 31.68000 30.53800
H  -2.33900 31.58700 32.65300
H  -2.39700 33.29900 32.85500
H  1.38300 38.54100 28.24000
H  1.34600 39.75900 27.15100
H  2.76300 38.65900 27.11300
H  2.56700 40.41100 23.39900
H  3.35300 39.58400 24.81900
H  1.72000 40.28300 24.97100
H  -0.46800 34.46000 20.79600
H  -2.72100 32.87900 20.89200
H  -1.77700 35.81500 19.67900
H  -2.32200 36.33300 21.26900
H  -3.25500 35.06700 20.29600
H  -0.72000 31.93100 20.00400
H  -1.18800 30.95600 21.43500
H  1.29200 32.66400 21.09200
H  1.02600 31.03000 21.76400
H  0.45400 32.46800 22.63400
H  -5.16000 29.11100 24.71900
H  -5.29600 30.41300 23.49000
H  -6.37900 30.46500 24.77600
H  -3.69100 30.67800 29.67400
H  -5.73700 32.46300 32.90000
H  -6.91800 31.06900 32.67500
H  -7.13900 32.62200 31.90200

