158

Mg 10.78300 46.76700 25.88200
C  8.61400 47.04300 28.45200
C  13.23100 48.46300 27.83700
C  13.02600 46.35300 23.41900
C  8.11300 45.91300 23.66000
N  10.86000 47.66000 27.88800
C  9.87500 47.51700 28.90100
C  10.32600 48.15100 30.24900
C  11.51200 49.07000 29.71500
C  11.94800 48.35100 28.40800
C  11.11100 50.58400 29.52300
C  10.86900 47.02300 31.21600
C  10.08300 47.02400 32.53900
H  10.23800 45.69400 33.37400
N  12.86700 47.13800 25.79200
C  13.57200 47.78100 26.68700
C  14.93600 47.63800 26.37600
C  15.04300 47.03200 25.09200
C  13.60600 46.87900 24.72500
C  16.03800 48.21200 27.27900
C  16.27600 46.61700 24.17100
O  16.11000 46.13900 23.08600
C  17.63900 46.87000 24.66200
N  10.55100 46.20700 23.78200
C  11.69700 46.08000 23.00000
C  11.28400 45.51900 21.60600
C  9.75800 45.41800 21.67300
C  9.40000 45.92500 23.09900
C  11.77200 46.45300 20.42800
C  9.13900 44.07500 21.17200
C  9.13400 43.03400 22.25700
N  8.79900 46.48400 26.00000
C  7.80700 46.15000 25.06100
C  6.54900 46.14400 25.74100
C  6.84300 46.53000 27.03900
C  8.21100 46.62600 27.17500
C  5.22700 46.07000 25.04200
C  6.17000 46.81400 28.25000
O  4.98500 46.85800 28.54800
C  7.35200 46.96500 29.23700
C  7.45100 45.87900 30.16900
O  8.24500 44.94200 30.08200
O  6.60700 46.13800 31.24300
C  6.50300 45.11700 32.27600
H  13.88800 49.19700 28.30900
H  13.71000 46.10200 22.60600
H  7.26600 45.83000 22.97600
H  9.49600 48.71900 30.66900
H  12.33300 49.05600 30.43200
H  11.52200 51.12300 30.37600
H  10.02200 50.55600 29.57600
H  11.15200 50.90700 28.48300
H  11.89100 47.28000 31.49300
H  10.77900 45.99200 30.87500
H  9.01800 47.06700 32.31100
H  10.46900 47.80900 33.19000
H  15.72600 48.39700 28.30700
H  16.48900 49.12000 26.88000
H  16.67500 47.33500 27.39500
H  17.70600 47.90800 24.98700
H  18.36700 46.58900 23.90100
H  17.64500 46.18600 25.51000
H  11.91400 44.64900 21.41800
H  9.34700 46.25300 21.10500
H  11.72600 47.50300 20.71800
H  11.01500 46.23700 19.67400
H  12.80300 46.28200 20.11900
H  9.72200 43.62300 20.36900
H  8.15300 44.31200 20.77200
H  9.78200 43.33600 23.08000
H  9.65900 42.13800 21.92400
H  8.13500 42.68200 22.51500
H  4.44900 45.84100 25.77000
H  5.25900 45.33200 24.23900
H  4.94400 46.97300 24.50200
H  7.28000 47.88200 29.82100
H  6.60500 44.08300 31.94900
H  5.49900 45.32700 32.64500
H  7.19900 45.21000 33.11000
Mg -6.61400 24.58500 25.31800
C  -5.42400 26.24100 28.01600
C  -8.49400 22.53800 27.38000
C  -7.77000 23.21200 22.67200
C  -4.51300 26.85500 23.21800
N  -6.87400 24.35300 27.45400
C  -6.31600 25.23300 28.39300
C  -6.84300 24.94400 29.81300
C  -7.46700 23.44800 29.64100
C  -7.68500 23.41100 28.06800
C  -6.86700 22.25200 30.27400
C  -7.71400 26.03000 30.41100
C  -7.48000 26.27400 31.92900
H  -7.06600 25.08400 32.83000
N  -8.05200 23.15200 25.06200
C  -8.70000 22.42500 25.97100
C  -9.62400 21.56400 25.34500
C  -9.54700 21.75900 23.94100
C  -8.46100 22.78100 23.84000
C  -10.56300 20.59700 26.19000
C  -10.37700 21.17800 22.81300
O  -10.39300 21.52600 21.64800
C  -11.39200 20.08900 23.20600
N  -6.13200 24.94800 23.20500
C  -6.76600 24.09200 22.35200
C  -6.26000 24.31500 20.87500
C  -5.31900 25.56500 21.01200
C  -5.36600 25.84500 22.55300
C  -5.67300 22.93400 20.33900
C  -5.71200 26.85400 20.20700
C  -4.54000 27.55200 19.58800
N  -5.22100 26.24800 25.52900
C  -4.53000 27.04200 24.60800
C  -3.66000 27.98100 25.41200
C  -3.98500 27.71600 26.75700
C  -4.95000 26.68300 26.77600
C  -2.62400 29.03100 24.95700
C  -3.74700 28.05800 28.10300
O  -2.94600 28.88200 28.59400
C  -4.71400 27.18000 28.91600
C  -3.89400 26.32500 29.92000
O  -2.93500 25.57200 29.63100
O  -4.17800 26.64700 31.18000
C  -3.33700 26.22400 32.29000
H  -9.07800 21.86700 28.01300
H  -8.27600 22.75500 21.81800
H  -3.96900 27.53400 22.55800
H  -5.96000 24.79700 30.43600
H  -8.47200 23.44700 30.06200
H  -6.29900 22.52400 31.16400
H  -6.09000 21.84300 29.62800
H  -7.57500 21.52100 30.66300
H  -8.76200 25.80200 30.21600
H  -7.51700 26.91800 29.81100
H  -8.34900 26.86500 32.21600
H  -6.61000 26.93100 31.91100
H  -11.55300 20.39000 25.78300
H  -10.86600 21.07600 27.12100
H  -9.94700 19.72000 26.38700
H  -11.97200 19.69200 22.37300
H  -12.12800 20.63600 23.79500
H  -10.86500 19.34300 23.80100
H  -7.19000 24.55500 20.36100
H  -4.32800 25.15900 20.81000
H  -5.93500 22.10300 20.99500
H  -4.59700 23.06200 20.22000
H  -6.03700 22.58300 19.37300
H  -6.33200 27.48300 20.84500
H  -6.42500 26.51200 19.45600
H  -4.75900 27.52800 18.52000
H  -3.65200 26.92100 19.60200
H  -4.25900 28.50600 20.03500
H  -3.04700 30.01100 24.73400
H  -2.01700 28.55900 24.18500
H  -1.88000 29.15000 25.74400
H  -5.40100 27.77300 29.52100
H  -3.73700 26.71800 33.17500
H  -2.28000 26.43900 32.13600
H  -3.40400 25.14200 32.40900

