158

Mg 40.44700 10.06500 29.46300
C  42.17300 11.22900 32.09400
C  37.84500 9.02100 31.63600
C  38.70700 8.63000 26.95700
C  42.94200 11.05400 27.27300
N  39.96500 10.26600 31.60600
C  40.90700 10.73700 32.48600
C  40.34300 10.61900 33.98400
C  39.24700 9.60600 33.78000
C  38.95100 9.63800 32.28700
C  39.42200 8.24000 34.55100
C  39.86400 11.96100 34.50900
C  39.18300 12.08400 35.92500
H  39.81000 12.92500 37.01400
N  38.50200 9.02100 29.28000
C  37.62200 8.71000 30.32000
C  36.46500 8.01300 29.79700
C  36.69000 7.99200 28.41000
C  38.00200 8.59500 28.16300
C  35.26600 7.53700 30.72100
C  35.92200 7.26000 27.46400
O  36.34100 6.90600 26.35000
C  34.64800 6.87200 27.78900
N  40.86700 9.68400 27.40400
C  39.97100 9.15500 26.56000
C  40.31600 9.37000 25.09100
C  41.63500 10.23500 25.17500
C  41.77300 10.36900 26.74500
C  40.41100 8.11200 24.20000
C  41.76500 11.63400 24.39500
C  41.00700 12.79700 24.98000
N  42.24200 10.85500 29.59900
C  43.13500 11.33600 28.64200
C  44.23100 11.99600 29.32300
C  43.89800 12.05900 30.68500
C  42.69100 11.36600 30.76200
C  45.46300 12.39500 28.71500
C  44.36100 12.46200 32.00100
O  45.39800 13.02100 32.34900
C  43.22600 12.00000 33.01200
C  43.76900 11.17100 34.14200
O  44.08500 10.00000 34.23000
O  43.86600 12.06800 35.25300
C  44.50300 11.42900 36.47000
H  37.06900 8.72500 32.34500
H  38.13200 8.21400 26.12600
H  43.69600 11.53300 26.64500
H  41.22400 10.26700 34.52100
H  38.37800 10.08200 34.23400
H  40.43600 8.17100 34.94600
H  39.34200 7.36000 33.91300
H  38.71900 8.27700 35.38400
H  39.28100 12.43700 33.71900
H  40.81300 12.49400 34.56800
H  39.08300 11.04300 36.23100
H  38.15900 12.45400 35.87500
H  35.50500 7.66400 31.77700
H  35.31400 6.44800 30.72300
H  34.25200 7.71800 30.36300
H  34.59600 6.04200 28.49300
H  34.11600 6.65600 26.86200
H  34.18200 7.69900 28.32500
H  39.63500 10.08700 24.63300
H  42.48700 9.58700 24.96900
H  40.12400 7.27400 24.83700
H  41.34000 7.95500 23.65200
H  39.61200 8.31600 23.48800
H  41.46400 11.46200 23.36200
H  42.81900 11.91000 24.44400
H  41.75000 13.52300 25.30700
H  40.47300 12.41900 25.85200
H  40.26800 13.09800 24.23700
H  45.44300 13.46800 28.52500
H  45.63300 11.74500 27.85600
H  46.19600 12.15900 29.48600
H  42.81600 12.93300 33.40000
H  43.87200 11.48300 37.35700
H  45.49700 11.77500 36.75100
H  44.61300 10.34500 36.43900
Mg 1.83000 42.82200 25.35500
C  3.45000 42.86900 28.53300
C  -0.92700 41.81300 26.90200
C  0.63200 42.66200 22.23600
C  5.13400 43.68000 23.91600
N  1.36200 42.29000 27.53200
C  2.09000 42.50500 28.64700
C  1.18300 42.35300 29.88800
C  -0.16300 41.86500 29.27000
C  0.09500 42.02800 27.79700
C  -0.59100 40.40200 29.60100
C  1.05300 43.81400 30.53600
C  1.48800 43.98200 32.03500
H  0.90100 43.18000 33.15800
N  0.12400 42.38300 24.70600
C  -0.94400 41.97100 25.50200
C  -2.05300 41.80500 24.63600
C  -1.65000 42.18800 23.33000
C  -0.24100 42.41400 23.33300
C  -3.39800 41.24700 25.18200
C  -2.49100 42.30000 22.00800
O  -1.97500 42.68300 20.92100
C  -4.00300 42.10800 22.14500
N  2.81600 42.97300 23.38100
C  1.98900 42.99000 22.25500
C  2.80600 43.23900 21.00300
C  4.14300 43.74900 21.55100
C  4.06300 43.43600 23.03200
C  3.03200 41.96800 20.11700
C  4.40200 45.23100 21.30000
C  4.70900 45.65200 19.87600
N  3.83700 43.37300 25.99200
C  5.01600 43.60800 25.32800
C  6.04200 43.82800 26.31900
C  5.50200 43.44900 27.59300
C  4.16200 43.18300 27.32700
C  7.35500 44.32200 26.12800
C  5.84900 43.20500 28.98300
O  6.87300 43.28600 29.54600
C  4.47000 43.02800 29.70100
C  4.52100 41.77300 30.52200
O  4.87300 40.66800 30.19900
O  4.21400 42.10200 31.83100
C  4.51100 41.22800 32.91100
H  -1.88300 41.56600 27.36900
H  0.23000 42.65100 21.22100
H  6.15500 43.86800 23.57800
H  1.59000 41.62100 30.58600
H  -1.01300 42.49800 29.52400
H  -1.67300 40.28900 29.67000
H  -0.25400 40.07700 30.58600
H  -0.29500 39.73100 28.79500
H  0.00400 44.10800 30.51400
H  1.72400 44.41200 29.91900
H  1.26500 45.03000 32.23500
H  2.56900 43.88800 32.14500
H  -4.26000 41.89800 25.04100
H  -3.36400 41.04200 26.25200
H  -3.69400 40.36500 24.61500
H  -4.50800 42.04700 21.18100
H  -4.36200 42.86900 22.83700
H  -4.15200 41.14400 22.63100
H  2.34600 44.06300 20.45800
H  5.08700 43.29100 21.25500
H  4.07000 41.64900 20.02300
H  2.81000 42.18400 19.07200
H  2.59900 41.07200 20.56200
H  5.23400 45.49800 21.95200
H  3.53500 45.86100 21.49900
H  4.97900 44.85700 19.18000
H  5.56600 46.32600 19.89300
H  3.79500 46.14400 19.54300
H  7.82200 44.48600 27.09900
H  7.40200 45.15200 25.42400
H  7.97200 43.48900 25.79100
H  4.29500 43.85800 30.38500
H  5.59700 41.13100 32.90800
H  3.99500 40.27400 32.79700
H  4.11700 41.56100 33.87100

