158

Mg 7.08800 56.84700 41.81700
C  5.91400 53.63500 41.43200
C  10.18500 55.63800 40.73300
C  8.11900 60.04600 41.20600
C  3.82300 57.96700 42.39100
N  7.88000 54.89900 41.14500
C  7.20700 53.71300 40.99700
C  8.04500 52.59000 40.50400
C  9.48100 53.19700 40.72200
C  9.20000 54.69800 40.94400
C  10.30000 52.44900 41.82800
C  7.79100 52.22200 39.04800
C  8.28800 50.85100 38.59500
H  7.53000 50.07600 37.48600
N  8.83500 57.76800 41.03600
C  10.01000 57.07400 40.63900
C  10.90000 58.01100 39.93100
C  10.33300 59.32200 39.98700
C  9.02800 59.11100 40.76000
C  12.10300 57.52800 39.26300
C  10.86100 60.55300 39.33700
O  11.92500 60.56200 38.77300
C  10.08000 61.82600 39.22500
N  6.06900 58.69700 41.72200
C  6.76800 59.84700 41.64400
C  5.91300 61.08600 42.00700
C  4.50900 60.42200 42.42700
C  4.79000 58.95800 42.07100
C  6.51300 61.98800 43.17000
C  3.27700 61.00400 41.68300
C  2.01600 61.04500 42.59400
N  5.21400 55.97500 42.07600
C  3.96600 56.57500 42.33700
C  3.01100 55.43200 42.50900
C  3.75600 54.32100 42.15500
C  5.11400 54.66700 41.91900
C  1.56400 55.57300 42.68100
C  3.61300 52.92400 42.03700
O  2.61400 52.26800 42.30200
C  4.98900 52.33400 41.57000
C  4.82200 51.51000 40.38100
O  4.30300 51.90800 39.36500
O  5.17400 50.19100 40.62300
C  4.66200 49.33900 39.51400
H  11.13500 55.16300 40.48000
H  8.30800 61.11800 41.11100
H  2.78600 58.22700 42.61200
H  7.87900 51.70200 41.11500
H  10.11300 53.14400 39.83500
H  10.68900 53.25000 42.45800
H  11.16000 51.87600 41.48200
H  9.56300 51.79800 42.29800
H  8.40500 52.91100 38.46800
H  6.77800 52.44100 38.71000
H  8.46400 50.22700 39.47200
H  9.26800 50.98000 38.13600
H  12.00600 57.75500 38.20200
H  12.27700 56.45400 39.33000
H  13.06900 57.76500 39.70800
H  9.71900 62.14300 40.20300
H  9.34600 61.84000 38.42000
H  10.87500 62.53300 38.98600
H  5.90800 61.44300 40.97600
H  4.32300 60.46900 43.50000
H  5.66100 62.33400 43.75600
H  7.12200 62.83400 42.85200
H  7.18600 61.37000 43.76400
H  3.09800 60.28800 40.88200
H  3.51100 61.99600 41.29600
H  1.61500 60.04500 42.42900
H  1.25500 61.72700 42.21400
H  2.14900 61.18400 43.66700
H  1.17600 55.75100 41.67800
H  1.13700 56.39400 43.25700
H  1.11800 54.63300 43.00500
H  5.48000 51.69000 42.29900
H  3.57700 49.35800 39.61200
H  5.07600 48.33900 39.63900
H  5.02800 49.71500 38.55900
Mg 16.10000 52.16500 25.86800
C  17.95700 51.01100 28.73100
C  13.44900 52.85900 28.10000
C  14.41900 53.01500 23.15100
C  18.75700 50.85000 23.90600
N  15.75000 51.88500 28.18900
C  16.71800 51.57500 29.11400
C  16.30300 51.89400 30.48800
C  14.69800 52.07600 30.30600
C  14.62800 52.29300 28.83100
C  13.75700 50.87900 30.75400
C  16.93000 53.21200 30.96400
C  16.94700 53.24500 32.52700
H  16.18100 52.22000 33.36200
N  14.16600 52.84400 25.63800
C  13.26700 53.07900 26.67800
C  12.14700 53.71200 26.10000
C  12.39600 53.88700 24.67900
C  13.67400 53.27100 24.41200
C  10.98000 54.23800 26.94700
C  11.60900 54.63600 23.64600
O  11.92600 54.73100 22.46900
C  10.28500 55.26800 24.04400
N  16.55300 52.07500 23.85800
C  15.62700 52.46400 22.89800
C  16.27800 52.22600 21.44000
C  17.65300 51.67400 21.80700
C  17.69600 51.55100 23.27800
C  15.41600 51.33700 20.53100
C  18.81300 52.52500 21.27200
C  18.94500 52.39300 19.74100
N  17.99700 51.21600 26.18500
C  18.88900 50.65100 25.31300
C  20.05400 50.05500 26.01300
C  19.73700 50.24800 27.34100
C  18.43300 50.83000 27.42800
C  21.34200 49.45800 25.39200
C  20.10200 50.01000 28.68900
O  21.04900 49.32800 29.13000
C  19.00000 50.52700 29.66900
C  18.53700 49.48100 30.64200
O  17.52800 48.84500 30.59200
O  19.33300 49.41700 31.76000
C  19.04800 48.41900 32.90000
H  12.57600 53.08200 28.71800
H  14.00600 53.36500 22.20300
H  19.56200 50.33000 23.38200
H  16.32900 51.04000 31.16600
H  14.29200 52.94900 30.81700
H  12.89500 50.76900 30.09600
H  13.26800 51.24600 31.65700
H  14.37400 49.98100 30.78500
H  16.30800 54.03800 30.62100
H  17.97600 53.27300 30.66300
H  16.67400 54.25700 32.82600
H  17.98200 53.11100 32.84200
H  10.01700 54.17400 26.44000
H  11.19500 55.24100 27.31500
H  10.91400 53.72800 27.90700
H  10.04200 55.95000 23.22900
H  10.42500 55.87300 24.94000
H  9.47100 54.57600 24.26000
H  16.51400 53.17200 20.95300
H  17.63600 50.67400 21.37500
H  15.55800 51.71200 19.51800
H  14.38500 51.34600 20.88600
H  15.67100 50.28100 20.43900
H  19.61100 51.97600 21.77100
H  18.62000 53.52300 21.66500
H  18.08400 51.80900 19.41700
H  19.80700 51.84700 19.35700
H  19.06700 53.34300 19.21900
H  21.20200 48.37700 25.37700
H  22.13400 49.64400 26.11800
H  21.44800 49.87600 24.39100
H  19.49200 51.28400 30.28100
H  19.67300 47.54800 32.70400
H  18.07400 47.95200 33.04500
H  19.40800 48.86100 33.82900

