158

Mg 43.76600 4.88300 47.75500
C  41.66700 7.80600 47.57300
C  40.91400 2.97500 47.67900
C  45.65700 2.35100 47.08600
C  46.42200 7.06900 47.11100
N  41.61900 5.36200 47.51900
C  40.99800 6.60400 47.58000
C  39.45700 6.49700 47.48800
C  39.26900 4.88700 47.65100
C  40.71000 4.34600 47.69300
C  38.43200 4.45100 48.86100
C  38.72100 7.09800 46.25200
C  39.37600 6.96200 44.85800
H  39.56700 8.25300 43.95700
N  43.37300 2.89600 47.50900
C  42.14300 2.29000 47.54900
C  42.22500 0.85200 47.35900
C  43.66100 0.64700 47.00500
C  44.28500 2.01900 47.13400
C  41.06800 -0.10500 47.35800
C  44.26200 -0.62700 46.65800
O  43.60000 -1.67300 46.62400
C  45.74700 -0.71000 46.26800
N  45.73200 4.73000 47.16600
C  46.34600 3.53600 47.09400
C  47.87900 3.58600 46.83700
C  48.04200 5.09100 46.60700
C  46.63600 5.66600 46.97400
C  48.73900 3.01700 47.95300
C  48.59200 5.48200 45.20600
C  50.10300 5.87700 45.06200
N  44.04900 7.03600 47.61900
C  45.19500 7.69900 47.39000
C  44.97700 9.11900 47.49200
C  43.57400 9.22800 47.58900
C  43.04800 7.94900 47.55200
C  46.05200 10.21900 47.33800
C  42.43900 10.09600 47.68400
O  42.31200 11.36800 47.70500
C  41.17100 9.20900 47.55200
C  40.22100 9.49000 48.65100
O  40.30700 8.99000 49.72800
O  39.30000 10.36400 48.24800
C  38.39800 10.75300 49.36000
H  39.96900 2.43500 47.77000
H  46.43600 1.60500 46.91600
H  47.30000 7.70400 46.98200
H  39.08500 7.09200 48.32200
H  38.73400 4.48400 46.79100
H  39.08100 3.96300 49.58800
H  37.73800 3.65400 48.59400
H  37.95700 5.29100 49.36800
H  38.49300 8.13900 46.47700
H  37.70300 6.74600 46.08400
H  38.84200 6.12800 44.40100
H  40.41900 6.66500 44.96400
H  40.11300 0.41500 47.42900
H  41.17600 -0.77200 48.21300
H  41.15500 -0.67300 46.43100
H  46.42100 -0.56300 47.11200
H  46.11200 -0.09600 45.44500
H  46.12400 -1.66400 45.90100
H  47.88700 2.98800 45.92600
H  48.61200 5.47000 47.45500
H  49.18200 2.13100 47.49800
H  48.17600 2.65600 48.81300
H  49.52800 3.68700 48.29400
H  48.03200 6.30100 44.75600
H  48.42000 4.61200 44.57100
H  50.52200 5.21100 44.30800
H  50.59700 5.83800 46.03300
H  50.06500 6.90900 44.71400
H  46.74300 10.16500 48.17900
H  45.58900 11.20100 47.24000
H  46.62000 9.95100 46.44800
H  40.81900 9.43900 46.54600
H  37.75300 9.97400 49.76700
H  37.71700 11.46300 48.89100
H  38.97100 11.23600 50.15200
Mg -10.95400 37.25100 42.63400
C  -8.93800 34.97600 41.57300
C  -8.82000 39.76800 41.23100
C  -13.45100 39.52100 42.83400
C  -13.24100 34.73400 43.64800
N  -9.25600 37.40100 41.39000
C  -8.57400 36.22900 41.14200
C  -7.26600 36.52000 40.29400
C  -7.07100 38.10600 40.57200
C  -8.46100 38.45700 41.07400
C  -5.96500 38.56000 41.54400
C  -7.59400 36.01000 38.82000
C  -6.54500 35.34500 37.99100
H  -6.08300 36.10700 36.75300
N  -11.04000 39.36800 42.31100
C  -10.08400 40.19300 41.67300
C  -10.59300 41.52000 41.69400
C  -11.88300 41.52800 42.27200
C  -12.22500 40.12100 42.55700
C  -9.70600 42.65900 41.15900
C  -12.85300 42.74300 42.60900
O  -12.61200 43.82900 42.08900
C  -14.10300 42.55500 43.41600
N  -13.12200 37.09600 43.09200
C  -13.90100 38.21200 42.96900
C  -15.37000 37.78900 43.34900
C  -15.25400 36.26300 43.79900
C  -13.81200 35.97300 43.47600
C  -16.00100 38.63600 44.55100
C  -16.31900 35.29900 43.20800
C  -15.86300 34.44900 42.01100
N  -11.11400 35.26800 42.59300
C  -11.97000 34.39800 43.16900
C  -11.35500 33.07400 43.16500
C  -10.16400 33.26800 42.44500
C  -10.07500 34.63700 42.15600
C  -11.91100 31.75600 43.63900
C  -9.00800 32.53100 41.93500
O  -8.76700 31.29400 41.98500
C  -8.18300 33.66300 41.31900
C  -6.91600 33.64900 42.08600
O  -6.83100 33.97500 43.27300
O  -5.94000 33.07200 41.35700
C  -4.77100 32.62000 42.14000
H  -8.04800 40.50500 41.00200
H  -14.25400 40.19600 42.53100
H  -13.88000 33.94400 44.04700
H  -6.45900 35.93100 40.73100
H  -7.03900 38.70600 39.66200
H  -6.36600 39.11100 42.39500
H  -5.36300 39.30200 41.01900
H  -5.53500 37.68300 42.02800
H  -7.98500 36.91700 38.35900
H  -8.44700 35.33700 38.89900
H  -6.85300 34.32800 37.74600
H  -5.65900 35.20900 38.61000
H  -9.70100 42.45400 40.08900
H  -8.71200 42.69700 41.60400
H  -10.14100 43.65500 41.23900
H  -14.44100 43.49300 43.85800
H  -13.90200 41.78700 44.16300
H  -14.87300 42.12300 42.77700
H  -16.02200 37.79500 42.47600
H  -15.26600 36.06200 44.87000
H  -15.22200 39.32600 44.87700
H  -16.38500 37.97500 45.32800
H  -16.81400 39.20000 44.09400
H  -17.14300 36.00100 43.08300
H  -16.50600 34.55200 43.97900
H  -15.43800 33.55700 42.47100
H  -15.18900 34.90600 41.28700
H  -16.73500 34.14600 41.43000
H  -11.15200 30.97400 43.65600
H  -12.72100 31.53800 42.94400
H  -12.36200 31.76000 44.63200
H  -7.96500 33.41100 40.28200
H  -4.45900 31.64300 41.77200
H  -5.11900 32.57600 43.17200
H  -3.97800 33.33400 41.91800

