158

Mg 25.83500 1.21400 29.66600
C  27.85800 1.06300 32.47200
C  23.04700 1.46000 31.67600
C  23.95000 1.72100 26.97200
C  28.70000 0.50600 27.62900
N  25.49700 1.08300 31.78200
C  26.49600 1.23600 32.73100
C  25.94300 1.32500 34.16500
C  24.34900 1.24800 34.00700
C  24.27300 1.25400 32.39400
C  23.63300 -0.02800 34.47400
C  26.38600 2.67200 34.80300
C  26.96000 2.53300 36.24400
H  26.62600 3.60800 37.28100
N  23.77800 1.47000 29.34400
C  22.82200 1.63700 30.30000
C  21.54700 1.90100 29.72400
C  21.72800 1.90200 28.32500
C  23.22900 1.74200 28.18800
C  20.29500 2.00900 30.45200
C  20.77800 2.01200 27.13400
O  21.15900 2.01600 25.96200
C  19.30100 2.01900 27.34200
N  26.26500 0.91300 27.57200
C  25.35000 1.36800 26.70800
C  25.91900 1.44800 25.20900
C  27.49600 1.19700 25.46900
C  27.50700 0.82700 26.95900
C  25.27100 0.59400 24.10600
C  28.45800 2.35300 25.11000
C  29.44800 2.06800 23.95400
N  27.79500 0.75900 29.93300
C  28.80300 0.54500 29.05600
C  30.05200 0.32300 29.81700
C  29.72200 0.57600 31.13400
C  28.37100 0.85900 31.18000
C  31.43400 0.12500 29.18300
C  30.29400 0.69700 32.48400
O  31.44200 0.50700 32.83200
C  29.11400 1.11500 33.41900
C  28.98800 0.09700 34.54800
O  28.41600 -0.94200 34.56600
O  29.57300 0.67900 35.69000
C  29.50200 -0.23100 36.80600
H  22.23500 1.46900 32.40700
H  23.47000 1.90800 26.00900
H  29.59400 0.34500 27.02300
H  26.20100 0.51500 34.84700
H  23.89800 2.17400 34.36300
H  22.81400 0.27000 35.12900
H  24.36000 -0.75800 34.82700
H  23.25500 -0.58000 33.61400
H  25.64000 3.45800 34.68200
H  27.29000 3.04600 34.32300
H  28.04100 2.41400 36.16600
H  26.67800 1.64400 36.80700
H  19.77300 2.77100 29.87400
H  20.50100 2.37800 31.45700
H  19.75400 1.06300 30.47100
H  19.08700 1.01400 27.70400
H  18.87300 1.96400 26.34100
H  18.80200 2.69700 28.03400
H  25.72900 2.50400 25.01300
H  27.83800 0.32100 24.91800
H  24.88900 1.21400 23.29500
H  24.41300 0.02800 24.47000
H  25.91800 -0.21600 23.76900
H  29.08100 2.62700 25.96200
H  27.81800 3.21400 24.92000
H  29.67800 2.82200 23.20200
H  29.08800 1.16700 23.45800
H  30.38400 1.80800 24.45000
H  32.29100 -0.04600 29.83400
H  31.82700 0.92900 28.56000
H  31.42600 -0.77600 28.57000
H  29.18700 2.06900 33.94200
H  30.16900 0.06500 37.61600
H  29.63900 -1.28000 36.54500
H  28.53300 0.00700 37.24300
Mg -5.95100 25.54300 26.18800
C  -5.06600 27.05800 29.13800
C  -7.59100 23.08600 28.03400
C  -6.33500 23.72900 23.39500
C  -3.96300 27.89400 24.42000
N  -6.20200 25.09400 28.33700
C  -5.81900 25.90600 29.34600
C  -6.37300 25.38900 30.72000
C  -6.94600 23.98100 30.31800
C  -6.91400 24.08600 28.78700
C  -6.19500 22.61100 30.85700
C  -7.47800 26.28100 31.30800
C  -7.54700 26.35300 32.85600
H  -6.84300 25.28000 33.65500
N  -6.98100 23.73200 25.74700
C  -7.66400 22.95800 26.58400
C  -8.29900 21.93100 25.87900
C  -7.82200 22.03200 24.51600
C  -6.99000 23.18600 24.50900
C  -9.19600 20.93400 26.51300
C  -8.06800 21.08600 23.34900
O  -7.66100 21.25300 22.17500
C  -8.97900 19.90700 23.47200
N  -5.45100 25.90000 24.15300
C  -5.61000 24.89400 23.20100
C  -4.88300 25.27900 21.86700
C  -4.19200 26.68700 22.17800
C  -4.50700 26.79800 23.70100
C  -3.91000 24.22500 21.19400
C  -4.78900 27.85400 21.26200
C  -3.66500 28.57400 20.40500
N  -4.76500 27.18400 26.65500
C  -4.05000 28.09300 25.79700
C  -3.29400 28.97000 26.71200
C  -3.72300 28.67600 27.99400
C  -4.57400 27.57500 27.92400
C  -2.21400 29.96000 26.20000
C  -3.69900 29.07300 29.36900
O  -3.12500 30.04300 29.89100
C  -4.48600 27.97800 30.21200
C  -3.50700 27.32800 31.18000
O  -2.70600 26.44200 30.76600
O  -3.68300 27.77400 32.46400
C  -2.69600 27.20400 33.37300
H  -8.26200 22.50100 28.66700
H  -6.38400 23.18400 22.44900
H  -3.23500 28.56200 23.95500
H  -5.51200 25.27700 31.38000
H  -7.98800 23.85100 30.60800
H  -5.74400 22.16400 29.97000
H  -6.83000 21.78900 31.18600
H  -5.45500 22.71800 31.65000
H  -8.45300 26.06500 30.87200
H  -7.32900 27.24300 30.81900
H  -8.60500 26.41700 33.11100
H  -7.11500 27.33000 33.07100
H  -8.94300 20.81500 27.56700
H  -9.15800 20.00400 25.94500
H  -10.22600 21.28100 26.43900
H  -9.30700 19.62600 22.47100
H  -9.92500 20.10700 23.97700
H  -8.46100 19.11800 24.01900
H  -5.74400 25.29200 21.19900
H  -3.11800 26.50900 22.11800
H  -2.88400 24.55700 21.03300
H  -4.23500 24.08600 20.16400
H  -4.02600 23.25900 21.68400
H  -5.25300 28.67900 21.80300
H  -5.42000 27.39500 20.50100
H  -2.67200 28.25200 20.71700
H  -3.74500 29.63800 20.62700
H  -3.86400 28.49200 19.33600
H  -1.51900 29.46600 25.52100
H  -1.64200 30.25600 27.08000
H  -2.73100 30.71500 25.60700
H  -5.14700 28.47300 30.92400
H  -1.74300 27.71200 33.22200
H  -2.46200 26.15200 33.21100
H  -3.01000 27.33700 34.40800

