158

Mg 41.17600 40.34400 26.86700
C  40.53100 42.96000 29.18200
C  42.01900 38.29600 29.66300
C  42.06900 38.16300 24.61200
C  40.92600 42.87200 24.24900
N  41.17400 40.55100 29.13300
C  40.83400 41.70400 29.84300
C  40.76500 41.35800 31.39000
C  41.34000 39.87800 31.53700
C  41.54800 39.51900 30.05400
C  42.51600 39.65900 32.46500
C  39.28400 41.51900 32.08400
C  39.01000 40.89400 33.48200
H  38.72000 42.00300 34.59300
N  41.95900 38.43300 27.12900
C  42.16600 37.74800 28.32900
C  42.53700 36.40500 27.94300
C  42.51300 36.34500 26.47300
C  42.19300 37.70600 26.00600
C  42.95600 35.35700 29.00800
C  42.94900 35.28700 25.53900
O  43.02200 35.31100 24.31500
C  43.09700 33.89200 26.11400
N  41.52700 40.55100 24.74200
C  41.73800 39.36900 24.03400
C  41.56700 39.56700 22.49000
C  41.01500 41.03300 22.47500
C  41.18800 41.52100 23.89000
C  42.84700 39.38900 21.61900
C  39.56600 41.21500 21.87600
C  38.28800 41.24600 22.76700
N  40.85100 42.50000 26.74500
C  40.70700 43.31900 25.60200
C  40.40100 44.67600 26.04000
C  40.34700 44.58900 27.44500
C  40.68600 43.25900 27.81700
C  40.23000 45.86100 25.14300
C  40.00400 45.31700 28.64500
O  39.63200 46.42200 28.80600
C  40.14900 44.28100 29.87400
C  41.19500 44.74400 30.83400
O  42.30700 44.99300 30.44900
O  40.73300 44.65900 32.15200
C  41.84300 44.50300 33.07600
H  42.22100 37.62600 30.50200
H  42.31100 37.53100 23.75500
H  40.83000 43.52100 23.37600
H  41.42100 42.05500 31.91000
H  40.52600 39.21800 31.83500
H  43.38300 39.26300 31.93600
H  42.19800 38.99200 33.26700
H  42.87700 40.64900 32.74300
H  38.58500 41.05700 31.38600
H  39.01800 42.57100 31.98400
H  39.89700 40.33000 33.77000
H  38.15700 40.22100 33.39500
H  43.88100 34.83000 28.77300
H  42.16300 34.63800 29.21300
H  43.30100 35.93000 29.86900
H  43.91100 33.93900 26.83700
H  43.24100 33.12400 25.35400
H  42.13500 33.80900 26.62100
H  40.79600 38.87000 22.16100
H  41.69100 41.69000 21.92600
H  43.11600 40.30400 21.09100
H  42.74100 38.66200 20.81300
H  43.70400 39.02000 22.18200
H  39.37200 40.38400 21.19700
H  39.55200 42.02900 21.15200
H  37.60800 40.43200 22.51400
H  37.92200 42.25900 22.60000
H  38.57500 41.12000 23.81100
H  39.81000 46.69800 25.70000
H  39.51100 45.69300 24.34100
H  41.18100 46.21700 24.74600
H  39.15700 44.26600 30.32600
H  42.76700 44.19900 32.58400
H  41.66300 43.78700 33.87800
H  42.02200 45.45000 33.58400
Mg 15.68400 51.77100 25.83000
C  17.52200 50.93000 28.53200
C  13.01100 52.17200 27.91400
C  13.73300 52.02900 23.11800
C  18.36200 50.70200 23.77500
N  15.42500 51.77800 28.05600
C  16.35000 51.44300 28.96000
C  15.88800 51.83800 30.37900
C  14.33900 51.85200 30.14300
C  14.19800 51.96600 28.63400
C  13.61400 50.50500 30.70100
C  16.45600 53.16800 30.90500
C  16.63400 53.26800 32.44600
H  16.00700 52.31500 33.41900
N  13.65500 52.24400 25.54900
C  12.75100 52.24300 26.55500
C  11.41800 52.55600 25.92100
C  11.58700 52.38900 24.53200
C  13.06400 52.27100 24.31300
C  10.12900 52.68900 26.68600
C  10.54700 52.51000 23.42100
O  10.92300 52.43300 22.24400
C  9.13700 52.87700 23.76300
N  16.07100 51.51600 23.76100
C  15.09400 51.73400 22.88100
C  15.60500 51.62100 21.48400
C  17.15600 51.42700 21.69500
C  17.22100 51.19200 23.17000
C  14.99500 50.44100 20.67200
C  18.11500 52.66300 21.27400
C  18.96500 52.46200 20.06300
N  17.53600 50.80800 26.04100
C  18.56800 50.51100 25.15900
C  19.70400 49.90800 25.83000
C  19.34300 50.19600 27.17100
C  18.03800 50.66400 27.25200
C  20.97000 49.35200 25.23900
C  19.79500 49.94600 28.47600
O  20.86300 49.45900 28.79800
C  18.68200 50.50900 29.45900
C  18.26100 49.41600 30.42200
O  17.20000 48.71900 30.40400
O  19.19200 49.41100 31.45400
C  18.86900 48.69200 32.67600
H  12.13200 52.27000 28.55400
H  13.19200 52.17500 22.18100
H  19.17700 50.34300 23.14300
H  16.11400 51.15500 31.19800
H  13.86100 52.69100 30.64800
H  13.77700 50.55600 31.77800
H  14.18200 49.67500 30.28200
H  12.61800 50.45800 30.26100
H  15.84500 54.02100 30.61000
H  17.41600 53.22500 30.39300
H  16.35400 54.29400 32.68300
H  17.71000 53.30200 32.61400
H  10.25500 53.24300 27.61600
H  9.76800 51.68900 26.92700
H  9.27500 53.23400 26.28500
H  9.06800 53.86300 24.22400
H  8.66300 52.03600 24.27000
H  8.60700 52.96700 22.81400
H  15.37000 52.52700 20.92600
H  17.46500 50.47200 21.27000
H  14.43500 49.93300 21.45700
H  15.74800 49.81500 20.19300
H  14.28500 50.88600 19.97500
H  18.90900 52.81200 22.00600
H  17.58500 53.60400 21.12200
H  19.07000 51.46500 19.63500
H  19.99800 52.54400 20.40000
H  18.69700 53.13600 19.24800
H  21.31700 48.72200 26.05800
H  21.61300 50.21300 25.05800
H  20.80800 48.88600 24.26700
H  19.01000 51.45000 29.90100
H  19.13100 49.30100 33.54100
H  19.39700 47.73900 32.72000
H  17.79000 48.53700 32.70800

