158

Mg 45.20100 3.38200 47.18600
C  42.83400 5.73300 46.60700
C  42.66300 0.93900 47.07100
C  47.54600 0.95100 47.02100
C  47.67500 5.86500 46.81300
N  43.02600 3.29700 46.63800
C  42.29900 4.44500 46.61700
C  40.79200 4.10000 46.37900
C  40.69400 2.65800 47.10100
C  42.19700 2.28400 47.03200
C  39.97000 2.69800 48.55400
C  40.44200 4.13600 44.83800
C  39.24800 4.92000 44.39700
H  39.43100 5.79300 43.18400
N  45.10900 1.25500 47.20800
C  44.00000 0.53200 47.10500
C  44.34600 -0.91800 47.13100
C  45.76400 -0.98300 47.14200
C  46.21100 0.43400 47.11600
C  43.27800 -1.99100 47.14300
C  46.66400 -2.30400 47.13600
O  46.06500 -3.37000 47.14700
C  48.08500 -2.14200 47.02500
N  47.21200 3.39000 46.77300
C  48.00300 2.26000 46.91600
C  49.55400 2.57800 46.90300
C  49.53200 4.11600 47.01400
C  48.08000 4.47900 46.75500
C  50.38800 1.80600 48.02000
C  50.55600 4.80700 46.04900
C  51.43800 5.87100 46.76100
N  45.28400 5.40900 46.76100
C  46.36500 6.31800 46.73300
C  45.76100 7.67100 46.61600
C  44.36300 7.45300 46.58400
C  44.16200 6.04600 46.63800
C  46.45000 9.01600 46.54600
C  43.13800 8.12400 46.43800
O  42.90800 9.32800 46.42500
C  42.08200 6.99200 46.56400
C  41.33100 7.13600 47.87700
O  41.77500 6.77900 48.98100
O  40.01100 7.38600 47.62200
C  39.07400 7.49900 48.71200
H  41.83000 0.23300 47.08300
H  48.40000 0.27100 47.03700
H  48.40500 6.67000 46.92100
H  40.20000 4.81600 46.94900
H  39.96400 2.12600 46.49100
H  39.21600 1.91800 48.66100
H  39.51700 3.66900 48.75100
H  40.77100 2.46000 49.25400
H  40.37900 3.09200 44.53100
H  41.26800 4.50800 44.23100
H  38.71600 5.32200 45.25900
H  38.42200 4.31700 44.01900
H  43.02400 -2.16100 46.09700
H  42.44300 -1.66000 47.75900
H  43.68400 -2.88600 47.61600
H  48.25700 -1.45600 46.19500
H  48.69000 -3.02900 46.83700
H  48.44400 -1.73300 47.96900
H  49.87900 2.27600 45.90700
H  49.76800 4.31600 48.06000
H  50.94100 0.99800 47.54100
H  49.80300 1.50300 48.88800
H  51.10400 2.55100 48.36800
H  49.99100 5.26800 45.23900
H  51.36600 4.18400 45.66900
H  51.39700 5.87700 47.85100
H  51.28600 6.91600 46.49100
H  52.47000 5.68100 46.46800
H  47.05500 9.10300 45.64300
H  47.09600 9.06800 47.42200
H  45.70900 9.81400 46.48500
H  41.32700 7.01400 45.77900
H  38.22800 8.14200 48.46700
H  39.52200 7.79800 49.66000
H  38.66000 6.49100 48.71200
Mg 42.00600 7.89500 29.93300
C  43.79600 9.45100 32.39300
C  39.88300 6.57000 32.25500
C  40.30100 6.49600 27.45500
C  44.84600 8.34100 27.68900
N  42.05500 7.90900 32.08900
C  42.66200 8.83000 32.83900
C  42.08800 8.82000 34.31200
C  40.81200 7.82400 34.21900
C  40.98900 7.33800 32.81400
C  40.80900 6.62800 35.28000
C  41.73400 10.23300 34.88400
C  42.44900 10.68700 36.21200
H  41.55600 11.36700 37.30300
N  40.31000 6.80800 29.87700
C  39.55100 6.33100 30.92500
C  38.39900 5.60300 30.43000
C  38.38200 5.74500 29.02200
C  39.72600 6.32500 28.74800
C  37.43900 4.89800 31.38100
C  37.24400 5.33200 28.02200
O  37.49800 5.31200 26.82300
C  35.90700 5.19500 28.56500
N  42.64400 7.22300 27.89200
C  41.64200 6.88200 27.12500
C  42.15800 6.79200 25.63900
C  43.67600 7.29100 25.74100
C  43.80200 7.58500 27.21700
C  42.03800 5.32800 25.03500
C  43.96100 8.36000 24.76500
C  43.28900 9.73200 25.14100
N  43.95700 8.73300 29.98300
C  44.96800 8.81600 29.04900
C  45.97700 9.69300 29.58800
C  45.65300 9.93700 30.95500
C  44.40200 9.35500 31.15000
C  47.09200 10.31100 28.77200
C  46.04800 10.64600 32.16300
O  46.97200 11.40900 32.40100
C  44.83900 10.26200 33.22500
C  45.38300 9.45000 34.37300
O  45.45500 8.21300 34.59600
O  45.91400 10.40300 35.21900
C  46.32400 9.97700 36.57700
H  39.06000 6.35900 32.94000
H  39.75500 6.16400 26.57000
H  45.58900 8.58600 26.92800
H  42.89400 8.32000 34.84900
H  39.86100 8.33000 34.05000
H  39.75500 6.55000 35.54600
H  41.49600 6.97600 36.05100
H  41.29600 5.79700 34.77000
H  40.65200 10.35800 34.92700
H  42.01300 10.99500 34.15700
H  43.27100 11.36400 35.98200
H  42.93500 9.82400 36.66700
H  36.92400 4.09700 30.85000
H  36.72400 5.54700 31.88600
H  38.03200 4.31600 32.08600
H  35.76100 6.10700 29.14400
H  35.89300 4.31300 29.20600
H  35.10300 4.97700 27.86300
H  41.47400 7.38700 25.03300
H  44.39400 6.53000 25.43800
H  41.74900 4.75800 25.91800
H  42.98200 4.95300 24.63900
H  41.27900 5.15700 24.27200
H  43.53500 7.98900 23.83300
H  45.03500 8.53200 24.69100
H  42.71300 9.71000 26.06600
H  42.67300 10.04700 24.29900
H  44.08700 10.47400 25.18200
H  46.83300 11.16800 28.15000
H  47.59900 9.61100 28.10900
H  47.77700 10.69900 29.52600
H  44.34200 11.15200 33.61000
H  46.89500 9.04900 36.60600
H  45.49400 9.75100 37.24500
H  46.99900 10.77400 36.89000

