158

Mg 36.78000 49.16000 25.28100
C  37.02200 47.09000 28.21800
C  35.47900 51.57600 27.27000
C  36.41200 50.90500 22.51200
C  37.79100 46.34100 23.51800
N  36.40700 49.31300 27.48700
C  36.53700 48.38300 28.49800
C  36.36400 49.03000 29.84800
C  35.73900 50.43600 29.45100
C  35.86900 50.46000 27.94200
C  34.29300 50.69600 29.96800
C  37.69700 49.14100 30.61900
C  37.59700 48.44600 32.05300
H  36.29200 48.60700 32.82000
N  36.04700 51.00800 24.94900
C  35.57200 51.89600 25.90200
C  35.18100 53.15300 25.22500
C  35.38300 52.90700 23.77700
C  35.89600 51.58800 23.68600
C  34.50900 54.27900 26.00700
C  35.06100 53.76700 22.62100
O  35.19400 53.45400 21.42700
C  34.72900 55.22800 22.85900
N  37.08800 48.73300 23.31100
C  36.85100 49.59800 22.31000
C  37.09200 48.88600 20.95400
C  37.70000 47.50400 21.28600
C  37.60200 47.56600 22.83100
C  35.75000 48.76500 20.15600
C  39.18900 47.40800 20.83500
C  40.27900 48.34100 21.32800
N  37.29200 47.10700 25.71500
C  37.68000 46.06900 24.89100
C  37.92900 44.84000 25.59000
C  37.61800 45.25500 26.89200
C  37.28600 46.64800 26.93200
C  38.44100 43.46900 25.18300
C  37.63900 44.74800 28.26200
O  37.94100 43.69300 28.68100
C  37.25400 45.91400 29.19300
C  36.00100 45.59600 29.90800
O  34.89600 45.84000 29.53400
O  36.28200 44.98500 31.13300
C  35.14500 44.56000 31.96300
H  35.02400 52.41400 27.80300
H  36.36500 51.39100 21.53500
H  38.04000 45.39500 23.03300
H  35.63000 48.33300 30.25400
H  36.30500 51.28700 29.83100
H  33.87200 49.83400 30.48500
H  33.56400 50.98200 29.20900
H  34.34400 51.61600 30.55100
H  37.99900 50.17000 30.81300
H  38.37800 48.58000 29.97800
H  38.34500 48.92200 32.68600
H  37.81800 47.38000 31.98400
H  34.59200 55.29900 25.63100
H  34.95600 54.41300 26.99200
H  33.52300 53.88000 26.24600
H  35.42700 55.67500 23.56700
H  33.73900 55.32000 23.30600
H  34.72300 55.68900 21.87200
H  37.76200 49.53400 20.39000
H  37.09300 46.66600 20.94300
H  34.99600 49.42900 20.57900
H  35.39500 47.74000 20.04700
H  35.86900 49.22200 19.17400
H  39.10500 47.41400 19.74800
H  39.63800 46.44800 21.08600
H  39.78600 49.23600 21.70600
H  40.97600 48.43000 20.49500
H  40.91700 47.89200 22.09000
H  38.80700 43.50000 24.15600
H  37.48100 42.95800 25.27000
H  39.17900 43.02600 25.85200
H  38.00000 46.05300 29.97600
H  34.18300 45.05200 31.82300
H  35.44200 44.86500 32.96600
H  35.12100 43.47100 31.92400
Mg 6.76000 53.38000 41.24600
C  5.81100 49.98500 41.19700
C  9.94700 52.40300 40.32700
C  7.56000 56.59200 40.62700
C  3.34900 54.25100 41.58800
N  7.65900 51.43600 40.63500
C  7.16800 50.17100 40.82400
C  8.13600 49.07300 40.31300
C  9.51500 49.86000 40.61900
C  9.03300 51.34200 40.43100
C  10.18100 49.51500 41.99100
C  8.07200 48.64700 38.79400
C  7.30400 49.67300 37.85500
H  6.64300 49.06500 36.59200
N  8.54400 54.36700 40.60500
C  9.78400 53.78000 40.39400
C  10.76600 54.80400 40.22700
C  10.09400 56.05900 40.40300
C  8.66400 55.72000 40.55700
C  12.21400 54.53900 39.84400
C  10.70200 57.38400 40.38000
O  11.93600 57.45000 40.22000
C  9.96500 58.66000 40.66100
N  5.61600 55.12200 41.16200
C  6.18500 56.36000 40.87600
C  5.16900 57.44900 40.97300
C  3.85900 56.69500 41.17700
C  4.27800 55.26300 41.33400
C  5.56800 58.42600 42.08500
C  2.92200 56.85600 39.94100
C  1.46000 56.98600 40.24900
N  4.91200 52.37500 41.65100
C  3.65800 52.84200 41.78200
C  2.76800 51.74300 41.98800
C  3.59200 50.58900 41.98700
C  4.89300 51.02900 41.59000
C  1.22800 51.78400 42.01200
C  3.63900 49.13700 42.04700
O  2.79700 48.29100 42.27200
C  5.03700 48.67300 41.44200
C  4.78700 47.89200 40.14800
O  4.44100 48.49100 39.12100
O  4.94200 46.52100 40.22600
C  4.61800 45.70900 38.95400
H  10.98100 52.06300 40.23900
H  7.85200 57.64200 40.69400
H  2.28400 54.46700 41.69300
H  8.06700 48.13600 40.86500
H  10.32900 49.48300 40.00000
H  9.56400 48.81400 42.55400
H  10.28000 50.43800 42.56300
H  11.21300 49.17300 41.91900
H  7.63200 47.65000 38.76300
H  9.06000 48.47500 38.36800
H  8.02900 50.39700 37.48200
H  6.66000 50.37900 38.38000
H  12.90600 55.37900 39.77200
H  12.23100 54.12100 38.83800
H  12.54000 53.75100 40.52300
H  9.50100 59.04500 39.75200
H  10.67400 59.41000 41.01200
H  9.25800 58.69800 41.49000
H  5.26100 57.95400 40.01200
H  3.26600 56.90900 42.06600
H  6.55100 58.21700 42.50700
H  4.86700 58.31200 42.91200
H  5.61700 59.47300 41.78600
H  2.99400 55.97200 39.30600
H  3.23700 57.80500 39.50900
H  1.11500 58.00000 40.04600
H  1.21800 56.70300 41.27300
H  1.02300 56.30800 39.51400
H  0.74500 52.73500 42.23600
H  0.86800 51.01700 42.69700
H  0.85600 51.51700 41.02200
H  5.59000 48.06900 42.16100
H  5.43500 45.73100 38.23300
H  3.74200 46.08900 38.42900
H  4.56900 44.68500 39.32500

