158

Mg 25.30000 1.51500 29.63000
C  27.61100 1.42900 32.27200
C  22.87500 1.50000 31.83400
C  23.21100 1.27500 27.00100
C  28.00500 0.73100 27.47500
N  25.29900 1.29900 31.91600
C  26.31400 1.60100 32.73500
C  25.82100 1.95200 34.16300
C  24.32500 2.06600 33.92900
C  24.10500 1.51600 32.50600
C  23.44200 1.36600 34.99000
C  26.31600 3.26000 34.86700
C  26.61400 3.18300 36.37200
H  26.04300 4.18200 37.36700
N  23.27700 1.30600 29.44100
C  22.39400 1.39600 30.48000
C  21.05100 1.44600 29.92400
C  21.15000 1.50300 28.56700
C  22.60400 1.36800 28.27300
C  19.82600 1.40800 30.89100
C  20.07400 1.56600 27.55400
O  20.35000 1.41200 26.34300
C  18.64000 1.73900 27.98300
N  25.58000 0.99500 27.54500
C  24.59300 1.13100 26.66500
C  25.06600 1.13500 25.26300
C  26.60800 1.09900 25.40200
C  26.75900 0.97400 26.91500
C  24.40900 0.03700 24.37600
C  27.30800 2.38700 24.79900
C  27.11000 3.64800 25.67100
N  27.40500 1.12500 29.80200
C  28.36300 0.78800 28.88300
C  29.67400 0.66000 29.42200
C  29.44000 0.93500 30.78400
C  28.04400 1.16700 30.94700
C  30.96800 0.30900 28.76000
C  30.03000 1.06200 32.12000
O  31.21300 0.94400 32.52200
C  28.85700 1.51300 33.13600
C  28.86700 0.59400 34.22700
O  28.72400 -0.62500 34.20000
O  29.14600 1.33200 35.38000
C  29.35000 0.59100 36.61200
H  22.11200 1.75900 32.57100
H  22.60000 1.34200 26.09900
H  28.87100 0.68000 26.81100
H  25.97200 1.07400 34.79100
H  24.08800 3.13000 33.91400
H  23.97600 1.38700 35.94000
H  23.15000 0.33500 34.79200
H  22.51900 1.90000 35.21600
H  25.65300 4.11400 34.73200
H  27.20400 3.57500 34.31900
H  27.68100 3.31100 36.55900
H  26.42000 2.20000 36.80200
H  19.10300 2.20400 30.71000
H  20.07100 1.37700 31.95200
H  19.43700 0.42500 30.62500
H  18.43800 0.81700 28.52700
H  18.06200 1.91400 27.07500
H  18.56000 2.55300 28.70300
H  24.83800 2.07500 24.76200
H  26.99200 0.18300 24.95200
H  23.59200 -0.42700 24.92800
H  25.13200 -0.75200 24.17000
H  23.98200 0.47000 23.47200
H  26.79500 2.49600 23.84300
H  28.36000 2.12900 24.67600
H  28.06300 4.06200 25.99900
H  26.51400 3.54800 26.57800
H  26.59100 4.45100 25.14800
H  31.01800 0.44900 27.68000
H  31.12200 -0.73900 29.01900
H  31.74200 0.88800 29.26400
H  29.08500 2.49700 33.54600
H  30.07800 1.21400 37.13200
H  29.49200 -0.48200 36.48300
H  28.40200 0.74100 37.13000
Mg 26.95200 49.63100 26.32500
C  24.84600 50.69600 28.87800
C  29.04000 48.33500 28.71700
C  28.96200 48.80000 23.86700
C  24.78700 51.40800 24.07000
N  26.90300 49.57400 28.56000
C  25.93000 49.95500 29.38600
C  26.11000 49.40900 30.85000
C  27.58200 48.87900 30.80200
C  27.93400 48.94200 29.28000
C  28.63900 49.55500 31.69200
C  24.94000 48.53700 31.40200
C  24.38900 49.04000 32.84200
H  25.42600 49.57400 33.86100
N  28.70700 48.69200 26.28000
C  29.42800 48.18900 27.34700
C  30.57800 47.51000 26.85700
C  30.66400 47.79600 25.45000
C  29.42100 48.44200 25.11900
C  31.57200 46.80900 27.79700
C  31.69900 47.43000 24.34700
O  31.67300 47.84300 23.19300
C  32.91700 46.57700 24.68500
N  26.92900 50.26400 24.27400
C  27.89400 49.62300 23.46800
C  27.49600 49.77800 21.96200
C  26.23200 50.65100 22.00800
C  25.92400 50.75600 23.55000
C  28.67800 50.47500 21.25000
C  25.05700 50.19300 21.08700
C  24.89300 51.00900 19.75700
N  25.17500 50.86100 26.34100
C  24.42800 51.54800 25.40700
C  23.28200 52.17700 25.95200
C  23.42600 51.90400 27.33300
C  24.55700 51.06600 27.53000
C  22.29400 53.08000 25.31800
C  22.73200 52.06900 28.63300
O  21.71000 52.58900 29.02300
C  23.67200 51.27600 29.67300
C  24.15200 52.36200 30.54400
O  25.02400 53.21000 30.21900
O  23.40000 52.36300 31.69600
C  23.66300 53.32000 32.68700
H  29.66600 48.05700 29.56700
H  29.49200 48.38300 23.00800
H  24.06500 51.93000 23.43800
H  26.13300 50.21300 31.58600
H  27.51900 47.82200 31.06200
H  29.35200 48.79900 32.01900
H  28.26200 49.97000 32.62700
H  29.27100 50.28000 31.18000
H  25.18600 47.47900 31.48500
H  24.12100 48.56700 30.68300
H  23.76500 48.27600 33.30500
H  23.66200 49.83800 32.69200
H  31.38000 45.75000 27.62100
H  31.56900 46.86000 28.88600
H  32.58400 47.15500 27.58700
H  33.78500 47.15800 24.99500
H  33.18500 46.06500 23.76100
H  32.56400 45.95000 25.50400
H  27.31400 48.76500 21.60200
H  26.54400 51.67300 21.79600
H  29.13200 51.23000 21.89300
H  28.42200 50.93400 20.29500
H  29.33400 49.63800 21.01100
H  24.10400 50.15000 21.61300
H  25.41200 49.21500 20.76000
H  23.83000 51.13600 19.55300
H  25.31400 50.41600 18.94400
H  25.40700 51.96900 19.73100
H  21.60500 52.44400 24.76100
H  22.84700 53.64300 24.56700
H  21.79700 53.77600 25.99500
H  23.21800 50.53300 30.32800
H  24.04700 54.27900 32.34000
H  24.30900 52.86700 33.43800
H  22.77300 53.64800 33.22400

