158

Mg 47.04200 44.68300 42.35900
C  43.60700 44.18500 42.63700
C  47.28800 41.23800 41.51100
C  50.24800 45.08100 41.90200
C  46.52500 48.10200 42.58700
N  45.64100 42.93900 42.11100
C  44.29900 42.96100 42.28300
C  43.74200 41.54400 42.18400
C  44.92900 40.64100 42.10100
C  46.05300 41.66800 41.87300
C  45.23100 39.70100 43.36600
C  42.50400 41.39000 41.22600
C  42.49500 42.27700 39.94100
H  43.41700 41.79300 38.74900
N  48.60600 43.38700 41.81900
C  48.48400 42.01800 41.54900
C  49.79600 41.55700 41.35100
C  50.77000 42.60800 41.42800
C  49.89100 43.78200 41.72800
C  50.03900 40.08700 41.16100
C  52.26400 42.53800 41.12100
O  52.74800 41.46000 40.81400
C  53.03800 43.76900 40.96400
N  48.13700 46.26900 41.96500
C  49.50300 46.19000 42.04000
C  50.19700 47.58300 42.20000
C  48.98000 48.57400 42.25700
C  47.82100 47.62100 42.33100
C  51.21300 47.68700 43.42300
C  48.79200 49.68400 41.15300
C  49.88200 49.73500 40.04500
N  45.45200 45.95900 42.48900
C  45.30800 47.36600 42.57500
C  43.93500 47.74900 42.72500
C  43.18400 46.52000 42.70100
C  44.15300 45.48700 42.65800
C  43.50100 49.16200 42.79800
C  41.78300 45.92500 42.74700
O  40.61600 46.35900 42.75600
C  42.08800 44.35600 42.79900
C  41.68300 43.67500 44.02600
O  40.70800 42.96600 44.10300
O  42.44100 44.16800 45.11100
C  41.96800 43.81100 46.49800
H  47.44600 40.16800 41.36100
H  51.30800 45.32200 42.00800
H  46.56700 49.17000 42.81300
H  43.22700 41.38300 43.13100
H  44.75900 39.93200 41.29000
H  46.20500 39.86700 43.82600
H  45.25600 38.63800 43.12700
H  44.43200 39.91100 44.07700
H  41.57300 41.52900 41.77500
H  42.65300 40.33600 40.99200
H  42.89800 43.27100 40.13400
H  41.48300 42.40600 39.55800
H  50.91300 39.83600 40.55900
H  49.23500 39.61600 40.59500
H  50.00900 39.67200 42.16800
H  52.64600 44.50800 40.26500
H  53.97900 43.42200 40.53700
H  53.09700 44.25400 41.93900
H  50.72700 47.74700 41.26200
H  49.00100 49.10900 43.20600
H  51.32100 46.78000 44.01800
H  51.04600 48.56200 44.05200
H  52.11200 47.93800 42.86100
H  48.80500 50.71800 41.50000
H  47.84800 49.50700 40.63700
H  49.89800 50.74400 39.63300
H  49.76000 48.99200 39.25700
H  50.84900 49.67700 40.54500
H  42.47600 49.32000 43.13200
H  43.50000 49.62300 41.81000
H  44.16100 49.72600 43.45700
H  41.46200 43.91100 42.02600
H  42.62200 43.09700 46.99900
H  41.06900 43.19800 46.56200
H  41.74700 44.71400 47.06700
Mg 25.85600 50.18000 25.68500
C  23.97800 51.18300 28.32900
C  28.19600 48.85400 27.99000
C  27.85300 49.32000 23.15700
C  23.67900 51.63700 23.41000
N  26.11800 50.13400 27.92700
C  25.13600 50.60000 28.81600
C  25.58500 50.43500 30.29600
C  26.89900 49.62600 30.09500
C  27.12400 49.54800 28.58800
C  28.03000 50.12900 30.95000
C  24.46200 49.79600 31.15200
C  24.79700 49.04000 32.44600
H  24.09100 49.56800 33.69300
N  27.70100 49.22700 25.57300
C  28.50200 48.75400 26.61600
C  29.72200 48.19300 26.06200
C  29.71200 48.54900 24.66800
C  28.35100 49.07700 24.42100
C  30.71800 47.49600 26.87500
C  30.87500 48.39200 23.67800
O  30.82000 48.74200 22.53000
C  32.19700 47.88100 24.16700
N  25.66600 50.31900 23.55400
C  26.65300 49.77900 22.70100
C  26.30000 50.10700 21.26100
C  24.81000 50.77900 21.38700
C  24.68000 50.94300 22.90100
C  27.35600 51.02700 20.53800
C  23.59500 49.91700 20.85600
C  23.57700 49.82200 19.30600
N  24.24300 51.21500 25.77900
C  23.45700 51.78700 24.82700
C  22.24500 52.32400 25.47300
C  22.43200 52.15500 26.85100
C  23.64900 51.48800 27.01800
C  21.07500 52.95500 24.74400
C  21.81100 52.34100 28.13700
O  20.73200 52.74500 28.49700
C  22.83800 51.69600 29.19300
C  23.21300 52.84100 30.10900
O  24.09400 53.66800 29.99400
O  22.30900 52.64700 31.24600
C  22.60300 53.63100 32.31100
H  28.83200 48.43900 28.77500
H  28.58500 49.01400 22.40600
H  22.91400 52.09200 22.77800
H  25.77000 51.41900 30.72700
H  26.66100 48.60200 30.38200
H  28.82500 50.32100 30.22900
H  28.44500 49.41100 31.65700
H  27.73400 51.01300 31.51400
H  23.97600 49.14700 30.42400
H  23.94600 50.69900 31.47900
H  25.85800 49.24100 32.59900
H  24.53800 47.98600 32.34500
H  30.31700 47.28800 27.86700
H  31.68800 47.99100 26.92400
H  30.84000 46.49500 26.46200
H  32.12600 46.89800 24.63300
H  32.58600 48.55800 24.92700
H  32.92000 47.96500 23.35600
H  26.16600 49.15900 20.74000
H  24.89300 51.73700 20.87200
H  28.26700 51.28900 21.07700
H  26.98000 51.94800 20.09300
H  27.75400 50.59500 19.62000
H  22.60400 50.31500 21.07400
H  23.77300 48.94600 21.32000
H  23.64000 48.80100 18.92900
H  24.32400 50.42600 18.79100
H  22.68900 50.11100 18.74500
H  20.88000 52.41200 23.81900
H  21.21400 53.96800 24.36700
H  20.09900 52.80100 25.20400
H  22.32700 50.90800 29.74700
H  22.96400 54.60400 31.98000
H  23.29400 53.24200 33.06000
H  21.74900 53.82200 32.96000

