158

Mg 45.23700 5.37300 48.80000
C  42.97200 7.83200 47.56400
C  42.87300 2.96000 47.79700
C  47.65500 2.98500 48.95000
C  47.72900 7.90800 48.84000
N  43.20200 5.45800 47.78300
C  42.52100 6.52600 47.35200
C  41.10300 6.14900 46.80200
C  41.12300 4.58200 46.91500
C  42.45100 4.30400 47.53200
C  39.89500 4.11400 47.76300
C  40.87600 6.62400 45.29300
C  39.56700 7.58200 45.16400
H  38.62700 7.33700 44.00700
N  45.20200 3.29200 48.64800
C  44.10000 2.50100 48.27600
C  44.52800 1.09200 48.36600
C  45.91900 1.14900 48.61500
C  46.30900 2.51400 48.77300
C  43.62500 -0.03000 48.09500
C  46.77000 -0.09400 48.81100
O  46.29800 -1.21700 48.63800
C  48.15100 -0.08200 49.28500
N  47.39000 5.45700 48.99200
C  48.16700 4.32500 49.08000
C  49.63400 4.64900 49.10400
C  49.64400 6.19600 49.08900
C  48.21400 6.54500 48.94600
C  50.41700 3.88700 50.15900
C  50.49300 6.76300 47.91900
C  51.29100 8.08800 48.24400
N  45.32300 7.44600 48.50400
C  46.41400 8.35600 48.61000
C  45.96600 9.64300 48.29700
C  44.59700 9.46800 47.99700
C  44.26600 8.12900 48.04200
C  46.86800 10.88300 48.34300
C  43.40700 10.20400 47.80900
O  43.19100 11.42100 47.88100
C  42.25000 9.14300 47.50700
C  41.17600 9.39300 48.60000
O  41.25400 8.85400 49.67100
O  40.13900 10.03800 47.99800
C  38.85800 10.03900 48.70800
H  42.03900 2.28000 47.60900
H  48.46200 2.25000 48.92900
H  48.56000 8.57900 49.06400
H  40.37500 6.56700 47.49700
H  41.12800 4.11400 45.93000
H  39.62300 3.15500 47.32400
H  39.04000 4.79100 47.74700
H  40.22600 3.86900 48.77200
H  40.97200 5.87900 44.50400
H  41.76300 7.23700 45.13100
H  39.93300 8.60700 45.10200
H  38.95800 7.53100 46.06700
H  43.38100 -0.50300 49.04600
H  44.09600 -0.74600 47.42200
H  42.70700 0.23300 47.57000
H  48.74000 0.42000 48.51700
H  48.55400 -1.04400 49.60200
H  48.23400 0.58700 50.14100
H  49.92900 4.33000 48.10400
H  49.89200 6.59500 50.07300
H  49.75200 3.17400 50.64600
H  50.89300 4.61300 50.81800
H  51.27200 3.33100 49.77300
H  49.92900 7.05300 47.03300
H  51.26700 6.03700 47.67000
H  50.80600 9.01800 47.94800
H  52.29800 7.93200 47.85500
H  51.48000 8.10700 49.31700
H  46.40500 11.54800 47.61500
H  47.88900 10.61600 48.06900
H  46.94700 11.26400 49.36200
H  41.79000 9.48300 46.58000
H  38.27000 10.90600 48.40400
H  38.97700 10.22000 49.77600
H  38.25100 9.15200 48.52700
Mg 47.71600 24.88400 28.60100
C  48.43200 27.11400 31.22900
C  47.27100 22.41800 31.09900
C  47.21200 22.59100 26.17500
C  49.04800 27.08200 26.33300
N  47.91200 24.70400 30.85400
C  48.01500 25.86100 31.70100
C  47.87800 25.46600 33.17700
C  47.58200 23.93500 33.12200
C  47.72000 23.60200 31.60000
C  48.59000 23.07700 33.97800
C  46.76600 26.31600 33.91500
C  47.23100 26.87800 35.26200
H  46.16300 26.89600 36.31800
N  47.12300 22.80000 28.64800
C  46.99100 21.96200 29.73200
C  46.55500 20.57800 29.24100
C  46.44200 20.65800 27.86000
C  46.97600 22.00700 27.49300
C  46.26200 19.47100 30.13100
C  45.92100 19.55400 26.93200
O  45.88800 19.72800 25.73100
C  45.31700 18.25000 27.41600
N  47.95200 24.90200 26.54500
C  47.74800 23.82400 25.78300
C  48.26600 24.04200 24.36500
C  48.53300 25.55100 24.33600
C  48.66800 25.83500 25.82500
C  49.55300 23.26400 23.90700
C  47.53600 26.48200 23.54800
C  47.39700 26.21100 22.09900
N  48.67600 26.70300 28.71900
C  49.16800 27.48500 27.72000
C  49.79700 28.68400 28.27500
C  49.58300 28.57800 29.66200
C  48.77900 27.41200 29.86400
C  50.69700 29.64200 27.60900
C  49.80000 29.14800 30.94700
O  50.53600 30.08500 31.23000
C  49.02500 28.33500 32.02400
C  50.08100 27.90300 33.02900
O  51.01800 27.20900 32.87000
O  49.85100 28.67400 34.15500
C  50.80600 28.48400 35.22500
H  47.13700 21.56300 31.76500
H  47.19300 21.90300 25.32700
H  49.36100 27.86600 25.64000
H  48.83700 25.56100 33.68600
H  46.56000 23.65700 33.37700
H  49.37200 22.60700 33.38200
H  48.07400 22.27100 34.49800
H  49.01800 23.74200 34.72900
H  45.77900 25.89200 34.10400
H  46.48300 27.19500 33.33700
H  47.63300 27.89100 35.28100
H  48.06300 26.28200 35.63700
H  46.37700 19.66800 31.19600
H  46.99400 18.70500 29.87100
H  45.25900 19.05800 30.02300
H  46.06300 17.69500 27.98500
H  45.11300 17.70600 26.49400
H  44.45400 18.23000 28.08300
H  47.38200 23.82900 23.76400
H  49.52500 25.68300 23.90300
H  49.69800 22.42400 24.58600
H  50.46000 23.86000 23.81200
H  49.37200 22.64800 23.02600
H  47.76600 27.53600 23.70400
H  46.50800 26.37400 23.89300
H  46.54100 25.58900 21.83800
H  48.33600 25.76000 21.77800
H  47.32500 27.23500 21.73400
H  50.68900 29.60700 26.51900
H  51.71300 29.37400 27.90100
H  50.42000 30.65900 27.88300
H  48.25900 28.96100 32.48100
H  50.66100 29.08100 36.12500
H  51.84000 28.72000 34.97500
H  50.72700 27.42400 35.46700

