158

Mg 26.11500 0.89800 29.21600
C  28.14900 0.77700 32.05800
C  23.32900 1.37000 31.39000
C  24.05400 1.07200 26.59000
C  28.73200 -0.04000 27.30500
N  25.83400 1.09000 31.48600
C  26.85200 1.14100 32.41000
C  26.19500 1.55100 33.78700
C  24.58000 1.50200 33.52700
C  24.60700 1.31700 31.99000
C  23.76500 0.47800 34.34800
C  26.73000 2.86000 34.28400
C  27.75400 2.78200 35.44000
H  27.57300 3.74100 36.60000
N  23.99800 1.28800 28.99600
C  23.06000 1.36600 29.98700
C  21.77800 1.42100 29.37300
C  21.92200 1.46900 27.94700
C  23.36800 1.27300 27.75900
C  20.48100 1.42000 30.13200
C  20.97200 1.72300 26.83300
O  21.28100 1.74000 25.61800
C  19.51400 2.04800 27.06600
N  26.37900 0.71100 27.20600
C  25.40000 0.78900 26.27100
C  26.01700 0.60400 24.87000
C  27.49800 0.21000 25.10500
C  27.56100 0.32300 26.64600
C  25.24900 -0.44500 24.05000
C  28.57100 1.07300 24.41400
C  28.54500 1.07600 22.87200
N  28.02400 0.33700 29.53500
C  29.04700 0.04500 28.66500
C  30.23300 -0.26400 29.36500
C  29.93600 0.00100 30.76500
C  28.62500 0.49500 30.77700
C  31.54100 -0.74800 28.79300
C  30.46100 0.06000 32.11200
O  31.56000 -0.31500 32.50500
C  29.38700 0.60100 32.95200
C  29.25100 -0.37800 34.04800
O  28.65500 -1.43800 34.06700
O  29.87500 0.16800 35.17900
C  29.61700 -0.48300 36.44800
H  22.48200 1.60000 32.04000
H  23.41400 1.11000 25.70700
H  29.59600 -0.32000 26.70000
H  26.46000 0.75000 34.47800
H  24.06900 2.46000 33.61500
H  24.38400 0.16000 35.18700
H  23.57900 -0.39800 33.72700
H  22.85600 0.98200 34.67700
H  25.98800 3.60300 34.57800
H  27.32800 3.23700 33.45400
H  28.75200 2.97100 35.04500
H  27.82900 1.76100 35.81400
H  20.63300 0.92800 31.09300
H  19.73700 0.81900 29.60900
H  20.32900 2.48900 30.27500
H  19.04300 1.16500 27.49900
H  19.02300 2.31200 26.12900
H  19.44200 2.82200 27.83000
H  25.93000 1.58800 24.40900
H  27.61900 -0.85500 24.90400
H  24.64300 0.15100 23.36800
H  24.63200 -1.06000 24.70500
H  25.83400 -1.05700 23.36300
H  29.55800 0.74200 24.73700
H  28.32800 2.05500 24.82000
H  29.54700 0.98700 22.45100
H  28.05400 1.93600 22.41700
H  27.88700 0.27200 22.54200
H  32.34800 -0.34700 29.40600
H  31.62100 -0.44600 27.74900
H  31.58600 -1.82200 28.97800
H  29.65500 1.53100 33.45300
H  29.57200 -1.56700 36.33500
H  28.75900 0.00200 36.91300
H  30.52600 -0.37100 37.03900
Mg 40.82900 8.79700 29.51100
C  42.89900 9.85300 31.97500
C  38.73400 7.23600 31.75200
C  39.00500 7.47500 26.91400
C  43.43900 9.47000 27.23700
N  40.75900 8.64500 31.61200
C  41.69600 9.25600 32.40200
C  41.09400 9.32100 33.81400
C  40.01900 8.15000 33.88200
C  39.85300 7.93900 32.30500
C  40.67800 6.90900 34.56000
C  40.56500 10.70600 34.23600
C  40.09300 10.89200 35.63100
H  40.67300 11.95800 36.55700
N  39.10600 7.49600 29.35000
C  38.37500 7.02900 30.39600
C  37.34800 6.20000 29.86800
C  37.29500 6.48800 28.50100
C  38.47800 7.21600 28.19900
C  36.35300 5.39900 30.72900
C  36.10800 6.30200 27.54300
O  36.13800 6.64900 26.33400
C  34.79500 5.75100 28.05000
N  41.29400 8.35600 27.43000
C  40.24100 7.99800 26.55600
C  40.74600 8.04700 25.07200
C  42.17000 8.56300 25.15500
C  42.35800 8.86200 26.66900
C  40.71500 6.67900 24.29700
C  42.53400 9.73700 24.18100
C  41.84800 11.08700 24.49800
N  42.64600 9.61400 29.51400
C  43.56500 9.89800 28.57300
C  44.71200 10.61900 29.11700
C  44.42000 10.65400 30.43400
C  43.23100 10.05400 30.69000
C  45.96400 11.07500 28.35100
C  44.90600 11.09600 31.66200
O  45.90900 11.73100 31.97900
C  43.86500 10.62600 32.79400
C  44.63300 9.88300 33.85000
O  45.44400 9.05500 33.70300
O  44.18000 10.33500 35.04600
C  44.80200 9.61900 36.17600
H  38.04600 6.90900 32.53500
H  38.51700 7.17500 25.98400
H  44.26400 9.72900 26.57000
H  41.94700 9.04300 34.43200
H  39.08900 8.42300 34.38100
H  41.73900 7.09600 34.72600
H  40.57100 6.03500 33.91700
H  40.04800 6.66600 35.41600
H  39.68400 10.98700 33.65900
H  41.19900 11.54700 33.95500
H  40.26500 9.98400 36.20900
H  39.00300 10.89300 35.60700
H  36.62200 5.38200 31.78500
H  36.34200 4.37300 30.35900
H  35.34600 5.81300 30.76900
H  34.31400 6.33600 28.83500
H  34.95100 4.77900 28.51800
H  34.16600 5.66500 27.16400
H  40.05200 8.68800 24.52900
H  42.89100 7.79300 24.88000
H  40.10400 6.01200 24.90500
H  41.70100 6.23800 24.15400
H  40.22400 6.80000 23.33100
H  42.35700 9.48900 23.13400
H  43.61500 9.80700 24.30300
H  41.08500 11.48600 23.83000
H  42.68000 11.79200 24.49500
H  41.42900 10.94400 25.49400
H  45.73100 12.03600 27.89200
H  46.18900 10.35300 27.56600
H  46.85100 11.13100 28.98200
H  43.40000 11.55600 33.12000
H  45.82100 9.93200 36.40500
H  44.80400 8.53300 36.07900
H  44.21800 9.76500 37.08500

