158

Mg 27.11200 50.75100 25.63600
C  25.02900 51.90900 28.26700
C  29.49700 49.93600 28.15900
C  29.23300 50.23300 23.06900
C  24.97100 52.37700 23.34700
N  27.27900 50.89300 27.95100
C  26.23100 51.34500 28.77200
C  26.61900 51.02400 30.25600
C  28.18000 50.79400 30.20000
C  28.37700 50.52700 28.68900
C  29.15000 51.92100 30.62500
C  25.91400 49.81000 30.99900
C  25.23800 49.98700 32.35800
H  25.97100 50.63600 33.52500
N  29.08800 49.99300 25.63500
C  29.88400 49.65800 26.75700
C  31.03100 49.00100 26.18700
C  30.91500 49.10000 24.74700
C  29.71200 49.81600 24.40700
C  32.15500 48.38000 27.01200
C  31.86400 48.53800 23.64900
O  31.68100 48.74600 22.44200
C  33.09400 47.72000 23.98200
N  27.09900 51.14000 23.56100
C  28.09300 50.88100 22.76400
C  27.84700 51.22600 21.26000
C  26.39300 51.77000 21.39100
C  26.09700 51.76700 22.89400
C  28.90000 52.26000 20.65700
C  25.28400 51.12800 20.52600
C  24.85900 49.72300 20.90300
N  25.36400 51.96900 25.72000
C  24.61000 52.49300 24.70300
C  23.44100 53.14800 25.25900
C  23.53000 52.87000 26.66500
C  24.69800 52.11200 26.90200
C  22.40800 53.82400 24.41700
C  22.90400 53.02800 27.95900
O  21.81400 53.56700 28.21100
C  23.78400 52.20700 29.01200
C  24.00200 53.07100 30.11200
O  24.78800 53.92800 30.19300
O  23.27800 52.58700 31.18600
C  23.57700 53.15400 32.50300
H  30.36200 49.68400 28.77700
H  29.97000 50.09400 22.27500
H  24.34700 52.97100 22.67600
H  26.36900 51.90900 30.84000
H  28.46000 49.90500 30.76600
H  28.61500 52.86200 30.75700
H  29.94400 52.20000 29.93300
H  29.62800 51.78500 31.59600
H  26.52500 48.91100 31.08600
H  25.19500 49.48900 30.24500
H  25.03400 48.95700 32.65100
H  24.29000 50.50400 32.20600
H  32.07900 47.31900 26.77500
H  31.99400 48.46800 28.08700
H  33.13900 48.72300 26.69600
H  33.97400 48.30200 24.25200
H  33.29000 47.07700 23.12400
H  32.76600 47.04200 24.77000
H  27.96200 50.29800 20.69900
H  26.35200 52.83700 21.17300
H  28.37100 53.15200 20.32200
H  29.48100 51.96200 19.78500
H  29.66600 52.43900 21.41100
H  25.72600 51.04800 19.53300
H  24.48300 51.82400 20.27700
H  24.86000 49.07400 20.02700
H  23.90000 49.72200 21.42200
H  25.55500 49.23100 21.58200
H  22.73300 54.86200 24.48600
H  21.48200 53.69900 24.97900
H  22.37900 53.45900 23.39100
H  23.34300 51.27900 29.37500
H  24.54100 53.66300 32.52600
H  23.76000 52.37100 33.24000
H  22.75700 53.79900 32.81900
Mg -0.85500 33.66500 27.25800
C  -2.76200 32.14600 29.86800
C  0.60500 35.65700 29.64200
C  0.63600 35.42300 24.69700
C  -2.86700 31.97300 24.99600
N  -1.29700 33.99400 29.53800
C  -1.89300 33.16300 30.38900
C  -1.53100 33.54400 31.86100
C  -0.76400 34.87400 31.71500
C  -0.42800 34.91600 30.19000
C  -1.47200 36.19600 32.11300
C  -0.82800 32.41700 32.62800
C  -0.38400 32.69700 34.08800
H  -1.25100 31.97100 35.21100
N  0.49800 35.24300 27.22400
C  1.06100 35.89100 28.31400
C  2.07400 36.88900 27.86900
C  1.98400 36.87100 26.43400
C  1.01600 35.79400 26.02100
C  2.89300 37.75500 28.74100
C  2.61100 37.81200 25.43300
O  2.37700 37.72100 24.21700
C  3.52200 38.96800 25.88100
N  -1.15900 33.70800 25.15500
C  -0.34900 34.49700 24.29500
C  -0.71700 34.17100 22.82100
C  -1.74400 33.00100 22.98400
C  -2.01000 32.94500 24.48100
C  -1.22400 35.39400 22.07900
C  -1.23000 31.68400 22.41500
C  -0.00300 31.00600 22.90100
N  -2.38200 32.23300 27.35700
C  -3.20400 31.75000 26.36300
C  -4.13700 30.84300 26.88000
C  -3.95300 30.93400 28.28900
C  -2.95100 31.87500 28.53000
C  -5.16700 30.04700 26.09000
C  -4.31200 30.34500 29.58200
O  -5.07400 29.41300 29.79900
C  -3.59800 31.15200 30.69000
C  -4.66200 31.74500 31.54400
O  -5.56100 32.41200 31.10600
O  -4.42100 31.53300 32.88600
C  -5.37800 32.14700 33.78900
H  1.17100 36.25100 30.36300
H  1.15400 35.85100 23.83600
H  -3.56300 31.51500 24.29100
H  -2.46800 33.77400 32.36900
H  0.16000 34.81600 32.29000
H  -1.91500 36.64100 31.22200
H  -0.75100 36.91000 32.51300
H  -2.24400 36.00200 32.85800
H  0.11900 32.17100 32.14700
H  -1.45700 31.53100 32.54600
H  -0.49200 33.75800 34.31700
H  0.62700 32.38700 34.35500
H  3.92600 37.83300 28.40500
H  2.89100 37.38300 29.76600
H  2.49900 38.76800 28.66300
H  3.66700 39.65900 25.05100
H  4.47300 38.61700 26.28200
H  3.12600 39.53400 26.72400
H  0.11300 33.66900 22.32500
H  -2.71100 33.16800 22.51100
H  -0.92200 36.35800 22.48900
H  -2.30800 35.49200 22.14100
H  -0.86900 35.38600 21.04800
H  -1.02800 31.90500 21.36700
H  -2.09100 31.01700 22.45100
H  0.18200 31.47500 23.86700
H  0.87800 30.95200 22.26200
H  -0.48700 30.07600 23.19600
H  -4.63800 29.33500 25.45700
H  -5.59900 30.92200 25.60600
H  -5.80800 29.63100 26.86700
H  -3.02100 30.38400 31.20600
H  -4.85500 32.88900 34.39200
H  -5.71300 31.52800 34.62100
H  -6.26400 32.63100 33.37700

