158

Mg -13.53600 38.03600 41.89100
C  -11.10700 35.63900 41.24700
C  -11.40600 40.46900 40.56300
C  -15.84900 40.28900 42.40600
C  -15.83600 35.41900 42.30200
N  -11.55200 37.92600 40.71200
C  -10.69300 36.89300 40.67900
C  -9.34900 37.27600 40.13600
C  -9.36200 38.82300 40.38400
C  -10.89800 39.11500 40.53600
C  -8.53100 39.28700 41.65200
C  -9.12100 36.84000 38.67400
C  -7.91900 35.92900 38.34800
H  -6.91100 36.55700 37.37800
N  -13.63200 40.19400 41.49100
C  -12.66400 41.01200 41.00400
C  -13.13400 42.37100 41.14600
C  -14.39400 42.31000 41.71800
C  -14.66600 40.89200 41.91700
C  -12.37100 43.58600 40.60800
C  -15.24300 43.49900 42.00900
O  -14.89600 44.60700 41.65200
C  -16.37900 43.29400 42.95600
N  -15.63300 37.89500 41.97200
C  -16.33700 38.94300 42.42100
C  -17.73800 38.54200 42.93100
C  -17.70600 36.99300 42.87700
C  -16.32400 36.71300 42.29300
C  -18.01500 39.06800 44.38700
C  -18.93000 36.34700 42.03600
C  -18.69100 36.14800 40.57700
N  -13.51300 35.94500 42.02200
C  -14.48900 35.03800 42.27900
C  -13.88000 33.77100 42.43400
C  -12.55000 33.88200 42.03300
C  -12.39800 35.29000 41.79500
C  -14.59100 32.41700 42.67600
C  -11.29300 33.24500 41.68900
O  -10.89200 32.09200 41.60000
C  -10.29700 34.34200 41.36500
C  -9.23600 34.37900 42.37700
O  -9.42600 34.18800 43.55600
O  -7.99000 34.46000 41.78600
C  -6.81600 34.16300 42.63800
H  -10.57200 41.14900 40.37900
H  -16.65800 40.86300 42.86400
H  -16.46300 34.59400 42.64600
H  -8.65600 36.77200 40.80900
H  -9.08400 39.38100 39.49100
H  -8.11600 38.39700 42.12600
H  -9.07200 39.82000 42.43300
H  -7.73400 39.89500 41.22400
H  -9.17500 37.73900 38.06100
H  -9.87400 36.15500 38.28400
H  -8.31200 34.97600 37.99300
H  -7.29300 35.79300 39.23000
H  -11.42200 43.22100 40.21300
H  -11.98500 44.20900 41.41500
H  -12.89100 44.14600 39.83000
H  -17.17000 42.78100 42.40900
H  -16.84100 44.25800 43.16900
H  -15.94300 42.81900 43.83500
H  -18.51000 38.85900 42.23000
H  -17.74600 36.57600 43.88300
H  -17.16600 39.65600 44.73400
H  -18.05600 38.31100 45.16900
H  -18.88600 39.71800 44.47400
H  -19.82300 36.94400 42.22000
H  -19.30100 35.40300 42.43500
H  -18.64300 35.06300 40.48300
H  -17.72400 36.50600 40.22500
H  -19.50200 36.56900 39.98200
H  -13.78300 31.89200 43.18600
H  -14.78000 31.94500 41.71200
H  -15.47900 32.42600 43.30900
H  -9.83900 34.19900 40.38600
H  -5.96800 34.00400 41.97200
H  -6.93900 33.26600 43.24500
H  -6.57600 35.05700 43.21400
Mg 0.21100 43.45500 26.81500
C  2.50200 43.17400 29.35000
C  -2.35400 42.80200 29.05900
C  -2.02200 43.25200 24.16900
C  2.81900 43.53300 24.53000
N  0.08800 43.09300 28.97400
C  1.14100 43.18500 29.84400
C  0.68100 43.22100 31.29800
C  -0.79500 42.73600 31.17900
C  -1.07600 42.83600 29.61600
C  -1.03800 41.39100 31.78900
C  0.89200 44.61800 31.96800
C  1.19700 44.73500 33.47900
H  0.79900 43.58200 34.42800
N  -1.89500 43.25700 26.67100
C  -2.69500 43.00800 27.73000
C  -4.06200 42.95400 27.25700
C  -4.02300 43.04100 25.81700
C  -2.62200 43.10900 25.50500
C  -5.23100 43.00500 28.21200
C  -5.13500 43.12900 24.79800
O  -4.99300 43.09700 23.56700
C  -6.61000 43.08500 25.29500
N  0.31000 43.41100 24.67400
C  -0.68400 43.40700 23.81100
C  -0.21400 43.19100 22.35600
C  1.26200 43.47500 22.48000
C  1.50000 43.53100 23.98500
C  -0.64300 41.76100 21.83500
C  1.87500 44.68400 21.63800
C  1.77900 46.01500 22.44100
N  2.27300 43.26200 26.90300
C  3.19200 43.37100 25.85700
C  4.48800 43.47800 26.43600
C  4.24100 43.22100 27.80500
C  2.90300 43.21100 28.01000
C  5.74200 43.63600 25.57300
C  4.88400 43.02100 29.10700
O  6.07600 43.03400 29.41500
C  3.77600 42.92700 30.15900
C  3.79800 41.64300 30.84100
O  3.81400 40.54400 30.42400
O  3.78000 41.81000 32.21700
C  3.93100 40.62100 33.12600
H  -3.17400 42.54000 29.73100
H  -2.69600 43.12200 23.32000
H  3.59200 43.65600 23.76900
H  1.25100 42.51600 31.90300
H  -1.53000 43.31500 31.73700
H  -1.80100 41.40000 32.56700
H  -0.13900 41.04900 32.30100
H  -1.37300 40.66600 31.04800
H  0.06200 45.18100 31.54300
H  1.73100 45.04800 31.42200
H  0.62300 45.61900 33.75800
H  2.26400 44.95500 33.51200
H  -6.09600 43.57700 27.87600
H  -4.88100 43.49700 29.11900
H  -5.60000 42.02800 28.52500
H  -6.75600 42.11500 25.77200
H  -7.25400 43.03300 24.41700
H  -6.74000 43.99200 25.88500
H  -0.74300 43.82100 21.64100
H  1.86100 42.62200 22.16200
H  -1.14200 41.16000 22.59500
H  0.23800 41.23800 21.46300
H  -1.32000 41.87200 20.98800
H  1.40500 44.90000 20.67900
H  2.91100 44.37300 21.50000
H  2.03800 46.86200 21.80600
H  2.31700 45.85400 23.37400
H  0.75200 46.17900 22.76700
H  5.79000 42.97500 24.70800
H  6.64400 43.43600 26.15100
H  5.80100 44.66300 25.21200
H  3.91700 43.70400 30.91000
H  4.68800 40.84700 33.87800
H  4.39600 39.74600 32.67200
H  2.96400 40.56100 33.62400

