158

Mg -1.64400 18.04700 27.12100
C  -1.99200 16.06200 30.10700
C  -2.12100 20.79500 29.09100
C  -1.76800 19.91400 24.28000
C  -1.22000 15.21000 25.27800
N  -1.71900 18.40100 29.38900
C  -1.95100 17.41700 30.37900
C  -2.16800 18.08500 31.69900
C  -2.50000 19.56300 31.37700
C  -2.04100 19.63400 29.85900
C  -3.86300 20.18300 31.68700
C  -1.04000 17.86700 32.83800
C  -1.50700 17.73300 34.34200
H  -0.45100 17.59400 35.47700
N  -1.91100 20.04700 26.74900
C  -2.00600 21.01500 27.69400
C  -1.89600 22.33200 27.02800
C  -1.66000 22.09600 25.62800
C  -1.66100 20.62300 25.49300
C  -2.08500 23.62100 27.81900
C  -1.37500 23.06500 24.48600
O  -1.06600 22.68900 23.35800
C  -1.33100 24.57000 24.79000
N  -1.69300 17.67000 25.08800
C  -1.73700 18.55500 24.03000
C  -1.44800 17.88900 22.67600
C  -0.98900 16.46200 23.10600
C  -1.30600 16.44700 24.55600
C  -2.75600 18.09100 21.75600
C  0.47400 16.14800 22.73400
C  1.60100 16.95200 23.35800
N  -1.70700 16.07900 27.57900
C  -1.51100 14.96900 26.67300
C  -1.64000 13.71900 27.38200
C  -1.74700 14.13400 28.73400
C  -1.77100 15.56200 28.80300
C  -1.40000 12.31000 26.88300
C  -1.94200 13.67800 30.10600
O  -2.04000 12.52000 30.46900
C  -2.14800 14.89000 31.00300
C  -1.27600 14.79200 32.21800
O  -0.01300 14.74800 32.18600
O  -2.03700 14.73900 33.30800
C  -1.37900 14.26700 34.53500
H  -2.33300 21.65900 29.72400
H  -1.82700 20.48400 23.35000
H  -0.75200 14.40000 24.71400
H  -3.07900 17.59200 32.03900
H  -1.76700 20.20500 31.86500
H  -4.35000 20.62400 30.81800
H  -3.84300 20.90600 32.50300
H  -4.59300 19.39100 31.85700
H  -0.36900 18.72400 32.77600
H  -0.44200 17.04900 32.43700
H  -2.23700 16.94500 34.52900
H  -2.09000 18.63900 34.50300
H  -2.10500 23.61500 28.90900
H  -2.82000 24.30100 27.38700
H  -1.21100 24.26600 27.73000
H  -0.93400 25.04900 23.89500
H  -0.77000 24.63300 25.72200
H  -2.37800 24.79500 24.99800
H  -0.54300 18.33000 22.26000
H  -1.57700 15.71800 22.56900
H  -3.54300 18.51700 22.37900
H  -3.09600 17.17900 21.26500
H  -2.57000 18.79700 20.94700
H  0.48700 16.34000 21.66100
H  0.62200 15.09100 22.95500
H  2.06600 16.35700 24.14400
H  1.20100 17.93900 23.58900
H  2.24100 17.02200 22.47800
H  -2.29000 11.68300 26.83300
H  -0.59100 11.85900 27.45900
H  -1.04400 12.43400 25.86100
H  -3.19800 14.84300 31.29000
H  -2.03400 14.57400 35.35000
H  -0.39000 14.70300 34.67800
H  -1.34500 13.17700 34.52600
Mg 44.90700 4.77200 47.22600
C  42.82800 7.50200 47.21100
C  42.04700 2.75400 46.73100
C  46.88300 2.05500 46.55400
C  47.56300 6.84000 47.02700
N  42.62700 5.07600 47.04200
C  42.10200 6.29800 47.06200
C  40.59600 6.23300 46.78600
C  40.30400 4.69500 46.58500
C  41.76500 4.10600 46.72600
C  39.28800 3.83100 47.41800
C  39.97300 7.10000 45.62700
C  40.74300 7.04200 44.28300
H  39.98600 6.45500 43.09200
N  44.47900 2.69300 46.79800
C  43.26000 2.09800 46.71700
C  43.46100 0.70700 46.49100
C  44.85700 0.47200 46.57200
C  45.50300 1.76800 46.62000
C  42.42000 -0.36500 46.21300
C  45.42900 -0.89900 46.58400
O  44.79600 -1.95000 46.69500
C  46.84000 -1.10300 46.66500
N  46.94300 4.46700 46.80000
C  47.58100 3.28300 46.60000
C  49.10400 3.45800 46.47500
C  49.23400 4.95200 46.82800
C  47.81700 5.48000 46.82300
C  49.83700 2.50300 47.43600
C  50.25600 5.70500 45.94300
C  49.85200 5.89900 44.57200
N  45.21800 6.73700 47.22700
C  46.34800 7.49500 47.14900
C  46.05500 8.87900 47.15500
C  44.70200 8.90900 47.30200
C  44.23500 7.62000 47.27300
C  47.06200 10.01600 47.00000
C  43.56600 9.79500 47.47500
O  43.55900 11.02600 47.44100
C  42.29900 8.91100 47.36000
C  41.36500 8.97600 48.52400
O  41.45800 8.39100 49.58300
O  40.27700 9.73200 48.14400
C  39.33700 10.05900 49.20300
H  41.14200 2.14400 46.70500
H  47.54300 1.19900 46.39500
H  48.42300 7.50600 47.12600
H  40.19000 6.55100 47.74600
H  40.18800 4.48100 45.52300
H  38.47500 4.44300 47.80700
H  39.80900 3.44400 48.29400
H  38.86500 2.99400 46.86300
H  39.95000 8.12700 45.99300
H  38.90600 6.91200 45.50500
H  41.64300 6.43900 44.39900
H  41.06200 8.07400 44.13900
H  42.68500 -0.87100 45.28400
H  41.43600 0.10100 46.25700
H  42.46200 -1.03700 47.07000
H  47.23800 -0.47700 47.46400
H  47.32100 -0.72500 45.76300
H  47.10600 -2.13400 46.89800
H  49.44800 3.30700 45.45200
H  49.57700 5.19200 47.83500
H  50.76500 2.95800 47.78400
H  49.86900 1.44700 47.16800
H  49.23400 2.32100 48.32500
H  51.18700 5.16300 46.11200
H  50.25100 6.71200 46.35900
H  50.66400 5.66100 43.88500
H  49.40200 6.86500 44.34600
H  49.06000 5.20800 44.28400
H  48.05500 9.82400 47.40800
H  46.69300 10.86700 47.57200
H  47.16900 10.15500 45.92400
H  41.77700 9.20500 46.45000
H  38.59600 9.26400 49.12600
H  39.02800 11.07600 48.96100
H  39.80000 9.94700 50.18300

