158

Mg -12.69000 15.77100 42.43400
C  -9.48900 14.38300 42.49800
C  -11.32200 18.58300 40.84000
C  -15.77300 16.97900 41.93300
C  -13.98900 12.61200 43.18900
N  -10.65000 16.34200 41.69700
C  -9.47800 15.61700 41.89200
C  -8.31100 16.23100 41.12000
C  -8.93500 17.65100 40.71200
C  -10.44000 17.55200 41.11700
C  -8.39200 18.96800 41.34300
C  -8.02800 15.36400 39.82200
C  -6.54300 15.27000 39.40200
H  -6.16700 16.10500 38.20500
N  -13.42900 17.59200 41.51400
C  -12.70400 18.59800 40.94200
C  -13.66900 19.64500 40.45400
C  -15.00900 19.22700 40.91500
C  -14.79900 17.86700 41.46600
C  -13.24100 21.07800 39.91300
C  -16.28800 19.99200 40.67700
O  -16.35600 21.08600 40.13900
C  -17.63800 19.53800 41.20600
N  -14.59000 14.85300 42.39200
C  -15.71000 15.63500 42.25100
C  -16.95100 14.74500 42.49400
C  -16.38700 13.29700 42.77600
C  -14.87000 13.60300 42.76400
C  -17.89900 15.37000 43.53300
C  -16.81400 12.19000 41.75200
C  -18.01100 11.27600 42.28300
N  -11.89700 13.85100 42.93700
C  -12.52300 12.67300 43.25700
C  -11.54600 11.71600 43.59400
C  -10.29400 12.33800 43.25400
C  -10.61100 13.64900 42.82900
C  -11.75900 10.35300 44.19800
C  -8.79500 12.15500 43.24400
O  -8.05600 11.18900 43.53500
C  -8.20200 13.52000 42.64800
C  -7.14200 14.14400 43.60700
O  -7.28600 14.75000 44.64300
O  -5.87500 13.89700 43.01700
C  -4.76400 14.62600 43.64900
H  -11.06600 19.59600 40.52200
H  -16.79900 17.30800 41.75800
H  -14.38200 11.63100 43.46600
H  -7.52700 16.27300 41.87700
H  -9.01800 17.81100 39.63700
H  -9.11300 19.08100 42.15200
H  -8.46400 19.75800 40.59600
H  -7.38600 18.90300 41.75900
H  -8.53600 15.69400 38.91600
H  -8.50100 14.39000 39.94900
H  -6.33700 14.22000 39.19900
H  -6.00000 15.62200 40.27900
H  -13.98200 21.82400 40.20000
H  -12.99700 21.11300 38.85100
H  -12.36100 21.48600 40.41100
H  -18.00300 18.62300 40.73900
H  -18.29800 20.38500 41.02100
H  -17.45400 19.51600 42.28000
H  -17.55600 14.80300 41.59000
H  -16.47400 12.99300 43.81900
H  -18.92300 15.26100 43.17500
H  -17.67800 16.41000 43.77500
H  -17.80400 14.89700 44.51100
H  -15.99900 11.57100 41.37800
H  -17.22000 12.78000 40.93100
H  -17.64300 10.25200 42.34400
H  -18.74600 11.38400 41.48500
H  -18.36100 11.51500 43.28700
H  -11.91300 9.48800 43.55300
H  -12.62200 10.41700 44.86200
H  -10.88700 10.14600 44.81800
H  -7.68600 13.23400 41.73200
H  -4.23100 14.12000 44.45400
H  -5.03300 15.66300 43.84800
H  -4.01800 14.56700 42.85600
Mg -5.95100 25.54300 26.18800
C  -5.06600 27.05800 29.13800
C  -7.59100 23.08600 28.03400
C  -6.33500 23.72900 23.39500
C  -3.96300 27.89400 24.42000
N  -6.20200 25.09400 28.33700
C  -5.81900 25.90600 29.34600
C  -6.37300 25.38900 30.72000
C  -6.94600 23.98100 30.31800
C  -6.91400 24.08600 28.78700
C  -6.19500 22.61100 30.85700
C  -7.47800 26.28100 31.30800
C  -7.54700 26.35300 32.85600
H  -6.84300 25.28000 33.65500
N  -6.98100 23.73200 25.74700
C  -7.66400 22.95800 26.58400
C  -8.29900 21.93100 25.87900
C  -7.82200 22.03200 24.51600
C  -6.99000 23.18600 24.50900
C  -9.19600 20.93400 26.51300
C  -8.06800 21.08600 23.34900
O  -7.66100 21.25300 22.17500
C  -8.97900 19.90700 23.47200
N  -5.45100 25.90000 24.15300
C  -5.61000 24.89400 23.20100
C  -4.88300 25.27900 21.86700
C  -4.19200 26.68700 22.17800
C  -4.50700 26.79800 23.70100
C  -3.91000 24.22500 21.19400
C  -4.78900 27.85400 21.26200
C  -3.66500 28.57400 20.40500
N  -4.76500 27.18400 26.65500
C  -4.05000 28.09300 25.79700
C  -3.29400 28.97000 26.71200
C  -3.72300 28.67600 27.99400
C  -4.57400 27.57500 27.92400
C  -2.21400 29.96000 26.20000
C  -3.69900 29.07300 29.36900
O  -3.12500 30.04300 29.89100
C  -4.48600 27.97800 30.21200
C  -3.50700 27.32800 31.18000
O  -2.70600 26.44200 30.76600
O  -3.68300 27.77400 32.46400
C  -2.69600 27.20400 33.37300
H  -8.26200 22.50100 28.66700
H  -6.38400 23.18400 22.44900
H  -3.23500 28.56200 23.95500
H  -5.51200 25.27700 31.38000
H  -7.98800 23.85100 30.60800
H  -5.74400 22.16400 29.97000
H  -6.83000 21.78900 31.18600
H  -5.45500 22.71800 31.65000
H  -8.45300 26.06500 30.87200
H  -7.32900 27.24300 30.81900
H  -8.60500 26.41700 33.11100
H  -7.11500 27.33000 33.07100
H  -8.94300 20.81500 27.56700
H  -9.15800 20.00400 25.94500
H  -10.22600 21.28100 26.43900
H  -9.30700 19.62600 22.47100
H  -9.92500 20.10700 23.97700
H  -8.46100 19.11800 24.01900
H  -5.74400 25.29200 21.19900
H  -3.11800 26.50900 22.11800
H  -2.88400 24.55700 21.03300
H  -4.23500 24.08600 20.16400
H  -4.02600 23.25900 21.68400
H  -5.25300 28.67900 21.80300
H  -5.42000 27.39500 20.50100
H  -2.67200 28.25200 20.71700
H  -3.74500 29.63800 20.62700
H  -3.86400 28.49200 19.33600
H  -1.51900 29.46600 25.52100
H  -1.64200 30.25600 27.08000
H  -2.73100 30.71500 25.60700
H  -5.14700 28.47300 30.92400
H  -1.74300 27.71200 33.22200
H  -2.46200 26.15200 33.21100
H  -3.01000 27.33700 34.40800

