158

Mg -2.50900 34.33900 26.64500
C  -3.96200 32.60100 29.24100
C  -0.85400 36.28000 29.02200
C  -1.06100 35.98700 24.21300
C  -4.37100 32.47700 24.36500
N  -2.55500 34.41400 28.95400
C  -3.22300 33.62700 29.78500
C  -2.86700 33.84000 31.21900
C  -2.02600 35.24800 31.15100
C  -1.74100 35.35900 29.62200
C  -2.60400 36.51700 31.76800
C  -2.06500 32.68900 31.87000
C  -2.65000 32.15900 33.18900
H  -1.76600 32.32300 34.45400
N  -1.12600 35.91300 26.65900
C  -0.54200 36.51100 27.70900
C  0.40500 37.53000 27.21100
C  0.34000 37.48900 25.81400
C  -0.69500 36.46600 25.48300
C  1.24700 38.39700 28.12700
C  1.03700 38.37300 24.79600
O  0.80700 38.36400 23.59500
C  2.18200 39.25200 25.17500
N  -2.77900 34.29600 24.54700
C  -2.00800 35.05100 23.76400
C  -2.32100 34.82900 22.33600
C  -3.44800 33.74700 22.31200
C  -3.45800 33.40700 23.82200
C  -2.58700 36.05700 21.49200
C  -3.24900 32.52000 21.37000
C  -4.33500 32.03200 20.45000
N  -3.96400 32.93500 26.69400
C  -4.65900 32.28200 25.68600
C  -5.45900 31.23400 26.29800
C  -5.15200 31.27900 27.65700
C  -4.23500 32.35000 27.86600
C  -6.36100 30.17700 25.61100
C  -5.47000 30.62300 28.86400
O  -6.23600 29.71200 29.05800
C  -4.70000 31.40700 29.98200
C  -5.75500 31.87700 30.88800
O  -6.50200 32.80700 30.64100
O  -5.77800 31.14100 32.02200
C  -6.64700 31.58800 33.15700
H  -0.35500 36.81000 29.83600
H  -0.59900 36.58900 23.42800
H  -4.87700 31.84400 23.63300
H  -3.79000 34.01900 31.77000
H  -1.06800 35.07700 31.64100
H  -3.68100 36.68600 31.77100
H  -2.14500 37.38200 31.28900
H  -2.22600 36.70900 32.77200
H  -1.04500 32.93300 32.16700
H  -2.07900 31.84600 31.17900
H  -2.68200 31.07100 33.12000
H  -3.65200 32.54800 33.37100
H  1.28900 37.90400 29.09800
H  0.77700 39.37100 28.26000
H  2.25300 38.52100 27.72800
H  2.45000 39.89200 24.33500
H  2.97700 38.56500 25.46700
H  1.92300 39.94900 25.97200
H  -1.48400 34.33600 21.84000
H  -4.41700 34.20800 22.11900
H  -2.36200 36.95500 22.06700
H  -3.56900 36.02600 21.02000
H  -1.94100 35.80400 20.65100
H  -3.04400 31.62500 21.95700
H  -2.37900 32.69000 20.73600
H  -4.10400 32.33000 19.42700
H  -5.30200 32.35000 20.84000
H  -4.33000 30.94300 20.41300
H  -5.87600 29.23900 25.34000
H  -6.78000 30.56200 24.68100
H  -7.13000 29.89600 26.32900
H  -4.13900 30.66500 30.55100
H  -7.39900 32.23400 32.70500
H  -6.11800 32.19500 33.89200
H  -7.04500 30.67300 33.59700
Mg -11.84100 16.40300 41.69400
C  -8.46300 14.99700 41.38000
C  -10.50200 19.29600 40.32500
C  -14.91800 17.43400 41.13600
C  -12.93300 13.10300 42.03900
N  -9.73500 16.97800 40.94900
C  -8.56600 16.29200 40.93400
C  -7.45200 17.12700 40.30600
C  -8.11800 18.53600 39.90500
C  -9.55700 18.21400 40.40300
C  -7.52600 19.82300 40.51300
C  -6.86000 16.36400 39.02400
C  -5.35800 16.30000 38.79600
H  -4.87800 16.98200 37.54100
N  -12.59900 18.14900 40.96400
C  -11.88500 19.28400 40.57400
C  -12.70500 20.35400 40.45700
C  -14.06900 19.88800 40.67200
C  -13.93000 18.42700 40.94300
C  -12.18900 21.81200 40.25400
C  -15.32500 20.82400 40.59200
O  -15.25500 22.03200 40.35000
C  -16.63100 20.22100 41.01800
N  -13.63200 15.36600 41.46500
C  -14.82000 16.09500 41.45400
C  -15.99900 15.15100 41.80900
C  -15.34700 13.79800 42.11500
C  -13.90600 14.09600 41.87700
C  -16.79600 15.75200 43.05300
C  -15.94900 12.71800 41.08800
C  -16.99000 11.70500 41.63300
N  -10.94900 14.53300 41.89300
C  -11.57100 13.29600 42.11200
C  -10.55200 12.28600 42.36000
C  -9.34700 12.91900 42.18000
C  -9.58600 14.29100 41.84300
C  -10.82400 10.88400 42.75000
C  -7.85300 12.76200 42.20500
O  -7.20800 11.75400 42.40800
C  -7.22900 14.05300 41.56800
C  -6.24200 14.52800 42.48800
O  -6.47000 14.70400 43.72100
O  -4.98400 14.71700 41.89200
C  -3.89800 15.26300 42.78600
H  -10.03500 20.24600 40.05600
H  -15.96300 17.74600 41.19100
H  -13.36200 12.12200 42.25500
H  -6.70100 17.27600 41.08200
H  -8.21200 18.70300 38.83200
H  -7.75700 20.56500 39.74800
H  -6.44600 19.68500 40.57000
H  -7.89500 20.09200 41.50300
H  -7.38300 16.85400 38.20300
H  -7.29000 15.36600 38.93100
H  -5.10300 15.24200 38.73500
H  -4.87200 16.75600 39.65800
H  -11.74700 21.96100 39.26900
H  -11.37700 21.97200 40.96400
H  -12.97900 22.55000 40.39100
H  -17.33000 21.02100 40.77300
H  -16.77900 20.08700 42.09000
H  -16.97700 19.36300 40.44100
H  -16.82400 15.10300 41.09800
H  -15.58700 13.43200 43.11300
H  -16.29400 16.51800 43.64600
H  -17.02200 14.94500 43.75000
H  -17.70200 16.15400 42.60000
H  -15.13000 12.07000 40.77400
H  -16.34600 13.23000 40.21200
H  -17.00500 10.75700 41.09500
H  -17.92900 12.20300 41.38900
H  -16.92000 11.61500 42.71700
H  -10.05200 10.41300 43.35900
H  -10.91000 10.34500 41.80700
H  -11.73700 10.78300 43.33700
H  -6.66000 13.85000 40.66100
H  -3.82800 16.26500 42.36200
H  -3.01500 14.75200 42.40100
H  -3.96000 15.15000 43.86800

