158

Mg 29.92000 58.53000 39.11400
C  27.14500 56.58100 38.12100
C  32.00600 55.92100 38.24800
C  32.54200 60.64000 39.03500
C  27.72100 61.29700 39.32400
N  29.61100 56.55700 38.25000
C  28.42900 55.95600 37.86000
C  28.74000 54.57800 37.24000
C  30.19400 54.34500 37.59500
C  30.64400 55.67600 38.07600
C  30.43600 53.19500 38.61400
C  28.49700 54.60500 35.68400
C  27.44400 53.73600 35.00200
H  26.62900 54.31000 33.87500
N  32.04500 58.36000 38.83400
C  32.66600 57.15100 38.51000
C  34.04700 57.43500 38.23000
C  34.30200 58.79500 38.62900
C  32.94500 59.35000 38.79900
C  35.15200 56.43000 37.83300
C  35.63600 59.49000 38.74600
O  36.65200 59.01600 38.28700
C  35.69800 60.80000 39.44300
N  30.09100 60.66400 39.12200
C  31.31000 61.29100 39.15100
C  31.20500 62.72900 39.10800
C  29.71300 63.05700 39.45000
C  29.12000 61.62200 39.20400
C  32.17600 63.43800 40.09100
C  29.01400 64.22700 38.53900
C  29.13100 65.60400 39.26800
N  27.85100 58.95700 38.88700
C  27.10500 60.09600 39.12800
C  25.67300 59.77100 39.08300
C  25.63800 58.42700 38.64600
C  26.93600 57.95500 38.55900
C  24.53000 60.69200 39.13500
C  24.81300 57.33400 38.22600
O  23.60400 57.23300 38.19300
C  25.75500 56.04700 37.93800
C  25.44100 54.91000 38.85200
O  25.33300 54.98500 40.08800
O  25.33800 53.77300 38.15400
C  25.09000 52.52800 38.90500
H  32.58600 55.05800 37.91200
H  33.33700 61.38400 38.96100
H  27.04400 62.15400 39.29200
H  28.02300 53.85300 37.62400
H  30.81300 54.08000 36.73800
H  31.37300 52.67900 38.40400
H  29.59800 52.50000 38.66000
H  30.53600 53.65500 39.59700
H  29.39000 54.28400 35.14700
H  28.42900 55.64900 35.37800
H  26.69300 53.30400 35.66400
H  27.92500 52.89900 34.49600
H  35.59500 56.70200 36.87500
H  35.00300 55.35100 37.82600
H  35.91600 56.63800 38.58200
H  36.64200 60.95600 39.96400
H  34.94800 60.91000 40.22700
H  35.51600 61.56500 38.68800
H  31.42500 63.09600 38.10600
H  29.43600 63.37900 40.45400
H  33.07000 62.94700 40.47400
H  31.75700 64.04800 40.89100
H  32.77000 64.12000 39.48300
H  28.05200 64.01600 38.07100
H  29.71900 64.36200 37.71900
H  29.68100 66.28700 38.62100
H  29.64700 65.50100 40.22300
H  28.21100 66.15000 39.47800
H  23.93600 60.68700 38.22100
H  24.85500 61.71000 39.35100
H  23.71600 60.36700 39.78200
H  25.57100 55.70400 36.92000
H  24.41500 52.05200 38.19400
H  24.66200 52.70100 39.89200
H  26.06900 52.05100 38.95700
Mg -2.30900 35.37100 27.29500
C  -3.57700 33.43900 29.82500
C  -1.11000 37.59100 29.53900
C  -1.24600 37.05200 24.68700
C  -3.48400 32.87300 25.01200
N  -2.48300 35.54200 29.38200
C  -2.98900 34.64300 30.26800
C  -2.61500 34.94900 31.75600
C  -2.04200 36.42000 31.58200
C  -1.88100 36.55800 30.07600
C  -2.92800 37.54600 32.16600
C  -1.63100 33.97400 32.34400
C  -2.09200 33.11800 33.56000
H  -1.23100 32.97900 34.70500
N  -1.34200 37.12900 27.05500
C  -0.85800 37.85000 28.14200
C  -0.14900 38.99300 27.58700
C  -0.30100 38.91900 26.13100
C  -1.01800 37.68100 25.90500
C  0.61600 40.07500 28.43100
C  0.16600 39.90400 25.08500
O  -0.05500 39.79200 23.82200
C  0.93500 41.20000 25.60000
N  -2.52400 35.06900 25.16100
C  -1.84100 35.84800 24.29300
C  -1.97100 35.42800 22.82400
C  -2.45900 33.93400 22.96200
C  -2.92000 33.94000 24.41300
C  -2.82300 36.29700 21.86200
C  -1.44300 32.85800 22.61200
C  -0.36700 32.62100 23.71200
N  -3.38500 33.53000 27.37100
C  -3.86000 32.71500 26.32600
C  -4.58800 31.60800 26.96800
C  -4.39700 31.81100 28.38000
C  -3.79800 33.05600 28.55000
C  -5.26400 30.61400 26.15500
C  -4.69000 31.29200 29.69100
O  -5.28600 30.25900 29.97000
C  -4.09600 32.28200 30.68600
C  -5.17800 32.75100 31.59200
O  -6.11100 33.51800 31.39500
O  -5.06200 32.01200 32.69800
C  -5.89100 32.33600 33.90200
H  -0.70800 38.24400 30.31700
H  -0.91400 37.65000 23.83600
H  -3.70900 32.04100 24.34000
H  -3.42900 35.11000 32.46300
H  -1.08100 36.56500 32.07400
H  -3.93800 37.21000 32.40300
H  -3.00300 38.43500 31.54000
H  -2.51700 37.72900 33.15900
H  -0.71200 34.48100 32.63600
H  -1.44700 33.18600 31.61400
H  -2.17800 32.10800 33.16000
H  -3.08300 33.35800 33.94600
H  1.68200 39.91800 28.26000
H  0.36300 39.97800 29.48700
H  0.33000 41.09300 28.16800
H  1.83600 41.01500 26.18500
H  0.30700 41.87600 26.18100
H  1.16600 41.76900 24.69900
H  -0.92100 35.37500 22.53600
H  -3.39400 33.68300 22.46200
H  -3.28500 35.64400 21.12100
H  -2.06800 36.91300 21.37300
H  -3.55000 36.99200 22.28400
H  -0.97100 33.23000 21.70200
H  -1.97900 31.97200 22.27000
H  -0.66700 32.71000 24.75600
H  0.60400 33.07900 23.52500
H  -0.00600 31.59900 23.59600
H  -6.21800 30.98200 25.77800
H  -5.62700 29.79500 26.77700
H  -4.70400 30.04500 25.41300
H  -3.22500 31.79600 31.12500
H  -6.81000 32.87900 33.68300
H  -5.31200 32.91200 34.62300
H  -6.09700 31.33900 34.29200

