158

Mg 25.30200 1.29300 29.89800
C  27.59900 0.91300 32.62900
C  22.90400 1.83600 32.12800
C  23.27500 1.49300 27.32400
C  28.08300 0.76900 27.75300
N  25.31200 1.29300 32.13900
C  26.34600 1.42200 32.97700
C  25.83200 1.89600 34.37600
C  24.28200 1.96500 34.20800
C  24.15400 1.71000 32.71700
C  23.58200 0.86200 35.11700
C  26.46000 3.24500 34.90900
C  26.94200 3.19600 36.39100
H  26.29800 4.18900 37.38800
N  23.30200 1.60200 29.71400
C  22.42200 1.77300 30.74700
C  21.08700 1.72900 30.29400
C  21.19200 1.73500 28.89100
C  22.65200 1.64000 28.58300
C  19.87200 1.74700 31.19300
C  20.11100 1.76800 27.83700
O  20.31700 1.69100 26.65500
C  18.68200 1.78100 28.25700
N  25.62200 1.06100 27.92600
C  24.62800 1.25400 26.99100
C  25.11900 1.23100 25.50800
C  26.60800 1.33400 25.76800
C  26.78300 1.00800 27.25200
C  24.60900 0.16200 24.54200
C  27.35700 2.59300 25.24100
C  27.32100 3.79100 26.13500
N  27.31300 0.77600 30.11400
C  28.33400 0.60500 29.11900
C  29.59200 0.39700 29.76900
C  29.31100 0.55400 31.13700
C  27.95800 0.74400 31.30900
C  30.86100 0.06800 29.07800
C  29.99700 0.64100 32.39500
O  31.14300 0.52600 32.68500
C  28.88800 0.99300 33.44000
C  29.10200 0.00900 34.50200
O  29.10500 -1.18200 34.29800
O  29.20000 0.66600 35.66200
C  29.36900 -0.04700 36.91700
H  22.14800 1.99700 32.89900
H  22.61100 1.62500 26.46700
H  28.86600 0.77700 26.99200
H  26.07700 1.14900 35.13100
H  23.94800 2.96100 34.49700
H  24.04900 -0.10800 34.94600
H  22.55600 0.76000 34.76300
H  23.57200 1.19300 36.15500
H  25.75100 4.05200 34.72500
H  27.40100 3.42900 34.38900
H  28.01300 3.39500 36.38800
H  26.73100 2.20700 36.79800
H  19.56500 2.78500 31.32100
H  20.26100 1.38200 32.14400
H  19.14600 0.98500 30.90900
H  18.51300 2.59300 28.96400
H  18.45500 0.75300 28.53800
H  18.03600 1.97900 27.40100
H  24.76200 2.13000 25.00700
H  27.11300 0.42700 25.43500
H  24.23000 -0.62700 25.19100
H  25.41200 -0.39400 24.05700
H  23.82700 0.34000 23.80400
H  26.90700 2.80000 24.27000
H  28.41000 2.35000 25.09600
H  26.85800 3.64300 27.11000
H  26.65100 4.48900 25.63200
H  28.32200 4.21700 26.20200
H  31.04100 0.13000 28.00400
H  30.99000 -0.95900 29.42000
H  31.50300 0.84700 29.48900
H  29.04100 2.01900 33.77400
H  29.43300 -1.12900 36.80300
H  28.59500 -0.01400 37.68500
H  30.30000 0.26700 37.38900
Mg 6.60400 54.36700 41.18300
C  5.73100 51.03300 40.73700
C  9.80200 53.50300 40.04400
C  7.47100 57.57400 41.08100
C  3.22200 55.11300 41.74500
N  7.54700 52.53300 40.18200
C  6.97800 51.28600 40.15100
C  7.83000 50.37200 39.31800
C  9.27100 51.02300 39.56100
C  8.90500 52.44600 39.96300
C  10.16100 50.25800 40.55800
C  7.50900 50.51700 37.78200
C  7.47700 49.36000 36.80900
H  6.29300 49.33300 35.82500
N  8.35500 55.35200 40.69000
C  9.60900 54.82000 40.33400
C  10.58500 55.83400 40.32800
C  9.93900 57.06300 40.61300
C  8.51900 56.67400 40.87700
C  12.08900 55.51200 40.00600
C  10.55700 58.44300 40.57200
O  11.70400 58.49900 40.27800
C  9.87200 59.66700 40.82100
N  5.43000 56.16500 41.28400
C  6.10500 57.35300 41.30600
C  5.06300 58.44100 41.60900
C  3.72000 57.64600 41.87300
C  4.11600 56.22600 41.63200
C  5.45400 59.39000 42.75700
C  2.61000 58.05300 40.90300
C  1.60700 59.11800 41.43700
N  4.75800 53.29800 41.24300
C  3.49500 53.76300 41.61900
C  2.64800 52.66100 41.67800
C  3.50500 51.57700 41.46600
C  4.78900 51.99200 41.16200
C  1.19300 52.82000 41.89000
C  3.52900 50.14100 41.35300
O  2.57500 49.35100 41.48000
C  5.01100 49.71000 40.98500
C  4.85800 48.80300 39.78700
O  4.04600 48.98900 38.87900
O  5.61800 47.70400 39.89900
C  5.64000 46.81600 38.75400
H  10.79100 53.20900 39.68600
H  7.62300 58.64800 41.20500
H  2.18900 55.27500 42.06200
H  7.88700 49.33500 39.64900
H  9.82600 51.17400 38.63600
H  11.17300 50.05100 40.21000
H  9.62900 49.35500 40.85700
H  10.24000 50.92600 41.41500
H  8.12100 51.33200 37.39600
H  6.44500 50.72300 37.90400
H  7.28600 48.48000 37.42300
H  8.44100 49.09900 36.37100
H  12.70700 56.23400 40.53900
H  12.19900 55.78200 38.95500
H  12.30300 54.45900 40.18900
H  10.69900 60.37200 40.90500
H  9.49100 59.70900 41.84100
H  9.05700 59.71800 40.10000
H  5.07200 58.88300 40.61300
H  3.39100 57.79000 42.90200
H  5.60000 60.34500 42.25300
H  6.41100 59.09600 43.18700
H  4.83900 59.34800 43.65600
H  1.92500 57.22000 40.74700
H  3.02700 58.40900 39.96100
H  0.57700 58.81900 41.24400
H  1.82700 59.99200 40.82300
H  1.78600 59.29400 42.49800
H  0.97900 51.85300 42.34600
H  0.66800 52.97500 40.94700
H  1.09400 53.57900 42.66600
H  5.53400 49.13200 41.74700
H  6.54400 46.20900 38.71500
H  5.58600 47.33900 37.80000
H  4.82400 46.09900 38.84000

