158

Mg 25.61600 2.02300 30.31000
C  27.74200 1.84200 33.03900
C  23.09600 2.49300 32.62100
C  23.32000 1.77900 27.78400
C  28.13300 1.28600 28.15200
N  25.41300 2.02500 32.69800
C  26.47300 2.13500 33.52200
C  26.00900 2.47000 35.02300
C  24.48600 2.69800 34.80700
C  24.27500 2.40100 33.29400
C  23.56800 1.78000 35.66000
C  26.80300 3.72900 35.57800
C  27.59600 3.60900 36.85400
H  27.32300 4.59700 37.94700
N  23.51800 2.00800 30.31700
C  22.64800 2.30300 31.31200
C  21.25900 2.27000 30.78900
C  21.31200 1.95300 29.45200
C  22.78900 1.84400 29.13400
C  19.98800 2.49000 31.62500
C  20.14900 1.61600 28.48400
O  20.38300 1.35100 27.31200
C  18.70200 1.71300 28.97200
N  25.66900 1.56100 28.22300
C  24.68000 1.73300 27.34900
C  25.19100 1.95800 25.88800
C  26.67200 1.53300 26.03900
C  26.87800 1.51700 27.54600
C  24.33100 1.21000 24.86100
C  27.67000 2.41900 25.33700
C  27.80400 3.87900 25.75100
N  27.53100 1.60500 30.48100
C  28.47900 1.33900 29.57300
C  29.74400 1.13200 30.21700
C  29.48500 1.22900 31.56000
C  28.14600 1.61600 31.70200
C  31.07900 0.66300 29.59800
C  30.09400 1.10800 32.87700
O  31.27000 0.85400 33.13200
C  28.97100 1.51500 33.95000
C  28.70500 0.44100 35.01400
O  27.83700 -0.40400 34.84100
O  29.50500 0.52300 36.10000
C  29.25800 -0.37600 37.19900
H  22.29000 2.79500 33.29200
H  22.55900 2.03000 27.04200
H  29.00100 1.20700 27.49500
H  26.26900 1.54500 35.53700
H  24.17800 3.74300 34.83600
H  23.40100 0.87000 35.08400
H  22.61200 2.30200 35.72100
H  23.89600 1.63600 36.68900
H  26.01800 4.45700 35.78300
H  27.48300 4.04900 34.78800
H  28.66200 3.65200 36.63100
H  27.39200 2.62500 37.27800
H  19.39100 3.31800 31.24300
H  20.11300 2.55700 32.70500
H  19.49700 1.54100 31.41000
H  18.03700 1.61300 28.11500
H  18.65700 2.65200 29.52500
H  18.37700 0.86600 29.57700
H  25.07400 3.02600 25.70600
H  26.69700 0.50200 25.68500
H  24.95200 0.51400 24.29800
H  23.85300 1.90100 24.16600
H  23.57500 0.58400 25.33500
H  27.55700 2.29500 24.26000
H  28.64500 1.95100 25.47600
H  28.80100 4.20400 26.04900
H  27.17400 4.13000 26.60500
H  27.47100 4.57700 24.98300
H  31.37200 1.32500 28.78200
H  31.00200 -0.35200 29.21000
H  31.82100 0.67100 30.39600
H  29.26100 2.45200 34.42500
H  28.77800 -1.26500 36.78800
H  28.66100 0.09200 37.98200
H  30.26300 -0.53500 37.58800
Mg -11.97600 15.17700 41.87600
C  -8.77900 14.05700 41.35800
C  -11.21900 18.23800 40.34700
C  -15.25700 15.94900 42.09400
C  -12.87000 11.71300 42.36100
N  -10.19900 16.03800 40.86600
C  -8.97300 15.35700 40.91200
C  -7.90100 16.24500 40.15800
C  -8.73400 17.66800 40.01400
C  -10.14800 17.32400 40.38600
C  -8.16300 18.99700 40.67400
C  -7.61100 15.62700 38.70800
C  -6.08600 15.55400 38.38800
H  -5.51900 16.40500 37.26100
N  -13.09200 16.80200 41.33900
C  -12.58200 18.00500 40.80900
C  -13.65900 18.97600 40.71000
C  -14.81000 18.37800 41.35900
C  -14.40500 17.01600 41.70400
C  -13.47400 20.38600 40.05100
C  -16.25800 19.02400 41.48800
O  -16.44200 20.14400 40.97900
C  -17.38600 18.36900 42.13100
N  -13.77300 14.05300 42.06000
C  -14.94000 14.60800 42.25500
C  -16.03900 13.56100 42.57700
C  -15.34200 12.23800 42.05600
C  -13.91300 12.68600 42.29600
C  -16.35300 13.53100 44.11000
C  -15.56900 11.93800 40.57500
C  -16.25400 10.57600 40.21100
N  -11.04800 13.20000 42.15700
C  -11.51200 11.99100 42.26800
C  -10.44200 11.01900 42.33700
C  -9.30300 11.73200 41.97700
C  -9.72200 13.08400 41.86200
C  -10.66300 9.53700 42.73300
C  -7.90500 11.67500 41.65000
O  -7.18700 10.65700 41.58900
C  -7.52600 13.13600 41.28000
C  -6.57600 13.64800 42.27100
O  -6.73200 13.60400 43.46200
O  -5.62000 14.34000 41.56500
C  -4.42300 14.74500 42.36900
H  -10.98800 19.24100 39.98100
H  -16.32200 16.17200 42.18400
H  -13.19400 10.67500 42.46200
H  -7.02800 16.46400 40.77300
H  -8.74700 17.85800 38.94000
H  -8.34600 19.76900 39.92700
H  -7.08300 18.84900 40.66200
H  -8.63200 19.28100 41.61600
H  -8.11700 16.17500 37.91200
H  -8.00000 14.61600 38.58800
H  -5.75700 14.51900 38.30100
H  -5.54600 15.80600 39.30100
H  -14.23200 21.07800 40.41700
H  -13.64800 20.28900 38.97900
H  -12.51000 20.78300 40.37100
H  -18.27400 18.98100 41.97600
H  -17.20400 18.16300 43.18600
H  -17.66600 17.54000 41.48100
H  -16.88100 13.66200 41.89200
H  -15.50300 11.38700 42.71800
H  -15.85100 14.27200 44.73200
H  -16.21400 12.53200 44.52100
H  -17.42600 13.61800 44.27800
H  -14.65100 12.04400 39.99700
H  -16.23900 12.66500 40.11700
H  -15.77600 9.74600 40.73100
H  -16.21400 10.44100 39.13000
H  -17.31300 10.56100 40.46600
H  -11.30300 9.02000 42.01800
H  -11.25200 9.40100 43.64000
H  -9.67100 9.08800 42.78400
H  -7.04500 13.15900 40.30200
H  -4.60100 15.67900 42.90400
H  -3.54900 14.94300 41.75000
H  -4.16700 13.94900 43.06800

