158

Mg 1.17300 7.91500 25.45800
C  1.97000 9.84300 28.28600
C  1.03400 5.07500 27.37900
C  1.17700 5.98600 22.54100
C  1.59100 10.85900 23.47700
N  1.53400 7.53800 27.60200
C  1.77800 8.49000 28.59200
C  1.58100 7.85400 29.96500
C  1.48500 6.30800 29.64900
C  1.30600 6.28100 28.13800
C  2.75300 5.42200 30.09500
C  0.29500 8.18800 30.77900
C  0.18700 7.79400 32.22200
H  1.22600 6.96400 32.99500
N  1.00100 5.85300 25.04900
C  0.95600 4.81900 25.99400
C  0.99800 3.52400 25.39400
C  0.94000 3.80900 23.97600
C  1.06100 5.33100 23.75700
C  1.15600 2.23200 26.18500
C  0.79600 2.83000 22.82900
O  0.92800 3.09900 21.64100
C  0.52700 1.31400 23.17000
N  1.33800 8.30900 23.38900
C  1.33700 7.39100 22.36400
C  1.48800 7.98900 21.00500
C  1.33400 9.56700 21.20900
C  1.33200 9.60600 22.79600
C  2.96500 7.78200 20.43200
C  -0.03800 10.17100 20.62000
C  -0.09800 11.70800 20.40500
N  1.59700 9.96500 25.72500
C  1.80100 11.03800 24.84900
C  2.20800 12.21100 25.55800
C  2.20800 11.81900 26.89400
C  1.95700 10.42600 26.96600
C  2.33800 13.56700 24.93700
C  2.37500 12.21800 28.27000
O  2.67300 13.29200 28.71400
C  2.08500 11.01000 29.19700
C  3.24900 10.96300 30.12000
O  4.37300 10.56600 29.79900
O  2.86800 11.39400 31.38700
C  4.02600 11.51400 32.30600
H  0.99800 4.22900 28.06800
H  1.01400 5.49500 21.57900
H  1.82600 11.74100 22.87800
H  2.48900 8.10100 30.51500
H  0.53600 5.81300 29.85600
H  3.20500 5.81900 31.00400
H  3.49000 5.56400 29.30400
H  2.45800 4.37900 30.21100
H  -0.52500 7.79700 30.17700
H  0.38600 9.26600 30.91500
H  -0.68200 7.13800 32.26800
H  0.01100 8.63600 32.89100
H  1.55300 1.39200 25.61500
H  0.30000 2.02800 26.82700
H  1.93100 2.50400 26.90100
H  -0.04400 1.02100 24.05200
H  1.51200 0.94900 23.46000
H  0.15300 0.86900 22.24800
H  0.77700 7.55300 20.30300
H  2.16700 10.15000 20.81800
H  3.59900 7.30900 21.18100
H  3.54100 8.66000 20.13900
H  2.78800 7.15100 19.56100
H  -0.78900 9.91600 21.36800
H  -0.20200 9.75400 19.62700
H  -0.23000 11.94900 19.35000
H  0.77400 12.17000 20.86800
H  -0.96700 12.15500 20.88900
H  1.38900 13.66200 24.40900
H  3.12300 13.60400 24.18200
H  2.42800 14.34800 25.69200
H  1.12000 11.16200 29.68100
H  3.99100 12.56500 32.59200
H  5.03300 11.23800 31.99300
H  3.80100 10.92600 33.19600
Mg 41.15000 9.05100 30.30200
C  43.14300 10.24600 32.81900
C  39.09100 7.67500 32.60100
C  39.51000 7.34100 27.76500
C  43.52900 10.05500 27.95600
N  41.19700 8.91500 32.55400
C  41.97600 9.63200 33.36000
C  41.52800 9.50100 34.78300
C  40.27100 8.55900 34.70000
C  40.16700 8.36500 33.17600
C  40.41100 7.19800 35.44600
C  41.27500 10.87700 35.41200
C  40.33800 10.95900 36.58800
H  40.78200 11.64300 37.88100
N  39.50300 7.80500 30.16400
C  38.71200 7.43300 31.26200
C  37.52700 6.76500 30.78500
C  37.58400 6.76800 29.39100
C  38.92000 7.28200 29.04600
C  36.55700 6.03200 31.70800
C  36.56600 6.23400 28.37800
O  36.76100 6.18800 27.20300
C  35.18800 5.94300 28.92900
N  41.42200 8.79300 28.15000
C  40.59500 8.08400 27.37700
C  41.09800 8.00400 25.97100
C  42.22100 9.10800 25.93900
C  42.41900 9.39100 27.47400
C  41.49700 6.59700 25.45800
C  41.93000 10.46600 25.15600
C  41.14800 11.56000 25.82500
N  43.01900 9.94300 30.36400
C  43.84900 10.33500 29.33000
C  45.03800 10.96800 29.82800
C  44.75000 11.01700 31.21600
C  43.60900 10.34100 31.45700
C  46.19800 11.49500 29.11500
C  45.28300 11.44900 32.48800
O  46.21300 12.16600 32.72200
C  44.32300 11.04600 33.54300
C  45.02100 10.23200 34.61800
O  45.65300 9.22200 34.41100
O  44.94300 10.89300 35.78100
C  45.80200 10.43300 36.87900
H  38.41500 7.25400 33.34800
H  38.96100 6.97100 26.89600
H  44.17700 10.47200 27.18100
H  42.39100 9.02600 35.24900
H  39.45200 9.17600 35.07000
H  39.78500 7.20000 36.33800
H  41.38400 7.09700 35.92600
H  40.32900 6.30400 34.82800
H  40.75800 11.54900 34.72700
H  42.27400 11.18800 35.71900
H  40.13000 9.94000 36.91500
H  39.43900 11.48400 36.26400
H  35.58700 6.51000 31.84900
H  36.90900 5.91200 32.73300
H  36.47600 5.01000 31.33700
H  34.83000 6.81600 29.47500
H  35.12200 5.08300 29.59600
H  34.50200 5.71900 28.11100
H  40.35000 8.37700 25.27200
H  43.19300 8.73700 25.61300
H  42.48100 6.51100 24.99600
H  40.74600 6.38300 24.69800
H  41.39100 5.84200 26.23600
H  41.35500 10.28400 24.24800
H  42.80000 10.91000 24.67300
H  40.96000 11.40100 26.88700
H  40.24000 11.76000 25.25700
H  41.79100 12.42900 25.68400
H  45.98200 12.56400 29.09400
H  46.35100 11.03000 28.14200
H  47.16500 11.19400 29.51800
H  43.83500 11.88900 34.03200
H  45.23100 10.40900 37.80800
H  46.61100 11.11800 37.13100
H  46.24200 9.44800 36.72700

