158

Mg 0.00200 43.94800 25.80700
C  2.42000 43.51700 28.21100
C  -2.37600 42.95100 28.06400
C  -2.12800 43.94000 23.18700
C  2.59400 44.60700 23.53900
N  0.06000 43.26200 27.91700
C  1.10900 43.31400 28.69600
C  0.69800 43.24200 30.10300
C  -0.78400 42.85100 30.05400
C  -1.09000 43.00000 28.59000
C  -1.02300 41.43800 30.59300
C  1.05200 44.49200 30.98200
C  1.28000 44.32100 32.47800
H  0.98300 42.90300 33.05500
N  -2.01700 43.52600 25.60800
C  -2.83700 43.11000 26.65500
C  -4.05800 42.77900 26.12200
C  -4.04900 43.04500 24.71900
C  -2.69500 43.53500 24.40700
C  -5.16300 42.21500 27.01500
C  -5.14500 42.78200 23.67100
O  -5.04000 43.09700 22.50500
C  -6.38600 42.07300 24.06600
N  0.21100 44.38200 23.66400
C  -0.85000 44.29200 22.81800
C  -0.41800 44.59700 21.37200
C  1.13800 44.76100 21.47200
C  1.35000 44.68400 23.02100
C  -0.88800 43.57800 20.27700
C  1.64300 46.06600 20.80300
C  1.31600 47.36900 21.50800
N  2.04500 43.98000 25.80100
C  2.96100 44.26900 24.81400
C  4.36600 44.07300 25.31100
C  4.20200 43.73900 26.68200
C  2.78900 43.78500 26.91300
C  5.66000 44.32300 24.54700
C  4.84700 43.30400 27.87700
O  6.03500 42.99200 28.05100
C  3.72400 43.30800 28.98700
C  3.68700 42.03100 29.77800
O  3.61400 40.85400 29.36600
O  4.26200 42.34100 30.98500
C  4.57800 41.15700 31.83600
H  -3.15900 42.69000 28.77900
H  -2.86600 43.89200 22.38400
H  3.49700 44.87400 22.98600
H  1.35300 42.48400 30.53400
H  -1.41400 43.54100 30.61500
H  -0.14500 40.81900 30.77800
H  -1.65600 40.84400 29.93300
H  -1.55100 41.62800 31.52700
H  0.30000 45.26800 30.84300
H  1.98600 44.96500 30.67800
H  0.57200 45.03500 32.90000
H  2.32100 44.54700 32.70900
H  -5.53600 41.29000 26.57600
H  -5.97800 42.93800 27.03200
H  -4.83200 41.97000 28.02400
H  -6.21700 41.02900 24.33300
H  -6.99800 41.89500 23.18300
H  -6.86700 42.62300 24.87500
H  -0.91800 45.53600 21.13800
H  1.66900 43.89000 21.08700
H  -1.28600 44.12700 19.42400
H  -1.53100 42.76900 20.62500
H  -0.02100 43.03700 19.89700
H  1.19000 46.07600 19.81200
H  2.69700 46.10900 20.53000
H  1.19800 47.21200 22.58100
H  0.33900 47.60100 21.08500
H  1.90000 48.25500 21.25900
H  5.54400 45.36800 24.26200
H  6.00000 43.61300 23.79300
H  6.41400 44.25500 25.33100
H  3.83300 44.21000 29.59000
H  3.84500 40.36700 31.67000
H  4.29600 41.25100 32.88500
H  5.59800 40.80600 31.68100
Mg -2.69500 34.98300 27.08500
C  -3.76500 33.02900 29.74300
C  -0.95700 37.02000 29.23900
C  -2.25200 37.05800 24.57100
C  -4.45200 32.88600 24.86400
N  -2.48200 34.93300 29.19000
C  -2.96000 34.10900 30.11900
C  -2.39300 34.38300 31.52300
C  -1.50900 35.65000 31.24600
C  -1.67400 35.94800 29.82200
C  -1.85200 36.84900 32.10100
C  -1.50000 33.30000 32.11300
C  -1.92700 32.54300 33.39200
H  -1.06800 32.51900 34.69400
N  -1.55600 36.66000 26.93200
C  -0.93000 37.42100 27.87300
C  -0.16600 38.44900 27.28500
C  -0.51000 38.44300 25.89100
C  -1.57600 37.37900 25.72000
C  0.94400 39.25600 28.12200
C  0.15500 39.21700 24.67800
O  -0.15500 39.10600 23.45900
C  1.29000 40.16400 24.93800
N  -3.26300 34.96100 25.04700
C  -3.06800 35.99100 24.28300
C  -3.47400 35.70400 22.83600
C  -3.82600 34.26000 22.91300
C  -3.79400 33.97000 24.32000
C  -4.62600 36.69100 22.52400
C  -3.11400 33.14500 21.92600
C  -1.73700 32.59600 22.41300
N  -3.97100 33.36900 27.24800
C  -4.45900 32.55100 26.23600
C  -5.21100 31.42400 26.85300
C  -4.91400 31.57800 28.24800
C  -4.12300 32.69900 28.41500
C  -6.04500 30.45100 26.15300
C  -5.12400 30.97800 29.57400
O  -5.73600 29.99600 29.98600
C  -4.41400 31.95600 30.50300
C  -5.37900 32.53700 31.38700
O  -6.25900 33.34200 31.16400
O  -5.16000 32.00800 32.61100
C  -6.28300 32.09700 33.53600
H  -0.34100 37.67100 29.86300
H  -2.07400 37.73100 23.73000
H  -4.91900 32.19100 24.16400
H  -3.17800 34.61700 32.24200
H  -0.44400 35.44600 31.35300
H  -2.40900 37.60300 31.54500
H  -0.94300 37.38300 32.37500
H  -2.26600 36.55500 33.06600
H  -0.45700 33.59500 32.23600
H  -1.46100 32.44300 31.44100
H  -2.08900 31.49600 33.13600
H  -2.91500 32.88700 33.69900
H  0.71700 40.32100 28.16800
H  1.77100 39.05400 27.44100
H  1.18200 38.92600 29.13300
H  2.20200 39.62200 25.18700
H  0.95700 40.89300 25.67800
H  1.50500 40.74800 24.04300
H  -2.66300 35.90500 22.13500
H  -4.91200 34.33200 22.85000
H  -4.99800 37.04800 23.48500
H  -5.51100 36.27300 22.04500
H  -4.20000 37.39800 21.81300
H  -2.97800 33.56100 20.92700
H  -3.89400 32.39100 21.82300
H  -1.31000 32.14800 21.51600
H  -1.84300 31.69400 23.01500
H  -1.02800 33.20700 22.97200
H  -5.55100 30.04100 25.27100
H  -6.94100 30.95300 25.78800
H  -6.19200 29.61300 26.83500
H  -3.70300 31.34000 31.05300
H  -6.27700 33.09700 33.96900
H  -6.36500 31.32000 34.29600
H  -7.18400 32.08600 32.92400

