158

Mg -1.65400 16.96900 27.02900
C  -2.08600 14.79100 29.85100
C  -2.48400 19.59800 29.20500
C  -1.67500 19.10200 24.48700
C  -1.98800 14.28900 24.96400
N  -2.34200 17.14500 29.24400
C  -2.30800 16.12900 30.22500
C  -2.67100 16.68100 31.71900
C  -2.89000 18.22500 31.39900
C  -2.57800 18.31900 29.86100
C  -4.30500 18.70300 31.94000
C  -1.56900 16.38300 32.73000
C  -1.50100 17.41000 33.85400
H  -1.13700 16.79100 35.23700
N  -1.86500 18.99100 26.88200
C  -2.16400 19.90300 27.93400
C  -2.12400 21.28000 27.45800
C  -1.76600 21.11100 26.04500
C  -1.75100 19.67800 25.72700
C  -2.21200 22.49900 28.35900
C  -1.43700 22.16700 25.04600
O  -1.27800 21.97900 23.82700
C  -1.10600 23.53000 25.51700
N  -1.73100 16.73800 25.00000
C  -1.81300 17.77500 24.10500
C  -1.88800 17.27600 22.61900
C  -2.16400 15.73800 22.82800
C  -1.95100 15.56100 24.38100
C  -2.94500 17.92000 21.79400
C  -1.15000 14.80700 22.06800
C  0.36000 14.93100 22.64400
N  -1.76400 14.94100 27.28600
C  -1.88700 13.95400 26.32900
C  -1.94700 12.64000 26.97000
C  -1.95200 12.92900 28.36200
C  -1.87700 14.32500 28.45500
C  -2.17500 11.22700 26.30900
C  -2.03300 12.32600 29.62800
O  -2.10900 11.16000 29.96800
C  -2.10400 13.53600 30.63900
C  -0.91500 13.42300 31.53200
O  0.18700 13.92600 31.40200
O  -1.18900 12.57300 32.57700
C  -0.26600 12.48300 33.72600
H  -2.65500 20.45200 29.86300
H  -1.66900 19.82100 23.66500
H  -2.27000 13.40400 24.39000
H  -3.52800 16.14000 32.11900
H  -2.10100 18.82100 31.85700
H  -5.07000 18.85800 31.17900
H  -4.23600 19.59500 32.56300
H  -4.74700 17.92900 32.56700
H  -0.56900 16.35200 32.29900
H  -1.84900 15.41300 33.14000
H  -2.42400 17.98900 33.89200
H  -0.69000 18.09600 33.60800
H  -1.26100 23.02600 28.43700
H  -2.70700 22.38800 29.32300
H  -2.77000 23.24400 27.79100
H  -0.70200 24.14900 24.71600
H  -0.38100 23.51100 26.33000
H  -2.05400 24.03200 25.71300
H  -0.93200 17.49700 22.14300
H  -3.15200 15.40400 22.51400
H  -3.65800 18.40500 22.46000
H  -3.53000 17.18400 21.24300
H  -2.66600 18.60400 20.99300
H  -1.07700 15.04800 21.00800
H  -1.54900 13.79300 22.10400
H  1.13300 15.00200 21.87900
H  0.45300 14.10700 23.35100
H  0.43200 15.90200 23.13400
H  -2.66400 11.27600 25.33600
H  -2.95300 10.83300 26.96300
H  -1.38000 10.48400 26.24300
H  -3.08600 13.42100 31.09700
H  -1.02500 12.46300 34.50900
H  0.21600 13.46000 33.77000
H  0.41200 11.63100 33.78400
Mg 40.77200 8.88500 29.84700
C  42.60300 10.46300 32.40100
C  38.68900 7.51500 32.29400
C  38.89800 7.78500 27.39400
C  43.32900 9.69100 27.64700
N  40.66300 9.10300 32.11700
C  41.44900 9.81400 32.91700
C  41.08800 9.65800 34.34700
C  39.85500 8.62600 34.37900
C  39.70600 8.31800 32.86700
C  40.14800 7.29900 35.05000
C  40.50900 11.02400 34.82200
C  39.95000 11.00500 36.30700
H  40.51600 12.00600 37.28700
N  39.03000 7.73500 29.82400
C  38.36200 7.24200 30.92200
C  37.22200 6.49100 30.43100
C  37.17400 6.73500 28.99400
C  38.32400 7.42900 28.65900
C  36.21900 5.72700 31.26500
C  36.05200 6.33900 27.92700
O  36.19100 6.44000 26.72800
C  34.74700 5.72600 28.39700
N  41.08200 8.70800 27.81900
C  40.09400 8.28600 26.97900
C  40.63600 8.31100 25.53300
C  42.08400 8.80400 25.64700
C  42.14700 9.08300 27.13700
C  40.56100 6.85400 24.84200
C  42.33200 9.99500 24.74300
C  41.64300 11.35800 25.00300
N  42.49200 9.95400 29.94500
C  43.38800 10.29200 28.93500
C  44.49600 11.06900 29.52500
C  44.18000 11.23000 30.87500
C  42.99200 10.51600 31.08200
C  45.81600 11.45200 28.96000
C  44.63600 11.78700 32.14300
O  45.69500 12.34400 32.39400
C  43.61100 11.40400 33.19300
C  44.34200 10.75300 34.26100
O  45.10600 9.79700 34.17900
O  43.91900 11.37100 35.44000
C  44.08500 10.62000 36.62000
H  38.05600 6.97100 32.99700
H  38.28800 7.39000 26.57800
H  44.18600 9.80600 26.98000
H  41.96800 9.45000 34.95500
H  38.87000 8.93600 34.72900
H  40.04700 6.53200 34.28200
H  39.33100 7.37500 35.76700
H  41.12800 7.36000 35.52200
H  39.72500 11.27100 34.10600
H  41.35300 11.69200 34.65000
H  40.22300 10.02900 36.70700
H  38.87600 11.18500 36.25900
H  36.10500 4.78200 30.73500
H  35.30500 6.29000 31.45800
H  36.49200 5.56100 32.30700
H  34.23800 5.27000 27.54800
H  34.22600 6.38300 29.09300
H  35.07900 4.84700 28.94900
H  40.10500 8.97100 24.84600
H  42.71600 7.96600 25.35500
H  40.65100 6.12300 25.64600
H  41.37200 6.59900 24.15900
H  39.62600 6.88300 24.28300
H  42.23100 9.60100 23.73200
H  43.38200 10.28000 24.68500
H  40.76300 11.05000 25.56800
H  41.20400 11.76000 24.09000
H  42.34800 12.12100 25.33300
H  45.47600 12.13900 28.18500
H  46.40200 10.61300 28.58700
H  46.38700 11.94600 29.74600
H  43.20100 12.37800 33.45800
H  43.81100 11.25600 37.46200
H  45.14800 10.38700 36.55700
H  43.35900 9.82700 36.43900

