158

Mg 2.03700 -1.42500 44.14600
C  5.42000 -0.64600 43.60000
C  1.09900 1.41200 42.44900
C  -1.11100 -2.57100 44.18900
C  3.12500 -4.48400 45.59000
N  3.20700 0.10700 42.89100
C  4.57600 0.28500 43.03000
C  4.86600 1.67500 42.41200
C  3.45300 2.33800 42.29700
C  2.47100 1.24900 42.58700
C  3.33600 3.50800 43.26200
C  5.72900 1.70000 41.06700
C  6.52700 2.97700 41.02100
H  6.31600 3.83800 39.76500
N  0.21800 -0.63000 43.55100
C  0.05100 0.57400 42.89400
C  -1.38400 0.79500 42.79900
C  -2.08900 -0.30800 43.32200
C  -1.01000 -1.19400 43.84600
C  -1.98800 1.84900 41.84700
C  -3.61600 -0.51600 43.26000
O  -4.27600 0.36400 42.65900
C  -4.37700 -1.60100 44.01800
N  1.17800 -3.28900 44.68000
C  -0.19100 -3.50800 44.62600
C  -0.58800 -4.98400 44.95400
C  0.79100 -5.63600 45.28200
C  1.79500 -4.41000 45.16600
C  -1.59400 -5.22800 46.11100
C  1.21100 -6.81600 44.35900
C  1.67800 -8.10600 45.09100
N  3.90500 -2.40500 44.56900
C  4.15300 -3.55400 45.21800
C  5.58100 -3.65400 45.53700
C  6.16800 -2.51800 44.88500
C  5.05900 -1.82000 44.32500
C  6.40300 -4.70600 46.38100
C  7.40300 -1.78700 44.58300
O  8.51800 -2.06400 44.89800
C  7.03700 -0.56600 43.68600
C  7.44000 0.78500 44.33300
O  6.95000 1.16500 45.40800
O  8.38300 1.38000 43.57400
C  8.62000 2.72400 44.11100
H  0.81700 2.42400 42.15300
H  -2.12600 -2.95600 44.07400
H  3.65500 -5.34500 46.00100
H  5.47800 2.07700 43.22000
H  3.22300 2.70000 41.29500
H  2.64700 3.31900 44.08500
H  2.94200 4.37400 42.73000
H  4.24700 3.97900 43.63000
H  5.10000 1.55700 40.18800
H  6.34200 0.81200 41.21600
H  7.57600 2.68400 40.99400
H  6.38800 3.55900 41.93200
H  -2.64300 1.53200 41.03500
H  -1.14500 2.45300 41.51100
H  -2.63600 2.37600 42.54600
H  -5.34800 -1.19100 44.29600
H  -3.82500 -1.97300 44.88200
H  -4.67200 -2.36800 43.30200
H  -1.00600 -5.52800 44.10700
H  0.85400 -5.91200 46.33400
H  -2.00800 -4.33800 46.58400
H  -1.08400 -5.61100 46.99500
H  -2.41200 -5.92700 45.93400
H  2.01700 -6.53800 43.68100
H  0.37800 -7.25200 43.80700
H  1.49200 -8.20700 46.16000
H  2.72900 -8.34000 44.91800
H  1.21800 -8.97300 44.61700
H  6.85000 -4.06000 47.13700
H  7.17300 -5.19600 45.78600
H  5.76100 -5.48100 46.80000
H  7.42300 -0.68300 42.67400
H  7.81900 3.39500 43.80100
H  9.50900 3.23100 43.73400
H  8.61400 2.83100 45.19600
Mg 45.10500 4.55200 47.97700
C  43.10900 7.23000 47.44500
C  42.36100 2.45800 47.75100
C  47.25900 1.69800 47.69900
C  47.93200 6.59900 47.67000
N  43.01400 4.80200 47.39800
C  42.40700 6.01800 47.31100
C  40.91500 5.87500 47.05400
C  40.57500 4.36600 47.37700
C  42.03800 3.81400 47.56300
C  39.67200 4.10400 48.59700
C  40.63700 6.29100 45.59100
C  39.27100 6.90400 45.30600
H  38.62500 6.24400 44.05200
N  44.86300 2.31200 47.81600
C  43.64000 1.68000 47.82100
C  43.85800 0.29000 47.80200
C  45.25300 0.03500 47.86300
C  45.85300 1.37400 47.81800
C  42.69800 -0.71700 47.75100
C  45.88600 -1.31200 47.99700
O  45.17200 -2.31100 48.03800
C  47.37100 -1.48200 48.00500
N  47.31600 4.23400 47.80300
C  47.88700 2.97900 47.74700
C  49.43400 3.11600 47.62500
C  49.63900 4.61100 47.90500
C  48.22000 5.23900 47.77900
C  50.40400 2.23000 48.43300
C  50.65000 5.32600 46.92000
C  51.84600 6.11800 47.59800
N  45.53600 6.55700 47.89400
C  46.70000 7.25500 47.67200
C  46.46200 8.68300 47.58300
C  45.06200 8.72600 47.55200
C  44.51300 7.36900 47.61800
C  47.39200 9.86000 47.44500
C  43.88100 9.60800 47.38900
O  43.84900 10.82000 47.07400
C  42.59200 8.67000 47.41800
C  41.79000 8.93700 48.64300
O  42.11700 8.65200 49.79900
O  40.64800 9.60900 48.31800
C  39.70700 9.87900 49.45000
H  41.48400 1.81400 47.65900
H  47.90300 0.84000 47.49300
H  48.73800 7.33100 47.75000
H  40.34400 6.58200 47.65600
H  40.26300 3.73400 46.54600
H  38.82400 3.47000 48.33600
H  39.41900 5.11800 48.90500
H  40.24000 3.56500 49.35600
H  40.57400 5.36500 45.01900
H  41.40200 7.00500 45.28800
H  39.40500 7.98200 45.22500
H  38.55500 6.68300 46.09800
H  42.41500 -1.15200 48.70900
H  43.07200 -1.46800 47.05500
H  41.79200 -0.40400 47.23000
H  47.93000 -1.15800 47.12700
H  47.41900 -2.54900 48.22400
H  47.83600 -1.02200 48.87700
H  49.59600 2.91600 46.56600
H  49.87400 4.76100 48.95900
H  49.81400 1.47300 48.95000
H  51.03500 2.82700 49.09200
H  50.98300 1.72600 47.65900
H  50.07400 5.91300 46.20400
H  51.11100 4.59900 46.25100
H  52.69400 5.50300 47.29800
H  51.71800 6.26700 48.67000
H  51.95100 7.09700 47.13000
H  46.79500 10.71700 47.75700
H  47.69600 9.84100 46.39900
H  48.26600 9.81600 48.09500
H  41.99900 8.90000 46.53300
H  39.81500 10.89100 49.84000
H  39.75200 9.12100 50.23200
H  38.68300 9.86000 49.07700

