158

Mg 2.34700 -1.46900 43.29700
C  5.63700 -0.51000 43.11800
C  1.54600 1.51200 41.71800
C  -0.86500 -2.63200 42.65500
C  3.29900 -4.46700 44.80000
N  3.49800 0.24900 42.36900
C  4.80400 0.50400 42.58300
C  5.18500 1.83000 41.99700
C  3.78100 2.57500 41.90200
C  2.89200 1.39300 42.02300
C  3.61300 3.86600 42.77500
C  6.22300 1.83800 40.77300
C  5.97400 0.71900 39.82300
H  5.15600 1.19300 38.56800
N  0.60200 -0.71700 42.24700
C  0.53900 0.57000 41.78600
C  -0.76600 0.80400 41.22100
C  -1.51200 -0.44200 41.46800
C  -0.58400 -1.34700 42.17100
C  -1.21500 2.03300 40.52900
C  -2.82100 -0.64200 40.78800
O  -3.29100 0.21200 40.03200
C  -3.57300 -1.96000 41.03900
N  1.42600 -3.31200 43.51700
C  0.05900 -3.50400 43.32000
C  -0.41100 -4.87400 43.87200
C  0.91200 -5.37500 44.60300
C  2.00700 -4.39300 44.25000
C  -1.60900 -4.88300 44.85800
C  1.24700 -6.84900 44.18900
C  1.24200 -7.77500 45.38800
N  4.02100 -2.42800 43.80600
C  4.32700 -3.64600 44.38900
C  5.72900 -3.83300 44.61600
C  6.34300 -2.58800 44.12900
C  5.21600 -1.81300 43.60600
C  6.31400 -4.96200 45.45300
C  7.57400 -1.83500 44.04300
O  8.71900 -2.14000 44.33400
C  7.18100 -0.55000 43.31200
C  7.60400 0.55900 44.28600
O  7.22100 0.64400 45.46700
O  8.45600 1.50300 43.68400
C  8.79000 2.61200 44.50400
H  1.31500 2.54000 41.43000
H  -1.85200 -3.07000 42.49300
H  3.50200 -5.39500 45.33800
H  5.84000 2.32600 42.71400
H  3.64700 2.83100 40.85100
H  3.45500 3.68100 43.83800
H  2.66300 4.29300 42.45400
H  4.43800 4.54900 42.57300
H  7.22700 1.94700 41.18300
H  6.16100 2.75200 40.18200
H  5.22900 0.00800 40.18000
H  6.90400 0.18700 39.62300
H  -2.15800 2.35100 40.97300
H  -1.45200 1.80700 39.48900
H  -0.52500 2.86600 40.66200
H  -3.16600 -2.77800 40.44600
H  -4.58600 -1.76800 40.68500
H  -3.62600 -2.16700 42.10800
H  -0.68900 -5.36100 42.93800
H  0.84500 -5.35500 45.69100
H  -1.43900 -5.40700 45.79900
H  -2.44700 -5.36000 44.35000
H  -1.84200 -3.85200 45.12600
H  2.19000 -6.82200 43.64400
H  0.50100 -7.22800 43.49000
H  0.85300 -8.78600 45.26700
H  0.62500 -7.46000 46.22900
H  2.16800 -7.83200 45.95900
H  7.27800 -4.57600 45.78600
H  6.52600 -5.81900 44.81400
H  5.63400 -5.29800 46.23600
H  7.64800 -0.25100 42.37400
H  8.00100 2.86800 45.21000
H  8.87400 3.29300 43.65700
H  9.73700 2.44100 45.01700
Mg 46.61800 25.02200 28.10600
C  47.30500 27.03100 30.89000
C  45.39400 22.61800 30.46300
C  46.49900 22.84800 25.58500
C  48.33000 27.32900 26.03800
N  46.51000 24.85800 30.41500
C  46.86000 25.77500 31.31600
C  46.63300 25.29200 32.75100
C  46.34400 23.77200 32.55100
C  46.00900 23.75800 31.04400
C  47.54500 22.89900 32.85000
C  45.52800 26.09200 33.51000
C  45.95000 27.01300 34.59400
H  44.90100 27.23000 35.63900
N  45.98300 23.08500 28.01000
C  45.35700 22.33000 29.00300
C  44.96300 21.06200 28.48300
C  45.42400 21.01000 27.11800
C  45.93700 22.36600 26.77900
C  44.24700 20.02400 29.37400
C  45.37000 19.88500 26.15100
O  45.63600 19.94200 24.94800
C  45.03200 18.42200 26.62000
N  47.39800 25.01600 26.12000
C  47.05700 24.08700 25.23900
C  47.69200 24.38600 23.83900
C  48.09300 25.90200 23.93700
C  47.97700 26.11300 25.46400
C  48.95700 23.49100 23.57700
C  47.13300 26.74800 23.02600
C  47.85400 27.23100 21.71800
N  47.41300 26.89200 28.36100
C  48.06700 27.67600 27.41700
C  48.36800 28.96600 28.13900
C  48.20800 28.68000 29.48800
C  47.59800 27.41300 29.56800
C  49.05900 30.21500 27.50000
C  48.51000 29.19900 30.81500
O  49.12600 30.19600 31.15800
C  47.89600 28.19600 31.78200
C  49.01200 27.77800 32.68900
O  49.94800 27.07500 32.39900
O  48.89700 28.33200 33.89800
C  49.78300 27.78800 34.90500
H  44.98300 21.93400 31.20800
H  46.64300 22.15300 24.75400
H  48.80300 28.02500 25.34200
H  47.62800 25.42900 33.17300
H  45.49500 23.36400 33.09900
H  48.00400 23.15900 33.80400
H  48.30900 23.08800 32.09600
H  47.31300 21.83700 32.77900
H  44.84700 25.37700 33.96900
H  44.98500 26.53400 32.67500
H  46.11300 27.96400 34.08600
H  46.91200 26.70600 35.00600
H  43.92600 20.29100 30.38100
H  44.88400 19.15900 29.55600
H  43.39900 19.61700 28.82300
H  45.32000 17.73200 25.82700
H  43.97000 18.29900 26.83200
H  45.54900 18.35100 27.57700
H  46.87900 24.08400 23.18000
H  49.12700 26.03000 23.61400
H  48.57100 22.47400 23.50300
H  49.39100 23.34000 24.56500
H  49.51200 23.82700 22.70100
H  46.79300 27.57700 23.64700
H  46.29000 26.15300 22.67500
H  48.84400 26.83300 21.49100
H  47.89000 28.32000 21.74800
H  47.21000 27.04200 20.85900
H  48.66900 30.45500 26.51000
H  50.03100 29.75500 27.32000
H  49.11700 31.06200 28.18400
H  47.07200 28.62400 32.35200
H  49.22500 27.26700 35.68300
H  50.45600 28.55100 35.29800
H  50.59700 27.16400 34.53600

