158

Mg 25.16400 -7.81400 48.62300
C  27.52100 -5.53200 47.16500
C  23.14700 -7.04700 45.99400
C  23.53500 -10.31200 49.56800
C  27.90800 -8.69000 50.92400
N  25.34000 -6.34800 46.80900
C  26.32400 -5.49300 46.40600
C  25.91500 -4.66700 45.23100
C  24.39700 -5.00500 45.08500
C  24.28400 -6.21200 46.01800
C  23.36000 -3.96500 45.36800
C  26.74500 -5.13400 44.01000
C  27.48000 -4.02700 43.27300
H  27.28800 -3.80000 41.76900
N  23.56600 -8.62300 47.74800
C  22.83600 -8.17600 46.71900
C  21.63700 -9.01700 46.61800
C  21.81600 -10.09700 47.56600
C  22.98000 -9.74200 48.31900
C  20.58400 -8.77500 45.61600
C  20.98700 -11.25900 47.83600
O  20.01600 -11.48400 47.13700
C  21.24500 -12.40400 48.86900
N  25.77600 -9.31500 50.03200
C  24.70800 -10.16900 50.34800
C  25.07400 -11.00400 51.55900
C  26.56900 -10.73300 51.72500
C  26.79800 -9.49400 50.85700
C  24.18000 -10.68000 52.77400
C  27.56900 -11.83400 51.35300
C  28.73100 -12.03800 52.31000
N  27.25700 -7.21300 49.06400
C  28.20600 -7.68000 50.00000
C  29.41600 -6.88000 49.81300
C  29.15500 -6.01500 48.71100
C  27.84500 -6.26100 48.32100
C  30.67900 -7.01200 50.44800
C  29.74900 -5.00600 47.84300
O  30.87100 -4.53900 47.83600
C  28.68100 -4.56300 46.94000
C  28.27900 -3.25700 47.38300
O  27.87300 -2.95000 48.49900
O  28.37400 -2.28900 46.45000
C  28.04100 -0.95200 46.91300
H  22.28700 -6.67900 45.43100
H  22.77600 -10.85600 50.13400
H  28.79500 -8.97700 51.49300
H  26.04600 -3.66000 45.62600
H  24.28800 -5.37700 44.06700
H  22.74600 -3.89400 44.47000
H  23.92200 -3.03200 45.39800
H  22.88300 -4.22300 46.31400
H  26.10200 -5.64200 43.29100
H  27.49500 -5.87500 44.28600
H  28.52800 -4.30800 43.36700
H  27.20000 -3.12400 43.81600
H  20.51400 -7.71400 45.37600
H  19.58700 -8.92000 46.03400
H  20.72100 -9.38600 44.72500
H  22.22900 -12.86600 48.79600
H  20.53900 -13.16700 48.54100
H  20.87900 -12.07100 49.84000
H  24.90400 -12.07000 51.41000
H  26.81500 -10.50000 52.76100
H  23.97300 -11.59700 53.32500
H  23.22000 -10.38400 52.35000
H  24.64900 -9.90100 53.37500
H  28.11900 -11.48000 50.48100
H  26.99300 -12.75900 51.32800
H  29.39200 -12.80000 51.89900
H  28.18600 -12.34300 53.20300
H  29.27300 -11.10700 52.47600
H  31.33700 -6.37300 49.85800
H  30.97200 -8.05900 50.37700
H  30.63400 -6.76100 51.50700
H  28.90500 -4.42700 45.88200
H  28.82500 -0.54000 47.54800
H  27.05700 -0.86800 47.37500
H  28.14800 -0.34800 46.01300
Mg -9.91000 17.43800 41.65000
C  -6.52800 16.35800 41.20200
C  -8.89200 20.61900 40.64300
C  -13.11600 18.27800 41.28100
C  -10.80200 14.10800 41.94300
N  -7.83500 18.37100 40.86100
C  -6.65300 17.74000 40.91400
C  -5.51000 18.76400 40.75800
C  -6.31400 20.22300 40.65300
C  -7.80100 19.68600 40.73600
C  -5.96700 21.12600 41.85700
C  -4.70700 18.42400 39.38900
C  -5.53000 17.97900 38.12700
H  -5.10700 18.57900 36.78000
N  -10.87900 19.24000 41.05600
C  -10.25900 20.39300 40.69700
C  -11.32800 21.41100 40.51200
C  -12.58400 20.79400 40.67100
C  -12.25700 19.36500 41.02600
C  -11.10500 22.92800 40.15200
C  -14.02700 21.43600 40.51800
O  -14.15700 22.61900 40.16100
C  -15.18300 20.68200 40.91100
N  -11.74800 16.27900 41.51900
C  -12.97500 16.87500 41.48400
C  -14.17600 15.77700 41.49300
C  -13.35900 14.51400 41.70600
C  -11.88500 14.95800 41.64800
C  -15.23200 16.04700 42.58900
C  -13.58900 13.38100 40.68400
C  -13.30700 11.93100 41.11900
N  -8.94600 15.59700 41.65000
C  -9.43700 14.34700 41.80700
C  -8.37600 13.35600 41.98500
C  -7.26400 14.14100 41.72400
C  -7.58300 15.48000 41.50800
C  -8.44500 11.84900 42.29700
C  -5.75700 14.08600 41.66600
O  -5.00500 13.13700 41.85000
C  -5.24700 15.53400 41.30700
C  -4.34500 15.91800 42.40900
O  -3.11200 16.05800 42.29700
O  -5.06100 16.18200 43.60100
C  -4.24500 16.69200 44.76400
H  -8.62800 21.66000 40.44700
H  -14.19400 18.43800 41.21600
H  -10.96100 13.02700 41.94300
H  -4.89400 18.65100 41.65000
H  -6.01200 20.67800 39.70900
H  -6.84900 21.28100 42.47800
H  -5.64500 22.08600 41.45300
H  -5.20000 20.69400 42.50000
H  -4.19600 17.50400 39.67200
H  -3.90000 19.11500 39.14400
H  -6.56100 18.31600 38.23300
H  -5.54400 16.89000 38.06600
H  -11.33000 23.00000 39.08800
H  -10.02500 23.06300 40.19600
H  -11.66000 23.71200 40.66700
H  -15.05000 20.36000 41.94400
H  -15.27200 19.91500 40.14200
H  -16.09100 21.28600 40.90900
H  -14.58400 15.98500 40.50300
H  -13.47200 14.21500 42.74800
H  -15.90400 16.84100 42.26200
H  -14.82300 16.22000 43.58500
H  -15.97300 15.26900 42.76900
H  -12.96500 13.57300 39.81100
H  -14.56600 13.54900 40.23200
H  -12.73800 11.41600 40.34600
H  -14.24900 11.41900 41.31700
H  -12.85800 11.96600 42.11200
H  -8.50900 11.37200 41.31900
H  -9.28400 11.55500 42.92700
H  -7.66500 11.50400 42.97600
H  -4.74400 15.39100 40.35100
H  -3.60300 15.84300 45.00200
H  -4.77100 16.88100 45.70000
H  -3.76700 17.63200 44.48700

