158

Mg 16.99500 -1.81900 27.35900
C  16.27500 0.08800 30.10800
C  19.09500 -3.71700 29.39000
C  18.28300 -3.41200 24.60600
C  15.51500 0.62400 25.33100
N  17.80900 -1.60200 29.42700
C  17.06800 -1.02300 30.39200
C  17.57700 -1.36700 31.78500
C  18.70000 -2.36500 31.48800
C  18.54700 -2.59000 30.00000
C  20.15400 -2.07300 31.78800
C  16.42200 -1.77100 32.81300
C  16.50700 -1.23500 34.26900
H  17.80200 -0.53900 34.74500
N  18.34400 -3.40400 27.07000
C  19.01000 -4.10800 28.03200
C  19.60000 -5.29500 27.47200
C  19.36200 -5.23200 26.11200
C  18.62500 -4.01800 25.86000
C  20.33500 -6.22000 28.31200
C  19.82700 -6.21500 25.03700
O  19.50600 -6.20900 23.87000
C  20.68200 -7.39400 25.48600
N  17.07700 -1.30300 25.31300
C  17.61400 -2.14100 24.35500
C  17.54600 -1.50700 22.99500
C  16.35600 -0.50900 23.18200
C  16.29800 -0.37400 24.72400
C  18.83300 -0.82000 22.50900
C  14.96300 -1.13600 22.65400
C  14.33800 -0.55900 21.32600
N  15.90100 -0.04800 27.55700
C  15.38500 0.82400 26.70700
C  14.61000 1.87100 27.36100
C  14.95400 1.59500 28.73700
C  15.80600 0.47600 28.79800
C  13.86100 2.93500 26.75100
C  14.72300 2.04100 30.05300
O  14.08900 2.98500 30.50600
C  15.54600 1.14000 31.03000
C  16.51000 2.02000 31.69100
O  17.59700 2.34500 31.25900
O  16.02300 2.44300 32.93100
C  16.93800 3.39300 33.65300
H  19.61500 -4.39800 30.06800
H  18.61800 -4.00900 23.75500
H  15.13400 1.43500 24.70800
H  18.06600 -0.44600 32.10100
H  18.45500 -3.27500 32.03600
H  20.78500 -2.23800 30.91500
H  20.63900 -2.74300 32.49900
H  20.22600 -1.02200 32.06600
H  16.24900 -2.84700 32.84000
H  15.58100 -1.23400 32.37400
H  16.52800 -2.06900 34.97000
H  15.61700 -0.67900 34.56400
H  20.22700 -7.26300 28.01200
H  20.06600 -6.37800 29.35700
H  21.36900 -5.90100 28.18300
H  19.97500 -8.06300 25.97800
H  21.57300 -7.04400 26.00700
H  21.06000 -7.80800 24.55200
H  17.22600 -2.32400 22.34800
H  16.50300 0.41700 22.62500
H  19.38100 -0.65500 23.43700
H  18.71100 0.09200 21.92500
H  19.49600 -1.48700 21.95900
H  14.23500 -1.20200 23.46300
H  15.15800 -2.18100 22.41300
H  14.96500 0.28000 21.02400
H  13.30500 -0.24800 21.48400
H  14.38600 -1.39500 20.62800
H  14.32200 3.91000 26.90900
H  12.94700 2.91900 27.34400
H  13.60000 2.89700 25.69300
H  14.96400 0.57300 31.75600
H  16.73200 4.41300 33.33000
H  17.98700 3.17200 33.45800
H  16.99700 3.43000 34.74100
Mg 41.17000 8.65800 29.56800
C  43.14000 10.15600 32.05300
C  39.04100 7.50300 31.71800
C  39.75600 6.96800 26.93100
C  43.66600 9.62800 27.26200
N  41.16700 8.81000 31.59100
C  41.95100 9.50200 32.49200
C  41.39700 9.56300 33.97100
C  40.10500 8.69500 33.80900
C  40.09400 8.27100 32.29000
C  40.06900 7.35200 34.67400
C  41.23800 10.91300 34.59700
C  40.47100 11.09000 35.95100
H  41.32300 11.33100 37.17800
N  39.54400 7.42400 29.38300
C  38.71900 7.11200 30.44100
C  37.55000 6.40000 29.94700
C  37.72900 6.28600 28.50700
C  39.04900 6.93800 28.20500
C  36.38800 5.91100 30.88900
C  36.77200 5.73100 27.48700
O  36.97500 5.75000 26.31400
C  35.53300 5.06500 27.98800
N  41.76500 8.26200 27.41600
C  40.91900 7.67000 26.56000
C  41.46600 7.60800 25.10800
C  42.46300 8.77800 25.19200
C  42.65400 8.89100 26.69000
C  41.87600 6.22500 24.57600
C  42.02200 10.09700 24.36700
C  40.97400 10.99700 25.01100
N  42.98500 9.71200 29.61000
C  43.92200 10.05500 28.59800
C  45.02900 10.73400 29.20800
C  44.74300 10.89400 30.55600
C  43.51300 10.18700 30.76000
C  46.06700 11.40700 28.40500
C  45.23000 11.39800 31.79800
O  46.19100 12.11400 32.09600
C  44.16100 10.95800 32.85800
C  44.79200 10.09200 33.91300
O  45.20100 8.93200 33.72400
O  44.59300 10.64100 35.18200
C  45.13900 9.87900 36.30600
H  38.24200 7.19900 32.39800
H  39.25900 6.47600 26.09200
H  44.40300 9.93900 26.51800
H  42.00700 9.03600 34.70400
H  39.29000 9.36700 34.07900
H  39.15300 7.34100 35.26600
H  40.87100 7.23000 35.40200
H  40.12500 6.55300 33.93500
H  40.70600 11.52800 33.87100
H  42.20700 11.37800 34.78000
H  39.81800 10.24600 36.17300
H  39.92800 12.03300 35.87300
H  35.42700 6.28200 30.53100
H  36.50500 6.20500 31.93300
H  36.25300 4.83100 30.93300
H  35.77400 4.30500 28.73100
H  35.10400 4.52300 27.14400
H  34.80900 5.80400 28.33100
H  40.59100 7.90400 24.53000
H  43.44000 8.51600 24.78400
H  42.89400 6.18700 24.18700
H  41.16500 5.98700 23.78500
H  41.68600 5.50300 25.37000
H  41.64400 9.63500 23.45400
H  42.86500 10.72600 24.08000
H  40.72800 10.66600 26.02000
H  40.08400 11.10000 24.38900
H  41.48300 11.95700 25.09800
H  45.62300 11.64400 27.43800
H  47.00300 10.86100 28.28900
H  46.33500 12.26700 29.01800
H  43.67300 11.80900 33.33300
H  44.39100 9.86400 37.09900
H  45.96500 10.42200 36.76600
H  45.53300 8.89800 36.04100

