158

Mg 41.05100 40.89900 26.87500
C  40.40400 43.39700 29.11400
C  42.16500 38.79900 29.33700
C  41.83100 38.74500 24.44200
C  40.71200 43.35700 24.18700
N  41.26700 41.04900 29.00800
C  40.80900 42.15400 29.74900
C  41.05000 41.90600 31.26900
C  41.58900 40.46200 31.28100
C  41.74500 40.06700 29.82300
C  42.90200 40.30200 31.98800
C  39.74800 42.10200 32.21100
C  39.99100 42.01700 33.78000
H  39.18400 42.93500 34.65600
N  41.81300 38.98700 26.93100
C  42.22500 38.29000 28.03300
C  42.59200 36.94600 27.60500
C  42.56000 36.98800 26.16400
C  42.00600 38.28800 25.77000
C  43.01200 35.83000 28.49000
C  43.00600 35.81800 25.22100
O  43.04800 35.98400 23.96600
C  43.27400 34.45100 25.75600
N  40.97300 40.95600 24.60600
C  41.39300 39.91100 23.89000
C  41.39500 40.04000 22.36600
C  40.88200 41.58200 22.33800
C  40.83700 42.01800 23.78100
C  42.70700 39.64300 21.62000
C  39.45200 41.76400 21.65700
C  38.31300 41.37300 22.55700
N  40.67700 42.99500 26.61700
C  40.58800 43.85400 25.52900
C  40.31600 45.15100 26.06000
C  40.18900 45.03500 27.43500
C  40.40700 43.71700 27.70100
C  40.24200 46.43000 25.23800
C  39.94400 45.70200 28.66800
O  39.67300 46.85200 29.00900
C  40.13600 44.69000 29.83500
C  41.38600 45.18600 30.52700
O  42.47900 45.23600 29.98900
O  41.16700 45.47900 31.89800
C  42.29000 45.89400 32.72900
H  42.35400 38.13200 30.18000
H  41.97000 37.95100 23.70500
H  40.63800 44.11300 23.40100
H  41.76500 42.69600 31.50000
H  40.80700 39.88200 31.77100
H  42.70200 39.66500 32.85000
H  43.22000 41.29500 32.30400
H  43.69700 39.87800 31.37500
H  39.06500 41.32000 31.88000
H  39.21900 42.98100 31.84300
H  41.06900 42.00100 33.94400
H  39.66200 40.99000 33.93800
H  42.30800 35.00200 28.57700
H  43.09000 36.21900 29.50500
H  43.97000 35.34800 28.29400
H  42.60200 34.09300 26.53500
H  44.16900 34.57600 26.36500
H  43.33300 33.74800 24.92500
H  40.62600 39.43800 21.88300
H  41.61200 42.11200 21.72600
H  43.51900 39.24500 22.22800
H  43.07900 40.54200 21.13000
H  42.49200 38.91300 20.83900
H  39.57400 41.11400 20.79000
H  39.31700 42.81700 21.41100
H  38.60900 41.04400 23.55300
H  37.73400 40.61700 22.02700
H  37.72300 42.28700 22.62100
H  39.93000 46.25200 24.20900
H  41.24800 46.85000 25.23600
H  39.55400 47.03100 25.83300
H  39.19100 44.84400 30.35700
H  42.27200 45.39300 33.69700
H  42.21700 46.97800 32.82000
H  43.22000 45.49800 32.32100
Mg 25.14400 51.73100 25.66000
C  23.50400 52.63200 28.56400
C  28.11400 51.79200 27.65500
C  27.26000 51.60800 22.78200
C  22.72400 52.74200 23.77000
N  25.66700 52.08300 27.92600
C  24.77700 52.34400 28.89500
C  25.42700 52.29100 30.27500
C  26.99900 52.15800 29.97600
C  26.91700 51.98200 28.44400
C  27.95700 53.32600 30.43400
C  24.82400 51.20000 31.21000
C  24.34900 51.64500 32.62300
H  25.32000 52.20500 33.59000
N  27.30500 51.59500 25.32000
C  28.32300 51.68900 26.26800
C  29.63100 51.59600 25.67400
C  29.45700 51.63400 24.27500
C  27.94400 51.58400 24.09000
C  30.96500 51.57700 26.41600
C  30.43000 51.68900 23.15000
O  30.06600 51.95800 22.01000
C  31.90500 51.51000 23.50200
N  25.03500 52.03000 23.55400
C  25.93600 51.75200 22.55700
C  25.24700 51.76100 21.19600
C  23.77600 52.08300 21.50300
C  23.79500 52.27100 23.06600
C  25.82700 52.70900 20.15100
C  22.91000 50.91300 20.89100
C  21.65900 51.30100 20.07600
N  23.46900 52.44200 26.00900
C  22.46700 52.76400 25.13800
C  21.34800 53.19500 25.80000
C  21.62400 53.07200 27.17500
C  22.96200 52.63200 27.26600
C  20.15700 53.72300 25.15600
C  21.10400 53.25600 28.56800
O  19.99400 53.55600 29.02900
C  22.32200 52.89300 29.44100
C  22.43300 54.08500 30.27700
O  23.02300 55.10200 29.99600
O  21.75200 53.90800 31.47400
C  21.91600 54.90300 32.56200
H  28.99800 51.89300 28.28700
H  27.80800 51.66500 21.83900
H  21.79600 52.94500 23.23000
H  25.31500 53.27200 30.73700
H  27.36700 51.25500 30.46400
H  27.48100 53.96400 31.17900
H  28.30800 53.93700 29.60200
H  28.77000 52.92000 31.03600
H  25.55900 50.41400 31.38400
H  23.93100 50.82200 30.71200
H  23.90100 50.74100 33.03500
H  23.56400 52.37400 32.42300
H  30.88500 51.24200 27.45100
H  31.37400 52.58500 26.48200
H  31.78600 50.95200 26.06400
H  32.51600 51.42500 22.60300
H  32.05200 50.49000 23.85800
H  32.25700 52.27700 24.19100
H  25.40900 50.72500 20.89900
H  23.49300 53.04000 21.06600
H  26.67000 53.29500 20.51700
H  25.04300 53.34800 19.74600
H  26.06600 52.05300 19.31400
H  22.48900 50.41600 21.76600
H  23.51900 50.22500 20.30400
H  20.73800 51.02400 20.58900
H  21.68700 50.73700 19.14400
H  21.78700 52.34600 19.79300
H  20.37300 54.65900 24.64100
H  19.33800 54.07900 25.78000
H  19.87200 53.06700 24.33300
H  22.11000 52.00100 30.03100
H  22.28200 55.84800 32.16100
H  22.66100 54.57100 33.28600
H  20.97200 55.09100 33.07300

