158

Mg 16.90800 -0.57600 27.27600
C  15.93500 1.07000 30.02600
C  19.23800 -2.40500 29.24200
C  18.15500 -1.92400 24.47700
C  15.17600 1.93400 25.26300
N  17.62200 -0.58500 29.33200
C  16.95100 0.11600 30.30200
C  17.38500 -0.31600 31.72200
C  18.59300 -1.32900 31.40100
C  18.51000 -1.42500 29.89500
C  20.01200 -0.94200 31.78000
C  16.14600 -0.84400 32.62200
C  16.07600 -0.40100 34.12000
H  17.36400 0.19700 34.78600
N  18.31500 -2.18800 26.97600
C  19.06700 -2.84000 27.90000
C  19.79900 -3.93500 27.21300
C  19.45400 -3.84800 25.83400
C  18.60300 -2.65700 25.68500
C  20.80800 -4.80700 27.90000
C  19.70300 -4.81600 24.72100
O  19.19100 -4.55900 23.62300
C  20.43100 -6.15800 24.94600
N  16.61400 -0.07100 25.15300
C  17.35200 -0.75800 24.18400
C  17.32100 0.01400 22.84100
C  16.24400 1.13500 23.06800
C  15.94200 0.97000 24.55500
C  18.70000 0.59900 22.39300
C  14.98500 1.06100 22.08300
C  14.82800 2.06700 20.97000
N  15.63100 1.10800 27.51800
C  15.02200 2.03500 26.67000
C  14.22500 2.98300 27.48500
C  14.55900 2.65600 28.81100
C  15.43200 1.53700 28.81900
C  13.37000 4.14600 27.03700
C  14.40400 3.04000 30.23200
O  13.75800 4.02100 30.61000
C  15.28800 2.04200 31.03200
C  16.31900 2.83600 31.86000
O  17.30800 3.37500 31.34200
O  15.75600 2.97000 33.11300
C  16.48400 4.04500 33.87400
H  19.99300 -2.98000 29.78300
H  18.74900 -2.11400 23.58100
H  14.54900 2.72100 24.84000
H  17.72300 0.55100 32.28900
H  18.46900 -2.25600 31.96200
H  20.54400 -1.83300 32.11400
H  20.01400 -0.14600 32.52500
H  20.59400 -0.57600 30.93400
H  16.11700 -1.93200 32.55800
H  15.28400 -0.34800 32.17500
H  15.90900 -1.34700 34.63400
H  15.15200 0.16100 34.25000
H  20.51300 -5.85200 27.80600
H  20.85700 -4.74300 28.98700
H  21.76600 -4.59200 27.42600
H  21.51400 -6.06400 25.02900
H  20.20000 -6.84000 24.12900
H  20.08500 -6.46300 25.93400
H  17.07700 -0.50800 21.91600
H  16.62800 2.13600 22.87400
H  19.47900 0.42500 23.13600
H  18.51700 1.64000 22.12800
H  19.09500 0.09200 21.51300
H  14.12500 1.17300 22.74400
H  14.75700 0.07700 21.67400
H  14.11400 2.86600 21.16900
H  14.54700 1.54900 20.05300
H  15.79400 2.57100 20.97100
H  13.48900 5.12000 27.51100
H  12.31800 3.94800 27.24200
H  13.35100 4.33400 25.96300
H  14.61100 1.54100 31.72400
H  16.46800 5.00200 33.35200
H  17.53900 3.88000 34.09000
H  16.04000 4.16700 34.86200
Mg 41.22200 8.82700 29.94200
C  43.35700 10.16600 32.50600
C  39.00700 8.02000 32.47600
C  39.27600 7.47400 27.68200
C  43.95200 8.97500 27.74600
N  41.29100 9.07100 32.24900
C  42.12800 9.81200 33.05100
C  41.51600 10.06600 34.41000
C  40.24600 9.13200 34.39400
C  40.11600 8.76600 32.93700
C  40.41000 7.90900 35.30800
C  41.39800 11.55900 34.86500
C  42.48000 12.08600 35.84700
H  42.00900 12.88700 37.09600
N  39.45100 7.89900 30.07700
C  38.62100 7.71000 31.15000
C  37.33900 7.10300 30.70900
C  37.38500 6.98300 29.32500
C  38.73200 7.48100 28.93500
C  36.31900 6.46700 31.62000
C  36.29500 6.46000 28.36000
O  36.59200 6.25100 27.21700
C  34.90400 6.21100 28.90700
N  41.59400 8.17800 28.08200
C  40.59700 7.71000 27.25400
C  40.96600 7.69600 25.77700
C  42.36200 8.40700 25.86000
C  42.65400 8.60900 27.30900
C  40.96600 6.28100 25.07300
C  42.53700 9.70100 25.03400
C  41.59400 10.81900 25.43400
N  43.18700 9.48600 30.02200
C  44.21600 9.46000 29.09400
C  45.38300 10.14300 29.62300
C  45.07100 10.52000 30.90800
C  43.74100 9.97600 31.13500
C  46.69000 10.25400 29.04900
C  45.58900 11.19800 32.11300
O  46.60800 11.81600 32.34400
C  44.43100 11.06600 33.18400
C  45.01200 10.42200 34.34200
O  45.08300 9.26300 34.57500
O  45.50400 11.41700 35.16900
C  46.75000 10.97800 35.87400
H  38.33100 7.81500 33.30800
H  38.58100 7.23100 26.87600
H  44.79600 9.17700 27.08300
H  42.25400 9.63400 35.08500
H  39.35600 9.68600 34.69400
H  40.49700 7.04100 34.65500
H  39.43800 7.77100 35.78000
H  41.19800 8.18600 36.00800
H  40.38700 11.62200 35.26800
H  41.49700 12.18500 33.97800
H  43.05400 12.71400 35.16500
H  43.14100 11.24300 36.04900
H  36.50100 6.79300 32.64400
H  36.36000 5.37800 31.57700
H  35.34100 6.89000 31.39200
H  34.38700 7.10600 29.25400
H  34.99300 5.41900 29.65000
H  34.30500 5.74600 28.12400
H  40.16800 8.34400 25.41300
H  43.17300 7.73800 25.57100
H  40.36800 6.42300 24.17200
H  40.59200 5.49800 25.73200
H  41.97800 6.01900 24.76500
H  42.34900 9.47000 23.98500
H  43.56000 10.06000 25.14600
H  42.11200 11.73300 25.72500
H  40.87700 10.57800 26.21900
H  41.04700 11.11700 24.54000
H  46.77700 9.68700 28.12300
H  47.43500 9.87500 29.74900
H  46.91200 11.30800 28.88400
H  44.09400 12.07800 33.41100
H  47.36000 10.40900 35.17300
H  46.59200 10.42400 36.79900
H  47.31500 11.86400 36.16500

