158

Mg 44.76200 3.87400 47.18600
C  42.43200 6.51700 46.70400
C  42.09800 1.71100 46.97600
C  46.85800 1.40900 46.55300
C  47.22000 6.14500 46.97300
N  42.51400 4.12100 46.63700
C  41.85500 5.25900 46.55700
C  40.39300 5.03800 46.37000
C  40.18400 3.61200 46.97700
C  41.68100 3.09300 46.88800
C  39.63800 3.59400 48.48000
C  39.90100 5.22100 44.89100
C  38.69100 6.19700 44.72500
H  38.00000 6.25600 43.35200
N  44.51400 1.78800 46.82200
C  43.34200 1.09700 46.83000
C  43.60200 -0.32300 46.74000
C  44.96000 -0.42700 46.52200
C  45.51100 0.94200 46.67700
C  42.54600 -1.38000 46.89600
C  45.75600 -1.69200 46.22200
O  45.14600 -2.73800 46.35800
C  47.17500 -1.70900 45.89000
N  46.78600 3.76300 46.61300
C  47.49100 2.61500 46.62000
C  48.97000 2.81900 46.76800
C  49.08700 4.41000 47.08600
C  47.56500 4.78800 46.92300
C  49.72800 1.83300 47.70100
C  50.07500 5.10300 46.06500
C  51.10000 6.04300 46.69800
N  44.84300 5.95400 46.95300
C  45.95700 6.71000 46.94400
C  45.58000 8.17600 46.87800
C  44.15600 8.12800 46.87400
C  43.78600 6.77500 46.83200
C  46.40800 9.41900 46.92300
C  42.95100 8.92800 46.87900
O  42.88100 10.17300 47.02700
C  41.81100 7.93700 46.74700
C  40.96100 7.95500 48.00400
O  41.14300 7.30400 48.99900
O  39.91600 8.89300 47.86300
C  38.77000 8.80900 48.86900
H  41.30500 0.98100 47.15500
H  47.62000 0.62800 46.52600
H  47.94300 6.95100 47.11400
H  40.07000 5.80800 47.07100
H  39.61600 2.99100 46.28400
H  38.68400 3.06700 48.47500
H  39.46300 4.59200 48.88400
H  40.36100 3.11400 49.14000
H  39.67300 4.24800 44.45600
H  40.70500 5.75600 44.38500
H  39.06000 7.18200 45.01400
H  37.96700 5.96900 45.50800
H  42.70600 -1.91700 47.83100
H  42.67900 -2.10500 46.09300
H  41.48200 -1.14400 46.86300
H  47.43600 -2.75700 45.74300
H  47.75300 -1.49600 46.79000
H  47.43100 -1.19800 44.96200
H  49.26000 2.65900 45.72900
H  49.47600 4.60200 48.08600
H  50.47800 2.38100 48.27100
H  50.18800 1.09400 47.04500
H  49.04500 1.33700 48.39100
H  49.51300 5.66400 45.31900
H  50.53600 4.33800 45.44100
H  52.07300 5.55400 46.73300
H  50.90500 6.41000 47.70600
H  51.24400 6.94400 46.10200
H  46.44400 9.81400 45.90800
H  47.42200 9.29900 47.30400
H  45.88300 10.14500 47.54400
H  41.24700 8.11600 45.83200
H  37.87800 8.95900 48.26100
H  38.87200 9.59700 49.61500
H  38.78300 7.86900 49.42100
Mg -1.14000 34.52400 26.36900
C  -3.23300 33.33900 28.74100
C  -0.12200 37.03600 28.68400
C  0.58500 35.93200 23.94700
C  -2.91100 32.62700 23.86000
N  -1.76000 35.12800 28.36300
C  -2.46200 34.38200 29.24500
C  -2.22300 34.66900 30.69600
C  -1.51700 36.11700 30.64300
C  -1.08100 36.10900 29.16600
C  -2.30700 37.37900 31.05400
C  -1.28800 33.55200 31.41600
C  -1.95500 32.84500 32.55600
H  -1.30400 32.94100 33.87100
N  0.20400 36.18200 26.32500
C  0.47600 37.12000 27.36200
C  1.41700 38.03400 26.83800
C  1.71600 37.62300 25.47900
C  0.82600 36.50300 25.16500
C  1.94000 39.07100 27.71300
C  2.76800 38.12600 24.50200
O  3.03500 37.56100 23.41900
C  3.52800 39.36800 24.87500
N  -1.05400 34.19800 24.16900
C  -0.11400 34.83200 23.44100
C  -0.05800 34.28900 22.00000
C  -1.04400 33.12300 22.06300
C  -1.70900 33.29800 23.39800
C  -0.46200 35.34900 20.89000
C  -0.43600 31.76900 21.74000
C  0.25900 31.07200 22.85500
N  -2.70800 33.18500 26.23000
C  -3.31500 32.41200 25.24900
C  -4.27900 31.50800 25.77700
C  -4.32700 31.83500 27.18200
C  -3.36900 32.92100 27.35600
C  -5.05100 30.53800 25.02200
C  -4.82800 31.41000 28.44800
O  -5.59600 30.56000 28.71600
C  -4.13200 32.34200 29.51700
C  -5.25000 33.01900 30.31400
O  -5.64400 34.15400 30.25900
O  -5.69800 32.05400 31.19000
C  -6.62600 32.37400 32.24300
H  0.27900 37.68500 29.46500
H  1.16300 36.17900 23.05400
H  -3.42100 32.05000 23.08600
H  -3.16300 34.79000 31.23300
H  -0.60700 36.11400 31.24300
H  -3.05100 36.97900 31.74300
H  -2.63100 38.00700 30.22400
H  -1.59300 38.06900 31.50400
H  -0.26900 33.78800 31.72000
H  -1.25900 32.81000 30.61800
H  -2.06900 31.80500 32.24900
H  -2.96600 33.23400 32.67500
H  1.32800 39.24500 28.59800
H  1.99300 40.01100 27.16400
H  2.93000 38.90800 28.13900
H  3.86200 39.46700 25.90700
H  2.86300 40.21700 24.71700
H  4.30200 39.60300 24.14400
H  0.92300 33.88900 21.74600
H  -1.94100 33.13100 21.44400
H  -1.34400 35.09700 20.30000
H  0.36100 35.47100 20.18500
H  -0.52300 36.33600 21.34800
H  0.33800 31.99300 21.00600
H  -1.22200 31.19300 21.25200
H  0.03100 31.63600 23.75900
H  1.32700 31.18400 22.66600
H  -0.03500 30.02800 22.96300
H  -4.86800 30.64800 23.95400
H  -6.09100 30.76400 25.25900
H  -4.99400 29.50800 25.37600
H  -3.50400 31.68800 30.12200
H  -7.50900 32.82700 31.79300
H  -6.24800 33.08900 32.97400
H  -6.95700 31.45300 32.72300

