158

Mg -1.47700 16.95300 26.29200
C  -2.03700 14.62900 28.88400
C  -1.81600 19.48600 28.52200
C  -1.07400 19.12100 23.69900
C  -1.72100 14.33000 23.96900
N  -1.79300 16.99900 28.46100
C  -1.99600 15.95400 29.30900
C  -2.25300 16.45500 30.71800
C  -2.13400 18.01200 30.58100
C  -2.02600 18.18900 29.07800
C  -3.32300 18.86500 31.25100
C  -1.21200 15.67000 31.69400
C  -0.57000 16.57400 32.79000
H  -0.59500 15.83600 34.13700
N  -1.41200 19.07000 26.17000
C  -1.57700 19.87200 27.16000
C  -1.46300 21.24500 26.67800
C  -1.31300 21.15200 25.28400
C  -1.18300 19.74500 24.96400
C  -1.66800 22.39200 27.60400
C  -1.24900 22.29500 24.20300
O  -1.10400 22.06000 23.03500
C  -1.29300 23.82000 24.62800
N  -1.35400 16.72700 24.09500
C  -1.15200 17.78900 23.29500
C  -1.04500 17.34000 21.82700
C  -1.06100 15.74200 21.94200
C  -1.43600 15.59300 23.39900
C  -2.21800 17.85700 20.87400
C  0.21200 14.93300 21.47400
C  0.25400 14.85200 19.91000
N  -1.75600 14.86400 26.36600
C  -1.83900 13.93500 25.34200
C  -2.03900 12.58800 25.88900
C  -2.19800 12.84100 27.27400
C  -1.94800 14.19000 27.51200
C  -2.03100 11.23700 25.06800
C  -2.43900 12.22100 28.55600
O  -2.60400 11.04900 28.77400
C  -2.48700 13.32700 29.64200
C  -1.77800 12.74300 30.80700
O  -0.54100 12.64500 30.79500
O  -2.56400 12.30700 31.87900
C  -1.81400 11.71700 32.97500
H  -1.82700 20.25100 29.30100
H  -0.81900 19.73200 22.83100
H  -1.76600 13.59000 23.16700
H  -3.27400 16.20200 31.00200
H  -1.18700 18.36200 30.99200
H  -2.99000 19.42400 32.12600
H  -4.10100 18.17100 31.57000
H  -3.84400 19.46800 30.50700
H  -0.36000 15.33300 31.10400
H  -1.67200 14.83600 32.22400
H  -0.99600 17.56900 32.92000
H  0.44500 16.78100 32.45100
H  -1.40800 22.24900 28.65300
H  -2.59800 22.94900 27.48900
H  -0.91500 23.09700 27.25100
H  -1.50200 24.50200 23.80400
H  -0.34900 23.98500 25.14800
H  -2.00200 23.79100 25.45500
H  -0.08800 17.64800 21.40700
H  -1.87600 15.37000 21.32100
H  -2.87000 18.61400 21.31000
H  -2.87700 17.06200 20.52300
H  -1.73600 18.22800 19.97000
H  0.12700 13.96200 21.96300
H  1.11700 15.37600 21.88900
H  1.11900 15.30400 19.42400
H  -0.59200 15.18100 19.30700
H  0.32100 13.81200 19.59200
H  -1.14000 11.11800 24.45000
H  -2.96500 10.98400 24.56600
H  -2.07100 10.51800 25.88600
H  -3.49100 13.69200 29.85700
H  -1.14300 12.49200 33.34400
H  -1.13900 10.93400 32.62800
H  -2.41400 11.30800 33.78800
Mg 35.25800 1.59100 29.83900
C  32.77500 3.07000 31.96500
C  37.55300 1.99200 32.37600
C  37.61900 0.68400 27.69100
C  32.94300 1.77100 27.23100
N  35.03800 2.26000 31.93200
C  34.04500 2.82100 32.63700
C  34.39500 2.91900 34.13400
C  35.98000 3.03600 34.03800
C  36.20100 2.32300 32.71000
C  36.50400 4.44900 34.10900
C  33.76800 1.73900 34.92300
C  33.42600 2.07400 36.35300
H  34.10300 3.26200 37.11100
N  37.38600 1.31900 30.00700
C  38.10600 1.48200 31.13100
C  39.47500 1.14800 30.84200
C  39.54200 0.76500 29.44900
C  38.14500 0.91800 28.99100
C  40.64700 1.19800 31.84100
C  40.68200 0.29100 28.55900
O  40.46100 -0.13100 27.40700
C  42.13200 0.41500 28.94600
N  35.27100 1.42400 27.75500
C  36.35700 0.90900 27.15700
C  36.11500 0.55300 25.61600
C  34.62500 0.93900 25.47600
C  34.21200 1.32500 26.85800
C  37.10200 1.37300 24.69700
C  33.79600 -0.13200 24.73500
C  33.20600 -1.39800 25.45800
N  33.20900 2.31500 29.60600
C  32.45700 2.30300 28.47500
C  31.13000 2.81000 28.81400
C  31.27900 3.07300 30.18500
C  32.56300 2.85900 30.62100
C  29.88600 2.87700 28.01700
C  30.55300 3.56400 31.34600
O  29.39400 3.96800 31.52000
C  31.50300 3.48700 32.58700
C  31.40300 4.74300 33.29000
O  31.46600 5.86900 32.80000
O  31.38600 4.47000 34.62500
C  31.41400 5.65700 35.49300
H  38.17000 1.92900 33.27400
H  38.25200 0.24600 26.91600
H  32.19200 1.72700 26.44000
H  33.93200 3.80700 34.56400
H  36.48200 2.55000 34.87500
H  35.71400 5.15900 34.35400
H  36.89800 4.83900 33.17100
H  37.25100 4.52800 34.89900
H  34.46800 0.90900 34.82200
H  32.89000 1.42400 34.36000
H  33.61100 1.21700 37.00100
H  32.35300 2.23000 36.46000
H  41.34800 0.41900 31.54200
H  40.21400 1.07900 32.83400
H  41.16000 2.16000 31.80700
H  42.33000 1.40400 29.35900
H  42.77600 0.16600 28.10200
H  42.20100 -0.35300 29.71700
H  36.24100 -0.52200 25.48400
H  34.57300 1.86900 24.91100
H  36.60800 2.11300 24.06700
H  37.76200 0.69500 24.15700
H  37.74000 2.03900 25.27700
H  34.32200 -0.57000 23.88700
H  32.98400 0.50100 24.37700
H  33.69900 -2.28800 25.06700
H  32.12100 -1.46700 25.38100
H  33.51600 -1.33900 26.50100
H  29.04300 2.82700 28.70600
H  29.92200 1.92300 27.49100
H  29.80000 3.71300 27.32300
H  31.32100 2.64000 33.24800
H  30.92300 6.52700 35.05600
H  32.46900 5.72500 35.75600
H  30.70100 5.47900 36.29800

