158

Mg 40.21600 8.12300 29.18900
C  41.92000 9.24200 31.93500
C  37.80700 6.75900 31.20500
C  38.97300 6.24300 26.52900
C  42.93100 8.94200 27.19500
N  39.93100 8.03800 31.30300
C  40.69600 8.69500 32.23700
C  40.02300 8.75400 33.59000
C  38.73000 7.82700 33.41900
C  38.78000 7.52700 31.86400
C  38.70700 6.59500 34.30900
C  39.72100 10.20700 34.10900
C  38.87800 10.25400 35.37400
H  39.29500 11.16500 36.56600
N  38.48900 6.76700 28.86900
C  37.62900 6.43600 29.86600
C  36.55700 5.65500 29.29100
C  36.86600 5.49000 27.88900
C  38.16600 6.17700 27.71100
C  35.36800 5.16500 30.15700
C  36.22000 4.61700 26.84800
O  36.61100 4.44300 25.70300
C  34.91200 3.89100 27.21400
N  40.81000 7.64700 27.14800
C  40.12400 6.96700 26.23800
C  40.74300 6.96400 24.80600
C  41.89700 7.92700 25.09000
C  41.84100 8.30400 26.54300
C  41.16400 5.53800 24.25500
C  41.87200 9.16000 24.07800
C  40.91000 10.33200 24.40300
N  42.04900 8.93200 29.46200
C  43.02700 9.23200 28.59400
C  44.16100 9.78400 29.26300
C  43.78100 9.88300 30.56200
C  42.52800 9.28800 30.63400
C  45.46000 10.26500 28.64100
C  44.15600 10.32200 31.84600
O  45.14600 10.88700 32.31400
C  42.90300 10.07900 32.79100
C  43.45200 9.19500 33.86800
O  44.18100 8.20800 33.69100
O  42.75500 9.47800 35.09600
C  43.12300 8.76800 36.26500
H  37.00700 6.40800 31.86000
H  38.54200 5.72100 25.67200
H  43.79300 9.25500 26.60300
H  40.71600 8.25500 34.26800
H  37.75600 8.29200 33.56600
H  39.38800 6.77100 35.14200
H  39.06400 5.74700 33.72500
H  37.73300 6.41800 34.76500
H  39.01600 10.59900 33.37500
H  40.62800 10.77900 34.30600
H  38.77200 9.21200 35.67700
H  37.87300 10.61100 35.14800
H  34.46200 5.38200 29.59100
H  35.18800 5.68300 31.09800
H  35.35800 4.10300 30.40400
H  34.57800 3.11100 26.52900
H  34.10100 4.55700 27.50800
H  35.16600 3.31100 28.10100
H  40.04400 7.32600 24.05200
H  42.81100 7.35700 24.92200
H  40.34100 5.12600 23.67100
H  41.21900 4.78100 25.03700
H  42.12100 5.56200 23.73300
H  41.68500 9.00700 23.01500
H  42.87800 9.56100 24.20200
H  41.42700 11.28800 24.49000
H  40.37200 10.21700 25.34400
H  40.15100 10.40800 23.62500
H  45.34000 10.74200 27.66800
H  46.14200 9.47100 28.33600
H  45.93900 10.83800 29.43400
H  42.58400 11.08500 33.06400
H  42.44200 7.93700 36.44900
H  42.83500 9.49300 37.02600
H  44.17400 8.48500 36.31900
Mg 16.70800 52.13900 24.65100
C  18.15900 50.81300 27.60600
C  13.99000 53.02500 26.62900
C  15.22200 52.98400 21.82400
C  19.48400 50.96700 22.94900
N  16.08000 51.87300 26.91300
C  16.93800 51.47500 27.91100
C  16.49400 52.00600 29.27500
C  15.03100 52.49900 28.89800
C  15.04900 52.54500 27.38000
C  13.88100 51.70800 29.60300
C  17.40300 53.14800 29.82900
C  17.75100 53.04100 31.34500
H  16.79100 52.36700 32.29900
N  14.82800 52.96500 24.23000
C  13.85000 53.27800 25.15800
C  12.74500 53.83900 24.48000
C  13.08900 53.93800 23.06900
C  14.43700 53.30300 22.97100
C  11.45000 54.22500 25.18100
C  12.39300 54.60900 21.87900
O  12.86600 54.66700 20.73400
C  11.14100 55.37500 22.15100
N  17.30900 52.14200 22.69700
C  16.47700 52.47300 21.69100
C  17.04400 51.88100 20.35400
C  18.61600 51.73100 20.76100
C  18.50200 51.61000 22.23900
C  16.46300 50.61400 19.88100
C  19.50200 52.86500 20.29000
C  20.37600 52.38100 19.11900
N  18.49200 51.19400 25.13700
C  19.39500 50.60800 24.28200
C  20.41900 49.89500 25.08500
C  19.92200 49.95400 26.37400
C  18.72200 50.70200 26.34000
C  21.66700 49.20300 24.58100
C  20.24400 49.54000 27.68200
O  21.13900 48.88700 28.21500
C  19.12900 50.16600 28.60200
C  18.53000 49.19600 29.44000
O  17.71000 48.39300 29.05900
O  19.05400 49.29800 30.63500
C  18.79200 48.15500 31.55100
H  13.20400 53.27600 27.34400
H  14.61300 52.93100 20.91900
H  20.32400 50.70200 22.30300
H  16.41300 51.12900 29.91700
H  14.84100 53.52900 29.20000
H  13.37500 52.41300 30.26200
H  14.24000 50.82600 30.13400
H  13.31300 51.24400 28.79600
H  16.95600 54.11800 29.61000
H  18.29400 53.05200 29.20900
H  17.73400 54.06400 31.72200
H  18.77400 52.68200 31.45700
H  11.43300 53.89300 26.21900
H  10.52900 53.84300 24.74100
H  11.29300 55.29700 25.06100
H  11.41600 56.38700 22.45000
H  10.58500 54.93600 22.98000
H  10.55700 55.42300 21.23200
H  16.91900 52.67700 19.62100
H  18.95900 50.73700 20.47200
H  17.12100 50.00400 19.26200
H  15.52800 50.92400 19.41500
H  16.15600 49.89900 20.64400
H  20.09000 53.10800 21.17400
H  18.92300 53.74400 20.00600
H  19.85100 52.57700 18.18400
H  20.62000 51.32100 19.18300
H  21.29200 52.95600 19.25400
H  21.34100 48.29000 24.08100
H  22.33600 48.95500 25.40500
H  22.08800 49.89200 23.84900
H  19.65300 50.88600 29.23100
H  18.97700 47.18800 31.08300
H  17.74600 48.27800 31.83200
H  19.43400 48.30500 32.41900

