158

Mg 48.22000 44.72900 42.39700
C  44.85400 43.97400 42.19500
C  48.82600 41.27900 41.89000
C  51.47700 45.37100 42.16500
C  47.40000 48.09200 42.07600
N  46.96500 42.80300 41.95100
C  45.57800 42.82400 41.99600
C  44.99200 41.38800 41.96600
C  46.33800 40.49800 42.09900
C  47.47100 41.55400 41.96900
C  46.51400 39.52600 43.28800
C  43.92900 41.10500 40.80200
C  44.07900 41.96100 39.53100
H  44.34300 41.18300 38.24400
N  49.98000 43.50600 42.10200
C  49.99200 42.15500 41.95900
C  51.38300 41.74100 41.84000
C  52.19100 42.91400 41.95900
C  51.25700 43.97900 42.13700
C  51.74000 40.25300 41.66000
C  53.72100 42.98800 41.72000
O  54.38300 42.02800 41.28000
C  54.41600 44.31100 41.89400
N  49.26400 46.48000 42.12000
C  50.64200 46.45500 42.15200
C  51.23900 47.91500 42.13000
C  49.90600 48.79900 42.08100
C  48.73300 47.75300 41.99400
C  52.29700 48.21800 43.18800
C  49.78200 49.75200 40.90700
C  50.00300 51.25500 41.20300
N  46.45600 45.85700 42.26000
C  46.27400 47.27400 42.17600
C  44.87200 47.59800 42.23600
C  44.23800 46.33800 42.35300
C  45.26400 45.34200 42.33100
C  44.33600 48.96100 42.14700
C  42.98000 45.65500 42.39000
O  41.83000 46.05000 42.38700
C  43.30000 44.09600 42.33600
C  42.71300 43.44400 43.53900
O  41.89900 42.54300 43.57900
O  43.33400 43.99200 44.64400
C  42.96000 43.52000 46.03000
H  49.13300 40.23900 41.76200
H  52.50100 45.74600 42.21800
H  47.16500 49.15900 42.08900
H  44.36100 41.37700 42.85500
H  46.50100 39.92200 41.18800
H  46.56900 38.51800 42.87900
H  45.72600 39.55600 44.04100
H  47.49200 39.64900 43.75300
H  42.92000 41.29200 41.16800
H  43.93400 40.04100 40.56400
H  44.82300 42.75500 39.59900
H  43.15500 42.53900 39.54000
H  52.82400 40.17400 41.58100
H  51.33800 39.77500 40.76700
H  51.36700 39.73200 42.54200
H  54.14100 45.13800 41.24000
H  55.48800 44.11300 41.87000
H  54.12600 44.57000 42.91300
H  51.77400 47.90500 41.18000
H  49.61700 49.34100 42.98200
H  52.03400 47.55000 44.00800
H  52.17900 49.25200 43.51100
H  53.35200 48.03900 42.98100
H  48.79600 49.73100 40.44500
H  50.52200 49.51400 40.14200
H  49.18400 51.82600 40.76400
H  50.84200 51.77600 40.74200
H  50.30900 51.45500 42.22900
H  44.77300 49.53700 41.33100
H  44.53800 49.42200 43.11400
H  43.25500 48.99900 42.01200
H  42.78700 43.66000 41.47900
H  42.12700 44.12500 46.38800
H  43.84900 43.69500 46.63500
H  42.59100 42.49500 46.07100
Mg 9.05100 47.72300 27.43000
C  6.85800 47.57100 30.10900
C  11.66200 48.44300 29.65800
C  11.02800 48.12400 24.79400
C  6.27600 47.86100 25.23800
N  9.21200 47.95800 29.67700
C  8.19200 47.77900 30.58900
C  8.77300 47.74800 32.02200
C  10.27500 48.11400 31.85600
C  10.41400 48.20100 30.32400
C  10.65800 49.53900 32.49700
C  8.47900 46.34700 32.63900
C  9.34800 45.85300 33.79100
H  8.66700 45.40200 35.07700
N  11.07500 48.13900 27.24300
C  11.99400 48.34200 28.24500
C  13.30300 48.48500 27.62800
C  13.14900 48.25500 26.21900
C  11.68600 48.04800 26.05800
C  14.52800 48.84900 28.42600
C  14.15400 48.14900 25.16700
O  13.83000 48.07900 23.96500
C  15.56900 48.20700 25.47900
N  8.68800 48.17300 25.25800
C  9.64800 48.18500 24.43500
C  9.13100 48.31600 22.95400
C  7.59400 48.27600 23.12200
C  7.49600 48.00100 24.58900
C  9.60100 49.55100 22.19800
C  6.79900 47.29100 22.19700
C  7.42500 46.55300 21.00200
N  7.01300 47.60300 27.58900
C  6.01300 47.64500 26.61800
C  4.71000 47.50900 27.21300
C  4.95200 47.48300 28.60400
C  6.35600 47.57300 28.75200
C  3.31800 47.56200 26.45600
C  4.40200 47.43500 29.97900
O  3.23900 47.31900 30.34400
C  5.59800 47.45600 31.01200
C  5.46900 46.18800 31.67900
O  5.95900 45.11700 31.26100
O  4.71700 46.25200 32.84600
C  4.69000 45.07000 33.68000
H  12.54000 48.64300 30.27600
H  11.60400 48.13300 23.86600
H  5.31500 47.71600 24.74000
H  8.17500 48.33200 32.72200
H  10.80500 47.22700 32.20200
H  11.69700 49.48300 32.82100
H  9.98000 49.78100 33.31500
H  10.60900 50.31800 31.73700
H  8.39900 45.57800 31.87100
H  7.50300 46.56900 33.07100
H  10.06900 46.63300 34.03200
H  9.86600 44.96500 33.42800
H  15.25400 48.06400 28.63500
H  14.30100 49.32000 29.38300
H  15.09200 49.56300 27.82600
H  16.09400 48.05800 24.53500
H  15.79000 47.55800 26.32600
H  15.73700 49.24500 25.76700
H  9.49700 47.46500 22.37900
H  7.16900 49.26800 22.96900
H  10.03500 50.23300 22.93000
H  8.73000 49.98400 21.70700
H  10.37200 49.20900 21.50700
H  6.01100 47.95400 21.84200
H  6.40400 46.47300 22.79900
H  6.78500 46.53100 20.11900
H  7.59200 45.51600 21.29200
H  8.39300 46.94500 20.69100
H  2.94200 46.56600 26.22400
H  3.35300 48.08500 25.50000
H  2.54800 48.07500 27.03200
H  5.46900 48.29200 31.69900
H  4.81900 45.44100 34.69600
H  5.48800 44.34500 33.51900
H  3.68400 44.68800 33.50100

