158

Mg 41.44200 8.90300 29.67300
C  43.41600 10.21300 32.39200
C  39.17300 7.71600 31.84700
C  39.78000 7.62000 27.03900
C  44.13200 9.68500 27.50900
N  41.41700 8.95000 31.92400
C  42.19700 9.61800 32.88200
C  41.57400 9.39500 34.32000
C  40.37000 8.48500 34.01800
C  40.30000 8.36800 32.51000
C  40.41400 7.08800 34.62300
C  41.40300 10.82800 35.00700
C  40.38700 10.86600 36.15200
H  40.78100 11.84500 37.28000
N  39.68600 7.82900 29.52300
C  38.88000 7.49100 30.50400
C  37.61000 6.94300 30.05200
C  37.74900 7.06800 28.64900
C  39.08700 7.50000 28.31600
C  36.61300 6.21500 30.97700
C  36.69900 6.84400 27.52300
O  36.97900 6.97700 26.29800
C  35.27800 6.52600 28.02900
N  42.00700 8.30500 27.62900
C  41.08000 7.97700 26.72500
C  41.50700 8.25200 25.30300
C  42.91400 8.91400 25.35600
C  43.07400 8.97200 26.93200
C  41.32800 6.95300 24.49200
C  43.05600 10.29600 24.79000
C  42.18200 11.39000 25.42400
N  43.40400 9.77600 29.85600
C  44.33600 10.02900 28.86900
C  45.38300 10.75100 29.46300
C  45.07800 10.87300 30.84400
C  43.83700 10.23400 31.03100
C  46.45000 11.34200 28.64000
C  45.45700 11.42700 32.20200
O  46.51600 11.92000 32.49000
C  44.39700 10.93000 33.24900
C  45.14500 10.05300 34.29700
O  45.78100 9.04000 33.95100
O  44.88100 10.56300 35.55600
C  45.38000 9.78600 36.73900
H  38.39500 7.48600 32.57800
H  39.17500 7.40700 26.15500
H  44.85400 10.05800 26.78000
H  42.28400 8.80800 34.90200
H  39.47100 8.89400 34.48000
H  39.52800 6.93400 35.23800
H  41.29900 6.82500 35.20400
H  40.33800 6.28900 33.88600
H  41.06100 11.46800 34.19400
H  42.33300 11.22900 35.41100
H  40.25800 9.89000 36.61900
H  39.39400 11.26000 35.93200
H  37.12300 6.10300 31.93400
H  36.25100 5.31800 30.47500
H  35.76400 6.87900 31.14400
H  35.37600 5.64500 28.66400
H  34.52400 6.35700 27.26000
H  34.99800 7.41000 28.60100
H  40.78200 8.96800 24.91400
H  43.79200 8.33200 25.07700
H  42.15200 6.87700 23.78100
H  40.41100 7.07600 23.91500
H  41.22000 6.10200 25.16400
H  43.02900 10.39700 23.70500
H  44.12800 10.48800 24.84100
H  42.84100 12.03500 26.00500
H  41.44200 10.99700 26.12200
H  41.70800 12.09900 24.74500
H  46.83600 12.17800 29.22300
H  46.02000 11.81700 27.75900
H  47.22900 10.60600 28.44200
H  43.94900 11.78000 33.76400
H  45.90500 8.87100 36.46600
H  44.52700 9.51700 37.36100
H  45.98500 10.43900 37.36800
Mg -5.24700 26.09200 25.78100
C  -4.11300 27.51300 28.74400
C  -7.33500 24.03000 27.69800
C  -6.51900 24.84900 22.97800
C  -3.03700 28.18500 24.01800
N  -5.49500 25.66500 27.93400
C  -4.98200 26.42700 28.98900
C  -5.37400 25.90600 30.38100
C  -6.09000 24.50300 29.98900
C  -6.35700 24.71600 28.46900
C  -5.32900 23.22000 30.23900
C  -6.43700 26.80800 31.05700
C  -6.55400 26.76600 32.61800
H  -5.78700 25.66000 33.38500
N  -6.60400 24.50500 25.39000
C  -7.40600 23.95700 26.27300
C  -8.36800 23.18200 25.52700
C  -8.19400 23.43200 24.19200
C  -7.05600 24.28600 24.12200
C  -9.50400 22.48200 26.27300
C  -9.07100 22.89000 23.02000
O  -8.75600 23.04900 21.80600
C  -10.22400 22.02300 23.21800
N  -4.83500 26.50700 23.77400
C  -5.46200 25.76200 22.81100
C  -4.78000 26.01500 21.44100
C  -3.89200 27.24500 21.76200
C  -3.89700 27.31600 23.27100
C  -4.10400 24.80300 20.85300
C  -4.40900 28.53000 21.09200
C  -3.38600 29.36100 20.30800
N  -3.81600 27.53100 26.26700
C  -3.05000 28.32400 25.41800
C  -2.28200 29.30400 26.25700
C  -2.68700 28.97500 27.58000
C  -3.63200 27.92600 27.53500
C  -1.27200 30.31200 25.85300
C  -2.46900 29.29500 28.96900
O  -1.68000 29.97000 29.59800
C  -3.50700 28.50600 29.71100
C  -2.91800 27.84400 30.96900
O  -2.13000 26.91100 31.01900
O  -3.08000 28.67100 32.07300
C  -2.25900 28.41700 33.27400
H  -8.02400 23.43800 28.30400
H  -7.01100 24.51400 22.06300
H  -2.30500 28.84400 23.54600
H  -4.47400 25.59300 30.91100
H  -7.02100 24.36800 30.54000
H  -6.00400 22.48000 30.67000
H  -4.46900 23.47100 30.85900
H  -4.94100 22.91800 29.26600
H  -7.40400 26.56700 30.61600
H  -6.23500 27.85700 30.84400
H  -7.60900 26.71500 32.88700
H  -6.19000 27.70100 33.04600
H  -9.38500 22.49800 27.35600
H  -9.64400 21.48200 25.86200
H  -10.42500 23.05000 26.14500
H  -10.94600 21.95800 22.40400
H  -10.84100 22.21800 24.09500
H  -9.74400 21.05500 23.36600
H  -5.65000 26.31000 20.85400
H  -2.88900 27.05100 21.38200
H  -4.29900 23.88300 21.40400
H  -3.01800 24.86900 20.91700
H  -4.30900 24.76900 19.78300
H  -4.93800 29.10300 21.85200
H  -5.23600 28.31700 20.41500
H  -3.43200 29.22400 19.22700
H  -2.38500 29.09100 20.64500
H  -3.59600 30.42200 20.43900
H  -1.70400 31.18900 25.37000
H  -0.46800 29.91000 25.23700
H  -0.76400 30.81000 26.67800
H  -4.31100 29.17300 30.02200
H  -1.22700 28.06600 33.25600
H  -2.84500 27.67600 33.81800
H  -2.43900 29.26800 33.93000

