158

Mg 8.61000 3.04800 27.80200
C  9.97600 1.69800 30.75500
C  6.88900 5.19600 29.85000
C  6.95700 4.12300 25.17200
C  10.09900 0.54200 25.96600
N  8.47000 3.36900 30.13100
C  9.10100 2.69300 31.07200
C  8.80900 3.33600 32.46600
C  7.65400 4.35400 32.20000
C  7.69000 4.34200 30.65000
C  6.28500 3.82300 32.63300
C  10.08100 4.10900 32.94600
C  10.50200 3.81700 34.34700
H  10.74900 4.97100 35.41800
N  7.23800 4.51600 27.55300
C  6.66700 5.32700 28.47700
C  5.75300 6.31100 27.94900
C  5.79900 6.03000 26.51300
C  6.70300 4.86800 26.37800
C  5.15600 7.46000 28.78300
C  5.22100 6.73400 25.38600
O  5.35100 6.46800 24.22400
C  4.58900 8.07100 25.64500
N  8.42500 2.33400 25.88400
C  7.67100 2.92100 24.92100
C  8.00000 2.36300 23.51800
C  9.02800 1.26900 23.83400
C  9.20800 1.37300 25.31500
C  6.74600 1.92900 22.78000
C  10.24300 1.36100 22.89200
C  10.47000 0.01000 22.17200
N  9.72400 1.41300 28.20900
C  10.33000 0.55800 27.37300
C  11.25100 -0.28600 28.07500
C  11.05800 0.09800 29.41800
C  10.17300 1.17300 29.45100
C  12.10200 -1.28100 27.41800
C  11.62900 -0.11200 30.76300
O  12.52800 -0.86400 31.09300
C  10.94600 0.96200 31.71200
C  10.17300 0.27500 32.80200
O  9.29000 -0.56600 32.67300
O  10.68000 0.71900 33.92900
C  9.95100 0.23700 35.11600
H  6.19400 5.78500 30.45200
H  6.40600 4.30100 24.24700
H  10.64800 -0.14600 25.32000
H  8.52400 2.57800 33.19500
H  7.83500 5.39100 32.48600
H  5.57600 4.62200 32.84900
H  6.45400 3.11900 33.44800
H  5.83300 3.28400 31.80000
H  9.89900 5.18400 32.93200
H  10.85200 3.94500 32.19300
H  11.48800 3.35300 34.32800
H  9.86600 3.07500 34.83000
H  5.22600 8.45600 28.34600
H  5.64700 7.56800 29.75100
H  4.10400 7.26300 28.99000
H  5.27700 8.76700 26.12500
H  3.75900 7.95400 26.34200
H  4.19700 8.49000 24.71900
H  8.39300 3.23000 22.98900
H  8.51600 0.32200 23.67100
H  5.91200 1.90200 23.48100
H  6.92600 0.96900 22.29500
H  6.50400 2.70000 22.04900
H  11.10600 1.68400 23.47400
H  9.99300 2.12400 22.15500
H  10.30500 0.06900 21.09600
H  9.79200 -0.75600 22.54900
H  11.50500 -0.29400 22.32800
H  11.56300 -2.22900 27.39800
H  13.02000 -1.39200 27.99500
H  12.24100 -0.98600 26.37800
H  11.65900 1.58300 32.25400
H  10.32500 0.72900 36.01400
H  10.10900 -0.84000 35.16800
H  8.86300 0.24600 35.04800
Mg 42.63100 41.17100 26.09100
C  41.63900 43.41300 28.72100
C  43.56600 39.00900 28.53900
C  43.65000 39.15800 23.66600
C  41.93500 43.65600 23.83600
N  42.65500 41.26500 28.50700
C  42.07200 42.17200 29.28000
C  42.10500 41.61800 30.77800
C  42.92000 40.27000 30.68600
C  43.07500 40.18700 29.18100
C  44.22700 40.18000 31.58200
C  40.71800 41.66100 31.53800
C  40.77400 41.24300 33.02000
H  40.64200 42.32700 34.00900
N  43.50300 39.32500 26.08100
C  43.81800 38.59000 27.20000
C  44.46800 37.38000 26.76500
C  44.42100 37.31900 25.33300
C  43.80300 38.60300 24.97000
C  45.13800 36.50600 27.77200
C  44.92100 36.20500 24.37300
O  44.88600 36.27000 23.19000
C  45.60300 34.94600 24.93100
N  42.97300 41.45000 23.99700
C  43.24300 40.41000 23.23500
C  43.15200 40.84800 21.73300
C  42.43900 42.27100 21.83400
C  42.45600 42.50000 23.31700
C  44.55500 40.65700 21.12600
C  41.11400 42.37800 21.15000
C  40.00900 41.50100 21.61200
N  41.96000 43.11500 26.22700
C  41.84100 43.98900 25.21200
C  41.40400 45.29800 25.76100
C  41.25100 45.08700 27.11000
C  41.64900 43.72300 27.33200
C  41.19800 46.57700 24.95000
C  40.75700 45.67800 28.43000
O  40.22700 46.75700 28.66300
C  40.93800 44.54800 29.46900
C  41.85600 44.97800 30.53600
O  43.11900 44.86800 30.52700
O  41.10700 45.69900 31.50100
C  41.92600 46.26300 32.56800
H  43.60800 38.23300 29.30700
H  43.97700 38.66300 22.74900
H  41.65200 44.40900 23.09700
H  42.74600 42.31900 31.31100
H  42.17100 39.52200 30.94500
H  44.42900 41.11800 32.10000
H  45.06100 40.05500 30.89200
H  44.14800 39.39100 32.32900
H  40.10200 40.88200 31.08900
H  40.17600 42.58600 31.34200
H  41.67800 40.66600 33.21600
H  39.94800 40.54900 33.17600
H  44.57500 35.58700 27.93300
H  45.21900 37.02700 28.72700
H  46.14900 36.18400 27.52600
H  45.65700 34.11700 24.22500
H  44.91500 34.57800 25.69100
H  46.50800 35.24800 25.45900
H  42.43400 40.18900 21.24500
H  43.17400 42.99100 21.47200
H  44.68000 39.84100 20.41400
H  45.17300 40.38100 21.98000
H  44.89200 41.60600 20.71000
H  41.24700 42.14100 20.09500
H  40.73400 43.39500 21.25100
H  39.30500 42.12500 22.16200
H  40.46300 40.72900 22.23400
H  39.40200 41.12200 20.78900
H  41.40700 46.47300 23.88500
H  41.95400 47.20600 25.42000
H  40.21500 46.91500 25.27600
H  39.98500 44.22300 29.88800
H  42.37300 45.44400 33.13100
H  41.39300 47.04100 33.11500
H  42.80200 46.77500 32.17000

