158

Mg -2.17500 17.40500 26.33500
C  -2.14100 15.04900 28.83500
C  -3.40900 19.73300 28.64700
C  -2.19000 19.59700 23.85500
C  -1.55300 14.76300 24.00900
N  -2.67900 17.45600 28.47100
C  -2.36500 16.39200 29.29900
C  -2.52300 16.77000 30.79300
C  -3.18900 18.18900 30.70000
C  -3.07800 18.50100 29.20700
C  -4.66800 18.14000 31.08800
C  -1.13800 16.73600 31.43200
C  -0.77800 17.44400 32.70800
H  -0.89700 16.61400 34.05700
N  -2.74500 19.38000 26.26200
C  -3.26500 20.18500 27.26200
C  -3.59900 21.42700 26.75600
C  -3.27200 21.44300 25.35800
C  -2.69300 20.07700 25.11600
C  -4.35300 22.49000 27.49600
C  -3.40700 22.55300 24.29700
O  -3.00200 22.50200 23.11300
C  -3.81700 23.89900 24.82400
N  -1.87700 17.14300 24.19000
C  -1.78400 18.30200 23.43500
C  -1.31700 18.01000 21.97900
C  -0.87500 16.50000 22.14800
C  -1.49700 16.09800 23.48100
C  -2.38700 18.23800 20.77800
C  0.67700 16.20100 22.01100
C  0.89200 14.92100 21.09800
N  -1.90800 15.34600 26.38500
C  -1.75300 14.43100 25.37200
C  -1.79300 13.07400 25.89500
C  -1.93600 13.26500 27.26100
C  -2.01400 14.64400 27.52700
C  -1.84900 11.84700 25.05100
C  -2.26100 12.60700 28.48600
O  -2.51000 11.43200 28.65400
C  -2.43800 13.72200 29.56000
C  -1.56700 13.45100 30.67300
O  -0.32200 13.51000 30.67200
O  -2.32000 13.14800 31.76900
C  -1.59500 12.64800 32.90800
H  -3.85000 20.44200 29.35100
H  -2.23800 20.27400 23.00000
H  -1.34600 13.92400 23.34200
H  -3.02400 15.89600 31.21100
H  -2.66700 18.93400 31.30200
H  -5.21300 17.86300 30.18500
H  -4.94900 19.12700 31.45500
H  -4.86800 17.41100 31.87200
H  -0.28100 16.78700 30.76000
H  -1.21200 15.77200 31.93500
H  -1.43500 18.29000 32.90800
H  0.19700 17.93000 32.67200
H  -4.46900 22.21300 28.54400
H  -5.36100 22.64200 27.11100
H  -3.77700 23.41500 27.51700
H  -4.85800 23.96100 25.14200
H  -3.58000 24.60200 24.02500
H  -3.21400 24.11900 25.70500
H  -0.41900 18.59500 21.78300
H  -1.41500 15.88400 21.42800
H  -3.22500 18.63400 21.35300
H  -2.65600 17.37600 20.16800
H  -1.84100 18.94700 20.15700
H  1.18800 16.00000 22.95300
H  1.21900 16.95200 21.43700
H  1.62100 14.23200 21.52400
H  1.18100 14.99300 20.05000
H  -0.03500 14.35000 21.16200
H  -1.94100 10.97500 25.69900
H  -0.84200 11.82700 24.63300
H  -2.58100 11.94100 24.24900
H  -3.48100 13.65400 29.87000
H  -1.61800 13.42500 33.67200
H  -0.57000 12.34700 32.69400
H  -2.04200 11.75100 33.33700
Mg 36.44800 0.51000 30.16000
C  34.59400 1.85100 32.71000
C  39.13800 0.33100 32.11200
C  38.12400 -0.55600 27.35300
C  33.54200 0.78300 28.09100
N  36.71300 0.99400 32.15400
C  35.85100 1.42700 33.04000
C  36.50300 1.69900 34.37900
C  38.08400 1.71600 34.00800
C  37.98100 0.92900 32.72200
C  38.80500 3.04800 34.10100
C  36.08400 0.51900 35.36200
C  35.37900 0.90100 36.68700
H  35.83900 2.09900 37.45200
N  38.29400 -0.17100 29.83400
C  39.22000 -0.30900 30.83800
C  40.37600 -0.98100 30.31800
C  40.15300 -1.06400 28.90900
C  38.79400 -0.61300 28.61500
C  41.54700 -1.33900 31.23000
C  41.19000 -1.57300 27.92500
O  41.02200 -1.55600 26.66700
C  42.54400 -2.00400 28.23800
N  35.89700 0.33900 28.00700
C  36.83100 -0.02500 27.09700
C  36.23800 -0.19200 25.68100
C  34.70600 0.08000 26.00800
C  34.69800 0.48000 27.45900
C  36.89600 0.75800 24.65200
C  33.82000 -1.17400 25.77900
C  33.78600 -1.94400 24.41800
N  34.50000 1.38600 30.23700
C  33.43900 1.40400 29.37400
C  32.37300 2.12200 29.98400
C  32.72400 2.23200 31.31900
C  34.06700 1.79100 31.38600
C  31.03800 2.39800 29.34000
C  32.35400 2.66100 32.56800
O  31.28900 3.19700 32.92300
C  33.45100 2.37400 33.53600
C  33.76500 3.69900 34.19300
O  34.29200 4.71200 33.71400
O  33.04300 3.67000 35.40100
C  33.02300 4.98800 36.04500
H  39.99000 0.21900 32.78600
H  38.68900 -1.02400 26.54400
H  32.60700 0.66600 27.53900
H  36.16700 2.63100 34.83400
H  38.64000 1.16300 34.76500
H  39.66700 3.00200 34.76800
H  38.14000 3.76800 34.57800
H  38.96500 3.41500 33.08700
H  36.88600 -0.21000 35.47200
H  35.28400 -0.09200 34.94500
H  35.51400 -0.00100 37.28300
H  34.30100 1.02000 36.57500
H  41.86300 -2.38300 31.22300
H  41.56900 -0.92300 32.23700
H  42.37400 -0.87100 30.69600
H  42.51900 -2.88400 28.88000
H  42.97100 -1.16800 28.79100
H  43.22500 -2.26700 27.42800
H  36.41400 -1.23100 25.40400
H  34.36400 0.92300 25.40800
H  37.94100 0.97300 24.87400
H  36.38000 1.71500 24.57100
H  36.80400 0.21200 23.71300
H  32.80100 -0.79500 25.85900
H  33.96900 -1.87900 26.59700
H  33.98700 -2.97000 24.72600
H  34.39300 -1.43200 23.67100
H  32.77600 -2.06700 24.02800
H  30.90200 1.89400 28.38300
H  31.01300 3.47000 29.14600
H  30.25000 2.10700 30.03500
H  33.17700 1.74900 34.38600
H  32.43700 5.67100 35.43000
H  34.06300 5.31400 36.07700
H  32.72800 4.98100 37.09500

