158

Mg 27.04200 51.64300 26.03200
C  24.70400 52.76100 28.68000
C  29.14900 50.65800 28.52800
C  29.03500 50.85300 23.67300
C  24.58600 53.00600 23.74500
N  26.91400 51.76700 28.39900
C  25.82500 52.02300 29.19000
C  26.14200 51.56300 30.59900
C  27.70000 51.30000 30.56000
C  27.94600 51.21600 29.05900
C  28.63300 52.32500 31.13200
C  25.23400 50.31600 31.11100
C  24.67400 50.48000 32.49300
H  25.24900 51.38200 33.59600
N  28.86000 50.84200 26.10500
C  29.59500 50.51900 27.21200
C  30.91500 49.90900 26.75700
C  30.87400 49.93300 25.30000
C  29.59400 50.57100 24.94700
C  31.94700 49.38100 27.74300
C  31.91700 49.55500 24.26800
O  31.69200 49.70900 23.06900
C  33.18400 48.92900 24.75800
N  26.79300 51.83100 24.01800
C  27.80300 51.34700 23.24300
C  27.46200 51.48000 21.79000
C  25.98300 52.09000 21.82600
C  25.78400 52.35000 23.29400
C  28.48200 52.44200 21.10200
C  24.81000 51.28200 21.22100
C  24.37400 50.07800 22.02500
N  25.11000 52.72800 26.09000
C  24.28600 53.13600 25.07900
C  23.07700 53.75600 25.69700
C  23.25300 53.67200 27.07600
C  24.46600 52.97600 27.27700
C  21.96000 54.39500 24.88200
C  22.73500 54.00700 28.38500
O  21.77400 54.69900 28.74500
C  23.56300 53.21900 29.48300
C  23.89500 54.23700 30.53200
O  24.82400 55.04400 30.60100
O  22.92500 54.27400 31.45500
C  23.24400 55.06500 32.65300
H  29.86700 50.23100 29.23200
H  29.59800 50.58500 22.77700
H  23.84800 53.38400 23.03400
H  25.97800 52.44800 31.21400
H  27.90300 50.32100 30.99500
H  29.06000 52.81400 30.25700
H  29.46700 51.94300 31.72200
H  28.10500 53.00800 31.79800
H  25.86100 49.44200 30.93200
H  24.42300 50.23300 30.38700
H  24.50600 49.51700 32.97400
H  23.73800 51.00500 32.29700
H  32.50000 50.24100 28.11900
H  32.60600 48.56900 27.43400
H  31.50400 48.91800 28.62500
H  33.68200 48.52400 23.87800
H  33.04000 48.12200 25.47600
H  33.84600 49.68000 25.18900
H  27.44500 50.47200 21.37500
H  26.08300 53.09000 21.40600
H  29.17100 52.80900 21.86300
H  27.98100 53.30800 20.66900
H  29.03400 51.86400 20.36100
H  25.11700 50.98400 20.21900
H  23.93600 51.92500 21.11500
H  25.02800 49.25400 21.74000
H  23.32400 49.95700 21.76000
H  24.40800 50.10400 23.11500
H  22.20700 54.64100 23.84900
H  21.62000 55.36600 25.24400
H  21.11200 53.72100 24.75700
H  22.97300 52.40500 29.90400
H  22.42400 54.96100 33.36300
H  23.34200 56.09800 32.31900
H  24.12500 54.70800 33.18600
Mg 17.09700 53.14900 25.91600
C  19.10100 51.61100 28.34900
C  14.88100 54.11500 28.47900
C  15.09500 54.32200 23.60900
C  19.31900 51.86100 23.55100
N  17.03500 52.83300 28.16300
C  18.06700 52.32100 28.93700
C  17.83200 52.64700 30.40900
C  16.33300 53.18400 30.40800
C  16.05500 53.44500 28.91200
C  15.24400 52.15400 30.98400
C  18.89900 53.50100 31.00700
C  18.82900 53.53500 32.51300
H  17.95300 52.59900 33.32800
N  15.27700 54.12700 25.93300
C  14.47600 54.32400 27.06500
C  13.32600 55.04500 26.60800
C  13.38700 55.14500 25.19400
C  14.63000 54.52800 24.87300
C  12.31900 55.57700 27.57500
C  12.48000 55.87500 24.23100
O  12.69400 55.92300 23.01000
C  11.20600 56.59600 24.75200
N  17.20000 53.11000 23.84800
C  16.19800 53.63100 23.11800
C  16.46900 53.39000 21.58100
C  18.02500 52.96200 21.63000
C  18.20400 52.59700 23.09500
C  15.58000 52.41100 20.86400
C  18.99600 54.11200 21.14700
C  20.33300 53.59600 20.45900
N  18.75000 51.84800 25.88200
C  19.59100 51.46000 24.82600
C  20.76500 50.67200 25.27200
C  20.52700 50.65300 26.64500
C  19.34900 51.40700 26.96800
C  21.82500 50.10000 24.45600
C  21.16900 50.15800 27.89100
O  22.21700 49.51900 28.09500
C  20.23700 50.88300 29.00000
C  19.87700 49.71600 29.82100
O  19.25600 48.76300 29.41700
O  20.28700 49.89400 31.13100
C  19.73200 48.82300 32.02400
H  14.12600 54.31400 29.24200
H  14.39000 54.44600 22.78500
H  20.01900 51.58500 22.76000
H  17.81300 51.70400 30.95400
H  16.31500 54.12700 30.95300
H  14.97300 52.46600 31.99300
H  15.69700 51.17100 31.11500
H  14.33300 52.12300 30.38700
H  18.82500 54.55200 30.72600
H  19.92800 53.33100 30.69000
H  18.75900 54.57200 32.84200
H  19.81500 53.25200 32.88200
H  11.33300 55.28200 27.21600
H  12.51300 56.64600 27.65800
H  12.29700 55.18300 28.59100
H  10.86100 57.39400 24.09400
H  11.40000 57.25200 25.60100
H  10.33200 55.94600 24.74500
H  16.27800 54.34400 21.09000
H  18.42600 52.03900 21.21100
H  15.05300 51.75800 21.56000
H  16.22900 51.82500 20.21300
H  14.83000 52.94100 20.27600
H  19.24100 54.72600 22.01400
H  18.38200 54.71100 20.47600
H  20.14500 53.92500 19.43800
H  20.39400 52.50900 20.52600
H  21.12800 54.15000 20.95900
H  21.57200 50.07000 23.39600
H  21.88900 49.12300 24.93500
H  22.76700 50.64400 24.52600
H  20.84800 51.60500 29.54200
H  19.99100 47.81700 31.69200
H  18.65400 48.85800 32.17900
H  20.22300 48.75900 32.99500

