158

Mg -1.24400 17.61300 26.87300
C  -1.92400 15.35000 29.54200
C  -2.38100 20.08800 29.01300
C  -1.10400 19.74700 24.31000
C  -0.90100 14.97000 24.85600
N  -1.88200 17.70900 29.06400
C  -1.95400 16.68600 30.00800
C  -2.43700 17.22700 31.42000
C  -2.78900 18.75900 31.07000
C  -2.30400 18.84800 29.62800
C  -4.26600 19.08800 31.26500
C  -1.37900 17.01900 32.57000
C  -1.82300 16.32400 33.85100
H  -0.79100 16.15500 34.93700
N  -1.57400 19.64800 26.73900
C  -1.98100 20.50600 27.69100
C  -1.92900 21.81400 27.16800
C  -1.54700 21.70200 25.78200
C  -1.36400 20.29700 25.56500
C  -2.29300 23.13800 27.96700
C  -1.27900 22.83900 24.77300
O  -0.99000 22.69800 23.57900
C  -1.43000 24.29200 25.23200
N  -0.93200 17.47800 24.83400
C  -0.80600 18.40500 23.92100
C  -0.61400 17.91200 22.48400
C  -0.33700 16.37700 22.80600
C  -0.69900 16.26600 24.30900
C  -1.71700 18.29200 21.47100
C  1.13600 15.87000 22.56200
C  1.30400 14.39500 22.45300
N  -1.28700 15.58000 27.14600
C  -1.20300 14.61300 26.17800
C  -1.53400 13.29400 26.68500
C  -1.69400 13.51600 28.09700
C  -1.61500 14.91500 28.29400
C  -1.69400 12.09300 25.96700
C  -2.04300 12.97200 29.36800
O  -2.21500 11.83300 29.69200
C  -2.04000 14.11800 30.37900
C  -0.84500 13.91700 31.27300
O  0.30000 14.24200 30.92400
O  -1.24600 13.48700 32.51700
C  -0.14600 13.26200 33.52100
H  -2.83000 20.92100 29.55800
H  -0.99100 20.42100 23.45800
H  -0.79500 14.19000 24.09900
H  -3.29700 16.57800 31.58200
H  -2.27000 19.41600 31.76800
H  -4.82000 18.24700 31.68200
H  -4.77000 19.34100 30.33200
H  -4.42500 19.92800 31.94100
H  -1.01700 18.01100 32.83800
H  -0.52700 16.39700 32.29400
H  -2.31600 15.36800 33.67400
H  -2.56800 16.99900 34.27200
H  -2.91800 23.73900 27.30700
H  -1.39000 23.71400 28.16500
H  -2.80400 22.88600 28.89600
H  -1.19400 24.91600 24.37100
H  -0.77200 24.54200 26.06400
H  -2.48100 24.54200 25.38100
H  0.32800 18.31000 22.10700
H  -1.05200 15.83700 22.18500
H  -2.28700 19.10200 21.92600
H  -2.31800 17.40200 21.28300
H  -1.32500 18.61700 20.50700
H  1.63100 16.08400 23.51000
H  1.58300 16.50000 21.79400
H  1.95900 14.27700 21.59000
H  0.41300 13.79200 22.27900
H  1.89000 13.97300 23.26900
H  -1.76800 12.36500 24.91400
H  -2.59500 11.54700 26.24600
H  -0.78900 11.50000 26.09600
H  -2.99800 14.14200 30.89900
H  0.51200 12.43100 33.26900
H  -0.56500 12.94500 34.47600
H  0.45900 14.16800 33.57200
Mg -1.77800 34.75100 27.21300
C  -3.67800 33.01300 29.63200
C  -0.84200 36.83300 29.80100
C  -0.19300 36.62600 24.96600
C  -3.31300 32.86600 24.67500
N  -2.27500 34.92500 29.53100
C  -3.02100 34.07000 30.27700
C  -2.85300 34.27000 31.78100
C  -2.02400 35.61000 31.72100
C  -1.62600 35.81800 30.26100
C  -2.72900 36.85500 32.31400
C  -2.17000 33.05800 32.39300
C  -1.15900 33.12800 33.54700
H  -1.48000 32.63500 34.92200
N  -0.61700 36.50500 27.39400
C  -0.32100 37.17400 28.47800
C  0.64400 38.25200 28.20100
C  0.85400 38.23800 26.77100
C  -0.01600 37.10700 26.34200
C  1.16300 39.22900 29.27300
C  1.61900 39.08000 25.87900
O  1.60900 38.97700 24.62600
C  2.48500 40.17000 26.50200
N  -1.73200 34.76400 25.12800
C  -0.99600 35.60500 24.44100
C  -1.00500 35.33600 22.88300
C  -1.85700 34.02600 22.85800
C  -2.35600 33.83400 24.30400
C  -1.49200 36.55500 21.99500
C  -1.21300 32.79000 22.24400
C  0.08900 32.33500 22.80400
N  -3.13300 33.21400 27.10300
C  -3.68100 32.60100 26.03100
C  -4.38800 31.42100 26.50900
C  -4.44300 31.58800 27.89800
C  -3.71400 32.73800 28.23300
C  -5.06200 30.37400 25.52800
C  -4.99900 31.07300 29.14200
O  -5.75900 30.12700 29.27300
C  -4.52000 31.96200 30.27600
C  -5.76600 32.45400 30.84600
O  -6.56100 33.30200 30.37900
O  -5.99200 31.91600 32.04400
C  -7.05500 32.22600 33.01400
H  -0.41000 37.49800 30.55100
H  0.30100 37.32100 24.28400
H  -3.85500 32.33400 23.89100
H  -3.89200 34.36300 32.09800
H  -1.05000 35.57600 32.21100
H  -2.88200 37.63700 31.57000
H  -2.13500 37.29500 33.11500
H  -3.69500 36.74500 32.80700
H  -1.62600 32.56400 31.58800
H  -2.97600 32.45000 32.80300
H  -1.08300 34.19000 33.78000
H  -0.19300 32.68700 33.30100
H  0.65600 39.05000 30.22100
H  0.98800 40.26300 28.97700
H  2.22900 39.07500 29.44000
H  3.19600 39.55900 27.05900
H  1.90900 40.94300 27.01000
H  3.03500 40.65500 25.69500
H  -0.01600 35.09200 22.49500
H  -2.62400 34.28900 22.12900
H  -1.63300 37.38100 22.69200
H  -2.43100 36.62100 21.44700
H  -0.70700 36.82800 21.28900
H  -1.15100 33.00900 21.17800
H  -1.95000 31.99600 22.36600
H  0.02500 31.37100 23.30900
H  0.55500 32.94600 23.57700
H  0.78100 32.28700 21.96200
H  -5.52200 29.56900 26.10100
H  -4.36200 29.99400 24.78400
H  -5.85000 30.78400 24.89700
H  -4.00300 31.28400 30.95500
H  -7.89100 32.86300 32.72500
H  -6.64100 32.70200 33.90300
H  -7.41100 31.29600 33.45500

