158

Mg 1.57200 -1.25100 44.18200
C  5.10300 -0.60200 43.56800
C  0.86600 1.64000 42.48000
C  -1.59000 -2.12700 44.27200
C  2.64500 -4.42900 45.40100
N  2.82600 0.22200 43.04800
C  4.20600 0.35000 42.99700
C  4.64200 1.58700 42.13800
C  3.34600 2.36500 42.03000
C  2.28900 1.37300 42.53400
C  3.23600 3.76200 42.80700
C  5.34900 1.20200 40.78300
C  6.77600 1.81900 40.48500
H  6.72300 2.66600 39.24800
N  -0.11500 -0.34400 43.53100
C  -0.22300 0.81800 42.78600
C  -1.65200 1.06500 42.54000
C  -2.33500 -0.02300 43.11100
C  -1.34900 -0.91600 43.64300
C  -2.22000 2.28800 41.76100
C  -3.84800 -0.22100 43.11400
O  -4.46000 0.77400 42.72000
C  -4.58900 -1.30300 43.84700
N  0.68700 -3.05200 44.69500
C  -0.66300 -3.03000 44.83300
C  -1.19600 -4.38800 45.34100
C  0.17600 -5.12300 45.75500
C  1.26700 -4.16400 45.21400
C  -2.35400 -4.32700 46.32400
C  0.43800 -6.49000 45.21600
C  -0.75500 -7.49200 45.03000
N  3.44600 -2.28300 44.51700
C  3.70200 -3.58600 45.06700
C  5.14700 -3.81500 45.11600
C  5.71800 -2.64700 44.56000
C  4.67100 -1.75400 44.20100
C  5.87300 -5.09600 45.47800
C  6.95600 -2.06200 44.11200
O  8.05900 -2.53600 44.08900
C  6.62300 -0.67600 43.46400
C  7.25500 0.34400 44.27700
O  7.00600 0.68400 45.39800
O  8.38100 0.81200 43.66700
C  9.21800 1.84300 44.26800
H  0.50700 2.60400 42.11400
H  -2.58800 -2.57100 44.29600
H  2.90500 -5.32400 45.97100
H  5.24200 2.25400 42.75700
H  3.17000 2.76700 41.03300
H  3.92700 3.56400 43.62600
H  2.37900 4.02600 43.42600
H  3.52100 4.63100 42.21400
H  4.68900 1.57400 39.99900
H  5.44300 0.11900 40.71000
H  7.45500 0.97000 40.41200
H  7.02000 2.43000 41.35400
H  -2.88900 1.90300 40.99200
H  -1.45800 2.97200 41.38700
H  -2.86000 2.81600 42.46800
H  -5.65200 -1.06200 43.85200
H  -4.13900 -1.32800 44.84000
H  -4.42600 -2.26200 43.35500
H  -1.49000 -4.85900 44.40300
H  0.29100 -5.13300 46.83900
H  -1.99600 -4.51200 47.33600
H  -3.09800 -5.08300 46.07100
H  -2.79000 -3.32900 46.29600
H  1.17300 -7.04500 45.79900
H  0.84600 -6.32100 44.22000
H  -1.57600 -7.31600 45.72600
H  -0.46000 -8.53900 45.09100
H  -1.09800 -7.47900 43.99600
H  5.97700 -5.86800 44.71600
H  5.33400 -5.42900 46.36500
H  6.82900 -4.80700 45.91600
H  6.94200 -0.67800 42.42200
H  9.89800 2.39600 43.62000
H  9.82700 1.36400 45.03500
H  8.68300 2.68400 44.70900
Mg 16.11200 52.45300 25.46600
C  18.28400 51.51500 27.92500
C  13.79200 53.31300 27.73900
C  13.92200 53.42500 22.94600
C  18.35500 51.40600 23.07700
N  16.08600 52.44500 27.63500
C  17.10500 51.99500 28.44500
C  16.70800 52.25200 29.99500
C  15.19000 52.69900 29.85600
C  15.02100 52.86600 28.34700
C  14.15200 51.72100 30.43700
C  17.57700 53.35600 30.70300
C  17.61500 53.38400 32.26300
H  16.67200 52.57800 33.18100
N  14.17300 53.43000 25.35200
C  13.32500 53.63500 26.41100
C  12.13000 54.25400 25.97200
C  12.21000 54.34200 24.54400
C  13.52100 53.82000 24.19400
C  10.93400 54.66900 26.90300
C  11.11400 54.71000 23.51100
O  11.27900 54.67700 22.28100
C  9.68500 55.03200 24.00200
N  16.16600 52.59600 23.30900
C  15.14100 52.89000 22.56200
C  15.48700 52.55800 21.06200
C  16.88200 52.03400 21.11900
C  17.17900 51.99100 22.60100
C  14.44500 51.62200 20.31700
C  17.97700 52.81400 20.30100
C  18.65500 51.99300 19.18000
N  17.97700 51.72800 25.40500
C  18.78200 51.41300 24.35500
C  19.94100 50.77100 24.86900
C  19.84500 50.85400 26.22000
C  18.62800 51.46500 26.52400
C  21.00600 50.02600 24.10200
C  20.44500 50.36100 27.46100
O  21.42000 49.63800 27.64400
C  19.54400 50.92700 28.60500
C  19.22100 49.83600 29.56900
O  18.68700 48.79400 29.42000
O  19.70800 50.16000 30.76600
C  19.42400 49.29900 31.94800
H  13.12800 53.58200 28.56400
H  13.42300 53.86800 22.08200
H  18.73700 50.82500 22.23500
H  16.81800 51.29900 30.51300
H  15.06900 53.67600 30.32400
H  14.67900 50.81500 30.73500
H  13.52300 51.38800 29.61200
H  13.61800 52.04200 31.33100
H  17.17800 54.31800 30.38200
H  18.61800 53.31100 30.38300
H  17.70200 54.39000 32.67200
H  18.56500 52.85100 32.29600
H  10.05800 54.02100 26.90200
H  10.54700 55.67900 26.77000
H  11.39800 54.64100 27.88900
H  9.06400 54.95800 23.10900
H  9.83400 56.04700 24.36900
H  9.32900 54.36700 24.78900
H  15.42500 53.52900 20.57200
H  16.94300 50.99500 20.79400
H  14.85400 50.76800 19.77600
H  13.83900 52.14000 19.57400
H  13.81900 51.19900 21.10300
H  18.76100 53.15300 20.97800
H  17.49800 53.71800 19.92600
H  18.79000 52.51500 18.23200
H  18.06800 51.11700 18.90100
H  19.64400 51.66700 19.50000
H  21.46800 50.81100 23.50300
H  20.53300 49.34100 23.39800
H  21.69900 49.52700 24.77900
H  20.11700 51.75100 29.02900
H  18.34400 49.18100 32.04400
H  19.96500 49.74200 32.78400
H  19.82500 48.28900 31.86700

