158

Mg -0.35000 8.32800 25.92300
C  0.66900 10.12000 28.74200
C  -0.18700 5.53900 27.91300
C  -0.39000 6.47400 23.15100
C  0.21200 11.10700 24.07500
N  0.27700 7.92100 28.13600
C  0.47700 8.80200 29.08400
C  0.51800 8.12800 30.51900
C  0.48100 6.60200 30.17400
C  0.06000 6.65300 28.69800
C  1.75100 5.89500 30.51700
C  -0.70600 8.72400 31.40400
C  -0.26900 9.26800 32.77700
H  -0.83200 8.49100 33.96500
N  -0.42700 6.32200 25.61500
C  -0.46700 5.34900 26.57000
C  -0.59500 4.05100 25.92700
C  -0.53900 4.25000 24.55000
C  -0.40100 5.70000 24.36900
C  -0.81500 2.81000 26.73800
C  -0.76400 3.36500 23.42500
O  -0.83100 3.70700 22.28300
C  -0.84000 1.90400 23.67900
N  -0.19400 8.74500 23.91300
C  -0.26900 7.83100 22.96000
C  -0.45100 8.56500 21.52800
C  -0.39300 10.06300 21.80800
C  -0.10900 10.00700 23.32200
C  0.49700 8.14600 20.36200
C  -1.65600 10.82800 21.33400
C  -2.91200 10.99000 22.26400
N  0.17300 10.20200 26.27000
C  0.40600 11.23300 25.36600
C  0.67700 12.44400 26.08700
C  0.81900 12.03400 27.38400
C  0.52400 10.67900 27.47300
C  0.90500 13.74800 25.50500
C  1.14300 12.53600 28.71700
O  1.48600 13.64100 29.08700
C  0.90600 11.23300 29.63400
C  2.15100 11.14900 30.40500
O  3.28300 10.88200 30.03600
O  1.83100 11.58600 31.65600
C  2.96000 11.82600 32.56500
H  -0.12700 4.59500 28.45800
H  -0.33900 5.89000 22.23000
H  0.46400 11.90000 23.36700
H  1.45600 8.57000 30.85500
H  -0.35700 6.16200 30.71400
H  2.16500 6.36000 31.41200
H  2.47200 6.04200 29.71200
H  1.59100 4.83700 30.72100
H  -1.49300 7.99300 31.58500
H  -1.18000 9.54000 30.85900
H  -0.51000 10.32600 32.88100
H  0.79200 9.02400 32.81800
H  -1.78400 2.50200 26.34500
H  -1.03900 2.99200 27.78900
H  -0.01400 2.08400 26.59900
H  -1.64600 1.70900 24.38600
H  0.05900 1.49200 24.13800
H  -1.05600 1.32300 22.78200
H  -1.42000 8.21600 21.17000
H  0.50800 10.49600 21.37300
H  0.67900 8.87900 19.57600
H  0.09400 7.27100 19.85400
H  1.42000 7.89600 20.88500
H  -2.06800 10.27000 20.49300
H  -1.27800 11.82900 21.12400
H  -3.04100 12.05000 22.48300
H  -2.82300 10.46900 23.21700
H  -3.84900 10.68600 21.79600
H  1.33100 14.51600 26.14900
H  -0.06700 13.99500 25.07700
H  1.52400 13.58100 24.62400
H  -0.00300 11.32400 30.22900
H  3.48200 12.66400 32.10400
H  3.67100 11.00000 32.56600
H  2.75600 12.14000 33.58900
Mg 17.69000 51.39900 26.38300
C  19.63200 49.92500 28.83600
C  15.44200 52.10400 28.76700
C  15.58700 52.45400 23.87000
C  19.79300 50.01200 23.94500
N  17.56500 51.10100 28.55500
C  18.52500 50.52600 29.39600
C  18.08300 50.56100 30.83000
C  16.47600 50.74500 30.66700
C  16.45900 51.34100 29.27600
C  15.57400 49.43600 30.72100
C  18.73500 51.75000 31.53900
C  19.02400 51.46800 33.01800
H  17.81800 50.82400 33.87700
N  15.81900 52.32600 26.34600
C  15.11700 52.60800 27.46800
C  13.92600 53.34800 27.05300
C  13.84900 53.31200 25.60200
C  15.09400 52.67500 25.21100
C  13.02600 54.01000 28.11700
C  12.70600 53.86900 24.74000
O  12.90800 53.85600 23.52300
C  11.49800 54.54000 25.28800
N  17.61000 51.17000 24.21400
C  16.71800 51.80300 23.42600
C  17.32800 52.02900 22.02200
C  18.72700 51.36000 22.07700
C  18.72900 50.80200 23.52100
C  16.46100 51.57400 20.83300
C  19.96900 52.41000 21.93200
C  21.29900 51.77100 21.39000
N  19.35000 50.17400 26.31300
C  20.11300 49.69900 25.23000
C  21.18300 48.83400 25.74100
C  21.08400 48.94400 27.15500
C  19.98200 49.75300 27.47800
C  22.25100 48.22900 24.93500
C  21.63200 48.48100 28.45500
O  22.55400 47.68700 28.72300
C  20.75400 49.18500 29.55700
C  20.21800 48.16500 30.47600
O  19.39000 47.33300 30.27600
O  20.85400 48.24200 31.71100
C  20.65600 47.16900 32.67700
H  14.63500 52.30300 29.47600
H  15.05600 52.96900 23.06700
H  20.48800 49.76500 23.14000
H  18.22100 49.63000 31.37900
H  16.12700 51.56200 31.29800
H  14.85100 49.31700 29.91400
H  14.89300 49.56000 31.56300
H  16.21600 48.57000 30.88000
H  18.11500 52.63400 31.39200
H  19.69300 51.94200 31.05700
H  19.18400 52.49000 33.36400
H  19.92100 50.85000 33.06200
H  13.48900 54.08200 29.10100
H  12.23100 53.28200 28.27600
H  12.67400 54.97200 27.74600
H  10.80600 54.53700 24.44600
H  11.69500 55.51800 25.72500
H  10.96400 53.96800 26.04700
H  17.37700 53.10900 21.88100
H  18.77400 50.61500 21.28200
H  16.59400 50.50000 20.70400
H  16.75000 52.14000 19.94800
H  15.40600 51.69600 21.07900
H  20.08800 53.00700 22.83700
H  19.84200 53.17400 21.16500
H  21.32000 50.69000 21.52800
H  22.17200 52.13900 21.92900
H  21.57200 51.95000 20.35000
H  22.00800 47.27000 24.47700
H  23.13000 48.18500 25.57900
H  22.34700 48.93000 24.10600
H  21.37000 49.90300 30.09800
H  20.44500 46.23000 32.16400
H  19.80600 47.46900 33.28900
H  21.52200 47.14500 33.33900

