158

Mg 42.09900 41.36900 26.91600
C  41.23700 43.89600 29.11200
C  42.92200 39.54500 29.64500
C  43.32200 39.03500 24.85200
C  42.19800 43.68400 24.31300
N  41.99400 41.65400 29.10500
C  41.44000 42.71800 29.78500
C  41.31900 42.40400 31.31600
C  42.17000 41.18100 31.49600
C  42.43800 40.74400 29.98400
C  43.54600 41.34900 32.19300
C  39.88400 42.52800 31.82800
C  39.37700 41.66000 33.03100
H  38.70700 42.31100 34.24100
N  42.76900 39.45600 27.19600
C  43.03700 38.90000 28.39500
C  43.62100 37.55200 28.28800
C  43.66100 37.37400 26.87100
C  43.24600 38.64900 26.21500
C  44.07200 36.65300 29.47200
C  43.93100 36.13100 26.07500
O  43.99500 36.05700 24.84900
C  44.20600 34.92800 26.88100
N  42.64900 41.32500 24.85200
C  43.02300 40.20900 24.21900
C  42.97800 40.42100 22.61200
C  42.69800 41.97100 22.51600
C  42.50700 42.38900 23.98800
C  44.21700 39.95700 21.89900
C  41.61000 42.37100 21.58800
C  41.80500 43.70000 20.95300
N  41.75000 43.41400 26.71700
C  41.79100 44.19600 25.60000
C  41.48800 45.54000 25.96300
C  41.18600 45.48200 27.33300
C  41.44000 44.16700 27.73100
C  41.31200 46.59600 24.91500
C  40.70600 46.23600 28.43700
O  40.34600 47.40200 28.54900
C  40.78900 45.20800 29.70200
C  41.77600 45.76000 30.68100
O  42.99800 45.75700 30.61700
O  41.17000 46.27200 31.80100
C  41.98300 46.73600 32.95300
H  43.15300 38.94800 30.52900
H  43.74000 38.27500 24.19000
H  42.37500 44.40000 23.50800
H  41.90700 43.26100 31.64500
H  41.56100 40.53000 32.12200
H  44.41300 41.37700 31.53300
H  43.67600 40.62600 32.99900
H  43.58400 42.28600 32.74900
H  39.29900 42.19700 30.96900
H  39.74200 43.60500 31.92400
H  40.16500 41.09300 33.52900
H  38.90300 40.85100 32.47600
H  43.76300 35.60900 29.41800
H  43.68900 36.87000 30.46900
H  45.16200 36.64800 29.46100
H  44.93200 35.09700 27.67600
H  44.53700 34.06200 26.30800
H  43.34800 34.74500 27.52800
H  42.07900 39.93100 22.23700
H  43.64400 42.41400 22.20500
H  44.79900 40.71300 21.37200
H  44.12800 39.06700 21.27600
H  44.91400 39.59600 22.65500
H  40.62000 42.37000 22.04400
H  41.67700 41.68300 20.74500
H  41.48800 43.49400 19.93000
H  42.82500 44.05800 20.81200
H  41.19700 44.45200 21.45600
H  40.74800 46.18100 24.07900
H  42.33000 46.87500 24.64200
H  40.76900 47.44300 25.33400
H  39.82400 45.13000 30.20300
H  41.44000 47.62600 33.27200
H  43.01600 47.01300 32.74600
H  41.87800 46.02600 33.77400
Mg -1.37900 34.31800 27.98500
C  -3.02900 32.24300 30.14200
C  -0.09100 36.08500 30.58000
C  0.02600 36.48900 25.73500
C  -3.09300 32.74600 25.30300
N  -1.58900 34.17500 30.06000
C  -2.29300 33.20200 30.84000
C  -2.01900 33.38100 32.35800
C  -1.32600 34.79300 32.42900
C  -0.93400 35.00600 30.94600
C  -2.25200 35.99300 32.84200
C  -1.11500 32.19000 32.98000
C  -1.78100 31.57300 34.15100
H  -0.98300 31.66900 35.43700
N  -0.14100 35.99000 28.12000
C  0.27100 36.57100 29.29200
C  1.29800 37.65400 29.02000
C  1.40900 37.69100 27.61700
C  0.42600 36.67800 27.07200
C  2.02200 38.46400 30.14900
C  2.34100 38.69400 26.83100
O  2.45100 38.58500 25.57700
C  3.19500 39.67000 27.47300
N  -1.67400 34.62900 25.89200
C  -1.06900 35.64800 25.24900
C  -1.49600 35.71600 23.74300
C  -1.88700 34.21100 23.55200
C  -2.23500 33.78900 24.97300
C  -2.71300 36.65800 23.55700
C  -0.67800 33.40800 22.99400
C  -0.96100 31.96700 22.39400
N  -2.78600 32.86000 27.71200
C  -3.36500 32.28600 26.61200
C  -4.05900 31.06400 26.96000
C  -3.95300 30.98300 28.34700
C  -3.22600 32.09400 28.80400
C  -4.84100 30.18600 26.08100
C  -4.29500 30.24500 29.50800
O  -5.08000 29.31300 29.70800
C  -3.56300 30.96100 30.71800
C  -4.72300 31.17000 31.71100
O  -5.54300 32.03600 31.73600
O  -4.60300 30.13700 32.66800
C  -5.77600 30.05200 33.49900
H  0.38700 36.61600 31.40600
H  0.47700 37.18400 25.02400
H  -3.44500 32.20600 24.42200
H  -2.98500 33.41500 32.86100
H  -0.44900 34.78000 33.07500
H  -2.43500 36.71800 32.04900
H  -1.77500 36.40600 33.73100
H  -3.25800 35.69000 33.13300
H  -0.15400 32.61900 33.26600
H  -0.92100 31.44700 32.20600
H  -1.88900 30.53100 33.85300
H  -2.82300 31.84200 34.32500
H  1.53000 38.38900 31.11900
H  1.89600 39.49800 29.83000
H  3.06900 38.16100 30.17000
H  2.63400 40.45500 27.98100
H  3.75300 40.11900 26.65200
H  3.97400 39.32000 28.15100
H  -0.69900 36.08800 23.10000
H  -2.64100 34.02900 22.78600
H  -3.17000 37.00900 24.48200
H  -3.46900 36.21900 22.90600
H  -2.45500 37.56900 23.01500
H  -0.05100 33.20400 23.86100
H  -0.14900 34.05000 22.28900
H  -2.03700 31.84300 22.27300
H  -0.58200 31.29700 23.16400
H  -0.34300 31.84400 21.50400
H  -4.62900 29.19000 26.47000
H  -4.54800 30.23200 25.03300
H  -5.89900 30.35100 26.28800
H  -2.69200 30.43700 31.11200
H  -5.87400 28.97600 33.64500
H  -6.74800 30.28200 33.06100
H  -5.39200 30.58100 34.37100

