158

Mg 30.72600 58.06500 40.56300
C  28.00100 55.86600 39.55800
C  32.86000 55.44500 39.97200
C  33.12500 60.23000 41.05300
C  28.34100 60.73000 40.72100
N  30.38800 55.89500 39.73600
C  29.25300 55.21200 39.45500
C  29.50700 53.73800 39.28100
C  31.07100 53.60500 39.58600
C  31.49200 55.07600 39.83200
C  31.54000 52.66500 40.75800
C  28.95900 53.15600 37.92900
C  29.50900 53.71900 36.58200
H  28.48300 54.23100 35.53600
N  32.71700 57.90200 40.56900
C  33.40200 56.73600 40.23600
C  34.79800 57.07100 40.49500
C  34.90300 58.41500 40.79600
C  33.58800 58.88600 40.87700
C  35.82000 56.01400 40.25700
C  36.21900 59.12100 40.91300
O  37.31000 58.50400 40.72700
C  36.32500 60.53300 41.29600
N  30.73800 60.28000 40.71100
C  31.83600 60.84700 41.14200
C  31.58500 62.31600 41.51100
C  30.05100 62.51800 41.21600
C  29.64400 61.10300 40.90000
C  32.06900 62.72700 42.91800
C  29.62400 63.64000 40.19900
C  29.03900 64.96800 40.86900
N  28.64200 58.29100 40.23100
C  27.83400 59.45900 40.33600
C  26.42600 59.13600 39.99100
C  26.45400 57.72400 39.67900
C  27.83900 57.28300 39.87500
C  25.35400 60.18700 40.09300
C  25.65800 56.57600 39.37500
O  24.44600 56.47700 39.27400
C  26.57200 55.36900 39.28100
C  25.99700 54.36500 40.21200
O  26.37200 54.22300 41.34400
O  25.13500 53.53000 39.60000
C  24.50200 52.46600 40.42500
H  33.55300 54.60800 39.86300
H  33.82400 61.03500 41.28900
H  27.61300 61.49400 40.99900
H  28.98600 53.26400 40.11300
H  31.54000 53.27500 38.66000
H  32.07200 51.76400 40.45000
H  30.60600 52.17600 41.03500
H  31.94300 53.27900 41.56300
H  27.88400 53.33700 37.90900
H  29.20100 52.09400 37.96800
H  30.03100 52.97400 35.98100
H  30.17400 54.54000 36.85000
H  36.28300 55.65100 41.17500
H  36.58200 56.44100 39.60400
H  35.39800 55.14500 39.75200
H  36.13500 60.60700 42.36700
H  35.65400 61.22200 40.78400
H  37.31500 60.91800 41.05200
H  32.12800 62.86400 40.74200
H  29.54400 62.75600 42.15100
H  32.76600 61.96400 43.26600
H  31.24100 62.83100 43.61900
H  32.71900 63.60100 42.88800
H  28.92400 63.13400 39.53400
H  30.37700 63.79000 39.42500
H  29.27100 65.16700 41.91600
H  27.95500 65.08700 40.85600
H  29.50000 65.82100 40.37000
H  25.52500 60.89800 39.28500
H  25.36700 60.76600 41.01600
H  24.41200 59.72400 39.79900
H  26.59300 54.88000 38.30700
H  24.17800 52.82600 41.40100
H  25.25200 51.70000 40.62500
H  23.71500 51.88900 39.93900
Mg 5.32100 54.78900 40.41000
C  4.76200 51.28300 40.30800
C  8.60500 54.08500 39.56200
C  5.74000 57.98700 40.16600
C  1.89900 55.16100 40.99200
N  6.54300 52.92100 39.94100
C  6.05300 51.61100 39.85500
C  7.17900 50.63500 39.42200
C  8.44300 51.51600 39.53000
C  7.84600 52.95200 39.72400
C  9.44900 50.99600 40.56600
C  7.04300 49.91400 38.01200
C  6.15900 50.66500 36.98900
H  6.87900 51.31900 35.85700
N  7.03700 55.90500 39.96300
C  8.27700 55.45500 39.65300
C  9.12400 56.61200 39.49000
C  8.32800 57.79000 39.74400
C  6.92700 57.24100 39.88800
C  10.65900 56.51300 39.25600
C  8.86700 59.17900 39.63200
O  10.06100 59.42000 39.45700
C  7.96600 60.32200 39.82800
N  4.01700 56.39200 40.52200
C  4.43300 57.65300 40.49200
C  3.29100 58.66700 40.80500
C  2.04700 57.72100 40.89400
C  2.69300 56.35100 40.80100
C  3.56300 59.48900 42.07800
C  0.93100 57.74700 39.78700
C  -0.52200 57.78500 40.17100
N  3.58700 53.52700 40.59300
C  2.35700 53.79400 40.96000
C  1.60600 52.57600 41.13600
C  2.51300 51.59600 41.02900
C  3.70700 52.16700 40.64500
C  0.09000 52.46300 41.22200
C  2.77000 50.14400 41.09900
O  2.01700 49.24000 41.37500
C  4.26800 49.96500 40.61800
C  4.08500 49.23500 39.35700
O  3.56500 49.73000 38.35400
O  4.55000 47.92500 39.53700
C  4.29600 46.94000 38.45800
H  9.66000 53.90800 39.34700
H  5.79100 59.07700 40.17100
H  0.84100 55.33000 41.20200
H  7.19800 49.88800 40.21600
H  8.98900 51.51800 38.58700
H  10.46300 50.86300 40.18800
H  9.21100 50.09700 41.13400
H  9.53600 51.74200 41.35600
H  6.61100 48.91900 38.11300
H  7.99700 49.85200 37.48800
H  5.55000 51.45700 37.42500
H  5.46400 49.99200 36.48800
H  11.07300 57.06600 38.41200
H  10.92400 55.46400 39.12700
H  11.04600 56.82900 40.22500
H  8.45100 61.29700 39.77700
H  7.45100 60.24500 40.78600
H  7.32800 60.33400 38.94500
H  3.11900 59.27900 39.92000
H  1.62600 57.61900 41.89400
H  2.72500 59.40100 42.77000
H  3.54900 60.54600 41.81400
H  4.45900 59.25100 42.65100
H  1.06900 56.95200 39.05300
H  1.06900 58.62000 39.15000
H  -0.61400 58.11700 41.20500
H  -1.17100 56.91700 40.05500
H  -0.96700 58.58500 39.57900
H  -0.41300 53.37500 40.90100
H  -0.11100 52.34300 42.28700
H  -0.36900 51.63200 40.68700
H  4.91500 49.54100 41.38600
H  4.51400 47.36900 37.48000
H  3.30600 46.49900 38.34200
H  4.94300 46.09500 38.69300

