158

Mg 25.48400 -0.73000 29.49300
C  27.76000 -0.81200 32.26100
C  22.96400 -0.48600 31.65100
C  23.49400 -0.65400 26.81900
C  28.24300 -1.43300 27.48200
N  25.51700 -0.73500 31.74400
C  26.50900 -0.49600 32.61800
C  25.90700 -0.30700 34.02600
C  24.34600 -0.29800 33.75200
C  24.24700 -0.57300 32.27700
C  23.53600 -1.39500 34.58200
C  26.38600 1.01900 34.71100
C  26.14900 1.07800 36.23900
H  27.33100 1.02600 37.19800
N  23.48400 -0.55400 29.28900
C  22.59900 -0.50000 30.28000
C  21.26500 -0.31500 29.72000
C  21.45300 -0.35600 28.27700
C  22.90200 -0.61500 28.06700
C  20.07900 -0.21300 30.65300
C  20.41700 -0.35500 27.14700
O  20.67500 -0.43700 25.97800
C  18.96700 -0.28300 27.62400
N  25.79600 -1.23300 27.38700
C  24.83400 -0.98000 26.46600
C  25.42200 -0.97500 25.06600
C  26.89600 -1.15600 25.26000
C  27.04200 -1.24800 26.81300
C  24.72800 -2.03600 24.09300
C  27.82100 -0.03700 24.61700
C  29.06800 -0.43100 23.89900
N  27.57100 -1.20400 29.80600
C  28.56000 -1.49900 28.82900
C  29.83700 -1.65100 29.48500
C  29.56300 -1.43700 30.86100
C  28.17300 -1.11200 30.98000
C  31.11100 -1.90600 28.84700
C  30.10900 -1.37400 32.19800
O  31.22900 -1.60500 32.61300
C  28.97400 -0.94400 33.15400
C  28.79900 -1.94200 34.20400
O  28.12600 -3.01700 34.03000
O  29.28700 -1.46000 35.44700
C  28.82500 -2.36500 36.57900
H  22.12300 -0.35700 32.33600
H  22.91500 -0.42300 25.92200
H  28.99400 -1.55200 26.69800
H  26.13200 -1.11600 34.72000
H  23.91200 0.68100 33.95800
H  23.99900 -1.71900 35.51400
H  23.42800 -2.35200 34.07100
H  22.49800 -1.07100 34.66000
H  25.83800 1.89800 34.36900
H  27.43200 1.08900 34.41500
H  25.47000 0.27200 36.51800
H  25.44900 1.89600 36.40500
H  19.22600 0.34000 30.26000
H  20.33500 0.32200 31.56800
H  19.80600 -1.22600 30.94900
H  18.28500 -0.47000 26.79400
H  18.68900 0.61600 28.17400
H  18.93700 -1.08400 28.36300
H  25.24600 -0.02400 24.56200
H  27.17500 -2.16000 24.94200
H  25.49400 -2.77100 23.84400
H  24.24700 -1.66000 23.19000
H  23.93900 -2.69100 24.46300
H  28.18200 0.58100 25.44000
H  27.25700 0.55700 23.89800
H  29.00400 -1.41000 23.42400
H  29.88900 -0.35200 24.61100
H  29.26700 0.27700 23.09400
H  30.96200 -1.80700 27.77200
H  31.46700 -2.91800 29.04500
H  31.89700 -1.24900 29.21900
H  29.24700 -0.01100 33.64700
H  29.22400 -1.94100 37.50100
H  29.25500 -3.36300 36.49300
H  27.75800 -2.58600 36.62300
Mg 15.64900 51.70500 26.05800
C  17.45800 50.62400 28.82400
C  13.06300 52.56900 28.10000
C  13.93000 52.61500 23.30700
C  18.17300 50.41300 23.93900
N  15.32700 51.71300 28.20500
C  16.25000 51.26200 29.15400
C  15.78500 51.66400 30.54800
C  14.22300 51.73300 30.33000
C  14.17200 52.07200 28.77400
C  13.44300 50.38900 30.71000
C  16.42100 52.94000 31.11300
C  16.50000 53.12800 32.64800
H  15.67100 52.15200 33.43200
N  13.73500 52.48200 25.74500
C  12.85200 52.79900 26.75000
C  11.66300 53.39500 26.14800
C  11.88200 53.25600 24.76800
C  13.22300 52.82100 24.51700
C  10.44500 53.91800 26.92100
C  10.92800 53.56200 23.65800
O  11.26800 53.43200 22.49000
C  9.50000 54.02400 24.01700
N  15.91100 51.43000 23.92000
C  15.14200 52.04300 22.99600
C  15.82000 52.06800 21.57100
C  17.00900 51.00500 21.78700
C  17.05700 50.94900 23.30600
C  14.81900 51.72800 20.42100
C  18.29500 51.41300 21.01700
C  18.70800 50.45100 19.87000
N  17.38100 50.62500 26.30600
C  18.35600 50.28700 25.38100
C  19.51600 49.75100 26.03000
C  19.17400 49.86300 27.40900
C  17.91600 50.37500 27.53200
C  20.86100 49.30200 25.45400
C  19.63600 49.56200 28.73900
O  20.68700 49.04800 29.13200
C  18.56100 50.05300 29.73800
C  18.21100 48.92300 30.63900
O  17.60300 47.90300 30.31100
O  18.65400 49.21300 31.94600
C  17.93300 48.49800 33.00800
H  12.25400 52.86200 28.77300
H  13.40500 53.05100 22.45500
H  19.11600 50.20400 23.43000
H  15.94700 50.86700 31.27400
H  13.77200 52.51500 30.94000
H  14.18500 49.60700 30.55200
H  12.51900 50.16100 30.17800
H  13.17100 50.36100 31.76500
H  15.82600 53.79200 30.78300
H  17.39500 53.04000 30.63300
H  16.18500 54.14500 32.87800
H  17.53000 53.06300 32.99800
H  10.08600 54.87900 26.55400
H  10.64900 53.91500 27.99200
H  9.58400 53.27400 26.73700
H  8.92800 53.36400 24.67000
H  8.84800 53.99200 23.14400
H  9.60200 55.08400 24.24900
H  16.18700 53.08900 21.47600
H  16.73800 50.04200 21.35400
H  15.21100 50.87600 19.86600
H  14.59500 52.59800 19.80300
H  13.79800 51.61800 20.78800
H  19.13400 51.80000 21.59500
H  18.05100 52.33100 20.48200
H  18.41900 49.44900 20.18700
H  19.78400 50.44600 19.69900
H  18.19200 50.73500 18.95300
H  20.82100 49.21500 24.36800
H  21.29700 48.36900 25.81100
H  21.54400 50.08600 25.78100
H  19.02000 50.87300 30.29000
H  18.39000 47.54200 33.26400
H  16.87200 48.33900 32.81500
H  17.80400 49.12400 33.89000

