158

Mg 8.76700 2.59700 26.96800
C  9.99700 1.20700 29.95300
C  7.01000 4.91600 29.02100
C  6.85800 3.57400 24.27900
C  10.31200 0.14100 25.09600
N  8.50800 2.98600 29.25800
C  9.16900 2.26000 30.25400
C  8.84500 2.91900 31.59800
C  7.73400 4.05000 31.17300
C  7.70300 3.98600 29.72000
C  6.42900 3.85900 31.96100
C  10.12500 3.44900 32.27800
C  9.87800 4.16500 33.61000
H  10.57700 3.61300 34.80600
N  7.26600 4.04300 26.64700
C  6.66000 4.83300 27.62000
C  5.70900 5.74000 27.04400
C  5.56100 5.34200 25.67700
C  6.60000 4.29300 25.45800
C  5.00600 6.88900 27.79800
C  4.70400 5.91900 24.58200
O  4.69700 5.50200 23.43300
C  3.73600 6.95400 25.03000
N  8.64000 1.99100 24.92100
C  7.78600 2.50100 23.97200
C  7.92600 1.78500 22.66300
C  9.20500 0.86800 22.88400
C  9.43700 1.00600 24.36700
C  6.64100 1.12500 22.26200
C  10.44100 1.16000 21.97000
C  10.50500 0.64000 20.60100
N  9.91700 0.99900 27.40700
C  10.46900 0.13700 26.53600
C  11.17100 -0.82200 27.29400
C  11.09500 -0.40700 28.61000
C  10.31000 0.73800 28.62400
C  11.87000 -2.09000 26.74600
C  11.58700 -0.69900 29.95300
O  12.40200 -1.54500 30.36700
C  10.87200 0.32100 30.88800
C  10.15300 -0.32700 31.98700
O  9.22400 -1.03300 31.77400
O  10.62700 0.03700 33.25200
C  10.02100 -0.59600 34.42600
H  6.52700 5.61900 29.70300
H  6.37300 3.87700 23.34800
H  10.83300 -0.64700 24.54900
H  8.41800 2.21300 32.31100
H  8.14900 5.03600 31.38000
H  6.28100 4.69700 32.64300
H  6.43100 2.95800 32.57400
H  5.61900 3.89000 31.23300
H  10.58300 4.07600 31.51300
H  10.98800 2.79000 32.36700
H  8.80400 4.25400 33.77200
H  10.36800 5.12500 33.44300
H  3.93500 6.68800 27.77600
H  5.34300 7.73500 27.20000
H  5.41700 6.99300 28.80200
H  3.19100 6.32400 25.73400
H  3.07100 7.27700 24.22900
H  4.26300 7.80700 25.45800
H  8.25800 2.61100 22.03400
H  8.83500 -0.14900 22.75500
H  6.08600 1.90800 21.74500
H  6.01800 0.78100 23.08800
H  6.70900 0.29300 21.56200
H  11.41500 0.94900 22.41100
H  10.60600 2.21900 21.77500
H  11.39900 0.07300 20.34000
H  10.46100 1.38500 19.80600
H  9.70300 -0.09100 20.50200
H  11.53600 -2.92500 27.36300
H  12.95000 -2.09800 26.88700
H  11.67200 -2.37900 25.71300
H  11.73000 0.91200 31.20900
H  10.79700 -0.70600 35.18400
H  9.57700 -1.58000 34.26900
H  9.33700 0.14200 34.84400
Mg -10.09900 39.34100 42.59800
C  -8.72000 36.38600 41.52600
C  -7.33100 41.03100 41.28600
C  -11.68700 42.43300 43.14700
C  -13.08000 37.75600 43.42400
N  -8.22400 38.70400 41.36500
C  -7.82800 37.41800 41.24100
C  -6.38200 37.36200 40.68600
C  -5.96800 38.87700 40.85600
C  -7.20600 39.63100 41.21600
C  -4.86600 39.19800 41.93800
C  -6.45400 36.87200 39.15900
C  -5.60400 35.71000 38.89900
H  -4.86500 35.61100 37.57300
N  -9.68600 41.35100 42.23000
C  -8.46700 41.78700 41.72600
C  -8.46700 43.25300 41.64500
C  -9.70700 43.68100 42.20700
C  -10.43600 42.47900 42.56600
C  -7.40400 44.24100 41.03000
C  -10.13100 45.14000 42.22200
O  -9.28700 46.06400 42.06000
C  -11.54200 45.61700 42.34400
N  -12.01900 39.98200 43.30500
C  -12.41700 41.29400 43.45100
C  -13.99100 41.48200 43.77600
C  -14.36400 39.90900 43.98200
C  -13.13400 39.15200 43.46700
C  -14.27000 42.48800 44.95500
C  -15.67600 39.51400 43.35500
C  -16.82800 39.18600 44.33800
N  -10.76600 37.49900 42.60000
C  -11.96100 36.97900 43.06900
C  -11.94600 35.51000 42.85700
C  -10.69700 35.27000 42.23300
C  -10.02400 36.49100 42.13000
C  -13.07600 34.65200 43.13800
C  -9.88000 34.18300 41.77500
O  -10.12000 32.96500 41.73800
C  -8.45700 34.91400 41.36900
C  -7.41600 34.45500 42.31700
O  -7.43000 34.56800 43.54200
O  -6.48800 33.77400 41.60700
C  -5.62100 32.83500 42.36900
H  -6.40600 41.57400 41.07900
H  -12.16300 43.38400 43.39500
H  -13.98000 37.19100 43.67600
H  -5.68000 36.72300 41.22300
H  -5.68900 39.16800 39.84300
H  -4.07800 39.81300 41.50100
H  -4.48100 38.28600 42.39300
H  -5.28400 39.74700 42.78200
H  -5.98200 37.71100 38.64700
H  -7.47700 36.80800 38.78800
H  -6.14900 34.81000 39.18500
H  -4.73500 35.79500 39.55200
H  -6.91200 44.92400 41.72300
H  -7.88900 44.92900 40.33800
H  -6.65200 43.63600 40.52300
H  -11.75400 46.13200 43.28100
H  -12.39900 44.95700 42.20500
H  -11.64700 46.57800 41.84100
H  -14.34000 41.87600 42.82100
H  -14.33200 39.75800 45.06100
H  -13.30900 42.62600 45.44900
H  -15.00800 42.00000 45.59200
H  -14.54300 43.43500 44.49000
H  -15.61900 38.59500 42.77100
H  -15.95400 40.29300 42.64500
H  -17.74800 39.69600 44.05100
H  -16.62300 39.53500 45.35000
H  -17.05700 38.12100 44.28900
H  -13.82100 34.81000 42.35800
H  -13.58000 34.88300 44.07600
H  -12.84400 33.59600 43.00000
H  -8.12700 34.76700 40.34100
H  -5.26100 33.24000 43.31400
H  -4.69500 32.74200 41.80100
H  -6.14100 31.89000 42.52600

