158

Mg 35.09500 1.74100 29.22500
C  32.93400 3.15600 31.65600
C  37.65800 1.95100 31.40500
C  37.14100 0.85600 26.73500
C  32.45100 2.04700 26.96000
N  35.29600 2.65600 31.25500
C  34.24000 2.83200 32.12500
C  34.73700 3.00200 33.55900
C  36.26900 2.81200 33.47000
C  36.43400 2.47700 31.95000
C  37.06900 3.97100 34.00200
C  33.91800 2.08500 34.51700
C  33.33200 2.72600 35.73500
H  34.34900 3.66700 36.44200
N  37.08900 1.38900 29.08400
C  37.98000 1.48500 30.12900
C  39.24800 1.08600 29.65600
C  39.15200 0.84300 28.24600
C  37.73500 1.02000 27.94900
C  40.57100 1.04500 30.47700
C  40.21900 0.45700 27.31800
O  40.05000 0.56000 26.11900
C  41.58900 0.07700 27.77100
N  34.84800 1.36800 27.15600
C  35.79900 0.95200 26.27100
C  35.32900 0.82300 24.80300
C  33.79200 1.14700 25.00400
C  33.68100 1.50000 26.51500
C  36.01300 1.78400 23.72500
C  32.92600 -0.09900 24.67700
C  32.00200 0.06800 23.45000
N  33.08100 2.37600 29.27200
C  32.14600 2.42600 28.25600
C  30.97200 3.09700 28.79100
C  31.21500 3.32800 30.16700
C  32.53100 2.94000 30.37400
C  29.82800 3.45000 28.03900
C  30.66100 3.96900 31.26000
O  29.59300 4.46300 31.47500
C  31.72400 3.77900 32.43600
C  32.02600 5.11500 32.97800
O  32.92600 5.89900 32.67300
O  31.17700 5.29800 34.00800
C  31.51600 6.12200 35.17500
H  38.42900 1.89200 32.17600
H  37.82000 0.81200 25.88100
H  31.59700 2.13600 26.28500
H  34.57600 4.03200 33.87500
H  36.59600 1.95600 34.06100
H  36.56100 4.69500 34.63900
H  37.31300 4.45900 33.05800
H  37.95600 3.56600 34.48800
H  34.58200 1.29700 34.86900
H  33.12100 1.63200 33.92700
H  32.81900 2.08500 36.45200
H  32.50400 3.24900 35.25700
H  41.25700 1.71000 29.95300
H  40.99400 0.04200 30.53100
H  40.44100 1.37000 31.51000
H  42.14100 -0.29000 26.90600
H  41.43200 -0.67200 28.54700
H  42.11500 0.93600 28.18900
H  35.52200 -0.24300 24.68500
H  33.52700 1.95300 24.31900
H  36.79900 2.33700 24.23800
H  35.29700 2.39900 23.17900
H  36.45700 1.21200 22.91100
H  32.41600 -0.32400 25.61300
H  33.45400 -1.01000 24.39300
H  31.79100 1.10300 23.18100
H  31.04600 -0.42200 23.63400
H  32.61700 -0.38400 22.67100
H  30.06500 3.72000 27.01000
H  29.47900 4.38600 28.47600
H  29.00200 2.74300 28.11700
H  31.46100 3.11200 33.25600
H  30.82900 6.96100 35.28700
H  32.52700 6.51600 35.06600
H  31.43200 5.47000 36.04500
Mg 54.54000 24.23300 44.04200
C  51.94000 26.50600 43.12500
C  52.67000 21.70900 42.58300
C  57.27800 22.33500 43.81500
C  56.37400 26.86900 45.14300
N  52.54800 24.21300 42.88900
C  51.66900 25.20100 42.68900
C  50.46000 24.67500 41.94600
C  50.50800 23.13600 42.15400
C  52.00200 22.98400 42.49100
C  49.60400 22.57900 43.25900
C  50.36500 25.08500 40.37900
C  51.68600 25.27800 39.61000
H  51.46500 25.93500 38.20700
N  54.94900 22.19200 43.49000
C  53.98500 21.35200 42.91600
C  54.57200 20.05900 42.81000
C  55.96400 20.19600 43.24600
C  56.12700 21.60700 43.58000
C  53.72700 18.83500 42.45900
C  56.86100 19.03300 43.34800
O  56.52000 17.93600 42.91600
C  58.21900 19.12900 43.99300
N  56.55700 24.60800 44.23600
C  57.55600 23.68400 44.18100
C  58.98600 24.29400 44.46100
C  58.59900 25.70500 44.99300
C  57.09700 25.72400 44.80100
C  59.69800 23.34500 45.51300
C  59.30500 26.90800 44.29500
C  59.64500 28.12100 45.18800
N  54.22100 26.27900 44.31300
C  55.04600 27.19500 44.85100
C  54.38700 28.48600 44.90900
C  53.09900 28.25500 44.31100
C  53.09400 26.93000 43.90000
C  54.81000 29.69800 45.61900
C  51.86700 28.86100 43.93700
O  51.45100 29.98500 44.13800
C  51.04500 27.77600 43.23200
C  50.50500 28.16700 41.97200
O  51.15400 28.22400 40.88300
O  49.15100 28.46700 42.07600
C  48.38300 28.53700 40.80100
H  51.98700 20.90400 42.30300
H  58.15300 21.70800 43.63200
H  56.92600 27.79000 45.34300
H  49.59700 25.17900 42.38100
H  50.22000 22.57800 41.26400
H  49.08300 23.45000 43.65700
H  50.09700 22.05900 44.08000
H  49.00500 21.86900 42.68800
H  49.69100 25.93400 40.26900
H  49.93200 24.22700 39.86500
H  52.18600 24.31200 39.53400
H  52.49700 25.82500 40.09000
H  52.64700 18.97600 42.51100
H  53.85200 17.97700 43.12000
H  54.08700 18.48400 41.49200
H  58.26400 19.83700 44.82100
H  58.88900 19.41600 43.18200
H  58.39700 18.12000 44.36600
H  59.59600 24.39400 43.56300
H  58.51900 25.88300 46.06600
H  59.04600 22.53600 45.84400
H  59.91700 23.93000 46.40700
H  60.61800 22.91700 45.11500
H  58.66600 27.20700 43.46400
H  60.29000 26.51500 44.04000
H  59.29200 28.02200 46.21500
H  59.44400 29.10200 44.75700
H  60.72400 28.14000 45.34200
H  54.80200 29.38600 46.66300
H  54.11400 30.53700 45.58300
H  55.79300 30.13700 45.45000
H  50.18200 27.45500 43.81600
H  47.90600 29.51500 40.74800
H  47.70800 27.68300 40.85000
H  48.92600 28.47400 39.85700

