158

Mg -0.03400 7.47300 25.83700
C  1.12200 9.37700 28.64600
C  -0.20000 4.82500 27.91600
C  -0.95700 5.65700 23.17300
C  0.20500 10.27000 23.91800
N  0.65700 7.07100 27.94400
C  0.98400 8.01000 28.91400
C  0.82700 7.43200 30.32300
C  0.69300 5.89200 30.08900
C  0.38100 5.87300 28.55000
C  1.85700 4.91800 30.35900
C  -0.45200 8.04100 30.99300
C  -0.54700 8.09200 32.55500
H  0.65800 7.96800 33.37900
N  -0.42000 5.50100 25.61000
C  -0.45400 4.55800 26.52100
C  -0.85200 3.28500 25.89100
C  -1.11900 3.56400 24.53900
C  -0.88200 4.96000 24.38400
C  -0.74400 1.94000 26.53700
C  -1.43100 2.61500 23.34600
O  -1.79300 3.00600 22.23400
C  -1.61100 1.11600 23.62600
N  -0.26800 7.93100 23.82500
C  -0.66300 7.03900 22.97000
C  -0.83800 7.55300 21.57100
C  -0.48100 9.07700 21.74300
C  -0.12800 9.14600 23.16900
C  -0.09200 6.73300 20.50500
C  -1.57300 10.04800 21.34000
C  -2.82100 10.03900 22.11600
N  0.50600 9.43100 26.15800
C  0.60200 10.47700 25.24900
C  1.02100 11.69600 25.86400
C  1.16400 11.37500 27.20600
C  0.93600 9.90400 27.33900
C  1.28600 13.03600 25.13200
C  1.52900 11.89800 28.54700
O  1.83700 12.96900 29.03100
C  1.29900 10.61000 29.58100
C  2.42000 10.62600 30.47100
O  3.51900 10.10300 30.27100
O  2.02700 11.38100 31.56200
C  2.96300 11.63600 32.66100
H  -0.44700 3.90600 28.45200
H  -1.49000 5.23300 22.31900
H  0.15200 11.12200 23.23700
H  1.63700 7.71800 30.99400
H  -0.16400 5.48700 30.62600
H  2.41600 4.72000 29.44500
H  1.51000 3.97600 30.78500
H  2.46700 5.40200 31.12200
H  -1.27700 7.47000 30.56600
H  -0.60200 9.03800 30.57900
H  -1.31300 7.41900 32.93900
H  -0.87100 9.12900 32.65300
H  0.06100 1.37800 26.06200
H  -1.69100 1.40200 26.48800
H  -0.59800 2.02500 27.61400
H  -2.18200 1.05600 24.55300
H  -0.68600 0.55200 23.73900
H  -2.17000 0.72200 22.77700
H  -1.90200 7.46000 21.34800
H  0.48700 9.27400 21.28300
H  0.75300 6.26400 21.01000
H  0.39400 7.30400 19.71300
H  -0.81600 6.07200 20.02800
H  -1.91500 9.92200 20.31200
H  -1.19900 11.07100 21.29900
H  -3.77500 10.04000 21.59000
H  -2.80400 10.88700 22.80100
H  -2.86600 9.18000 22.78500
H  1.22700 12.79400 24.07100
H  2.31200 13.34100 25.33900
H  0.62500 13.84400 25.44500
H  0.42600 10.93500 30.14500
H  3.31100 12.66500 32.57000
H  3.73300 10.86600 32.68900
H  2.41500 11.63800 33.60400
Mg 48.65000 44.55900 43.06800
C  45.28300 43.90000 43.11100
C  49.13100 41.30600 42.30800
C  51.94900 45.16600 42.57300
C  48.00200 47.94500 42.89000
N  47.31100 42.78800 42.83700
C  45.98400 42.70900 42.90000
C  45.51400 41.29100 42.70500
C  46.77000 40.39400 42.68400
C  47.81200 41.54200 42.53000
C  46.91500 39.57200 44.01900
C  44.69300 41.13800 41.41000
C  45.04100 42.03900 40.16000
H  45.88200 41.36000 39.07200
N  50.31900 43.39200 42.51700
C  50.31800 42.03700 42.28900
C  51.67400 41.54600 42.24500
C  52.54600 42.61300 42.28300
C  51.61900 43.79500 42.40100
C  51.98700 40.00000 42.18900
C  54.04500 42.62400 42.30300
O  54.68800 41.58100 42.19700
C  54.91000 43.73600 42.54500
N  49.82500 46.24700 42.71500
C  51.15200 46.28000 42.66000
C  51.72400 47.72400 42.68600
C  50.46900 48.58900 42.92500
C  49.32800 47.57900 42.82200
C  52.91500 47.86100 43.71600
C  50.28800 49.79300 41.90000
C  49.84700 51.13300 42.52200
N  47.01100 45.73200 43.00400
C  46.85500 47.09700 43.00600
C  45.52000 47.45900 43.33500
C  44.89800 46.26900 43.41300
C  45.82900 45.21400 43.15500
C  44.93100 48.82500 43.34700
C  43.53700 45.67700 43.53100
O  42.42400 46.22400 43.63200
C  43.78600 44.06900 43.40200
C  43.19500 43.31200 44.59000
O  41.97300 42.97500 44.56400
O  44.18200 42.96500 45.47400
C  43.72400 42.16300 46.57200
H  49.33300 40.25500 42.08900
H  53.00900 45.39200 42.43600
H  47.78700 49.01500 42.92300
H  44.90700 41.15500 43.59900
H  46.90200 39.65600 41.89300
H  47.83200 39.78200 44.56900
H  46.87000 38.50700 43.79300
H  46.10400 39.85200 44.69100
H  43.62400 41.17500 41.62000
H  44.78600 40.09600 41.10500
H  45.52100 42.97500 40.44500
H  44.09300 42.33200 39.70900
H  52.08000 39.56200 41.19500
H  51.22100 39.40900 42.69200
H  52.89500 39.76500 42.74400
H  54.96100 44.30400 41.61600
H  55.93600 43.43800 42.75800
H  54.53700 44.36700 43.35200
H  52.05600 48.04900 41.70000
H  50.46600 49.04400 43.91500
H  52.88000 48.84300 44.18800
H  53.85600 47.68800 43.19400
H  52.84500 47.07900 44.47300
H  49.63000 49.47200 41.09200
H  51.30900 50.05200 41.62100
H  49.13200 51.51500 41.79300
H  50.67400 51.83900 42.60500
H  49.44500 51.03000 43.53000
H  45.49100 49.32100 44.13900
H  43.89800 48.88200 43.69100
H  45.21200 49.38400 42.45400
H  43.23200 43.63500 42.56900
H  43.00400 42.72700 47.16500
H  44.65700 41.87100 47.05500
H  43.29900 41.24900 46.15700

