158

Mg 41.50800 40.44300 27.27500
C  41.02300 43.09200 29.59300
C  42.06000 38.34700 29.91100
C  42.38100 38.22200 24.98800
C  41.17900 42.89200 24.67700
N  41.61200 40.73300 29.50400
C  41.25200 41.84500 30.18800
C  41.16700 41.50600 31.72900
C  41.71900 40.01800 31.81100
C  41.78900 39.66500 30.31500
C  43.01600 39.83800 32.66000
C  39.76400 41.68400 32.42900
C  39.67200 42.57900 33.65600
H  39.24200 41.96500 34.94100
N  42.03700 38.55000 27.46700
C  42.24600 37.83000 28.62400
C  42.57500 36.49500 28.22700
C  42.67800 36.42300 26.80700
C  42.32300 37.75200 26.31400
C  42.75200 35.37900 29.35100
C  43.02400 35.20800 25.92600
O  43.04400 35.12600 24.69200
C  43.28900 33.92200 26.65400
N  41.79200 40.61800 25.10600
C  42.10600 39.49800 24.41300
C  42.28000 39.76400 22.88300
C  41.86700 41.30600 22.79300
C  41.53200 41.63100 24.29100
C  43.78800 39.45900 22.44300
C  40.68700 41.48800 21.78100
C  39.37300 41.04100 22.35300
N  41.10500 42.55900 27.11100
C  41.00300 43.36000 26.03100
C  40.78600 44.74200 26.49900
C  40.71400 44.61600 27.86500
C  41.01900 43.30700 28.19100
C  40.61600 45.91600 25.55000
C  40.52300 45.42500 29.04000
O  40.24900 46.60000 29.20900
C  40.67100 44.38500 30.23500
C  41.63300 44.77700 31.32200
O  42.84700 44.79400 31.24200
O  40.92300 45.32300 32.31100
C  41.78900 45.96500 33.37600
H  42.17200 37.66900 30.75900
H  42.77500 37.51700 24.25300
H  40.95900 43.50100 23.79800
H  41.96800 42.14500 32.10300
H  40.87100 39.46000 32.20800
H  43.90200 39.77900 32.02900
H  42.86100 38.81700 33.00800
H  43.09100 40.55400 33.47800
H  39.37000 40.74100 32.80800
H  39.06700 42.04700 31.67300
H  38.80800 43.22600 33.50400
H  40.52100 43.20800 33.92300
H  42.05000 34.54600 29.31800
H  42.80800 35.83700 30.33800
H  43.71400 35.02300 28.98100
H  44.31300 33.96000 27.02500
H  43.23100 33.08400 25.96000
H  42.54100 33.76100 27.43000
H  41.52200 39.12900 22.42400
H  42.66200 41.95000 22.42000
H  44.40300 39.00800 23.22200
H  44.29000 40.37300 22.12600
H  43.79300 38.79400 21.57900
H  40.97400 41.01400 20.84300
H  40.53100 42.54300 21.55400
H  38.75500 41.93100 22.24000
H  39.47700 40.71100 23.38700
H  38.95100 40.19900 21.80400
H  39.66500 45.91900 25.01700
H  41.38600 45.98900 24.78100
H  40.64500 46.81600 26.16400
H  39.68900 44.12000 30.62700
H  42.05000 45.23700 34.14300
H  41.31300 46.73500 33.98300
H  42.78100 46.25700 33.03000
Mg -4.65400 25.79100 25.79500
C  -3.76200 27.62500 28.64600
C  -6.12900 23.44300 27.61900
C  -5.18100 24.03400 22.99500
C  -2.69100 28.05600 23.90300
N  -4.76100 25.56000 27.90500
C  -4.51900 26.47900 28.93300
C  -5.00700 25.96700 30.33100
C  -5.64100 24.62400 29.90600
C  -5.52700 24.51800 28.33700
C  -4.99200 23.39800 30.54100
C  -6.06300 27.01000 30.96200
C  -6.40500 26.65600 32.44500
H  -5.73900 25.43800 33.13600
N  -5.59800 23.99000 25.40300
C  -6.27300 23.30800 26.23400
C  -7.09500 22.32100 25.59500
C  -6.72200 22.34200 24.20600
C  -5.81600 23.54500 24.15700
C  -8.07100 21.47000 26.43900
C  -7.19000 21.60500 23.06800
O  -6.75500 21.61600 21.91200
C  -8.33600 20.63800 23.30400
N  -4.11700 26.04700 23.64300
C  -4.35100 25.14300 22.76600
C  -3.61300 25.42400 21.45000
C  -2.86100 26.83300 21.62000
C  -3.26500 27.04800 23.15700
C  -2.64500 24.23300 20.94500
C  -3.48700 27.97300 20.72900
C  -4.93500 28.44400 21.07500
N  -3.48500 27.47900 26.13900
C  -2.71000 28.26200 25.25500
C  -2.06400 29.24200 26.04000
C  -2.48100 29.08000 27.35100
C  -3.30900 27.98200 27.40300
C  -1.21400 30.39000 25.55100
C  -2.34300 29.62300 28.65300
O  -1.61200 30.55100 29.08100
C  -3.13400 28.71100 29.59500
C  -2.21100 28.03500 30.60200
O  -1.06600 27.69100 30.41800
O  -2.80500 27.75500 31.83100
C  -2.08300 26.90400 32.83700
H  -6.64000 22.79700 28.33700
H  -5.27200 23.38200 22.12400
H  -2.09200 28.63100 23.19400
H  -4.17400 25.71200 30.98600
H  -6.69100 24.53300 30.18400
H  -5.78700 22.84500 31.04100
H  -4.13500 23.50700 31.20500
H  -4.66400 22.63400 29.83700
H  -6.87200 27.07500 30.23500
H  -5.64500 28.01600 30.93200
H  -7.45200 26.36700 32.34800
H  -6.38700 27.49000 33.14700
H  -7.96100 20.41700 26.18000
H  -9.11600 21.77600 26.39700
H  -7.84600 21.46400 27.50500
H  -8.63600 20.25500 22.32900
H  -9.19700 21.13600 23.75000
H  -7.93000 19.88000 23.97400
H  -4.34000 25.64600 20.66900
H  -1.77800 26.77900 21.51200
H  -1.61400 24.56200 21.07500
H  -2.92500 23.98000 19.92300
H  -2.91500 23.39800 21.59200
H  -3.38300 27.69000 19.68200
H  -2.86800 28.86600 20.81400
H  -5.36000 28.39300 20.07300
H  -4.83900 29.42700 21.53700
H  -5.38700 27.77400 21.80600
H  -0.67500 30.19100 24.62500
H  -0.43500 30.56900 26.29200
H  -1.70300 31.35300 25.40100
H  -3.91600 29.30400 30.07000
H  -1.01500 27.08800 32.95100
H  -2.18900 25.91300 32.39700
H  -2.65700 27.01400 33.75700

