158

Mg 46.92000 16.96600 28.24200
C  44.94900 16.28900 30.98900
C  48.73400 19.16200 30.13900
C  48.38700 17.94100 25.40100
C  44.48100 15.25500 26.20200
N  46.80800 17.72600 30.39100
C  46.04300 17.11000 31.35600
C  46.44000 17.51400 32.77700
C  47.70300 18.43100 32.49100
C  47.77000 18.47000 30.94900
C  47.59000 19.81900 33.04900
C  46.77200 16.19300 33.61900
C  47.31200 16.29200 35.10600
H  46.74700 17.47600 35.86600
N  48.48600 18.24900 27.82000
C  48.98600 19.19100 28.70900
C  50.04900 19.97300 27.99300
C  50.06600 19.49300 26.59900
C  48.93800 18.53400 26.52500
C  50.76700 21.06000 28.65600
C  51.01100 19.88700 25.45100
O  50.88100 19.43500 24.37800
C  52.24300 20.81400 25.79600
N  46.38400 16.84500 26.04500
C  47.28500 17.15600 25.12200
C  46.91900 16.65500 23.68400
C  45.76200 15.70200 24.01600
C  45.50100 15.92100 25.53100
C  46.40400 17.84900 22.69800
C  46.12900 14.21600 23.60600
C  45.23600 13.38800 22.64400
N  45.10000 15.98500 28.47300
C  44.18700 15.37300 27.58900
C  43.01200 14.83200 28.32300
C  43.28900 15.20900 29.68400
C  44.56600 15.90600 29.70400
C  41.87700 13.95100 27.64000
C  42.77900 15.03200 31.06000
O  41.77800 14.57300 31.51100
C  43.78000 15.77700 31.95400
C  42.99000 16.90300 32.58200
O  42.62900 17.86700 31.94300
O  42.82600 16.73100 33.94100
C  42.05200 17.80400 34.55700
H  49.46100 19.71500 30.73600
H  48.95300 18.16800 24.49500
H  43.82700 14.79800 25.45700
H  45.64600 18.16500 33.14200
H  48.60000 18.08400 33.00300
H  47.22000 20.42000 32.21800
H  48.59000 20.19800 33.26300
H  46.92400 20.06600 33.87600
H  47.50700 15.60100 33.07400
H  45.92000 15.52900 33.76400
H  48.37200 16.53000 35.01400
H  47.06100 15.34900 35.59200
H  50.53500 21.24300 29.70500
H  50.64200 21.99400 28.10700
H  51.80000 20.72100 28.72900
H  52.69400 20.58800 26.76300
H  51.97100 21.86900 25.78800
H  53.00400 20.70300 25.02400
H  47.68500 16.07400 23.17100
H  44.89300 16.05300 23.46000
H  45.34700 17.68000 22.49000
H  47.00100 17.70200 21.79800
H  46.54300 18.81800 23.17700
H  46.29000 13.67500 24.53800
H  47.05400 14.20700 23.02800
H  44.73100 12.58000 23.17300
H  45.64300 12.84800 21.78800
H  44.49000 14.06900 22.23600
H  41.07200 13.67400 28.32100
H  42.34800 12.97700 27.50200
H  41.52900 14.19800 26.63700
H  44.12600 15.09400 32.73000
H  42.40000 17.71600 35.58600
H  40.97400 17.74400 34.40500
H  42.36400 18.80600 34.26300
Mg 47.31300 25.18300 29.15800
C  48.06600 27.58700 31.58700
C  46.19100 23.11100 31.67300
C  46.81400 22.76000 26.96100
C  49.09400 27.01600 26.80700
N  47.01600 25.39500 31.37800
C  47.43500 26.46400 32.15300
C  47.14900 26.16000 33.60100
C  46.84200 24.65500 33.59900
C  46.67000 24.33200 32.12300
C  47.87500 23.78900 34.29100
C  45.99300 27.00800 34.18000
C  46.31100 27.68000 35.52200
H  46.68200 26.84800 36.73400
N  46.28000 23.35300 29.24100
C  45.93600 22.63100 30.39000
C  45.33300 21.37200 29.96600
C  45.34300 21.31400 28.56200
C  46.14200 22.53200 28.20400
C  44.68000 20.47600 30.89500
C  44.88500 20.29800 27.65200
O  45.20400 20.21600 26.48800
C  43.91300 19.21300 28.17500
N  47.90500 24.85800 27.18800
C  47.55500 23.79100 26.44700
C  48.15400 23.90400 25.00200
C  48.44600 25.42400 24.95900
C  48.65200 25.75700 26.41200
C  49.43000 23.05000 24.67800
C  47.37700 26.25100 24.16900
C  47.86700 26.90500 22.90700
N  48.56300 26.85600 29.14600
C  49.22600 27.54700 28.05600
C  49.67600 28.81100 28.61700
C  49.27500 28.84700 29.97700
C  48.52000 27.67600 30.20600
C  50.18300 29.89600 27.81800
C  49.23900 29.64300 31.14300
O  49.66700 30.75300 31.40900
C  48.49100 28.90400 32.26000
C  49.45600 28.66000 33.24700
O  50.41900 27.94400 33.17800
O  49.02500 29.41500 34.35500
C  49.83500 29.51100 35.59200
H  45.90000 22.38100 32.43200
H  46.66900 21.98200 26.20800
H  49.58500 27.63900 26.05600
H  48.02700 26.37300 34.21200
H  45.88700 24.43200 34.07400
H  48.80500 24.27500 34.58400
H  48.11200 22.99000 33.58900
H  47.44400 23.41200 35.21800
H  45.09100 26.41000 34.31100
H  45.84000 27.86500 33.52500
H  45.39300 28.22600 35.74100
H  47.11700 28.40100 35.38700
H  43.63000 20.39600 30.61500
H  44.62700 20.95300 31.87300
H  45.18600 19.51900 31.02000
H  44.02900 18.68700 29.12300
H  43.74500 18.44800 27.41700
H  43.01100 19.82500 28.21800
H  47.40500 23.58000 24.28000
H  49.41300 25.66900 24.52000
H  49.96400 22.92200 25.62000
H  50.05400 23.70700 24.07200
H  49.33800 22.10300 24.14600
H  47.14900 27.05800 24.86500
H  46.51600 25.62000 23.94500
H  47.45100 26.32000 22.08700
H  48.94700 26.92600 22.76200
H  47.41200 27.89400 22.95900
H  50.24000 30.78500 28.44600
H  49.69400 30.29000 26.92700
H  51.22800 29.66500 27.61200
H  47.74500 29.65800 32.50900
H  49.32000 29.15800 36.48600
H  50.07400 30.54300 35.85100
H  50.76200 29.00000 35.33400

