158

Mg -1.87500 17.84800 26.51300
C  -2.33200 15.49500 29.11100
C  -2.26400 20.36000 28.69500
C  -2.44700 19.94700 23.85300
C  -2.30500 15.12300 24.23000
N  -2.42300 17.87000 28.69500
C  -2.31300 16.84900 29.56000
C  -2.41100 17.37600 31.04200
C  -2.53100 18.90500 30.85500
C  -2.41500 19.09500 29.33300
C  -3.76500 19.52900 31.49600
C  -1.30600 16.74300 31.97600
C  -0.89600 17.52700 33.24500
H  -0.66000 16.70000 34.53800
N  -2.02900 19.92400 26.32800
C  -2.22000 20.79000 27.36400
C  -2.26700 22.14100 26.89700
C  -2.25700 22.04900 25.43200
C  -2.31400 20.57300 25.16600
C  -2.43500 23.35400 27.80700
C  -2.39400 23.05300 24.23600
O  -2.36200 22.83600 23.09300
C  -2.57400 24.50700 24.69200
N  -2.03600 17.65000 24.37700
C  -2.39600 18.61900 23.50300
C  -2.65700 18.11300 22.06900
C  -2.37700 16.58300 22.27200
C  -2.28300 16.43700 23.77700
C  -3.86900 18.58100 21.25800
C  -1.13400 16.15200 21.40600
C  0.19900 15.77600 22.14300
N  -2.07000 15.68000 26.55100
C  -2.18300 14.78600 25.56700
C  -2.19800 13.47700 26.09000
C  -2.21200 13.70700 27.47200
C  -2.16900 15.06800 27.73800
C  -2.17600 12.12800 25.41600
C  -2.33400 13.05900 28.74900
O  -2.50700 11.84200 29.00900
C  -2.42800 14.17200 29.84300
C  -1.40900 13.83400 30.82200
O  -0.19800 13.90500 30.64800
O  -2.08600 13.36600 31.83900
C  -1.25400 12.87800 32.90600
H  -2.19100 21.19800 29.39100
H  -2.92400 20.60000 23.11900
H  -2.57900 14.28600 23.58500
H  -3.30200 16.82900 31.34800
H  -1.67600 19.42000 31.29300
H  -4.39500 20.05400 30.77700
H  -3.49600 20.32500 32.19000
H  -4.32100 18.82300 32.11200
H  -0.41200 16.47500 31.41300
H  -1.67400 15.80500 32.39100
H  -1.48800 18.41900 33.44900
H  0.06400 17.91600 32.90300
H  -1.47700 23.87300 27.78000
H  -2.62200 22.83400 28.74600
H  -3.24400 24.00000 27.46600
H  -1.82200 24.65500 25.46700
H  -3.61600 24.40500 24.99300
H  -2.42900 25.07800 23.77500
H  -1.93200 18.59200 21.41100
H  -3.15200 15.90700 21.91300
H  -4.29600 19.44100 21.77300
H  -4.61900 17.80100 21.12400
H  -3.54000 18.82000 20.24700
H  -0.94500 16.88700 20.62400
H  -1.43100 15.20100 20.96500
H  0.25100 14.68800 22.14500
H  0.37100 16.11400 23.16600
H  1.09000 16.04900 21.57800
H  -1.30100 12.08800 24.76600
H  -3.15600 12.17700 24.94300
H  -2.06700 11.32500 26.14500
H  -3.44300 14.21100 30.23900
H  -0.93200 11.86600 32.66000
H  -1.92900 12.76300 33.75300
H  -0.38400 13.48700 33.15300
Mg 7.42000 53.59500 41.78500
C  6.75300 50.02000 41.61900
C  10.67600 52.84100 40.92600
C  7.92200 56.85700 41.15700
C  4.04500 54.09000 42.23500
N  8.48600 51.68900 41.31200
C  8.08500 50.35000 41.36100
C  9.24700 49.45600 41.18900
C  10.54400 50.32900 41.23200
C  9.84500 51.71000 41.18000
C  11.45100 50.14600 42.44300
C  9.23200 48.41800 39.91500
C  9.37700 48.94200 38.47400
H  8.31300 48.56000 37.44700
N  8.99000 54.69600 40.96500
C  10.22500 54.24300 40.74500
C  11.10300 55.32800 40.39000
C  10.41100 56.50300 40.46300
C  9.02700 56.06300 40.92500
C  12.51300 55.15000 39.89900
C  10.99900 57.82000 40.15000
O  12.07800 58.00200 39.59700
C  10.11600 59.04200 40.24800
N  6.12700 55.19200 41.54300
C  6.62800 56.44800 41.53100
C  5.51700 57.47900 41.75600
C  4.27700 56.60500 41.91600
C  4.81700 55.21000 41.92200
C  5.78400 58.38800 42.99500
C  3.24200 56.83900 40.84000
C  1.77300 56.61900 41.30200
N  5.69800 52.33000 42.07200
C  4.38300 52.68800 42.21700
C  3.56200 51.45100 42.34000
C  4.47600 50.38900 42.15600
C  5.74300 50.99800 41.90300
C  2.10100 51.38500 42.59500
C  4.61900 48.93200 42.08400
O  3.78700 48.09000 42.23800
C  6.07200 48.63300 41.66500
C  5.89500 48.15700 40.32900
O  5.74100 48.81800 39.33100
O  5.85700 46.80000 40.45400
C  5.44500 46.02400 39.34700
H  11.75600 52.68300 40.96000
H  7.99300 57.94600 41.12700
H  3.02900 54.36400 42.52500
H  9.25100 48.81000 42.06700
H  11.11500 50.01700 40.35800
H  11.16000 49.29700 43.06100
H  11.41100 51.02300 43.09000
H  12.45000 50.01000 42.02900
H  8.71900 47.45600 39.90200
H  10.21100 47.97600 40.10300
H  10.32800 48.72000 37.98900
H  9.25900 50.02100 38.56900
H  12.68100 55.60600 38.92400
H  12.89500 54.13000 39.84200
H  13.26700 55.62600 40.52600
H  9.11500 58.97400 39.82000
H  10.49600 59.87500 39.65700
H  10.07400 59.44500 41.25900
H  5.55600 58.05500 40.83100
H  3.90400 56.73500 42.93200
H  6.55800 57.93400 43.61400
H  4.88800 58.56600 43.58900
H  6.18000 59.33600 42.63000
H  3.37000 56.06900 40.07900
H  3.11600 57.86200 40.48600
H  1.76700 56.57100 42.39100
H  1.33600 55.74000 40.82800
H  1.22000 57.44800 40.86000
H  1.83700 52.42700 42.77500
H  1.87900 50.81600 43.49700
H  1.52700 50.84200 41.84300
H  6.48800 47.88000 42.33400
H  6.33900 45.56900 38.92200
H  4.99500 46.62300 38.55500
H  4.73800 45.28800 39.73000

