158

Mg 40.68700 10.01900 30.24900
C  42.58100 11.39200 32.98500
C  38.68300 8.50600 32.50000
C  39.09400 8.74900 27.65800
C  43.33700 11.03400 28.13700
N  40.56600 10.07400 32.49900
C  41.40000 10.64900 33.39300
C  40.96300 10.37900 34.83900
C  39.76200 9.38500 34.65200
C  39.73600 9.25200 33.13100
C  39.84900 8.03900 35.43200
C  40.62400 11.62100 35.74000
C  41.62200 11.88000 36.88500
H  41.15300 12.34800 38.26400
N  39.13800 8.70200 30.03700
C  38.40600 8.25300 31.10100
C  37.25700 7.51700 30.54500
C  37.36900 7.56400 29.12800
C  38.56700 8.42600 28.88700
C  36.28500 6.68100 31.35700
C  36.39300 7.06900 28.02100
O  36.65400 7.17900 26.78800
C  35.04800 6.29600 28.41200
N  41.21800 9.83300 28.14400
C  40.36100 9.25500 27.31500
C  40.81400 9.33700 25.83300
C  42.26600 9.99700 25.98400
C  42.24900 10.38000 27.49500
C  40.76700 7.95800 25.11200
C  42.46400 11.29700 25.17100
C  43.90100 11.40200 24.62800
N  42.44000 11.22400 30.40500
C  43.43500 11.46700 29.47700
C  44.55800 12.15900 30.15200
C  44.19300 12.23500 31.52200
C  42.94700 11.52900 31.61000
C  45.82800 12.72600 29.57400
C  44.69100 12.66400 32.79900
O  45.73800 13.27700 32.99700
C  43.57800 12.16800 33.81300
C  44.36700 11.25000 34.73300
O  44.68400 10.09400 34.47300
O  44.66700 11.94100 35.94700
C  45.37600 11.15900 36.95300
H  38.04100 7.97900 33.20900
H  38.53000 8.48800 26.76000
H  44.17500 11.27900 27.48100
H  41.79100 9.83700 35.29500
H  38.88500 9.92700 35.00800
H  40.76100 7.94900 36.02200
H  39.62500 7.10700 34.91200
H  39.05300 8.24900 36.14600
H  39.66400 11.45300 36.22900
H  40.71400 12.44800 35.03500
H  42.35800 12.58900 36.50700
H  42.17100 10.94800 37.02300
H  36.46500 6.67300 32.43200
H  36.26400 5.70300 30.87600
H  35.28000 7.07800 31.21800
H  34.57200 6.76600 29.27300
H  35.36600 5.28700 28.67400
H  34.42600 6.11700 27.53400
H  40.05000 9.94200 25.34400
H  43.09300 9.28800 25.97100
H  39.90900 7.86700 24.44600
H  40.49200 7.20100 25.84700
H  41.73600 7.66900 24.70400
H  42.50100 12.19400 25.78900
H  41.81200 11.43700 24.30900
H  44.57000 10.54500 24.54300
H  44.44500 12.07700 25.28800
H  44.00300 11.91700 23.67300
H  46.02700 12.49400 28.52800
H  46.67600 12.45900 30.20400
H  45.78100 13.81500 29.57100
H  43.09800 13.03200 34.27200
H  46.03000 10.41600 36.49600
H  44.72900 10.68700 37.69200
H  46.01200 11.90000 37.43700
Mg 49.56300 45.01800 42.39400
C  45.94900 45.10300 42.17200
C  49.47400 41.65700 41.62800
C  52.87100 45.02700 42.20700
C  49.59400 48.45700 42.61300
N  47.79900 43.55000 41.82600
C  46.49600 43.80700 41.86600
C  45.68400 42.55700 41.66700
C  46.80900 41.48400 41.35700
C  48.13600 42.25200 41.58800
C  46.76500 40.08700 41.97400
C  44.50300 42.58100 40.59000
C  44.72500 43.40600 39.29000
H  44.83100 42.67400 37.96100
N  50.92000 43.54400 41.99000
C  50.68700 42.19700 41.75000
C  51.94600 41.56100 41.50000
C  52.99400 42.53400 41.67300
C  52.24600 43.79300 42.03400
C  52.06300 40.12000 41.21400
C  54.46100 42.26800 41.40500
O  54.83700 41.13600 41.12200
C  55.44200 43.41100 41.22600
N  51.03600 46.58900 42.17100
C  52.35200 46.33300 42.28700
C  53.21400 47.59500 42.67800
C  52.10600 48.70500 42.40800
C  50.82400 47.92600 42.44700
C  53.76200 47.60600 44.17100
C  52.24800 49.47900 41.02700
C  52.21500 50.99300 41.09600
N  48.07100 46.53200 42.44300
C  48.27300 47.89500 42.48000
C  46.97400 48.56300 42.52100
C  46.03900 47.46300 42.49300
C  46.74800 46.26300 42.40300
C  46.84200 49.99700 42.64600
C  44.61500 47.19800 42.55300
O  43.64100 48.00500 42.58200
C  44.54200 45.58800 42.45400
C  43.86100 44.78300 43.51800
O  42.76600 44.24900 43.45800
O  44.66400 44.79100 44.59000
C  44.41200 43.99000 45.80300
H  49.31900 40.59700 41.41600
H  53.90400 44.85500 42.51800
H  49.52400 49.52500 42.83000
H  45.27600 42.35700 42.65800
H  46.66000 41.34700 40.28600
H  47.18900 39.34200 41.30200
H  45.76200 39.79000 42.28100
H  47.43300 40.18200 42.83000
H  43.66500 42.94100 41.18700
H  44.31500 41.55500 40.27400
H  45.65500 43.96800 39.37800
H  43.94400 44.16500 39.24100
H  52.38000 40.01100 40.17700
H  51.11600 39.59000 41.31500
H  52.76100 39.62800 41.89100
H  55.77500 43.76800 42.20100
H  55.03700 44.26700 40.68500
H  56.38200 43.09200 40.77800
H  54.12400 47.67800 42.08300
H  52.12800 49.45000 43.20400
H  54.83000 47.80000 44.26900
H  53.69200 46.61900 44.62800
H  53.28300 48.37000 44.78300
H  51.36700 49.25200 40.42700
H  53.18100 49.22500 40.52400
H  52.46300 51.38900 40.11200
H  52.90900 51.33100 41.86600
H  51.23900 51.30400 41.46800
H  45.94800 50.33100 42.12100
H  47.69900 50.34700 42.07100
H  46.98200 50.29700 43.68500
H  44.02700 45.33300 41.52800
H  45.24700 43.30700 45.95700
H  43.53300 43.35400 45.69100
H  44.16400 44.66400 46.62400

