158

Mg 29.38100 59.38700 40.60300
C  26.35200 57.70700 40.13200
C  30.98600 56.60300 39.22000
C  32.21200 61.08600 40.66400
C  27.55000 62.30800 41.42000
N  28.67000 57.48000 39.58700
C  27.42400 56.93900 39.63900
C  27.39200 55.63700 38.80800
C  28.93300 55.18700 38.78900
C  29.58000 56.47800 39.27500
C  29.28800 53.88600 39.60200
C  26.73800 55.75900 37.42900
C  25.80500 54.60800 37.00000
H  25.81000 54.04400 35.61400
N  31.34700 58.93000 39.96300
C  31.78100 57.69200 39.55800
C  33.19700 57.70800 39.46200
C  33.61700 59.04800 39.99000
C  32.39800 59.71800 40.29000
C  34.08400 56.62400 38.84600
C  34.96300 59.53600 40.16100
O  35.88800 58.82500 39.84900
C  35.27900 60.84500 40.81600
N  29.74900 61.46900 40.82200
C  31.05000 61.87100 40.90400
C  31.06700 63.35100 41.39400
C  29.58000 63.72800 41.55000
C  28.90600 62.44400 41.30400
C  32.09900 63.67400 42.51700
C  29.18000 64.98700 40.70300
C  28.46600 66.14600 41.47800
N  27.42100 59.94700 40.81300
C  26.75900 61.15300 41.17200
C  25.33600 60.91700 41.25600
C  25.13300 59.57400 40.97000
C  26.42000 59.06800 40.61700
C  24.33900 61.93300 41.64400
C  24.07100 58.47300 40.81800
O  22.86300 58.49700 41.06600
C  24.88900 57.29600 40.22700
C  24.71200 56.23400 41.19800
O  24.66600 56.33000 42.39200
O  24.63500 54.99800 40.57400
C  24.80100 53.83000 41.45900
H  31.51700 55.78600 38.72800
H  33.08400 61.73600 40.75600
H  27.08900 63.27800 41.61800
H  26.84200 54.96200 39.46400
H  29.26000 54.94800 37.77700
H  29.76800 54.06900 40.56400
H  29.96200 53.31300 38.96400
H  28.46000 53.18600 39.71000
H  27.56100 55.82600 36.71700
H  26.25600 56.73600 37.38400
H  24.74900 54.85300 37.11600
H  25.88100 53.77000 37.69300
H  33.65600 55.78400 38.29900
H  34.60400 56.21900 39.71300
H  34.89200 57.02400 38.23400
H  35.17100 61.62800 40.06500
H  36.33700 60.69700 41.03300
H  34.77800 60.93300 41.78000
H  31.54400 63.99700 40.65700
H  29.38300 63.94000 42.60100
H  32.39000 62.67500 42.84200
H  31.62500 64.17300 43.36300
H  32.97500 64.21600 42.16200
H  28.45100 64.69800 39.94600
H  29.98800 65.44600 40.13200
H  27.39500 66.15000 41.27200
H  29.02500 67.07600 41.37600
H  28.51500 65.87700 42.53300
H  24.68600 62.88900 41.25400
H  24.23200 61.92300 42.72900
H  23.40400 61.55600 41.23000
H  24.48800 56.86700 39.30900
H  24.46100 52.95500 40.90600
H  24.16700 53.91500 42.34100
H  25.84100 53.57900 41.66500
Mg 24.85800 49.89500 27.18900
C  22.95100 51.22100 29.89400
C  27.36700 49.38500 29.42700
C  26.95100 49.30700 24.62900
C  22.42400 51.10100 24.97700
N  25.07600 50.25300 29.34500
C  24.12400 50.63900 30.34000
C  24.64100 50.61900 31.77400
C  26.14200 50.04800 31.51500
C  26.23100 49.98400 29.97700
C  27.37300 50.78000 32.16200
C  23.82300 49.84800 32.85500
C  24.47300 49.62500 34.24000
H  23.88200 50.22300 35.61600
N  26.90300 49.34500 27.09900
C  27.64600 48.97800 28.14000
C  28.84700 48.34700 27.56400
C  28.80200 48.33200 26.14800
C  27.51200 49.04600 25.87000
C  29.90300 47.82700 28.47700
C  29.78600 47.93400 25.13500
O  29.71900 48.22500 23.98000
C  30.95500 47.09100 25.57400
N  24.68900 50.16100 25.11300
C  25.68800 49.87400 24.26700
C  25.46400 50.44200 22.89700
C  23.95200 50.85800 22.91800
C  23.63700 50.80000 24.40800
C  26.46500 51.63800 22.68700
C  23.04100 49.99900 21.96700
C  22.46700 48.63100 22.57600
N  23.01900 50.94500 27.34600
C  22.15200 51.34200 26.36200
C  21.04400 52.03900 26.97600
C  21.27200 51.96100 28.33300
C  22.48400 51.32500 28.54000
C  19.91400 52.66100 26.21200
C  20.77900 52.34400 29.59800
O  19.69700 52.89300 29.89000
C  21.89200 51.98900 30.61600
C  22.26000 53.30300 31.12900
O  22.64700 54.24300 30.53000
O  22.02500 53.30700 32.53500
C  22.18300 54.62300 33.25300
H  28.14900 49.05800 30.11600
H  27.47500 48.96200 23.73600
H  21.71500 51.44800 24.22200
H  24.80200 51.63400 32.13700
H  26.11300 49.03700 31.92300
H  27.99200 49.94900 32.50100
H  26.95200 51.35600 32.98700
H  27.92800 51.34600 31.41400
H  23.46600 48.93300 32.38200
H  22.90000 50.41500 32.98100
H  25.48200 50.02900 34.16100
H  24.39900 48.54100 34.33000
H  30.03900 46.81000 28.11000
H  29.66900 47.87100 29.54100
H  30.92600 48.17800 28.33900
H  30.64400 46.11700 25.95200
H  31.52600 47.69600 26.27900
H  31.64800 46.90500 24.75400
H  25.57400 49.60500 22.20800
H  23.86600 51.87800 22.54300
H  27.50800 51.38900 22.88000
H  26.06900 52.53200 23.16800
H  26.35500 51.77100 21.61000
H  23.69500 49.81500 21.11400
H  22.18600 50.63600 21.73900
H  22.93500 48.37700 23.52600
H  22.56200 47.84000 21.83200
H  21.39800 48.75700 22.75200
H  19.81900 52.41500 25.15500
H  20.05000 53.73900 26.30000
H  18.93800 52.44800 26.64800
H  21.44500 51.37300 31.39600
H  22.92200 55.17600 32.67400
H  22.58600 54.49100 34.25700
H  21.29900 55.25700 33.30700

