158

Mg 1.66600 -0.22000 43.49600
C  5.10500 0.33700 43.21600
C  1.07100 2.76000 42.05400
C  -1.50200 -1.01900 43.57500
C  2.47600 -3.57500 44.54300
N  2.95800 1.30600 42.64700
C  4.31200 1.35500 42.68600
C  4.86700 2.65600 41.99900
C  3.51600 3.56700 42.05800
C  2.40800 2.46900 42.20700
C  3.53200 4.60300 43.18000
C  5.43400 2.34400 40.58600
C  6.89800 2.89700 40.14400
H  6.96100 3.80300 38.90400
N  0.03200 0.71400 42.89200
C  -0.03500 1.97500 42.32100
C  -1.44100 2.36600 42.16600
C  -2.25600 1.34900 42.76500
C  -1.23300 0.26800 43.13300
C  -1.93800 3.77500 41.54100
C  -3.78500 1.36600 43.00500
O  -4.45400 2.25400 42.52700
C  -4.52800 0.34800 43.73700
N  0.58500 -2.14600 43.88500
C  -0.76900 -2.08300 44.00600
C  -1.26000 -3.44000 44.42400
C  0.06300 -4.16400 44.92500
C  1.12200 -3.32200 44.29400
C  -2.34200 -3.33800 45.47800
C  0.11100 -5.65700 44.60600
C  0.23300 -6.60000 45.77000
N  3.40900 -1.44500 43.82800
C  3.60200 -2.74800 44.28000
C  5.00000 -2.95900 44.43600
C  5.63900 -1.79600 43.99600
C  4.58200 -0.86400 43.68200
C  5.67000 -4.25200 44.73000
C  7.02100 -1.20100 43.77500
O  8.15000 -1.56000 44.11800
C  6.61300 0.24400 43.28300
C  7.23900 1.21200 44.12600
O  6.70900 1.88000 45.03800
O  8.49000 1.44200 43.65600
C  9.42400 2.24200 44.41000
H  0.96900 3.75600 41.61700
H  -2.53800 -1.36300 43.54600
H  2.84000 -4.51300 44.96900
H  5.63400 3.00200 42.69200
H  3.48300 4.19600 41.16800
H  3.82600 5.56400 42.75700
H  4.27600 4.36400 43.94000
H  2.51800 4.75100 43.55100
H  4.81000 2.85700 39.85400
H  5.32000 1.28600 40.35100
H  7.53400 2.01900 40.03000
H  7.38100 3.40000 40.98200
H  -2.90600 3.72700 41.04100
H  -1.19500 4.19000 40.86000
H  -2.02200 4.39600 42.43200
H  -5.41600 0.73900 44.23400
H  -3.84900 -0.02800 44.50300
H  -4.78400 -0.48500 43.08200
H  -1.66800 -3.96800 43.56200
H  0.19900 -3.93800 45.98300
H  -2.58900 -2.29400 45.67000
H  -2.03100 -3.77600 46.42700
H  -3.18900 -3.89900 45.08300
H  0.98700 -5.78800 43.97100
H  -0.69400 -5.94400 43.92900
H  1.12500 -7.21900 45.66500
H  -0.59800 -7.28800 45.61300
H  0.14600 -6.09200 46.73000
H  5.65500 -4.79400 43.78400
H  5.12700 -4.75600 45.52900
H  6.70800 -4.02000 44.96500
H  7.03200 0.35000 42.28200
H  9.63700 3.25100 44.05900
H  10.41800 1.80200 44.48100
H  9.07400 2.51100 45.40700
Mg 25.86400 0.04400 29.16300
C  27.49800 -0.23100 32.20000
C  22.92300 0.47600 30.95100
C  24.15100 -0.15800 26.25400
C  28.67500 -1.07700 27.56800
N  25.35800 0.30300 31.35800
C  26.19500 0.15400 32.39700
C  25.46800 0.37100 33.77000
C  23.99100 0.63500 33.31000
C  24.10100 0.46600 31.77300
C  22.85000 -0.22100 33.97200
C  26.04100 1.53100 34.60500
C  26.34000 1.25000 36.13800
H  26.00400 2.27900 37.14300
N  23.75500 0.24200 28.64200
C  22.73400 0.27700 29.52200
C  21.50600 0.27200 28.78600
C  21.79500 0.18000 27.40800
C  23.30400 -0.01500 27.39700
C  20.07400 0.27800 29.50200
C  20.95100 0.29000 26.19600
O  21.32200 -0.05600 25.06200
C  19.52800 0.83700 26.41900
N  26.31600 -0.54500 27.15400
C  25.48700 -0.39500 26.09700
C  26.19800 -0.62000 24.74000
C  27.65000 -0.99100 25.18800
C  27.58000 -0.86100 26.73800
C  25.56200 -1.61100 23.71000
C  28.78500 -0.06300 24.54400
C  28.88100 1.42000 25.06500
N  27.75300 -0.34300 29.66600
C  28.83400 -0.86600 28.93500
C  29.91400 -1.21600 29.88100
C  29.41900 -0.96500 31.13500
C  28.11800 -0.46900 30.96100
C  31.26300 -1.74400 29.53200
C  29.78500 -0.91300 32.59300
O  30.85400 -1.07100 33.16500
C  28.50800 -0.54000 33.27700
C  28.17400 -1.66900 34.16900
O  27.55600 -2.61100 33.84400
O  28.79700 -1.54000 35.40900
C  28.61400 -2.69000 36.39200
H  21.97000 0.69700 31.43800
H  23.66300 -0.05800 25.28300
H  29.54800 -1.28700 26.94600
H  25.41000 -0.55000 34.34900
H  23.75800 1.62800 33.69300
H  22.58300 -1.01800 33.27800
H  22.04000 0.47300 34.20000
H  23.19800 -0.67000 34.90200
H  25.38900 2.40400 34.61500
H  26.95300 1.98200 34.21200
H  27.40500 1.11000 36.32600
H  25.78700 0.38400 36.50200
H  19.58800 1.22900 29.28400
H  19.99600 0.13100 30.57900
H  19.67400 -0.55500 28.92400
H  18.94800 1.14900 25.55000
H  19.46800 1.73600 27.03300
H  18.92300 0.08800 26.93000
H  26.18900 0.35300 24.24900
H  27.92700 -1.98700 24.84400
H  26.27500 -2.41200 23.51500
H  25.31000 -1.17900 22.74200
H  24.72400 -2.12900 24.17700
H  28.59700 0.01800 23.47400
H  29.68400 -0.62200 24.80300
H  28.89400 1.98500 24.13300
H  29.85500 1.40100 25.55500
H  28.14500 1.69800 25.81900
H  31.40100 -2.14800 28.52900
H  31.40200 -2.60700 30.18400
H  32.08400 -1.12900 29.90100
H  28.90200 0.30300 33.84500
H  29.39000 -2.67700 37.15700
H  28.63800 -3.65800 35.89300
H  27.65100 -2.56800 36.88700

