158

Mg 40.33000 9.57400 29.85500
C  42.33600 10.83400 32.39300
C  38.39700 8.26500 32.21200
C  38.47300 8.34100 27.37800
C  42.68500 10.76800 27.57200
N  40.44600 9.40300 32.02500
C  41.21400 10.10000 32.89500
C  40.90500 9.87400 34.40700
C  39.63400 8.91400 34.23000
C  39.46600 8.87400 32.70200
C  39.71800 7.54200 34.85900
C  40.58500 11.24400 35.14500
C  40.12700 11.06100 36.60500
H  40.93100 11.68800 37.74300
N  38.60200 8.51200 29.77800
C  37.95700 8.03200 30.85100
C  36.79600 7.25500 30.42700
C  36.74400 7.29600 29.03600
C  37.98100 8.06800 28.64200
C  35.78800 6.61300 31.34400
C  35.73700 6.82200 28.05900
O  35.88300 7.04800 26.85500
C  34.50400 6.11200 28.53700
N  40.57300 9.57900 27.76000
C  39.63000 9.00400 26.99700
C  39.81200 9.44600 25.52400
C  41.29700 10.17000 25.53900
C  41.54400 10.14500 27.05100
C  39.74200 8.22800 24.56400
C  41.45000 11.54800 24.82700
C  40.61600 12.74400 25.29300
N  42.16900 10.42200 29.93000
C  42.99500 10.85200 28.92600
C  44.20200 11.54900 29.52900
C  43.88600 11.61700 30.88400
C  42.71600 10.90100 31.05900
C  45.37200 12.09200 28.79000
C  44.36000 12.06700 32.19000
O  45.41200 12.64100 32.44800
C  43.39700 11.50100 33.21700
C  44.09500 10.53400 34.06100
O  44.34600 9.38100 33.80200
O  44.37800 11.03900 35.31200
C  45.22800 10.26800 36.19500
H  37.67600 7.77500 32.87000
H  37.79300 8.28000 26.52600
H  43.29500 11.19400 26.77300
H  41.66600 9.30200 34.93700
H  38.76800 9.29000 34.77500
H  40.74300 7.40500 35.20600
H  39.38600 6.80600 34.12700
H  39.20700 7.55400 35.82200
H  39.77800 11.68700 34.56200
H  41.48100 11.86600 35.16200
H  40.18300 10.01500 36.90900
H  39.11800 11.45600 36.72200
H  35.92700 6.80700 32.40700
H  36.03800 5.56300 31.19100
H  34.77000 6.74700 30.97900
H  33.93400 5.69700 27.70600
H  33.89900 6.89500 28.99500
H  34.67600 5.35000 29.29600
H  39.12400 10.25400 25.27500
H  41.97700 9.45100 25.08200
H  40.05900 7.28900 25.01700
H  40.26700 8.47200 23.64000
H  38.67900 8.12300 24.35100
H  41.10000 11.41600 23.80300
H  42.50900 11.75400 24.67100
H  41.22700 13.47400 25.82300
H  39.89300 12.31500 25.98600
H  40.12600 13.30300 24.49600
H  45.73300 11.25000 28.20000
H  46.23000 12.39400 29.39000
H  45.06900 12.90400 28.12800
H  42.98600 12.33800 33.78000
H  44.79500 9.27800 36.33700
H  45.19300 10.79100 37.15100
H  46.30400 10.14900 36.07100
Mg -11.77400 38.40000 42.27900
C  -9.57400 35.93300 41.05400
C  -9.85700 40.72100 40.53200
C  -14.27700 40.54300 42.58200
C  -13.98400 35.79600 43.47400
N  -10.05600 38.27300 40.81500
C  -9.19600 37.19100 40.61700
C  -7.84900 37.53300 39.92200
C  -8.02200 39.04400 39.74400
C  -9.41300 39.39100 40.35800
C  -6.89100 39.89300 40.30500
C  -7.63400 36.82300 38.55500
C  -6.31600 36.03800 38.35900
H  -5.47100 36.31600 37.11300
N  -11.94800 40.41300 41.79000
C  -11.04500 41.14200 41.09400
C  -11.56600 42.46700 41.00000
C  -12.83300 42.48100 41.54500
C  -13.07000 41.11000 42.04500
C  -10.74200 43.66100 40.42800
C  -13.78500 43.67800 41.54800
O  -13.46000 44.74700 41.05800
C  -15.18200 43.57800 42.06800
N  -13.93500 38.18100 42.97200
C  -14.66600 39.27700 42.99200
C  -16.06700 38.95400 43.54700
C  -15.94000 37.35300 43.84700
C  -14.50900 37.09700 43.45900
C  -16.67600 39.84400 44.72600
C  -16.94500 36.46300 43.11900
C  -18.17400 36.01600 43.86300
N  -11.84100 36.25500 42.23500
C  -12.75300 35.40700 42.82600
C  -12.10800 34.07000 42.83700
C  -10.86400 34.23600 42.20100
C  -10.78200 35.57200 41.79100
C  -12.60900 32.79200 43.44600
C  -9.58400 33.58000 41.83100
O  -9.15500 32.44900 42.13000
C  -8.73000 34.56600 41.00800
C  -7.39500 34.58600 41.63000
O  -6.46700 33.80800 41.32100
O  -7.28000 35.48900 42.68600
C  -6.04700 35.24200 43.53500
H  -9.14200 41.43100 40.11100
H  -15.07500 41.28500 42.64300
H  -14.65200 35.09100 43.97300
H  -7.03900 37.27400 40.60400
H  -8.09600 39.36100 38.70400
H  -7.09500 40.07300 41.36100
H  -6.70700 40.82100 39.76300
H  -5.97300 39.31500 40.19900
H  -7.68300 37.51100 37.71100
H  -8.51000 36.20600 38.35400
H  -6.63400 34.99600 38.32800
H  -5.78500 36.24600 39.28800
H  -10.80000 43.75200 39.34400
H  -9.71700 43.42000 40.70900
H  -11.00600 44.58800 40.93800
H  -15.74200 44.47800 41.81700
H  -15.06700 43.38900 43.13500
H  -15.73600 42.77500 41.58100
H  -16.76000 39.14500 42.72800
H  -16.07100 37.17100 44.91400
H  -15.75300 40.33200 45.04000
H  -17.07700 39.31000 45.58800
H  -17.34200 40.59600 44.30200
H  -16.48000 35.55000 42.74800
H  -17.20200 36.95300 42.17900
H  -18.79800 35.66900 43.03900
H  -18.66800 36.77400 44.47200
H  -17.97200 35.11900 44.44800
H  -12.84100 32.07800 42.65600
H  -13.48800 33.00700 44.05400
H  -11.80500 32.42700 44.08400
H  -8.63600 34.37400 39.93900
H  -6.16400 35.80800 44.45900
H  -5.11500 35.51600 43.04000
H  -6.00000 34.20800 43.87700

