158

Mg 49.03200 45.13300 42.07000
C  45.96600 45.74000 40.48200
C  48.96200 42.00100 40.95600
C  52.34500 44.99000 42.83400
C  49.25000 48.60200 42.67600
N  47.55100 43.92100 40.97200
C  46.37800 44.36400 40.43500
C  45.69100 43.24000 39.67500
C  46.60000 41.99200 40.02500
C  47.79100 42.63200 40.67000
C  45.98800 40.88000 40.98400
C  45.65500 43.64900 38.16800
C  44.26700 43.54600 37.53600
H  44.16900 42.56100 36.30700
N  50.41100 43.62800 41.95400
C  50.14900 42.37800 41.54000
C  51.34700 41.55000 41.61100
C  52.33600 42.41000 42.20600
C  51.73900 43.72600 42.43200
C  51.48100 40.02400 41.23400
C  53.77900 41.97900 42.50400
O  54.02900 40.76300 42.38400
C  54.96200 42.85700 42.85000
N  50.66100 46.66600 42.31000
C  51.84300 46.28400 42.67300
C  52.78600 47.51800 42.89800
C  51.79600 48.62400 43.04000
C  50.48800 47.96600 42.70600
C  53.76000 47.48600 44.16400
C  52.06600 49.95400 42.30400
C  52.09300 51.28400 43.12700
N  47.80300 46.78000 41.83200
C  48.10700 48.08400 42.12400
C  46.95300 48.91200 41.69300
C  46.07300 47.99000 41.05500
C  46.64300 46.75900 41.12500
C  46.83600 50.45700 41.88100
C  44.86800 47.90000 40.32500
O  44.11400 48.73200 39.83800
C  44.67600 46.42600 40.02700
C  43.44000 45.95900 40.75500
O  42.43200 45.56200 40.12000
O  43.64600 45.93600 42.05800
C  42.59600 45.39200 42.88000
H  48.99000 40.93400 40.72300
H  53.42000 44.90000 43.00600
H  49.26400 49.68200 42.83700
H  44.72200 43.05300 40.13900
H  47.04800 41.46100 39.18500
H  45.90600 39.92100 40.47400
H  44.97000 41.16700 41.24600
H  46.49800 40.70600 41.93200
H  46.29600 42.98300 37.58900
H  46.14600 44.60800 38.00400
H  44.00500 44.54800 37.19700
H  43.57700 43.21600 38.31400
H  50.62900 39.81200 40.58800
H  51.29100 39.45800 42.14600
H  52.39000 39.84700 40.65900
H  54.89400 43.22800 43.87300
H  55.05200 43.69900 42.16400
H  55.84400 42.21800 42.80600
H  53.45900 47.69200 42.05900
H  51.68700 48.82100 44.10600
H  53.77500 46.41800 44.38400
H  53.37400 48.01000 45.03900
H  54.78400 47.76300 43.91600
H  51.37400 50.03100 41.46600
H  52.98400 49.79900 41.73900
H  53.03400 51.82800 43.05200
H  51.85200 51.07400 44.16900
H  51.29500 51.98300 42.87500
H  46.48500 50.87700 40.93800
H  47.76500 50.94500 42.17600
H  46.01400 50.68100 42.56000
H  44.38900 46.27900 38.98600
H  42.18400 46.19300 43.49400
H  42.96300 44.62700 43.56400
H  41.68400 45.01500 42.41600
Mg 35.58100 48.01800 26.88400
C  36.12200 45.70200 29.61700
C  34.06200 50.12800 29.07400
C  34.75500 49.90600 24.26600
C  36.54900 45.40700 24.73500
N  34.97500 47.82200 29.11100
C  35.42600 46.89400 30.05600
C  35.33100 47.45800 31.49200
C  34.36200 48.72900 31.25300
C  34.41200 48.90100 29.69400
C  32.92700 48.65200 31.85200
C  36.69400 47.83500 32.18400
C  36.71300 47.47900 33.69000
H  36.38600 48.64900 34.64000
N  34.64400 49.83600 26.67700
C  34.13200 50.57500 27.68400
C  33.81300 51.89300 27.26200
C  33.86000 51.81000 25.81700
C  34.37000 50.46900 25.48100
C  33.35500 53.12700 28.09400
C  33.62300 52.93900 24.74100
O  33.64000 52.74700 23.51600
C  33.32400 54.28900 25.24100
N  35.66300 47.67800 24.86300
C  35.36400 48.65700 23.91100
C  35.53600 48.20300 22.45300
C  36.51300 47.02000 22.67600
C  36.15000 46.58600 24.14900
C  34.26600 47.85300 21.62200
C  38.02500 47.31600 22.51700
C  38.68400 46.51700 21.38600
N  36.22400 46.00600 27.07500
C  36.53600 45.10100 26.11900
C  36.91800 43.84600 26.72000
C  36.84800 44.07100 28.10200
C  36.37300 45.39700 28.27400
C  37.33700 42.57000 25.96000
C  37.03400 43.46300 29.41400
O  37.37200 42.34600 29.77200
C  36.68100 44.57200 30.45000
C  35.65400 44.02700 31.39600
O  34.49100 43.64000 31.12600
O  36.19300 44.03700 32.66200
C  35.27500 43.56200 33.70000
H  33.72600 50.90400 29.76500
H  34.70400 50.52900 23.37100
H  36.64100 44.58300 24.02500
H  34.91800 46.69900 32.15600
H  34.77100 49.63700 31.69700
H  32.72600 49.41400 32.60600
H  32.62600 47.66800 32.21200
H  32.23000 48.84800 31.03800
H  36.90600 48.90100 32.10000
H  37.50400 47.28300 31.70900
H  37.74700 47.24600 33.94400
H  36.20900 46.54000 33.92200
H  32.36900 53.31600 27.67100
H  34.01400 53.98900 27.98600
H  33.30300 52.85800 29.14900
H  33.06800 54.88000 24.36200
H  34.08400 54.72000 25.89400
H  32.36400 54.05000 25.69900
H  36.06300 48.94500 21.85300
H  36.29500 46.16700 22.03400
H  34.16100 46.81600 21.30200
H  34.18700 48.49900 20.74800
H  33.35900 48.08800 22.17700
H  38.68600 47.15600 23.36900
H  38.26200 48.37000 22.37700
H  38.75300 45.48900 21.74200
H  39.69500 46.91200 21.28500
H  38.10800 46.56900 20.46200
H  36.85200 42.41200 24.99600
H  37.09800 41.65000 26.49200
H  38.42600 42.53900 25.91500
H  37.54900 44.91600 31.01300
H  35.85500 43.42000 34.61200
H  34.95200 42.55700 33.42800
H  34.48400 44.28900 33.88400

