158

Mg 17.22800 -2.02800 27.23000
C  16.28000 0.01500 29.85900
C  19.22400 -3.77700 29.47200
C  18.69300 -3.48700 24.65200
C  15.26600 -0.13800 25.10400
N  17.82400 -1.74700 29.35500
C  17.21500 -0.92500 30.28600
C  17.66500 -1.19900 31.76500
C  18.76700 -2.24400 31.49700
C  18.65300 -2.62900 30.05000
C  20.29900 -1.80200 31.71800
C  16.49900 -1.75200 32.64600
C  16.50700 -1.34200 34.12100
H  17.74300 -0.85600 34.83800
N  18.57500 -3.55300 27.09000
C  19.24000 -4.17700 28.12100
C  19.96400 -5.27500 27.53800
C  19.96700 -5.08700 26.11300
C  19.05000 -3.98300 25.89400
C  20.69300 -6.37400 28.39700
C  20.67600 -5.93500 25.01200
O  20.70500 -5.70200 23.82400
C  21.32900 -7.19900 25.46000
N  17.21000 -1.63300 25.13100
C  17.79400 -2.51400 24.26900
C  17.46400 -2.17500 22.80200
C  16.03100 -1.51300 23.07700
C  16.18500 -0.97900 24.48800
C  18.48100 -1.27500 22.12400
C  14.82300 -2.51600 22.69200
C  14.24800 -3.29600 23.84200
N  16.01300 -0.31600 27.39800
C  15.24700 0.27200 26.42200
C  14.43500 1.27500 27.02800
C  14.76300 1.20900 28.39400
C  15.78100 0.27300 28.56600
C  13.34500 2.06900 26.34500
C  14.50900 1.71400 29.72800
O  13.67200 2.54100 30.11200
C  15.47100 0.97900 30.71300
C  16.35300 1.97500 31.39000
O  17.40400 2.45700 30.93900
O  15.72000 2.33800 32.53600
C  16.36700 3.44000 33.26700
H  19.78900 -4.46800 30.10000
H  19.12600 -3.83000 23.71000
H  14.57200 0.36100 24.42500
H  18.13700 -0.25000 32.02100
H  18.65100 -3.08000 32.18700
H  20.82600 -2.16500 30.83600
H  20.78800 -2.24000 32.58800
H  20.25600 -0.71600 31.79600
H  16.62900 -2.83400 32.63000
H  15.52500 -1.63800 32.17200
H  16.01500 -2.13600 34.68300
H  15.78900 -0.52200 34.14900
H  20.40000 -7.37700 28.08800
H  20.31600 -6.33900 29.42000
H  21.78200 -6.36400 28.35200
H  20.68800 -7.90200 25.99300
H  22.12400 -6.76400 26.06600
H  21.90000 -7.70400 24.68200
H  17.40600 -3.14900 22.31600
H  15.87800 -0.62700 22.46000
H  19.41000 -1.20800 22.69100
H  18.10200 -0.29800 21.82400
H  18.73100 -1.84100 21.22700
H  15.18600 -3.25900 21.98200
H  14.07300 -1.83200 22.29400
H  13.95900 -2.55900 24.59200
H  15.01000 -3.93400 24.28900
H  13.37400 -3.93700 23.72600
H  13.71100 2.66500 25.51000
H  12.74700 2.55500 27.11600
H  12.77000 1.27300 25.87200
H  14.77200 0.48200 31.38500
H  15.68900 3.88700 33.99300
H  16.63600 4.21000 32.54200
H  17.32800 3.19000 33.71500
Mg 36.48700 49.92700 26.00900
C  36.86400 47.84100 28.77400
C  35.64800 52.52800 28.19200
C  36.18700 51.91900 23.36000
C  37.30500 47.20900 23.91400
N  36.07000 50.05400 28.24600
C  36.49700 49.15700 29.14900
C  36.34600 49.67100 30.57800
C  35.93800 51.19500 30.31800
C  35.87100 51.27900 28.80700
C  34.56700 51.63200 30.95400
C  37.73300 49.46700 31.24000
C  37.84100 49.27200 32.72800
H  36.49500 49.10400 33.48600
N  35.92400 51.92900 25.77600
C  35.65200 52.82900 26.79900
C  35.30600 54.13200 26.17000
C  35.44200 53.98900 24.77900
C  35.80100 52.57100 24.55000
C  35.05000 55.35700 27.03000
C  35.36900 55.07500 23.71800
O  35.43900 54.88200 22.48500
C  35.17800 56.56300 24.15000
N  36.75600 49.55500 23.89000
C  36.56800 50.57600 23.04000
C  36.91600 50.09800 21.60200
C  37.34900 48.63600 21.77100
C  37.11300 48.44100 23.27700
C  35.83000 50.24000 20.56000
C  38.85300 48.33300 21.45600
C  39.22800 46.84600 21.07100
N  36.88600 47.91100 26.20900
C  37.14800 46.89800 25.29800
C  37.38200 45.64700 26.03500
C  37.17300 45.98300 27.39700
C  36.88500 47.36500 27.45000
C  37.86800 44.36300 25.44000
C  37.40600 45.44700 28.66900
O  37.78500 44.34600 29.03800
C  37.02800 46.64100 29.71500
C  35.76100 46.11200 30.31200
O  34.66000 46.19200 29.79200
O  36.04900 45.41400 31.49500
C  34.96100 44.84400 32.34300
H  35.43500 53.38800 28.83100
H  36.18200 52.59300 22.50000
H  37.45600 46.35800 23.24600
H  35.55800 49.11200 31.08200
H  36.73000 51.77300 30.79400
H  33.99900 52.29800 30.30500
H  34.83600 52.19000 31.85000
H  33.97000 50.73800 31.13300
H  38.33600 50.35000 31.02400
H  38.33100 48.70300 30.74400
H  38.53300 49.98600 33.17500
H  38.28700 48.27900 32.78200
H  34.03800 55.67100 26.77100
H  35.71600 56.16600 26.72900
H  34.93800 55.24300 28.10800
H  35.00100 57.13100 23.23600
H  36.09700 56.85100 24.66000
H  34.22200 56.65800 24.66500
H  37.80500 50.67700 21.35000
H  36.63000 47.92200 21.36800
H  34.82700 50.28600 20.98600
H  35.73300 49.31100 19.99700
H  35.94100 51.11000 19.91200
H  39.43200 48.70200 22.30200
H  39.07500 49.01900 20.63900
H  39.69700 46.84700 20.08700
H  38.34800 46.21000 20.97300
H  39.82500 46.44500 21.89000
H  36.99000 43.89700 24.99300
H  38.26800 43.74700 26.24500
H  38.63800 44.44800 24.67200
H  37.76100 46.63500 30.52200
H  34.12000 44.43600 31.78200
H  34.74700 45.62300 33.07500
H  35.40700 44.02200 32.90400

