158

Mg 35.62500 49.11300 26.11400
C  35.91400 47.15900 29.00300
C  34.59500 51.70000 28.03700
C  34.93900 50.63800 23.35000
C  36.35400 46.17000 24.30500
N  34.95000 49.26800 28.19600
C  35.30500 48.42400 29.24100
C  35.29400 49.16400 30.55900
C  34.42600 50.41300 30.18900
C  34.69700 50.45500 28.72200
C  32.93600 50.32500 30.57700
C  36.71500 49.42300 31.20600
C  36.70300 49.48900 32.76200
H  35.40500 49.58100 33.55500
N  34.94800 50.99900 25.72800
C  34.62500 51.95000 26.66900
C  34.39200 53.22100 25.99500
C  34.47700 52.90300 24.54900
C  34.80200 51.48400 24.45500
C  34.35000 54.53800 26.80100
C  34.32600 53.85000 23.33000
O  34.39600 53.40000 22.19600
C  34.14500 55.30100 23.58300
N  35.76300 48.43400 24.05700
C  35.35600 49.31200 23.14300
C  35.39400 48.68100 21.76600
C  36.02300 47.29400 21.97700
C  36.11200 47.28500 23.52600
C  33.93900 48.57800 21.15900
C  37.40000 47.02300 21.19100
C  38.66500 47.46500 21.88300
N  36.12300 47.07100 26.51700
C  36.41700 46.05800 25.67500
C  36.94500 44.88800 26.40400
C  36.80400 45.29400 27.80500
C  36.26100 46.62300 27.78500
C  37.30600 43.55700 25.79300
C  36.99400 44.83700 29.20100
O  37.42500 43.83900 29.67600
C  36.50500 46.10500 29.97500
C  35.55700 45.63600 31.00500
O  34.40800 45.41200 30.73700
O  36.03400 45.58200 32.29900
C  35.04900 45.32400 33.37200
H  34.51800 52.58900 28.66700
H  34.87100 51.23300 22.43700
H  36.48800 45.23400 23.75800
H  34.74000 48.59600 31.30700
H  34.83100 51.34700 30.57800
H  32.59900 49.29600 30.45500
H  32.29700 51.00700 30.01700
H  32.91300 50.57900 31.63700
H  37.10500 50.29800 30.68600
H  37.34500 48.68000 30.71700
H  37.35600 50.25900 33.17400
H  37.10300 48.49500 32.96200
H  33.32700 54.68400 27.14800
H  34.69200 55.40300 26.23300
H  34.88800 54.41700 27.74100
H  33.99300 55.71900 22.58800
H  35.05600 55.66000 24.06000
H  33.23600 55.40000 24.17600
H  35.87300 49.34800 21.05000
H  35.39500 46.45400 21.68100
H  33.34300 49.33400 21.67000
H  33.41400 47.69800 21.53100
H  33.87400 48.79000 20.09200
H  37.47600 47.37800 20.16300
H  37.43000 45.93500 21.13800
H  39.52100 47.67600 21.24200
H  38.92800 46.64700 22.55400
H  38.50600 48.30600 22.55700
H  37.24500 43.43000 24.71200
H  36.69000 42.86500 26.36800
H  38.33800 43.44200 26.12200
H  37.38200 46.47500 30.50500
H  35.67800 45.13100 34.24200
H  34.29000 44.54800 33.27500
H  34.50700 46.26600 33.44300
Mg 10.11300 47.78900 26.36000
C  8.23800 47.93500 29.46300
C  12.62600 49.32500 27.98400
C  11.69600 47.56900 23.59300
C  7.05300 46.80100 24.76700
N  10.28300 48.67000 28.34900
C  9.48500 48.52700 29.49500
C  10.11400 49.06600 30.77900
C  11.33800 49.83000 30.16000
C  11.46800 49.21200 28.76100
C  11.07900 51.32100 30.09000
C  10.46600 47.93900 31.86200
C  10.13900 48.12400 33.32900
H  10.05700 46.86100 34.17500
N  11.96000 48.14700 25.90200
C  12.90400 48.81300 26.69400
C  14.16000 48.75900 26.02300
C  13.98800 48.25100 24.70300
C  12.53100 47.95600 24.66200
C  15.49100 49.26200 26.61500
C  14.96400 48.14600 23.50500
O  14.61000 47.76500 22.37600
C  16.39400 48.46500 23.61900
N  9.49900 47.26300 24.51400
C  10.34800 47.34200 23.43200
C  9.64300 47.01200 22.07800
C  8.25900 46.55400 22.53800
C  8.26800 46.92700 23.99900
C  9.68300 48.25100 21.18400
C  8.01400 45.01500 22.35900
C  8.84500 44.09800 23.26200
N  8.08600 47.43700 26.94200
C  6.97200 47.05500 26.16300
C  5.76400 47.12800 27.02100
C  6.23000 47.31600 28.31900
C  7.64500 47.53400 28.21000
C  4.44900 46.82200 26.52700
C  5.84400 47.36500 29.75200
O  4.78100 47.17100 30.32700
C  7.22900 47.59900 30.55900
C  7.55200 46.30200 31.16500
O  8.16800 45.39500 30.64000
O  7.00900 46.24500 32.49000
C  7.07100 44.93500 33.15100
H  13.42700 49.74700 28.59400
H  12.26700 47.36000 22.68600
H  6.16600 46.38500 24.28500
H  9.43100 49.80400 31.19900
H  12.23900 49.56300 30.71200
H  10.47200 51.49900 29.20200
H  11.97000 51.94700 30.03300
H  10.58600 51.74300 30.96600
H  11.53500 47.72600 31.84300
H  10.04300 46.98700 31.53900
H  9.26800 48.77300 33.42500
H  10.90300 48.78500 33.74000
H  15.61900 48.93500 27.64700
H  15.47400 50.35200 26.59500
H  16.36700 48.90500 26.07300
H  16.96800 48.36300 22.69900
H  16.87000 47.73300 24.27200
H  16.60500 49.44600 24.04500
H  10.21300 46.24500 21.55300
H  7.50700 47.07200 21.94400
H  8.69500 48.58900 20.87100
H  10.14300 47.90700 20.25700
H  10.26700 49.04000 21.65600
H  8.20300 44.83900 21.30000
H  6.97000 44.86500 22.63300
H  9.58200 44.58900 23.89800
H  9.32500 43.39700 22.57900
H  8.10200 43.65300 23.92300
H  4.45300 46.10400 25.70700
H  4.01300 47.69100 26.03500
H  3.90500 46.37900 27.36100
H  7.12400 48.39000 31.30300
H  8.15900 44.87400 33.14300
H  6.47500 44.16400 32.66200
H  6.77700 45.02200 34.19700

