158

Mg 23.58400 -5.67400 46.02700
C  25.69900 -3.04500 44.85400
C  21.39600 -4.65500 43.70000
C  22.08000 -8.52000 46.56400
C  26.50500 -6.85800 47.79000
N  23.65000 -4.08600 44.35100
C  24.52100 -3.01200 44.20600
C  24.07900 -2.11900 43.14000
C  22.49400 -2.46700 43.00000
C  22.42700 -3.80800 43.75000
C  21.54500 -1.39700 43.31600
C  24.82100 -2.30300 41.80700
C  25.39000 -1.03900 41.06600
H  24.99900 -0.91300 39.52700
N  21.88600 -6.40800 45.35500
C  21.16400 -5.88800 44.38100
C  20.03300 -6.71800 44.19600
C  20.19100 -7.84300 44.96900
C  21.47600 -7.66800 45.64600
C  18.83000 -6.34900 43.24100
C  19.17100 -8.90200 45.25400
O  18.05100 -8.82900 44.81700
C  19.34700 -10.15400 46.13400
N  24.27700 -7.52600 46.85700
C  23.35500 -8.44000 47.16700
C  23.90600 -9.59400 48.02900
C  25.33600 -9.03500 48.40200
C  25.40800 -7.70400 47.57900
C  23.08300 -10.08400 49.27400
C  26.48800 -10.13300 48.23000
C  27.21100 -10.22400 46.81600
N  25.67500 -4.94800 46.50100
C  26.77600 -5.60500 47.11000
C  27.91000 -4.79300 46.94200
C  27.54400 -3.74600 46.10100
C  26.18100 -3.92400 45.80500
C  29.26000 -5.15500 47.46300
C  27.96700 -2.60300 45.32300
O  29.13400 -2.15300 45.19000
C  26.76300 -1.97300 44.55700
C  26.31000 -0.72800 45.18200
O  25.25300 -0.59800 45.82200
O  27.20300 0.29000 44.86900
C  26.97100 1.56000 45.55100
H  20.74400 -4.45700 42.84600
H  21.55700 -9.44000 46.83800
H  27.31800 -7.27300 48.39000
H  24.13500 -1.05100 43.35200
H  22.24800 -2.69500 41.96300
H  21.27200 -1.56300 44.35800
H  20.71200 -1.57400 42.63600
H  21.92300 -0.37500 43.31800
H  24.19000 -2.82500 41.08800
H  25.66900 -2.98700 41.81800
H  26.48000 -1.04300 41.05900
H  25.12700 -0.14900 41.63600
H  19.03300 -6.34700 42.17000
H  18.45200 -5.38100 43.56800
H  17.97200 -7.02000 43.26800
H  18.56400 -10.91300 46.11600
H  19.54700 -9.92400 47.18000
H  20.23800 -10.58600 45.68000
H  23.96500 -10.48500 47.40400
H  25.28500 -8.62600 49.41100
H  23.73200 -10.66100 49.93300
H  22.31300 -10.79100 48.96500
H  22.58600 -9.28000 49.81800
H  25.94700 -11.06600 48.39200
H  27.24900 -10.00500 48.99900
H  27.01300 -9.28400 46.30200
H  26.76400 -11.05500 46.27100
H  28.29600 -10.32600 46.79300
H  29.70600 -5.75800 46.67200
H  29.11700 -5.74900 48.36500
H  29.83900 -4.25500 47.67200
H  27.01900 -1.75800 43.51900
H  26.14800 1.58200 46.26500
H  26.82600 2.38500 44.85300
H  27.80500 1.89500 46.16800
Mg 6.56000 53.02200 42.21600
C  6.37100 49.53000 41.74500
C  9.82800 52.95100 41.05100
C  6.51600 56.46300 42.16300
C  3.23100 52.94300 43.21400
N  7.95700 51.42000 41.48800
C  7.66100 50.07500 41.34000
C  8.92900 49.37300 40.84100
C  10.11300 50.43200 41.04000
C  9.30600 51.68800 41.33200
C  11.12700 50.04400 42.14900
C  8.88900 48.79500 39.37700
C  8.69100 49.77300 38.21700
H  7.76800 49.40700 37.07400
N  7.95000 54.54500 41.65900
C  9.26400 54.24300 41.22700
C  9.88000 55.51600 41.02500
C  8.89000 56.47000 41.13200
C  7.73500 55.84600 41.72800
C  11.34600 55.60500 40.55600
C  9.08300 57.92500 40.72000
O  10.19900 58.39900 40.38200
C  8.03200 58.96000 40.74100
N  5.08000 54.47300 42.58300
C  5.31400 55.80500 42.58600
C  3.99400 56.51700 42.81400
C  3.06700 55.44700 43.35900
C  3.80300 54.19000 42.95700
C  4.09000 57.68800 43.89200
C  1.65600 55.58600 42.63700
C  0.52300 56.12900 43.52700
N  5.08400 51.55400 42.43600
C  3.80400 51.69700 42.90500
C  3.24600 50.42900 43.18800
C  4.19000 49.57900 42.55700
C  5.29000 50.29500 42.19900
C  1.86900 50.13000 43.82800
C  4.32100 48.16400 42.23400
O  3.55200 47.22800 42.34300
C  5.92200 48.10500 41.67900
C  5.82800 47.58600 40.22400
O  5.39700 48.23300 39.26300
O  6.31300 46.24900 40.21900
C  6.49000 45.53400 38.98600
H  10.87600 52.88000 40.75100
H  6.51200 57.53700 42.36100
H  2.18700 52.84900 43.52300
H  9.10300 48.55300 41.53800
H  10.60900 50.56400 40.07900
H  11.12800 50.85100 42.88000
H  12.11300 50.01200 41.68400
H  10.92100 49.16800 42.76400
H  8.30400 47.87800 39.32100
H  9.91200 48.51100 39.12600
H  9.62100 50.16100 37.80100
H  8.25500 50.66300 38.67100
H  11.82200 56.52300 40.90000
H  11.22100 55.49000 39.47900
H  11.85100 54.69400 40.87900
H  7.07500 58.49300 40.50900
H  8.27100 59.83100 40.13000
H  7.83000 59.29300 41.75900
H  3.75800 56.98500 41.85800
H  2.98500 55.52800 44.44300
H  4.99000 57.65200 44.50700
H  3.21900 57.74000 44.54500
H  4.24300 58.68900 43.48800
H  1.34100 54.60300 42.28700
H  1.72500 56.25900 41.78300
H  0.78700 56.22900 44.58000
H  -0.41300 55.57500 43.59000
H  0.34700 57.17800 43.28900
H  1.60000 49.13900 43.46200
H  1.10300 50.77700 43.40100
H  1.96900 50.20400 44.91100
H  6.51600 47.43800 42.30400
H  7.47500 45.07100 38.94600
H  6.30200 46.14200 38.10100
H  5.71400 44.77100 39.05800

