158

Mg 41.42300 8.96400 29.20800
C  43.31900 9.91600 31.84800
C  39.05700 7.55200 31.33700
C  39.77600 7.77800 26.56200
C  44.20700 9.66100 26.98100
N  41.18600 8.77700 31.35800
C  42.01500 9.42800 32.25600
C  41.35500 9.32700 33.64700
C  40.06700 8.46600 33.50100
C  40.09600 8.28900 31.95900
C  40.11900 7.14600 34.24700
C  41.07400 10.65100 34.25600
C  41.79400 10.90900 35.55100
H  41.34800 12.09000 36.43900
N  39.63400 7.93000 29.00300
C  38.82300 7.36200 29.96600
C  37.77900 6.62700 29.36400
C  37.86600 6.82100 27.96700
C  39.16600 7.56000 27.82600
C  36.66000 5.91300 30.23700
C  36.88900 6.38500 26.83500
O  37.16700 6.51100 25.63900
C  35.61700 5.69700 27.22300
N  41.97800 8.64100 27.05100
C  41.06500 8.18000 26.16700
C  41.50900 8.15400 24.75200
C  42.83100 9.02200 24.89700
C  43.04600 9.12600 26.39600
C  41.46400 6.79700 24.01000
C  42.77200 10.38500 24.12200
C  41.79700 11.47200 24.55300
N  43.39200 9.52100 29.31700
C  44.35200 9.90500 28.35300
C  45.50200 10.44200 29.03400
C  45.20900 10.53000 30.38500
C  43.90000 9.86500 30.49600
C  46.79200 10.91500 28.34600
C  45.61600 10.86300 31.74500
O  46.63400 11.45800 32.16200
C  44.44800 10.43900 32.75600
C  45.00600 9.36900 33.62500
O  45.38600 8.31600 33.23700
O  44.98000 9.72600 34.95700
C  45.61300 8.81700 35.90300
H  38.30200 7.21600 32.05100
H  39.16400 7.54100 25.68900
H  44.93100 10.04200 26.25700
H  42.03200 8.79200 34.31200
H  39.12800 8.87700 33.87100
H  39.12800 6.94900 34.65700
H  40.85200 7.23500 35.04900
H  40.43000 6.38100 33.53600
H  40.02100 10.59900 34.53000
H  41.13800 11.44600 33.51300
H  42.77100 11.28300 35.24700
H  41.97900 10.05400 36.20100
H  35.77800 6.55200 30.26200
H  36.98000 5.74100 31.26500
H  36.35100 4.98200 29.76200
H  35.05200 5.58300 26.29700
H  35.05400 6.27500 27.95500
H  35.95400 4.77900 27.70500
H  40.83000 8.81600 24.21500
H  43.68900 8.48000 24.49900
H  42.47500 6.48300 23.74700
H  40.82900 6.84500 23.12500
H  40.95200 6.06000 24.62900
H  42.69300 10.11200 23.07000
H  43.72400 10.89200 24.27600
H  40.95600 11.51000 23.86100
H  42.36300 12.40300 24.53700
H  41.56900 11.37000 25.61400
H  46.55200 11.90500 27.95800
H  47.05200 10.23600 27.53300
H  47.61000 10.87700 29.06500
H  44.12500 11.28900 33.35700
H  44.76500 8.37300 36.42400
H  46.09900 9.51400 36.58600
H  46.29800 8.06100 35.51900
Mg 50.07700 45.19600 41.67900
C  46.86500 45.95000 40.61700
C  49.68100 41.99900 40.60300
C  53.41600 44.71500 41.94700
C  50.72300 48.76000 42.04100
N  48.42700 44.11800 40.70700
C  47.21000 44.63000 40.30000
C  46.34500 43.59900 39.58000
C  47.23400 42.33000 39.63100
C  48.53700 42.80300 40.36700
C  46.57000 41.17500 40.40200
C  46.11700 44.08900 38.04500
C  44.74900 44.06600 37.51300
H  44.57000 43.43000 36.10400
N  51.36600 43.50600 41.43100
C  51.00600 42.30000 40.99600
C  52.09800 41.44100 41.10800
C  53.18200 42.18900 41.57800
C  52.72200 43.50200 41.57400
C  51.91400 40.03000 40.67400
C  54.63800 41.73500 41.82700
O  54.88800 40.54700 41.77000
C  55.82700 42.60600 42.12200
N  51.74000 46.52300 41.97600
C  53.01900 46.00900 42.05000
C  54.03800 47.01900 42.64100
C  53.29300 48.38000 42.20600
C  51.82200 47.87900 42.19700
C  54.30600 46.90600 44.19100
C  53.84800 48.84900 40.86500
C  55.04700 49.81400 40.90200
N  49.01100 47.03400 41.53000
C  49.37400 48.33500 41.75100
C  48.15900 49.11800 41.69600
C  47.18600 48.21100 41.26700
C  47.77800 46.94800 41.13000
C  48.02400 50.62000 41.93300
C  45.80600 48.14900 40.83000
O  44.95900 48.99800 40.79200
C  45.58200 46.75300 40.34900
C  44.35000 46.13400 40.91300
O  44.22600 45.74900 42.04700
O  43.36700 46.03900 39.92200
C  42.18000 45.23700 40.34800
H  49.39400 40.97600 40.35100
H  54.41800 44.58600 42.36300
H  50.90800 49.83600 42.02400
H  45.41200 43.56500 40.14300
H  47.42200 41.90000 38.64800
H  45.54400 41.34000 40.73200
H  47.12900 40.94000 41.30800
H  46.58400 40.24700 39.83100
H  46.73700 43.41500 37.45400
H  46.50000 45.10600 37.96100
H  44.39900 45.09100 37.38500
H  44.04100 43.64900 38.22800
H  50.93500 39.65100 40.96500
H  52.65700 39.39600 41.15800
H  52.14200 39.87000 39.62000
H  55.66300 43.14000 43.05800
H  55.81600 43.37100 41.34600
H  56.74600 42.01900 42.11300
H  54.97700 47.03700 42.08800
H  53.47000 49.14100 42.96500
H  55.30100 47.22200 44.50200
H  54.35700 45.91700 44.64500
H  53.52200 47.47100 44.69600
H  53.09600 49.17000 40.14300
H  54.12400 47.97700 40.27200
H  54.97000 50.51100 40.06700
H  55.93500 49.18200 40.89100
H  55.08400 50.37400 41.83600
H  48.48200 51.34100 41.25500
H  48.31600 50.88900 42.94800
H  46.95000 50.80100 41.89600
H  45.42700 46.91900 39.28300
H  41.29800 45.59900 39.81900
H  41.94400 45.23100 41.41200
H  42.36000 44.18400 40.13200

