158

Mg 40.25600 9.36200 29.59500
C  42.35300 10.47900 32.27500
C  38.31900 7.94200 32.00000
C  38.56400 8.06200 27.13200
C  42.88800 10.14800 27.41600
N  40.39300 9.16200 32.00800
C  41.21400 9.82000 32.79400
C  40.67100 9.69900 34.28000
C  39.46700 8.68000 34.13400
C  39.32700 8.62600 32.67300
C  39.71000 7.31300 34.74500
C  40.29700 11.04600 34.99100
C  39.71000 10.96300 36.35800
H  40.36100 11.79300 37.53500
N  38.53900 8.25600 29.53700
C  37.87300 7.76700 30.63600
C  36.72000 7.06700 30.17100
C  36.75700 7.05500 28.71600
C  37.96300 7.77600 28.40900
C  35.77200 6.45900 31.13400
C  35.83500 6.34000 27.74000
O  36.16700 6.21600 26.55200
C  34.70700 5.65300 28.23000
N  40.63200 9.23500 27.54200
C  39.79300 8.52600 26.71500
C  40.07700 8.74500 25.24000
C  41.35100 9.62200 25.38600
C  41.73200 9.59600 26.82900
C  40.20600 7.56300 24.30000
C  41.04900 11.09300 25.06000
C  42.31200 11.93200 24.62300
N  42.25600 10.27900 29.70400
C  43.15700 10.53500 28.71200
C  44.26000 11.25400 29.24700
C  43.97600 11.28000 30.63100
C  42.76900 10.60000 30.88500
C  45.42300 11.76600 28.55800
C  44.36200 11.79000 31.96200
O  45.21700 12.53700 32.39500
C  43.34300 11.31100 33.02700
C  43.97200 10.54900 34.08200
O  44.37900 9.35700 33.96600
O  44.00000 11.28700 35.25600
C  44.53900 10.67200 36.49500
H  37.59500 7.57900 32.73300
H  37.92200 7.72200 26.31700
H  43.70200 10.50900 26.78400
H  41.54700 9.28000 34.77600
H  38.54900 9.06600 34.57700
H  39.76800 6.49200 34.03000
H  38.96000 7.01100 35.47600
H  40.70800 7.35500 35.18300
H  39.77400 11.67200 34.26700
H  41.19500 11.63900 35.16200
H  39.55400 9.89200 36.48600
H  38.67700 11.28000 36.22000
H  35.86900 6.99800 32.07600
H  35.95700 5.40900 31.36400
H  34.74000 6.64600 30.83700
H  34.13700 5.20900 27.41500
H  33.98300 6.33200 28.68000
H  35.04000 4.83500 28.87000
H  39.28800 9.35600 24.80100
H  42.23900 9.25200 24.87400
H  39.77900 6.70000 24.81100
H  41.23400 7.36000 23.99900
H  39.59500 7.72600 23.41200
H  40.51600 11.60800 25.85900
H  40.34500 11.13100 24.22800
H  42.05300 12.33800 23.64600
H  43.17200 11.26500 24.67500
H  42.48200 12.77900 25.28900
H  45.30800 12.31000 27.62100
H  46.07300 10.90500 28.40400
H  45.87100 12.45800 29.27000
H  42.89000 12.18700 33.49000
H  43.79500 10.29100 37.19500
H  45.15500 11.34600 37.09100
H  45.13200 9.81400 36.18100
Mg 30.01200 57.89800 40.18900
C  27.60000 55.79500 38.94900
C  32.51700 56.02200 39.08500
C  32.11200 60.64500 40.86700
C  27.28400 60.31300 40.90500
N  29.98600 56.06100 39.21200
C  28.93700 55.36500 38.75400
C  29.35200 53.92800 38.30300
C  30.88200 53.97500 38.51200
C  31.20500 55.45500 38.87600
C  31.61000 52.93300 39.45100
C  28.98100 53.53700 36.79600
C  28.86100 54.68400 35.80500
H  27.86600 54.55600 34.65400
N  32.04500 58.20600 40.14000
C  32.91100 57.28000 39.60500
C  34.23400 57.74000 39.85900
C  34.16900 59.08100 40.29000
C  32.70100 59.38400 40.42500
C  35.47000 56.95300 39.59200
C  35.43000 60.07700 40.44800
O  36.57500 59.79500 40.12500
C  35.24100 61.47600 41.07900
N  29.73000 60.22000 40.73400
C  30.80200 61.01000 41.06500
C  30.29800 62.43400 41.61100
C  28.79200 62.12600 41.72900
C  28.53000 60.78800 41.07200
C  30.96700 63.03900 42.88000
C  27.90200 63.30000 41.40100
C  27.19200 63.89300 42.61800
N  27.88400 58.04400 40.02100
C  26.94100 59.03400 40.38400
C  25.64000 58.58900 40.00900
C  25.84200 57.33600 39.41000
C  27.22300 57.06200 39.49000
C  24.37100 59.40300 40.08100
C  25.16600 56.24400 38.75200
O  24.02500 56.15200 38.41800
C  26.29800 55.15800 38.50800
C  25.88400 53.99900 39.26600
O  26.25300 53.61600 40.42100
O  24.85400 53.38600 38.59500
C  23.96000 52.45400 39.31300
H  33.37200 55.38800 38.84300
H  32.71500 61.44900 41.29400
H  26.44000 60.95900 41.15700
H  28.87000 53.29900 39.05200
H  31.37200 53.94200 37.53900
H  30.88800 52.18900 39.78700
H  32.12000 53.47700 40.24600
H  32.41400 52.45800 38.88800
H  28.06300 52.95200 36.86400
H  29.77700 52.86300 36.48100
H  29.80800 54.95800 35.33800
H  28.57400 55.59100 36.33600
H  35.27800 55.88400 39.49100
H  36.36800 57.12500 40.18400
H  35.63400 57.18000 38.53800
H  36.20600 61.90300 41.35100
H  34.76800 61.34100 42.05100
H  34.81100 62.13900 40.32800
H  30.40000 63.13900 40.78600
H  28.75100 61.88900 42.79200
H  31.74500 62.39800 43.29500
H  30.24000 63.24100 43.66600
H  31.49900 63.97000 42.68300
H  27.15800 63.09000 40.63300
H  28.49200 64.13400 41.02200
H  27.82300 64.55400 43.21100
H  26.83300 63.18500 43.36500
H  26.35000 64.49100 42.26900
H  24.48200 60.11800 40.89600
H  23.54600 58.71700 40.27200
H  24.19700 59.97600 39.17000
H  26.24500 55.04200 37.42500
H  23.56800 51.82000 38.51900
H  23.20000 53.10100 39.75100
H  24.50900 51.84800 40.03400

