158

Mg 24.56000 -4.64900 45.73800
C  26.81900 -2.56600 44.32200
C  22.10100 -3.66900 43.62700
C  22.74800 -7.45700 46.55300
C  27.24900 -6.08900 47.74700
N  24.56600 -3.44000 43.96800
C  25.55000 -2.54300 43.70100
C  25.08600 -1.57500 42.61400
C  23.51800 -1.79300 42.52200
C  23.37900 -3.05900 43.43300
C  22.59900 -0.57400 42.81600
C  25.77300 -1.73400 41.18900
C  25.67600 -0.43700 40.33700
H  25.08700 -0.55300 38.89100
N  22.64000 -5.40300 45.24200
C  21.76200 -4.83800 44.39400
C  20.55700 -5.65000 44.29200
C  20.74300 -6.71100 45.20400
C  22.06000 -6.56300 45.70100
C  19.32100 -5.28300 43.41300
C  19.75200 -7.83500 45.55900
O  18.64900 -7.74200 45.01400
C  19.92500 -9.03900 46.44100
N  24.95700 -6.51600 46.89400
C  24.05500 -7.50700 46.99300
C  24.71800 -8.79300 47.41100
C  26.04700 -8.28900 48.11200
C  26.08800 -6.87600 47.58600
C  23.86000 -9.64900 48.34400
C  27.29200 -9.20100 47.96200
C  28.18600 -9.41100 49.19400
N  26.63700 -4.31000 46.15500
C  27.56300 -4.93800 46.96800
C  28.88100 -4.15100 46.90500
C  28.59700 -3.15800 45.85300
C  27.25000 -3.39800 45.36000
C  30.08100 -4.44600 47.80700
C  29.04100 -1.99800 45.08900
O  30.03600 -1.34000 45.18700
C  27.98900 -1.63900 44.06000
C  27.62500 -0.18800 44.25900
O  27.28000 0.26100 45.31700
O  27.64400 0.44200 43.08000
C  27.45500 1.88600 43.16500
H  21.27700 -3.09100 43.20400
H  22.27800 -8.43500 46.67200
H  28.04300 -6.50800 48.36800
H  25.16700 -0.59400 43.08100
H  23.16500 -2.00500 41.51300
H  21.74700 -0.73900 42.15700
H  23.13000 0.26400 42.36200
H  22.39800 -0.46100 43.88100
H  25.17100 -2.51500 40.72400
H  26.79300 -2.12000 41.21200
H  26.69000 -0.11800 40.09800
H  25.26300 0.38500 40.92300
H  18.34200 -5.31000 43.89300
H  19.15800 -5.92400 42.54600
H  19.30400 -4.24200 43.09200
H  19.96900 -8.76900 47.49600
H  20.73200 -9.66800 46.06300
H  19.01100 -9.63000 46.49900
H  24.94500 -9.47600 46.59200
H  25.81700 -8.16400 49.17000
H  24.35200 -9.86600 49.29300
H  23.58400 -10.55300 47.80200
H  22.99900 -9.04400 48.63000
H  27.84300 -8.81600 47.10400
H  26.96100 -10.19700 47.66600
H  29.17400 -9.35400 48.73700
H  27.98200 -10.37500 49.65900
H  28.12600 -8.65200 49.97500
H  30.74100 -5.06700 47.20100
H  29.90400 -4.94400 48.76000
H  30.65600 -3.52400 47.89700
H  28.41200 -1.73300 43.06000
H  27.87900 2.21900 44.11200
H  26.37700 1.99600 43.04700
H  27.80900 2.42400 42.28600
Mg 17.33200 -0.42700 27.41700
C  16.12000 1.45000 29.95100
C  19.56500 -1.99100 29.48700
C  18.52800 -2.02200 24.73100
C  15.32800 1.45400 25.21700
N  17.96000 -0.07600 29.48600
C  17.10500 0.64100 30.41900
C  17.50600 0.20900 31.85700
C  18.75700 -0.70600 31.66900
C  18.80900 -0.95100 30.11500
C  20.09800 -0.18100 32.24400
C  16.33100 -0.49800 32.71300
C  16.21800 0.05800 34.11300
H  17.40500 0.65200 34.90200
N  18.71000 -1.89700 27.19200
C  19.63400 -2.37800 28.14200
C  20.51600 -3.32100 27.52800
C  20.23100 -3.42500 26.12900
C  19.11800 -2.40300 25.98600
C  21.43800 -4.11600 28.43100
C  20.76900 -4.38600 25.02300
O  20.24500 -4.41900 23.89900
C  21.84800 -5.28600 25.25600
N  17.03200 -0.31200 25.25500
C  17.56900 -1.09500 24.37700
C  17.01500 -0.98000 22.99500
C  15.86400 -0.05000 23.21700
C  16.04700 0.41600 24.66000
C  18.09800 -0.49600 21.95500
C  14.49000 -0.67000 22.91100
C  14.16200 -0.67000 21.35600
N  16.17900 1.26400 27.44900
C  15.33200 1.87100 26.51400
C  14.55500 2.89300 27.20400
C  14.77900 2.77700 28.52900
C  15.84200 1.80000 28.61600
C  13.59000 3.86400 26.52400
C  14.49900 3.21400 29.78300
O  13.88500 4.20000 30.16400
C  15.19000 2.30700 30.79900
C  15.83800 3.21000 31.70800
O  16.82300 3.85400 31.42400
O  15.10800 3.41200 32.82400
C  15.54600 4.27800 33.90900
H  20.10300 -2.48700 30.29700
H  18.87900 -2.51800 23.82400
H  14.55300 2.03000 24.70800
H  17.72800 1.18800 32.28200
H  18.52000 -1.61200 32.22600
H  20.49200 -0.88300 32.98000
H  20.04600 0.80200 32.71100
H  20.91000 -0.07100 31.52600
H  16.35800 -1.58600 32.64700
H  15.45900 -0.05500 32.23200
H  15.85800 -0.76200 34.73400
H  15.40400 0.78300 34.09500
H  21.77100 -3.50300 29.26800
H  22.33000 -4.49900 27.93500
H  20.87400 -4.96900 28.80900
H  21.50500 -5.87000 26.11000
H  22.69800 -4.65100 25.50700
H  22.19300 -5.93000 24.44700
H  16.58100 -1.92200 22.65900
H  15.99900 0.79800 22.54600
H  17.92000 0.50600 21.56400
H  18.10300 -1.19900 21.12300
H  19.10400 -0.53800 22.37400
H  13.72100 -0.01800 23.32600
H  14.40600 -1.73200 23.14200
H  13.50600 0.11900 20.98900
H  13.68400 -1.64900 21.31200
H  15.08100 -0.75300 20.77500
H  14.13400 4.66100 26.01700
H  12.82500 4.21500 27.21600
H  12.99900 3.17600 25.91900
H  14.41500 1.79700 31.37200
H  16.06800 3.64100 34.62300
H  14.64000 4.71900 34.32400
H  16.30400 5.03400 33.70100

