158

Mg 25.52800 -8.42100 47.28800
C  27.87500 -6.05800 46.54500
C  23.43600 -6.95700 44.92900
C  23.23200 -10.83700 47.95100
C  28.00500 -10.26900 48.98500
N  25.61200 -6.68200 45.91400
C  26.72200 -5.87200 45.77300
C  26.59000 -4.86900 44.66800
C  25.09200 -4.96900 44.34800
C  24.61400 -6.26200 45.12600
C  24.23400 -3.66200 44.77600
C  27.46500 -5.25900 43.46900
C  28.37400 -4.25300 42.77600
H  27.96500 -3.67700 41.41000
N  23.54800 -8.81200 46.62100
C  22.86900 -8.07700 45.57800
C  21.61600 -8.77000 45.33400
C  21.49400 -9.71800 46.33400
C  22.77200 -9.83200 47.02100
C  20.60900 -8.23200 44.31800
C  20.25800 -10.49600 46.61400
O  19.31900 -10.42400 45.83800
C  20.07500 -11.33500 47.89400
N  25.59700 -10.27200 48.27900
C  24.50700 -11.03900 48.55500
C  24.93100 -12.35600 49.25700
C  26.47500 -12.30600 49.23700
C  26.76800 -10.87400 48.77100
C  24.19300 -12.51300 50.60200
C  27.35000 -13.34100 48.49100
C  27.74500 -14.56000 49.30300
N  27.53100 -8.29400 47.71900
C  28.40000 -9.05900 48.42800
C  29.71300 -8.44300 48.43500
C  29.56500 -7.19700 47.81600
C  28.18800 -7.15300 47.39500
C  30.99100 -9.05500 48.90400
C  30.28000 -6.03900 47.30100
O  31.45300 -5.65600 47.45800
C  29.22800 -5.25300 46.46400
C  29.04600 -3.83300 46.93600
O  28.55500 -3.51200 48.00600
O  29.49400 -2.96200 45.94700
C  29.12500 -1.59000 46.02100
H  22.89600 -6.38600 44.17100
H  22.52900 -11.65900 48.10100
H  28.76700 -10.86700 49.48900
H  26.91100 -3.91000 45.07600
H  24.88500 -5.16400 43.29600
H  23.67400 -3.78100 45.70300
H  23.48100 -3.44400 44.01900
H  24.85400 -2.77400 44.90200
H  26.80500 -5.58400 42.66400
H  28.00000 -6.16600 43.74900
H  29.27400 -4.82600 42.55300
H  28.71800 -3.42700 43.39900
H  21.00200 -7.34400 43.82500
H  19.76500 -7.73700 44.79900
H  20.31200 -9.02200 43.62800
H  20.52200 -12.26600 47.54500
H  19.01400 -11.44600 48.11900
H  20.62500 -10.90600 48.73200
H  24.51700 -13.09900 48.57500
H  26.65800 -12.24800 50.31000
H  24.55400 -13.34400 51.20700
H  23.12500 -12.50200 50.38500
H  24.47600 -11.61700 51.15400
H  28.18600 -12.86700 47.97700
H  26.65500 -13.75200 47.75800
H  28.73800 -14.80600 48.92600
H  27.02300 -15.31100 48.98200
H  27.68200 -14.41100 50.38100
H  31.55300 -8.30100 49.45500
H  31.56500 -9.50100 48.09100
H  30.82600 -9.94600 49.50900
H  29.46000 -5.27400 45.39900
H  28.13200 -1.54600 45.57400
H  29.82800 -0.92400 45.52200
H  29.11200 -1.16700 47.02600
Mg 46.48900 24.84300 28.57900
C  46.97300 26.88700 31.41100
C  45.12500 22.53400 30.69100
C  46.67000 22.70900 26.05200
C  47.78000 27.36500 26.54800
N  46.29500 24.73500 30.84300
C  46.43000 25.67500 31.72100
C  45.96400 25.30500 33.19800
C  45.41800 23.82500 32.87900
C  45.61300 23.73900 31.35500
C  46.12100 22.67000 33.63900
C  44.90200 26.31100 33.78300
C  45.05600 26.94600 35.16700
H  44.05100 26.71900 36.26500
N  45.90200 22.85300 28.39500
C  45.31600 22.11000 29.36000
C  44.92500 20.87300 28.65900
C  45.61900 20.76700 27.41000
C  46.07900 22.18000 27.23000
C  44.16800 19.78400 29.37300
C  45.62900 19.53300 26.41300
O  46.04600 19.61900 25.27200
C  45.08200 18.21000 26.84300
N  47.18300 25.08000 26.57800
C  47.12500 23.97500 25.69000
C  47.82600 24.37400 24.32900
C  47.87800 25.94400 24.43800
C  47.53800 26.15300 25.91600
C  49.18400 23.71400 24.03600
C  46.99300 26.72800 23.38300
C  45.45200 26.71300 23.41600
N  47.20100 26.74300 28.85400
C  47.70700 27.68000 27.93000
C  48.06500 28.88600 28.52700
C  47.83000 28.60900 29.94600
C  47.31200 27.30200 30.09700
C  48.67300 30.03100 27.85900
C  47.91700 29.23000 31.21800
O  48.24500 30.38800 31.53300
C  47.52500 28.02300 32.28500
C  48.75300 27.70100 32.99900
O  49.73200 27.09000 32.49500
O  48.62000 27.78400 34.39200
C  49.70900 27.17600 35.19300
H  44.70900 21.75600 31.33400
H  46.74400 21.86400 25.36300
H  48.31500 28.07100 25.90900
H  46.91700 25.32900 33.72500
H  44.36700 23.65800 33.11700
H  45.49200 22.25400 34.42600
H  47.00700 23.12700 34.08200
H  46.41600 21.91700 32.90800
H  43.89000 25.90500 33.77000
H  44.86300 27.17200 33.11600
H  45.34800 27.98900 35.03800
H  45.92400 26.42700 35.57200
H  43.45700 19.35300 28.66900
H  43.50500 20.14000 30.16100
H  44.78000 18.97600 29.77500
H  45.36600 17.79000 27.80800
H  45.53000 17.45400 26.19800
H  43.99500 18.20100 26.77000
H  47.10400 24.12100 23.55200
H  48.91200 26.29000 24.41600
H  49.86800 24.25300 23.37900
H  49.05800 22.71100 23.62900
H  49.75300 23.62800 24.96100
H  47.42900 26.45000 22.42400
H  47.29500 27.77400 23.32900
H  45.12600 25.99100 24.16400
H  45.23200 26.44000 22.38400
H  45.03800 27.68900 23.66500
H  49.50500 29.72600 27.22400
H  49.05700 30.70500 28.62500
H  47.95200 30.65800 27.33400
H  46.73100 28.37100 32.94500
H  49.68900 27.60400 36.19500
H  50.68500 27.31800 34.72700
H  49.35700 26.14500 35.16700

