158

Mg 0.66000 8.44100 27.63000
C  1.66800 10.73300 30.14700
C  0.68900 5.97000 30.03600
C  -0.02600 6.36100 25.15100
C  0.98100 11.12000 25.32600
N  1.12300 8.46700 29.84200
C  1.49600 9.46500 30.68400
C  1.59300 8.95100 32.14300
C  1.66200 7.41100 31.92400
C  1.03500 7.23800 30.53400
C  3.06300 6.76900 31.94000
C  0.31700 9.31200 33.00000
C  0.48400 9.49300 34.53500
H  -0.31200 8.52600 35.44900
N  0.24100 6.43100 27.61600
C  0.25000 5.59100 28.70900
C  -0.30300 4.32700 28.30900
C  -0.41700 4.40000 26.88700
C  -0.06100 5.74300 26.48500
C  -0.65700 3.19400 29.25000
C  -0.87400 3.28800 25.94700
O  -1.01700 3.45900 24.76500
C  -1.15600 2.04000 26.49500
N  0.77100 8.66700 25.52000
C  0.32000 7.67600 24.73300
C  0.07900 8.14800 23.30100
C  0.05200 9.69800 23.45600
C  0.61200 9.87900 24.89700
C  1.12500 7.44200 22.30900
C  -1.38600 10.24600 23.33200
C  -2.01400 10.38800 21.90100
N  1.26900 10.45800 27.61000
C  1.43300 11.44600 26.61600
C  1.77300 12.69700 27.21100
C  1.85600 12.50800 28.54300
C  1.55300 11.10400 28.77000
C  1.79400 13.81900 26.35100
C  2.06800 13.16500 29.81400
O  2.24000 14.36800 30.09000
C  1.78900 12.04900 30.89500
C  2.88300 12.12400 31.90900
O  4.06800 12.00400 31.68700
O  2.31900 12.39600 33.13200
C  3.24900 12.58200 34.29500
H  0.70300 5.15800 30.76600
H  -0.18100 5.62700 24.35700
H  0.78200 11.94500 24.63900
H  2.47000 9.32300 32.67300
H  1.10900 6.86300 32.68700
H  3.79000 7.53600 32.20800
H  3.33300 6.20600 31.04700
H  3.28600 6.09900 32.77000
H  -0.45200 8.55100 32.86600
H  -0.27600 10.16100 32.65700
H  0.26800 10.54200 34.74100
H  1.51500 9.35300 34.85900
H  -1.71500 2.93200 29.24800
H  -0.46400 3.59400 30.24500
H  0.04600 2.36300 29.18100
H  -2.10900 2.10300 27.02100
H  -0.23500 1.76800 27.01000
H  -1.26200 1.25300 25.74900
H  -0.90600 7.79500 22.99700
H  0.70600 10.02000 22.64600
H  1.94000 8.14500 22.13400
H  0.70300 7.20600 21.33200
H  1.39800 6.49800 22.78000
H  -1.42700 11.22400 23.81300
H  -2.06300 9.51400 23.77300
H  -1.31000 10.13100 21.11000
H  -2.36500 11.41500 21.79400
H  -2.91300 9.77400 21.84000
H  0.76900 14.11000 26.12100
H  2.46100 13.62900 25.51000
H  2.20700 14.68700 26.86500
H  0.82000 12.22600 31.36100
H  3.70200 13.56500 34.16700
H  3.98400 11.78200 34.38200
H  2.65500 12.45900 35.20100
Mg 44.58200 5.33900 47.23000
C  42.63600 8.22800 47.01300
C  41.82300 3.52700 46.36000
C  46.62900 2.71700 46.70800
C  47.40500 7.40200 47.57600
N  42.46200 5.82900 46.66900
C  41.89800 7.11800 46.66700
C  40.40600 7.10600 46.20800
C  40.11400 5.55000 46.35100
C  41.50400 4.85800 46.49900
C  39.21600 5.25300 47.63500
C  40.01700 7.89700 44.94900
C  41.11900 7.74700 43.82200
H  40.74400 8.11500 42.38300
N  44.29200 3.37500 46.70100
C  43.03300 2.76400 46.44800
C  43.23400 1.36600 46.04000
C  44.64200 1.15800 45.97800
C  45.26000 2.40300 46.46900
C  42.20200 0.34900 45.58700
C  45.30400 -0.13900 45.30700
O  44.55900 -1.00500 44.87900
C  46.83000 -0.25200 45.29000
N  46.73400 5.15900 47.07700
C  47.29500 3.92600 46.92200
C  48.83600 4.03500 46.89000
C  49.03200 5.55200 47.20600
C  47.64300 6.06400 47.31400
C  49.58200 3.21600 47.98900
C  49.89400 6.32800 46.14600
C  51.02100 7.19900 46.69400
N  45.02600 7.37300 47.31500
C  46.19800 8.08400 47.51100
C  45.91200 9.50100 47.52600
C  44.52200 9.60800 47.36400
C  44.04200 8.27200 47.23400
C  46.86900 10.66200 47.37800
C  43.39000 10.53700 47.14800
O  43.41700 11.77500 47.00000
C  42.09800 9.63100 47.21000
C  41.46700 9.82800 48.46000
O  41.66900 9.18200 49.45400
O  40.49600 10.83200 48.34900
C  39.53700 10.77200 49.45500
H  40.87600 3.04200 46.11400
H  47.21800 1.80300 46.60500
H  48.26800 8.07100 47.58700
H  39.77900 7.62300 46.93400
H  39.68500 5.16300 45.42600
H  39.05900 6.14100 48.24800
H  39.68600 4.49000 48.25600
H  38.31800 4.85900 47.16000
H  40.04400 8.94600 45.24400
H  39.07600 7.44900 44.62800
H  41.38700 6.69500 43.72500
H  41.96200 8.33300 44.18800
H  42.08500 -0.53500 46.21400
H  42.41400 0.08100 44.55200
H  41.25700 0.88600 45.66500
H  46.97600 -1.23900 44.85100
H  47.25200 -0.30900 46.29300
H  47.19900 0.60900 44.73400
H  49.15000 3.63800 45.92500
H  49.46300 5.68600 48.19800
H  49.19900 3.35000 49.00100
H  50.61600 3.51900 47.82700
H  49.49400 2.13400 47.88700
H  49.26300 7.07900 45.67000
H  50.30900 5.65600 45.39500
H  51.91400 7.04700 46.08700
H  51.17700 6.91800 47.73500
H  50.87500 8.27500 46.60400
H  47.51200 10.55700 46.50500
H  47.47000 10.62800 48.28700
H  46.43700 11.66300 47.39500
H  41.48400 10.00800 46.39200
H  38.98300 9.83400 49.49000
H  38.66900 11.40300 49.26300
H  39.92500 10.89200 50.46700

