158

Mg 41.22000 8.13300 29.71400
C  43.19600 9.62900 32.32000
C  39.05500 7.02400 32.11100
C  39.69600 6.46000 27.22900
C  43.88200 8.81500 27.57700
N  41.12800 8.36800 31.92000
C  42.00200 9.01300 32.78900
C  41.45700 9.06200 34.20500
C  40.26800 8.00900 34.14900
C  40.15400 7.73600 32.61700
C  40.48600 6.70300 34.96000
C  41.13700 10.51900 34.59200
C  40.44400 10.59200 35.94000
H  40.81400 11.52000 37.03400
N  39.55800 7.01400 29.64500
C  38.71200 6.65900 30.77500
C  37.55600 5.86100 30.29800
C  37.61700 5.90600 28.87200
C  39.00900 6.46500 28.52300
C  36.54600 5.19200 31.26300
C  36.69100 5.53200 27.78500
O  36.87600 5.58700 26.57000
C  35.35300 5.08300 28.16700
N  41.64700 7.84200 27.65000
C  40.93500 6.98500 26.84200
C  41.52400 6.86700 25.43500
C  42.86900 7.64400 25.54600
C  42.85000 8.11400 27.04000
C  41.61300 5.34900 24.94100
C  43.21000 8.69600 24.45800
C  42.53700 8.79400 23.09200
N  43.11600 9.07500 29.83800
C  44.01900 9.31700 28.87400
C  45.06300 10.12100 29.38800
C  44.73800 10.33200 30.69500
C  43.59800 9.61700 30.96900
C  46.21000 10.58800 28.60300
C  45.13700 11.03100 31.88500
O  46.06500 11.84900 32.02300
C  44.23500 10.51100 32.98100
C  44.95300 9.74800 34.02800
O  45.17000 8.52600 34.07500
O  45.14800 10.62500 35.03900
C  45.22900 10.10400 36.38800
H  38.35200 6.61300 32.83900
H  39.27100 5.80100 26.46900
H  44.74900 9.07300 26.96600
H  42.22500 8.73400 34.90500
H  39.34100 8.40000 34.56900
H  40.67700 5.83200 34.33400
H  39.65200 6.64800 35.66000
H  41.36700 6.85700 35.58200
H  40.66300 11.00700 33.74000
H  42.01500 11.14900 34.73300
H  40.34400 9.57100 36.30900
H  39.44600 10.90800 35.63500
H  36.09500 4.32300 30.78300
H  35.74700 5.88100 31.53600
H  37.01300 4.84200 32.18400
H  34.69300 5.02200 27.30100
H  34.93700 5.84400 28.82700
H  35.40800 4.10100 28.63800
H  40.77700 7.52600 24.99400
H  43.69000 6.93400 25.45100
H  42.58600 5.10000 24.51800
H  40.85900 5.11300 24.19000
H  41.44600 4.74300 25.83200
H  44.28800 8.85100 24.48400
H  42.85100 9.61800 24.91600
H  43.38400 8.93400 22.42000
H  41.92400 9.67100 22.88800
H  42.03200 7.84500 22.90900
H  46.05400 10.90800 27.57300
H  47.03300 9.87700 28.52400
H  46.50000 11.45200 29.20000
H  43.76200 11.41800 33.35700
H  44.25600 10.33900 36.81900
H  46.08500 10.59700 36.84900
H  45.29200 9.01700 36.42000
Mg 53.58800 24.71400 45.06500
C  50.74000 26.70800 44.35900
C  51.95700 22.01800 43.57300
C  56.47500 23.39900 44.69800
C  55.16400 27.92000 45.76900
N  51.76700 24.50300 43.83500
C  50.70600 25.40500 43.69300
C  49.53200 24.74700 42.88600
C  49.76500 23.27900 43.42100
C  51.27300 23.23700 43.54500
C  49.00700 22.88500 44.69800
C  49.85800 24.97600 41.37700
C  48.58800 25.41700 40.54100
H  48.32000 24.54900 39.27100
N  54.14800 22.87100 44.40200
C  53.29400 21.85900 43.83200
C  54.13200 20.70700 43.56300
C  55.51200 21.06700 43.78200
C  55.43200 22.48200 44.38400
C  53.54200 19.36100 43.08300
C  56.75500 20.19100 43.57200
O  56.66000 19.07800 43.09400
C  58.14800 20.62700 43.81900
N  55.54800 25.54100 45.03100
C  56.57300 24.71900 44.98600
C  57.90500 25.45600 45.26600
C  57.45300 26.92300 45.60000
C  55.93100 26.79600 45.45900
C  58.74100 24.88200 46.43200
C  58.16100 28.08500 44.82000
C  59.01100 29.14800 45.59700
N  53.00200 26.72300 45.47700
C  53.75400 27.83000 45.78200
C  52.84800 28.91300 46.01900
C  51.64500 28.55000 45.46200
C  51.81900 27.24000 45.10600
C  53.31400 30.23900 46.58600
C  50.29800 28.96900 45.16100
O  49.81000 30.04400 45.37300
C  49.68300 27.77200 44.36100
C  49.33800 28.38600 43.06500
O  50.19300 28.61800 42.19700
O  48.02300 28.72600 43.16000
C  47.56900 29.46300 41.97700
H  51.32800 21.15300 43.35000
H  57.40300 22.82700 44.74400
H  55.73300 28.83500 45.94800
H  48.58600 25.21100 43.16400
H  49.43200 22.67400 42.57700
H  49.79800 22.71500 45.42800
H  48.54800 21.91600 44.50500
H  48.37600 23.70900 45.03200
H  50.22300 23.99000 41.08900
H  50.60600 25.76200 41.27700
H  48.82100 26.40000 40.13300
H  47.64300 25.46800 41.08200
H  53.64300 19.18400 42.01300
H  52.52000 19.43900 43.45500
H  53.91500 18.53000 43.68100
H  58.31800 21.43100 43.10400
H  58.93100 19.87300 43.73600
H  58.05700 21.00100 44.83900
H  58.43500 25.36900 44.31800
H  57.69400 27.11000 46.64600
H  58.13400 24.07600 46.84500
H  59.03200 25.63700 47.16200
H  59.72700 24.58100 46.07900
H  57.36400 28.65300 44.33900
H  58.74000 27.63000 44.01600
H  60.05600 28.84400 45.53200
H  58.83100 29.24600 46.66800
H  58.77900 30.12100 45.16400
H  52.46500 30.62700 47.14800
H  53.56800 31.08500 45.94600
H  54.08800 29.89500 47.27100
H  48.79100 27.28900 44.76000
H  46.58800 29.89200 42.18000
H  47.54600 28.65600 41.24400
H  48.18600 30.33200 41.75000

