158

Mg 17.45900 -2.49800 27.18800
C  16.57300 -0.51500 30.03100
C  19.13100 -4.44500 29.36000
C  18.32300 -4.04000 24.47600
C  15.80200 -0.06300 25.22200
N  17.93900 -2.38700 29.55900
C  17.39400 -1.60300 30.47000
C  17.64600 -1.98900 31.90100
C  18.59000 -3.25100 31.59700
C  18.57100 -3.39500 30.10900
C  19.97200 -3.19000 32.31700
C  16.37300 -2.23900 32.78700
C  16.28200 -1.44400 34.03800
H  17.57500 -0.93800 34.84700
N  18.51400 -4.11000 26.94600
C  19.14200 -4.80400 27.90000
C  19.95800 -5.80900 27.29300
C  19.63000 -5.75400 25.91100
C  18.71900 -4.65400 25.72700
C  20.87000 -6.65000 28.15100
C  20.09400 -6.65300 24.82200
O  19.75200 -6.59200 23.63100
C  20.85400 -7.89200 25.13800
N  16.96600 -2.14200 25.04100
C  17.54300 -2.94000 24.13700
C  17.21700 -2.41300 22.69900
C  16.31800 -1.16900 23.00600
C  16.37800 -1.09400 24.50900
C  18.53700 -2.11100 21.92700
C  14.79200 -1.39500 22.52400
C  14.39500 -0.63300 21.28200
N  16.32000 -0.70600 27.51700
C  15.74800 0.15600 26.61900
C  15.14100 1.25700 27.26800
C  15.34100 1.05000 28.63400
C  16.05100 -0.18000 28.73800
C  14.54700 2.48800 26.62900
C  15.25400 1.58500 29.97200
O  14.65000 2.62600 30.28300
C  15.90300 0.60500 30.96200
C  16.86100 1.51400 31.71900
O  17.97400 1.79700 31.31300
O  16.21000 2.00700 32.81400
C  16.93300 3.05500 33.51800
H  19.64500 -5.09900 30.06700
H  18.84700 -4.52500 23.65000
H  15.26700 0.66600 24.60800
H  18.10900 -1.09000 32.31000
H  17.98200 -4.08100 31.95800
H  20.73400 -2.88100 31.60300
H  20.29300 -4.17800 32.64800
H  20.03000 -2.50800 33.16500
H  16.15000 -3.29600 32.93300
H  15.54000 -1.86600 32.19200
H  15.59200 -2.00300 34.67000
H  15.70900 -0.54700 33.80600
H  21.87700 -6.80700 27.76300
H  20.59900 -7.70400 28.20700
H  21.09100 -6.42000 29.19300
H  20.28700 -8.56400 25.78300
H  21.80100 -7.62600 25.60700
H  21.06800 -8.39600 24.19500
H  16.75800 -3.22400 22.13400
H  16.66000 -0.21600 22.60300
H  18.62300 -2.69300 21.00900
H  19.38800 -2.35000 22.56500
H  18.63000 -1.05200 21.68600
H  14.08600 -0.98900 23.24800
H  14.49600 -2.43300 22.37400
H  15.27200 -0.34500 20.70200
H  13.95400 0.29600 21.64400
H  13.70900 -1.16900 20.62700
H  13.47400 2.36700 26.48100
H  14.90000 2.67100 25.61400
H  14.77100 3.34300 27.26600
H  15.19300 0.25100 31.70900
H  17.11500 3.85800 32.80400
H  17.87900 2.65100 33.87900
H  16.28900 3.43400 34.31200
Mg 36.46600 50.09500 25.80000
C  36.28800 48.30700 28.90700
C  35.10800 52.79500 27.52500
C  36.11300 51.72000 22.89700
C  36.99600 47.12300 24.06900
N  35.64000 50.45800 27.93800
C  35.89300 49.63400 29.04700
C  35.68600 50.45300 30.37800
C  35.27100 51.83000 29.86500
C  35.39400 51.67700 28.34300
C  33.94900 52.38800 30.47200
C  36.99400 50.46000 31.29000
C  36.81800 50.33400 32.85400
H  35.38200 50.50300 33.34300
N  35.86700 52.03400 25.22200
C  35.31100 52.95000 26.11100
C  35.01400 54.20300 25.36100
C  35.37100 53.96800 24.00200
C  35.77400 52.53300 23.95100
C  34.24400 55.32200 25.95100
C  35.20600 54.88000 22.70200
O  35.34800 54.45500 21.56300
C  34.94900 56.31800 22.87900
N  36.60400 49.57200 23.79100
C  36.50100 50.42100 22.81400
C  36.60300 49.77800 21.39800
C  36.92800 48.27200 21.74900
C  36.89200 48.29200 23.30200
C  35.28000 49.84500 20.58000
C  38.20400 47.66400 21.09500
C  39.56700 47.72600 21.70100
N  36.78300 48.11300 26.31000
C  36.99100 46.97800 25.54100
C  37.12800 45.80800 26.36600
C  36.85800 46.30900 27.69500
C  36.60600 47.72200 27.64400
C  37.35900 44.34100 25.88500
C  36.85700 45.96200 29.17900
O  36.97100 44.81300 29.63300
C  36.26800 47.17900 29.95000
C  34.74500 46.77100 30.21400
O  33.77200 47.00800 29.45700
O  34.61300 46.04700 31.40300
C  33.17900 45.71400 31.73100
H  34.82300 53.68000 28.09700
H  35.97400 52.10600 21.88500
H  37.11600 46.22900 23.45400
H  34.96800 49.86800 30.95300
H  36.07300 52.55000 30.02800
H  33.12300 52.34300 29.76300
H  34.14100 53.45400 30.59200
H  33.60700 51.85200 31.35800
H  37.56300 51.38900 31.26300
H  37.60700 49.60200 31.01400
H  37.51000 51.05100 33.29600
H  37.22200 49.37300 33.17200
H  34.05200 55.36500 27.02300
H  33.32400 55.43900 25.38000
H  34.94600 56.15400 25.88600
H  35.38500 56.66700 23.81500
H  33.86100 56.38100 22.89100
H  35.36600 56.92100 22.07300
H  37.44600 50.23800 20.88200
H  36.12500 47.63800 21.37400
H  34.39900 49.96600 21.21000
H  35.13000 48.95000 19.97500
H  35.25700 50.73400 19.95100
H  38.36500 47.91200 20.04600
H  37.92900 46.60900 21.08100
H  39.71200 48.58900 22.35100
H  40.34200 47.80500 20.93900
H  39.78800 46.84800 22.30700
H  38.02400 44.27700 25.02400
H  36.64300 43.51900 25.86800
H  38.09700 44.11900 26.65600
H  36.72900 47.40600 30.91200
H  33.29900 44.93200 32.48100
H  32.51800 45.35400 30.94300
H  32.74700 46.54500 32.28900

