158

Mg 28.25800 56.50700 40.36900
C  25.98600 53.95900 39.32600
C  30.65100 54.58000 38.91800
C  30.37300 59.16400 40.20600
C  25.50500 58.68700 40.63600
N  28.19500 54.53000 39.14200
C  27.26300 53.65800 38.91500
C  27.76900 52.37600 38.25700
C  29.32600 52.53500 38.43500
C  29.40500 53.98700 38.93500
C  29.90600 51.64000 39.48000
C  27.29900 52.09200 36.86200
C  27.81800 53.12500 35.73500
H  26.82400 53.71100 34.71400
N  30.33400 56.77600 39.87600
C  31.11800 55.85500 39.30300
C  32.50700 56.34900 39.30700
C  32.38600 57.74400 39.72900
C  31.00400 57.97200 40.00000
C  33.69900 55.53900 38.82100
C  33.58300 58.70500 39.81300
O  34.66200 58.36800 39.26300
C  33.51000 59.97400 40.59900
N  27.98000 58.55000 40.36100
C  29.02100 59.44600 40.37200
C  28.46200 60.88700 40.62100
C  26.91900 60.77700 40.51200
C  26.78300 59.26700 40.50600
C  28.87700 61.40600 41.98500
C  26.30800 61.41600 39.26600
C  25.23000 62.48700 39.53800
N  26.19400 56.30300 40.36400
C  25.20100 57.27800 40.55700
C  23.89700 56.59000 40.56700
C  24.18600 55.26900 40.09000
C  25.59200 55.21200 39.93300
C  22.62000 57.31400 40.98800
C  23.58600 54.00000 39.81000
O  22.42200 53.63000 39.86500
C  24.72100 53.09700 39.19800
C  24.81300 51.81200 39.95700
O  24.53100 50.69600 39.50200
O  25.37900 52.02600 41.23700
C  25.66100 50.81500 42.07200
H  31.42300 53.93200 38.49700
H  30.92900 60.08500 40.01800
H  24.63200 59.33800 40.71400
H  27.41800 51.55900 38.88700
H  29.83300 52.36900 37.48400
H  29.39000 50.68900 39.61100
H  29.97700 52.16100 40.43500
H  30.91500 51.38800 39.15400
H  26.21200 52.02200 36.91600
H  27.73300 51.14100 36.55200
H  28.67400 52.79600 35.14500
H  28.22200 53.95400 36.31500
H  34.03100 55.81800 37.82100
H  33.39900 54.49500 38.73000
H  34.55200 55.61800 39.49300
H  32.69500 59.84200 41.31000
H  33.36400 60.74200 39.83800
H  34.44200 60.31100 41.05300
H  28.86900 61.58900 39.89300
H  26.40400 61.15200 41.39700
H  29.70700 60.90400 42.48300
H  28.04300 61.53400 42.67400
H  29.21400 62.43600 41.86600
H  26.00100 60.53700 38.69900
H  27.04400 61.98000 38.69200
H  25.44700 63.33400 38.88800
H  25.13500 62.83100 40.56800
H  24.33200 62.08900 39.06600
H  21.85100 56.56000 41.15800
H  22.29300 57.85000 40.09800
H  22.84600 57.99000 41.81200
H  24.46300 53.11800 38.13900
H  26.58800 51.07900 42.58000
H  25.80900 49.99500 41.36900
H  24.93400 50.60300 42.85600
Mg -5.52200 25.58200 26.29100
C  -4.53300 27.42900 29.32300
C  -7.35700 23.59500 28.54500
C  -6.31700 23.72400 23.80100
C  -3.30000 27.53000 24.60300
N  -5.94700 25.59600 28.71600
C  -5.34900 26.36600 29.70600
C  -5.80600 25.85000 31.11900
C  -6.68100 24.57000 30.83700
C  -6.71700 24.59600 29.30300
C  -6.04100 23.21500 31.48000
C  -6.60400 26.89700 31.88800
C  -6.42000 27.01900 33.41800
H  -5.84400 25.93500 34.23800
N  -6.72000 23.98000 26.16900
C  -7.35000 23.27900 27.17500
C  -8.21600 22.22900 26.55400
C  -7.90400 22.26900 25.15900
C  -6.96900 23.34500 25.02700
C  -9.15700 21.36600 27.36900
C  -8.42400 21.39100 24.06100
O  -7.98800 21.38000 22.92300
C  -9.54400 20.37900 24.34600
N  -4.93800 25.66400 24.49000
C  -5.39200 24.71000 23.56800
C  -4.72300 24.88700 22.14700
C  -3.86900 26.26000 22.38000
C  -4.03100 26.45200 23.91200
C  -3.90200 23.60200 21.68600
C  -4.38300 27.65100 21.74100
C  -4.10700 27.82200 20.28900
N  -4.25100 27.18300 26.72700
C  -3.38600 27.83800 25.93100
C  -2.72600 28.87100 26.64800
C  -3.15600 28.78300 27.94200
C  -4.12900 27.75800 27.98000
C  -1.84100 29.85800 25.98000
C  -3.04000 29.32700 29.26300
O  -2.25900 30.20000 29.64900
C  -3.83200 28.47800 30.19400
C  -2.83600 27.79100 31.05300
O  -2.19400 26.80900 30.66300
O  -2.69300 28.35000 32.27500
C  -1.97300 27.50700 33.27700
H  -7.78500 22.84200 29.21000
H  -6.50200 23.14800 22.89200
H  -2.66700 28.24000 24.06700
H  -4.91500 25.59200 31.69100
H  -7.73000 24.70100 31.10300
H  -6.78900 22.65100 32.03600
H  -5.24800 23.54000 32.15300
H  -5.64400 22.56300 30.70100
H  -7.61000 26.93900 31.47000
H  -6.18400 27.77300 31.39400
H  -7.44300 27.03400 33.79200
H  -5.84400 27.94000 33.50900
H  -10.10600 21.11900 26.89400
H  -9.34100 21.74900 28.37300
H  -8.63000 20.42700 27.53800
H  -9.38100 19.67400 25.16100
H  -9.63700 19.76100 23.45200
H  -10.48600 20.91500 24.46100
H  -5.34000 24.99800 21.25600
H  -2.82100 26.11800 22.11600
H  -2.86400 23.77100 21.39900
H  -4.27300 23.23600 20.72900
H  -4.02200 22.71400 22.30700
H  -4.11100 28.51400 22.34800
H  -5.46700 27.54900 21.77900
H  -3.91100 26.82800 19.88700
H  -3.17600 28.38900 20.30000
H  -4.86000 28.40100 19.75500
H  -2.35900 30.34500 25.15400
H  -1.05600 29.34400 25.42600
H  -1.34800 30.56400 26.64900
H  -4.54900 29.04300 30.78900
H  -2.06200 26.42900 33.14000
H  -2.32700 27.82100 34.25800
H  -0.89900 27.69000 33.24200

