158

Mg 55.84300 24.38100 45.30400
C  52.91100 26.18800 44.33500
C  54.18600 21.45300 44.23600
C  58.71100 22.82200 45.55900
C  57.30400 27.44000 46.25500
N  53.79900 23.92000 44.28400
C  52.80700 24.79600 44.01200
C  51.62000 24.10200 43.42000
C  51.91400 22.61500 43.82700
C  53.44900 22.60600 44.17700
C  51.02000 22.12500 45.01200
C  51.37600 24.35100 41.89800
C  49.92400 24.58300 41.53500
H  49.70100 24.54600 40.00400
N  56.43900 22.48700 44.95900
C  55.62400 21.40900 44.57800
C  56.31100 20.23600 44.65900
C  57.59700 20.55000 45.13700
C  57.59100 21.99400 45.28800
C  55.68900 18.90200 44.23000
C  58.62300 19.43200 45.41600
O  58.29600 18.27100 45.21800
C  59.96300 19.68900 45.93000
N  57.77200 25.03000 45.78400
C  58.76900 24.18000 45.84100
C  60.06100 24.93100 46.23700
C  59.66000 26.38000 46.40700
C  58.18200 26.30700 46.06900
C  60.74600 24.35000 47.49700
C  60.37800 27.44500 45.48900
C  61.67600 28.08400 45.90900
N  55.25200 26.37200 45.35600
C  55.90200 27.45900 45.88400
C  55.01000 28.60000 45.81100
C  53.85300 28.19200 45.16600
C  54.06200 26.77400 44.98200
C  55.30200 29.95800 46.28900
C  52.51000 28.59800 44.72300
O  51.85300 29.67500 44.74500
C  51.83700 27.34500 44.09400
C  51.84000 27.79200 42.59500
O  52.87900 27.87600 41.91200
O  50.60100 28.00700 42.14200
C  50.64900 28.68500 40.81700
H  53.61000 20.55200 44.01400
H  59.66100 22.28400 45.54900
H  57.70700 28.39700 46.59300
H  50.70000 24.49300 43.85600
H  51.78900 21.99500 42.94000
H  50.17200 21.46800 44.81900
H  50.61700 22.96600 45.57600
H  51.68000 21.67300 45.75200
H  51.67900 23.43500 41.39100
H  52.09400 25.04400 41.45900
H  49.51200 25.47500 42.00700
H  49.34900 23.74600 41.92900
H  56.37700 18.47900 43.49700
H  54.81600 19.02600 43.58900
H  55.46500 18.29800 45.10900
H  60.66500 20.04600 45.17700
H  60.43100 18.82800 46.40800
H  59.99700 20.48900 46.67000
H  60.69800 24.85400 45.35600
H  59.71200 26.75900 47.42700
H  61.19700 23.41000 47.17900
H  60.00700 24.21400 48.28700
H  61.58900 24.92200 47.88500
H  59.67300 28.24800 45.27500
H  60.60000 26.93700 44.55100
H  61.59600 29.14300 45.66500
H  62.55900 27.72900 45.37700
H  61.79400 27.91100 46.97900
H  55.26200 30.61700 45.42300
H  56.27000 30.00300 46.78700
H  54.47700 30.42500 46.82700
H  50.81100 27.34000 44.46000
H  51.38700 29.47700 40.68700
H  49.70400 29.20200 40.65000
H  50.73100 28.10600 39.89700
Mg 49.79300 35.28500 27.10500
C  47.78800 33.74700 29.53900
C  49.54000 38.24500 28.75400
C  51.37300 36.74000 24.59900
C  49.46700 32.33500 25.19100
N  48.82600 35.89800 28.96600
C  48.10900 35.10300 29.90800
C  47.99500 35.77600 31.24400
C  48.19500 37.30800 30.88400
C  48.98600 37.15000 29.51600
C  46.87400 38.05800 30.88200
C  49.11100 35.29200 32.13300
C  48.97700 35.42700 33.65200
H  47.61800 35.88200 34.27300
N  50.53500 37.22200 26.78200
C  50.29700 38.30300 27.57000
C  50.92000 39.49100 26.98200
C  51.59800 38.98900 25.83800
C  51.18900 37.56600 25.72000
C  50.82600 40.85400 27.73300
C  52.44700 39.80200 24.87400
O  52.90500 39.41500 23.79900
C  52.76400 41.25900 25.19300
N  50.24200 34.66800 25.14800
C  50.92800 35.45100 24.32200
C  51.49400 34.74000 23.17000
C  50.73200 33.33800 23.19900
C  50.14500 33.37500 24.69700
C  51.43400 35.53600 21.79600
C  51.62700 32.08600 22.95000
C  50.97400 31.13600 21.93600
N  48.91300 33.40400 27.31300
C  48.80300 32.34400 26.45900
C  47.94300 31.31300 26.98400
C  47.50200 31.76500 28.21300
C  48.14500 33.03800 28.33300
C  47.23100 30.11300 26.25900
C  46.65200 31.47100 29.29800
O  45.97300 30.45100 29.50800
C  46.79300 32.81400 30.23700
C  47.17900 32.36900 31.53600
O  48.24500 32.01000 31.95400
O  46.06200 32.15900 32.27100
C  46.18700 31.24400 33.45600
H  49.49500 39.20600 29.26900
H  52.15100 37.05300 23.90100
H  49.29300 31.41500 24.62900
H  46.98600 35.58700 31.61100
H  48.90400 37.83500 31.52300
H  46.03600 37.53200 31.33800
H  46.59900 38.19700 29.83600
H  46.90100 39.01400 31.40500
H  49.97300 35.90200 31.86300
H  49.51100 34.31700 31.85100
H  49.61600 36.26300 33.93600
H  49.22100 34.52400 34.21100
H  50.91000 41.72600 27.08500
H  51.58100 41.13100 28.46900
H  49.90700 41.02400 28.29300
H  51.85100 41.81400 24.97600
H  53.54900 41.67300 24.56000
H  53.20700 41.45600 26.16900
H  52.55000 34.61500 23.41100
H  49.84200 33.39400 22.57300
H  50.98200 36.50000 22.02600
H  50.84100 34.93100 21.10900
H  52.42600 35.66500 21.36200
H  51.70400 31.64100 23.94200
H  52.66300 32.29000 22.68000
H  50.50300 31.78600 21.19900
H  50.30900 30.50000 22.52000
H  51.79500 30.59900 21.46100
H  46.21700 30.39100 25.97200
H  47.08300 29.26700 26.93000
H  47.89400 29.72400 25.48600
H  45.81700 33.29800 30.23000
H  46.40300 30.20200 33.21700
H  45.32000 31.32800 34.11000
H  47.05800 31.57900 34.02000

