158

Mg 51.91300 24.52000 45.28800
C  49.13200 26.49300 44.59700
C  50.22700 21.77000 44.09800
C  54.94200 22.76000 45.36000
C  53.73300 27.34900 46.35500
N  49.95000 24.16500 44.26400
C  48.95200 25.13100 44.11400
C  47.77000 24.51500 43.32900
C  47.94800 22.99300 43.63100
C  49.45200 22.93200 44.02600
C  47.03000 22.66800 44.74900
C  47.73600 24.93000 41.77900
C  49.14000 25.30200 41.20900
H  49.13200 25.48500 39.66600
N  52.53900 22.53900 44.81100
C  51.62000 21.57000 44.42900
C  52.39900 20.31500 44.37600
C  53.74100 20.59300 44.49100
C  53.81400 22.03100 44.94000
C  51.78400 19.03600 43.93500
C  54.90800 19.64600 44.27100
O  54.62400 18.59600 43.70900
C  56.38300 19.90700 44.54500
N  54.09000 25.01600 45.61700
C  55.05400 24.11600 45.65100
C  56.47200 24.69200 45.97000
C  56.09700 26.20000 46.32800
C  54.53900 26.22800 46.02600
C  57.23000 23.84600 47.13700
C  56.88500 27.20200 45.38900
C  57.65300 28.21600 46.12800
N  51.50300 26.53000 45.53500
C  52.32900 27.56500 45.97700
C  51.44800 28.74000 46.19300
C  50.21200 28.33700 45.63600
C  50.30800 27.01100 45.26700
C  51.88800 30.08200 46.77700
C  48.86900 28.76400 45.32600
O  48.40200 29.91000 45.44600
C  48.11600 27.66800 44.58800
C  47.68000 28.10500 43.29400
O  48.38200 28.31200 42.31200
O  46.32400 28.26100 43.38100
C  45.70000 28.86700 42.22500
H  49.63500 20.86200 43.96200
H  55.85000 22.16900 45.49100
H  54.27100 28.14000 46.88100
H  46.88800 24.94900 43.80000
H  47.73200 22.36500 42.76700
H  47.29600 21.66100 45.07000
H  46.02900 22.71900 44.32000
H  46.92300 23.37300 45.57300
H  46.99100 25.72400 41.71800
H  47.39400 24.10600 41.15300
H  49.76200 24.42200 41.37600
H  49.57600 26.19000 41.66600
H  51.41300 19.01800 42.91100
H  50.92800 18.76800 44.55400
H  52.50600 18.26100 44.19100
H  57.09700 19.20300 44.11700
H  56.55100 20.07100 45.60900
H  56.62200 20.82600 44.01000
H  57.04800 24.57000 45.05200
H  56.34900 26.50300 47.34400
H  56.45300 23.28400 47.65500
H  57.76400 24.56400 47.76000
H  57.91800 23.16800 46.63200
H  56.16200 27.84900 44.89300
H  57.52000 26.70400 44.65600
H  57.26200 29.21400 45.92800
H  58.71600 28.12100 45.91000
H  57.50100 28.14300 47.20500
H  51.06100 30.79100 46.73200
H  52.79500 30.34100 46.23000
H  52.16600 30.07700 47.83100
H  47.25000 27.50000 45.22800
H  44.62400 29.01800 42.31000
H  45.95000 28.36600 41.28900
H  46.06900 29.88200 42.08100
Mg 7.96100 49.10200 24.95100
C  6.04600 48.90800 28.07800
C  10.62800 50.30500 26.76900
C  9.70700 48.84800 22.25300
C  4.98800 48.32400 23.16900
N  8.24800 49.48500 27.15500
C  7.42000 49.31300 28.24600
C  8.15000 49.78600 29.53100
C  9.50300 50.42400 28.98700
C  9.47200 50.02600 27.51700
C  9.39700 51.98200 29.13600
C  8.38500 48.64500 30.61700
C  8.03800 49.11500 32.10500
H  8.37200 48.23600 33.24900
N  9.92400 49.59500 24.51600
C  10.88200 50.01100 25.40300
C  12.13300 50.18800 24.72000
C  11.95300 49.60300 23.38800
C  10.49200 49.33800 23.32100
C  13.44900 50.59500 25.46300
C  12.94100 49.28100 22.31200
O  12.70800 48.75900 21.24300
C  14.44500 49.59400 22.55300
N  7.49200 48.42400 23.03500
C  8.36600 48.56100 22.05600
C  7.78900 48.04000 20.69000
C  6.22900 48.16600 20.99400
C  6.19200 48.37900 22.49600
C  8.21300 48.73400 19.39800
C  5.50300 46.85800 20.55500
C  4.48800 47.09700 19.52600
N  5.98500 48.64400 25.45300
C  4.90900 48.32800 24.60100
C  3.67800 48.08900 25.45000
C  4.16400 48.27300 26.82300
C  5.49200 48.66800 26.78700
C  2.35200 47.86000 25.05600
C  3.70300 48.15200 28.16600
O  2.58800 47.84400 28.60200
C  4.93900 48.66700 29.07800
C  5.18700 47.50000 30.04200
O  5.59100 46.39300 29.73900
O  4.73900 47.80400 31.26300
C  4.82000 46.79700 32.36200
H  11.42000 50.64600 27.44000
H  10.25500 48.57800 21.34700
H  4.11900 48.13900 22.53500
H  7.57600 50.57600 30.01600
H  10.35900 49.96700 29.48200
H  9.60900 52.43400 28.16700
H  10.19700 52.23100 29.83300
H  8.46300 52.37400 29.53900
H  9.40900 48.27400 30.57900
H  7.73600 47.79100 30.42800
H  6.95100 49.04200 32.09700
H  8.31500 50.15900 32.24900
H  13.94600 49.63200 25.35100
H  13.25700 50.70600 26.53000
H  14.09700 51.38500 25.08400
H  14.66800 50.64500 22.73800
H  14.98600 49.38900 21.63000
H  14.72400 48.92900 23.37000
H  8.10200 46.99800 20.75800
H  5.80100 49.02500 20.47600
H  8.97300 49.50600 19.51700
H  7.33200 49.22100 18.97800
H  8.50000 47.90100 18.75600
H  5.02800 46.31900 21.37500
H  6.17400 46.15500 20.06200
H  3.52700 47.44500 19.90400
H  4.33300 46.14000 19.02800
H  4.72500 47.90600 18.83500
H  2.48700 47.49700 24.03700
H  1.83700 48.82000 25.08200
H  1.91200 47.13700 25.74400
H  4.72300 49.59400 29.60900
H  5.01000 47.37400 33.26700
H  5.71200 46.17400 32.30500
H  3.86600 46.29800 32.53200

