158

Mg 23.67500 -5.67400 45.88500
C  25.73900 -3.35900 44.11600
C  21.13200 -4.90300 43.59500
C  21.82500 -8.10300 47.18700
C  26.36600 -6.60600 47.86500
N  23.50500 -4.27200 44.06300
C  24.42000 -3.42200 43.59700
C  23.87100 -2.65000 42.35800
C  22.30500 -2.88200 42.53000
C  22.29900 -4.14400 43.40400
C  21.60500 -1.74400 43.32800
C  24.49200 -3.01400 40.97400
C  24.98500 -1.81300 40.17900
H  24.80000 -1.88700 38.59100
N  21.69600 -6.43000 45.44100
C  20.81900 -5.93900 44.48100
C  19.55100 -6.58900 44.70000
C  19.76200 -7.66900 45.55500
C  21.14100 -7.41900 46.13000
C  18.34800 -6.07800 43.93700
C  18.75200 -8.71700 45.96600
O  17.70200 -8.63900 45.36100
C  18.93000 -9.70000 47.05300
N  24.10200 -7.25400 47.23900
C  23.06800 -8.05700 47.72000
C  23.58600 -9.05300 48.75000
C  24.91700 -8.38700 49.24000
C  25.18500 -7.38800 48.05600
C  22.60600 -9.44000 49.89800
C  26.07400 -9.41200 49.54600
C  26.44600 -9.68800 50.97300
N  25.68000 -5.10400 46.02600
C  26.63000 -5.49200 46.93400
C  27.89000 -4.88200 46.62700
C  27.49500 -3.92400 45.64100
C  26.22100 -4.13300 45.26000
C  29.32800 -5.11200 47.26500
C  28.01600 -2.84600 44.83000
O  29.16400 -2.32000 44.82400
C  26.84500 -2.44500 43.78400
C  26.48000 -0.99400 44.01300
O  26.55900 -0.39700 45.08600
O  26.16300 -0.38700 42.90100
C  26.00400 1.04900 42.80400
H  20.34600 -4.57600 42.91100
H  21.17000 -8.87600 47.59400
H  27.21400 -6.58700 48.55300
H  24.08300 -1.62800 42.67300
H  21.74600 -3.00100 41.60200
H  22.31400 -0.93600 43.51100
H  21.30100 -2.14700 44.29400
H  20.81100 -1.23800 42.78100
H  23.70900 -3.53000 40.41800
H  25.30500 -3.73100 41.08900
H  25.94100 -1.38300 40.47900
H  24.29700 -1.02100 40.47100
H  17.96600 -5.35100 44.65400
H  17.59000 -6.84400 43.77700
H  18.57700 -5.72700 42.93100
H  18.14800 -10.45800 47.09100
H  19.04700 -9.19700 48.01300
H  19.81800 -10.30700 46.87700
H  23.77600 -9.92400 48.12300
H  24.75800 -7.88000 50.19100
H  21.62900 -8.95900 49.85700
H  23.04300 -9.26800 50.88200
H  22.49900 -10.49500 49.64700
H  27.04900 -9.13700 49.14500
H  25.80100 -10.29500 48.96800
H  27.29300 -9.12400 51.36300
H  26.65500 -10.74000 51.16600
H  25.49400 -9.48500 51.46400
H  29.59500 -6.14300 47.03200
H  29.20700 -4.94300 48.33500
H  30.11400 -4.47000 46.86700
H  27.27200 -2.53400 42.78500
H  26.01800 1.59100 43.75000
H  24.96000 1.21100 42.53700
H  26.50900 1.49700 41.94900
Mg 48.73700 34.92500 27.06200
C  46.62600 33.87100 29.77400
C  49.15700 37.92500 28.85400
C  50.05600 36.27100 24.33600
C  47.79100 32.09600 25.22300
N  48.02400 35.72800 29.12600
C  47.36300 35.05400 30.06600
C  47.55700 35.72200 31.47200
C  47.90600 37.17500 31.02300
C  48.41800 36.98400 29.59000
C  46.78400 38.25900 31.25500
C  48.76700 35.03600 32.18800
C  48.63400 34.92100 33.73000
H  47.72100 35.93000 34.52200
N  49.37600 36.85600 26.62600
C  49.63700 37.90000 27.49700
C  50.19800 39.05700 26.79500
C  50.40500 38.61000 25.47300
C  49.95600 37.18400 25.47100
C  50.44200 40.41000 27.45500
C  51.00000 39.24800 24.23200
O  50.88600 38.79000 23.10000
C  51.70300 40.64900 24.34400
N  48.75900 34.27400 25.10300
C  49.46800 34.96700 24.16800
C  49.66300 34.22600 22.87900
C  49.22400 32.75500 23.22600
C  48.60300 33.03000 24.62100
C  48.93600 34.83800 21.59900
C  50.41500 31.69400 23.14700
C  51.53500 31.76000 22.06800
N  47.60800 33.32100 27.41200
C  47.24800 32.25900 26.56700
C  46.43700 31.29600 27.30400
C  46.17700 31.94400 28.48900
C  46.83000 33.16100 28.53300
C  45.89900 29.94500 26.86100
C  45.45400 31.79200 29.72800
O  44.87100 30.79900 30.14400
C  45.62200 33.08300 30.62900
C  45.98000 32.69100 31.96300
O  46.83000 31.86100 32.30900
O  45.07400 33.20600 32.87900
C  45.05900 32.82800 34.31300
H  49.38800 38.88000 29.33100
H  50.59800 36.50700 23.41800
H  47.63600 31.14700 24.70400
H  46.65600 35.64300 32.08100
H  48.65300 37.43600 31.77300
H  46.89200 38.97400 32.07100
H  45.78600 37.84100 31.38900
H  46.71700 38.89400 30.37200
H  49.76500 35.40900 31.96000
H  48.96900 34.01500 31.86500
H  49.62300 35.01200 34.18100
H  48.31500 33.91500 34.00000
H  51.38000 40.53000 27.99700
H  49.57000 40.64500 28.06400
H  50.35600 41.17800 26.68600
H  51.04000 41.51400 24.35500
H  52.40400 40.81100 23.52600
H  52.25100 40.66100 25.28600
H  50.72500 34.23000 22.63200
H  48.40500 32.38500 22.61000
H  49.02300 35.91300 21.75800
H  47.89700 34.51000 21.59200
H  49.45600 34.41500 20.73900
H  50.09400 30.66700 22.97100
H  50.93700 31.87100 24.08700
H  51.16200 32.39500 21.26500
H  51.68400 30.74000 21.71200
H  52.54000 32.03500 22.38800
H  45.73500 29.90000 25.78400
H  44.94700 29.83400 27.38000
H  46.55900 29.15900 27.22700
H  44.72300 33.69700 30.57600
H  44.43400 33.56100 34.82300
H  46.04000 32.70300 34.77300
H  44.59800 31.85100 34.45700

