158

Mg 25.45500 0.97300 29.79300
C  27.67300 0.48300 32.43600
C  23.01400 1.70100 32.05600
C  23.09800 1.14000 27.23000
C  27.74100 -0.21700 27.58700
N  25.45800 1.14300 31.95700
C  26.45200 0.83900 32.82600
C  26.01500 1.08100 34.25800
C  24.50100 1.12800 34.16300
C  24.31200 1.41400 32.60500
C  23.58000 -0.02100 34.63600
C  26.75500 2.27000 34.93400
C  26.85700 2.23400 36.45300
H  26.31000 3.32500 37.34000
N  23.36000 1.36900 29.65700
C  22.52600 1.64200 30.69600
C  21.24700 1.91500 30.24500
C  21.21700 1.67100 28.86200
C  22.59300 1.37200 28.53800
C  19.97400 2.14400 31.11000
C  20.11100 1.60900 27.96100
O  20.20600 1.22300 26.80800
C  18.69200 2.14700 28.34300
N  25.51400 0.84000 27.67900
C  24.40100 0.89000 26.83000
C  24.76000 0.34300 25.38700
C  26.33500 0.13400 25.48200
C  26.51600 0.23500 27.00900
C  23.91700 -0.87100 24.80700
C  27.32400 1.05800 24.74000
C  27.51200 2.46000 25.29000
N  27.41800 0.47100 29.93500
C  28.19500 -0.07400 28.92300
C  29.53400 -0.36200 29.46800
C  29.36700 -0.17800 30.84700
C  28.02900 0.29500 31.06800
C  30.69000 -0.90000 28.72100
C  30.01100 -0.23900 32.10900
O  31.11600 -0.66000 32.28500
C  29.01500 0.27000 33.18900
C  28.89800 -0.72100 34.28800
O  28.55300 -1.89600 34.14200
O  29.26100 -0.14700 35.46000
C  29.40900 -1.05800 36.61300
H  22.21100 1.94200 32.75600
H  22.44000 1.13100 26.35800
H  28.50200 -0.57300 26.88900
H  26.23500 0.16200 34.80200
H  24.23800 2.02600 34.72100
H  22.65200 -0.14500 34.07700
H  23.44100 0.14000 35.70500
H  24.21000 -0.91000 34.66000
H  26.22200 3.17500 34.64300
H  27.79800 2.33500 34.62200
H  27.91600 2.29600 36.70200
H  26.51500 1.27400 36.84100
H  20.17700 2.15300 32.18100
H  19.25200 1.34300 30.95400
H  19.50300 3.10900 30.92100
H  18.28300 1.40300 29.02600
H  18.04500 2.18700 27.46700
H  18.82700 3.13800 28.77500
H  24.61700 1.26500 24.82300
H  26.59900 -0.85200 25.09900
H  23.51900 -0.45900 23.88000
H  23.12000 -1.25700 25.44300
H  24.50800 -1.75000 24.55100
H  26.96500 1.14700 23.71400
H  28.33000 0.73600 24.47200
H  28.52600 2.56200 25.67500
H  26.90400 2.74800 26.14700
H  27.58000 3.28300 24.57800
H  31.49300 -1.03200 29.44700
H  30.96800 -0.37100 27.81000
H  30.35800 -1.86300 28.33500
H  29.40800 1.19600 33.60800
H  29.19400 -2.11500 36.46000
H  28.79500 -0.63000 37.40600
H  30.40800 -0.87200 37.00800
Mg 27.20700 50.24200 26.61500
C  25.17400 51.18900 29.30300
C  29.70400 49.35800 28.94300
C  29.15700 49.37700 23.95700
C  24.55600 51.21000 24.42800
N  27.35900 50.20000 28.90200
C  26.39700 50.56300 29.78800
C  26.84200 50.31900 31.25600
C  28.35100 50.03200 31.08800
C  28.47000 49.89000 29.54500
C  29.31100 50.99800 31.75200
C  25.90400 49.21300 31.97700
C  24.94800 49.71300 33.13800
H  25.00900 48.95100 34.39900
N  29.20200 49.44400 26.48500
C  29.99100 49.14200 27.54000
C  31.18600 48.70200 26.96000
C  31.16800 48.79700 25.54800
C  29.81500 49.22100 25.26100
C  32.31800 48.18100 27.85100
C  32.27200 48.44300 24.52300
O  32.09700 48.59000 23.32300
C  33.57500 47.67200 24.96600
N  26.87300 50.24800 24.45500
C  27.87800 49.89600 23.58500
C  27.30900 49.98000 22.15800
C  25.80900 50.46800 22.31300
C  25.74300 50.64600 23.82700
C  28.15900 50.87500 21.19600
C  24.65500 49.48400 21.87400
C  24.55000 48.16200 22.58500
N  25.28300 51.10500 26.77300
C  24.33800 51.44200 25.81600
C  23.26200 52.05100 26.47900
C  23.49300 51.94200 27.81000
C  24.78600 51.33300 27.96900
C  21.97100 52.57200 25.82100
C  22.99000 52.19900 29.18600
O  21.98600 52.67700 29.62500
C  24.02200 51.65600 30.15500
C  24.29900 52.85400 30.98300
O  25.21800 53.62500 30.83500
O  23.45400 52.77600 32.11100
C  23.48700 53.92000 33.04900
H  30.49500 49.12000 29.65800
H  29.73200 49.20400 23.04500
H  23.86500 51.66200 23.71400
H  26.62900 51.24100 31.79700
H  28.62100 49.07200 31.52800
H  30.12900 50.41000 32.16900
H  28.75800 51.60000 32.47300
H  29.79700 51.56200 30.95500
H  26.49400 48.41600 32.43000
H  25.23700 48.73200 31.26200
H  23.93200 49.68400 32.74500
H  25.14900 50.76700 33.32800
H  32.73100 47.28100 27.39400
H  32.01500 47.83600 28.84000
H  32.97200 49.05200 27.88400
H  34.21200 48.22400 25.65700
H  34.13100 47.35700 24.08300
H  33.24000 46.77400 25.48500
H  27.19600 48.99400 21.70800
H  25.71000 51.30900 21.62800
H  28.78600 50.23300 20.57700
H  28.80700 51.50600 21.80500
H  27.60700 51.52200 20.51400
H  24.82700 49.35200 20.80600
H  23.70600 50.01900 21.89500
H  25.32200 48.03000 23.34400
H  24.52400 47.39100 21.81500
H  23.55800 48.11700 23.03600
H  21.10800 52.16300 26.34500
H  21.85200 52.31100 24.76900
H  21.99200 53.66200 25.83300
H  23.59900 50.87100 30.78100
H  23.66500 54.85400 32.51600
H  24.18600 53.88400 33.88400
H  22.54700 54.09200 33.57300

