158

Mg 40.99300 9.11200 29.91200
C  42.88200 10.16200 32.65800
C  38.62600 7.91100 32.19900
C  39.39300 8.12300 27.32700
C  43.78400 9.90800 27.85300
N  40.84400 9.04100 32.21500
C  41.63300 9.75800 33.09300
C  41.00500 9.71200 34.53900
C  39.86300 8.69200 34.40100
C  39.79000 8.50500 32.85300
C  40.06900 7.30700 35.06800
C  40.68400 11.12500 35.07800
C  39.99200 11.17300 36.41600
H  40.61600 12.19500 37.36600
N  39.21700 8.28200 29.78200
C  38.31000 7.90400 30.74800
C  37.06900 7.50000 30.11800
C  37.35500 7.53400 28.73700
C  38.73600 7.95300 28.54600
C  35.84200 7.06000 30.83600
C  36.39100 7.06800 27.54300
O  36.69600 7.21100 26.34500
C  35.05600 6.50600 27.80100
N  41.57500 8.97000 27.88900
C  40.70400 8.46800 27.04700
C  41.14500 8.65300 25.59600
C  42.37000 9.53800 25.73900
C  42.64500 9.46200 27.25100
C  41.57100 7.38600 24.87600
C  42.20300 10.95700 25.14200
C  40.91400 11.80100 25.37300
N  43.03900 9.73600 30.15100
C  43.99000 10.05900 29.22700
C  45.06700 10.60200 29.92000
C  44.67200 10.70000 31.24400
C  43.45500 10.09000 31.33900
C  46.29500 11.16200 29.40400
C  45.05000 11.18800 32.50100
O  46.09000 11.74000 32.78000
C  43.91700 10.85800 33.46800
C  44.51100 9.98300 34.54200
O  45.38100 9.13000 34.48200
O  43.88800 10.52300 35.68300
C  44.26500 9.84100 36.93400
H  37.89500 7.45200 32.86800
H  38.78700 7.97100 26.43200
H  44.49900 10.29900 27.12500
H  41.91000 9.28900 34.97500
H  38.92700 9.05700 34.82400
H  39.72600 6.41300 34.54800
H  39.80000 7.32200 36.12500
H  41.14900 7.19800 35.17200
H  40.13100 11.48800 34.21200
H  41.61300 11.67600 35.22500
H  39.91200 10.14400 36.76800
H  38.98900 11.55000 36.21500
H  36.01100 7.41900 31.85100
H  35.82900 5.97200 30.90400
H  34.91100 7.44400 30.42000
H  34.70800 5.92800 26.94500
H  34.31200 7.28200 27.97800
H  35.17700 5.78700 28.61200
H  40.41600 9.17100 24.97400
H  43.25600 9.11900 25.26400
H  40.71200 6.75900 24.63500
H  42.14600 6.80500 25.59600
H  42.09700 7.66900 23.96400
H  42.43500 10.93200 24.07700
H  42.95600 11.55500 25.65700
H  41.12500 12.76800 25.83000
H  40.28000 11.37300 26.15000
H  40.30900 11.96100 24.48100
H  47.06000 11.07500 30.17600
H  46.06500 12.21500 29.24100
H  46.58200 10.74700 28.43900
H  43.50300 11.77800 33.88100
H  44.06400 8.79600 36.69600
H  43.64700 10.15700 37.77400
H  45.32100 9.92700 37.18900
Mg -3.00000 34.22700 26.42800
C  -4.76900 32.73800 29.11900
C  -2.18500 36.79700 28.67500
C  -1.20300 35.45700 24.10300
C  -4.23200 31.75900 24.30100
N  -3.55200 34.71500 28.64700
C  -4.15600 33.92000 29.53000
C  -4.13600 34.54900 30.92800
C  -3.43200 35.92900 30.69300
C  -3.07800 35.88300 29.21700
C  -4.16400 37.24900 31.17500
C  -3.35600 33.65800 32.04700
C  -3.18300 34.34800 33.35300
H  -3.49300 33.67900 34.69600
N  -1.79000 35.86700 26.43700
C  -1.61800 36.78400 27.36300
C  -0.71400 37.71000 26.89000
C  -0.30800 37.33500 25.61400
C  -1.15500 36.16600 25.33600
C  -0.26800 38.84300 27.71100
C  0.77600 38.04000 24.73700
O  1.03500 37.63700 23.65300
C  1.51700 39.24400 25.26700
N  -2.63600 33.66400 24.56300
C  -1.82000 34.25900 23.74400
C  -1.65200 33.60300 22.33600
C  -2.71600 32.53100 22.34700
C  -3.21400 32.61800 23.88800
C  -1.65400 34.63200 21.14800
C  -2.24000 31.18600 21.82400
C  -3.13600 30.56800 20.73200
N  -4.23200 32.64300 26.64500
C  -4.71600 31.71300 25.63700
C  -5.63600 30.76800 26.26000
C  -5.63800 31.15000 27.61300
C  -4.78500 32.29900 27.75800
C  -6.48200 29.68800 25.61100
C  -6.20200 30.74100 28.93300
O  -6.99300 29.88000 29.26100
C  -5.58400 31.75500 29.94400
C  -6.70400 32.36200 30.66400
O  -7.57600 32.99400 30.14100
O  -6.47900 32.34100 32.01800
C  -7.36800 33.05100 32.96100
H  -1.73800 37.38700 29.47800
H  -0.48000 35.86700 23.39500
H  -4.73300 31.08000 23.60900
H  -5.15800 34.80500 31.20700
H  -2.47500 35.95800 31.21300
H  -5.17100 37.01000 31.51600
H  -4.31000 37.93900 30.34400
H  -3.55800 37.77300 31.91400
H  -2.39400 33.34400 31.64200
H  -3.86600 32.71000 32.21900
H  -3.68100 35.31700 33.38900
H  -2.12100 34.57900 33.44300
H  -0.48600 39.73200 27.11800
H  0.77600 38.77900 28.01800
H  -0.75600 39.03100 28.66700
H  2.27100 39.49900 24.52300
H  1.94800 39.00800 26.24000
H  0.85300 40.10900 25.25200
H  -0.66600 33.15900 22.47400
H  -3.53900 32.80400 21.68700
H  -2.19000 35.49100 21.55000
H  -2.22100 34.24300 20.30100
H  -0.63400 34.95200 20.93200
H  -2.26600 30.45300 22.63000
H  -1.19300 31.20500 21.52400
H  -3.20300 29.48700 20.85500
H  -2.83600 30.76500 19.70300
H  -4.12300 31.01200 20.86200
H  -5.98400 29.25100 24.74600
H  -7.41000 30.13500 25.25700
H  -6.71900 28.90700 26.33400
H  -4.90300 31.16500 30.55500
H  -6.99600 34.06400 33.11200
H  -7.38200 32.46000 33.87700
H  -8.41900 33.06700 32.67300

