158

Mg 54.96900 24.84300 45.80500
C  52.19600 26.49900 44.24600
C  53.37300 21.84700 44.67100
C  57.73600 23.37800 46.34400
C  56.14500 27.83000 46.66600
N  53.02400 24.26200 44.46800
C  52.05200 25.09900 44.06900
C  50.78500 24.40500 43.55000
C  51.15600 22.87600 43.84000
C  52.58600 22.98100 44.45200
C  50.13000 22.00400 44.62000
C  50.32700 24.59800 42.11000
C  48.82200 24.67100 41.82600
H  48.29600 23.97400 40.52700
N  55.47900 22.90000 45.61900
C  54.75200 21.80200 45.13400
C  55.59100 20.63600 45.14000
C  56.83800 20.99300 45.53300
C  56.76300 22.47300 45.85400
C  55.10200 19.28300 44.61000
C  58.01700 20.07500 45.51400
O  57.78200 18.91600 45.18800
C  59.43800 20.52600 45.92000
N  56.81100 25.52300 46.23900
C  57.73900 24.74200 46.63600
C  58.86600 25.48900 47.37000
C  58.46400 26.97300 47.16000
C  57.02000 26.77600 46.73500
C  59.26900 25.01700 48.83000
C  59.25400 27.63000 45.97300
C  59.18100 29.17600 45.98900
N  54.35000 26.83800 45.58600
C  54.90500 27.92700 46.06100
C  54.08700 29.08700 45.79300
C  52.92500 28.60200 45.22300
C  53.21300 27.20400 44.96700
C  54.59900 30.46700 46.08400
C  51.65900 28.91600 44.55800
O  51.14200 30.04900 44.41500
C  51.13200 27.57800 43.97800
C  50.97800 27.83600 42.50600
O  51.90600 28.01700 41.67800
O  49.65800 27.92200 42.18900
C  49.30600 28.23800 40.79900
H  52.85600 20.89800 44.51000
H  58.70500 22.92900 46.57000
H  56.60400 28.80200 46.85700
H  49.99600 24.76500 44.21000
H  51.26100 22.38000 42.87500
H  50.60100 21.73600 45.56600
H  49.81700 21.14900 44.02100
H  49.18200 22.51300 44.79600
H  50.65400 23.84900 41.38900
H  50.75000 25.51400 41.69800
H  48.45800 25.69700 41.87400
H  48.32300 24.17400 42.65800
H  54.03000 19.11700 44.50300
H  55.42600 18.49100 45.28600
H  55.61600 18.91900 43.72100
H  59.82300 21.47200 45.54000
H  60.09100 19.66200 45.79300
H  59.44100 20.71600 46.99300
H  59.81300 25.38800 46.83900
H  58.45700 27.53200 48.09500
H  60.34600 24.86100 48.89300
H  58.75100 24.08500 49.05600
H  59.05100 25.77900 49.57800
H  58.91900 27.26000 45.00500
H  60.30600 27.38500 46.11500
H  58.69100 29.56400 45.09700
H  60.15900 29.65900 45.97100
H  58.69700 29.67800 46.82700
H  55.68800 30.52100 46.07500
H  54.34400 30.74200 47.10800
H  54.07500 31.13300 45.39900
H  50.13600 27.34500 44.35600
H  48.45600 28.90800 40.67600
H  48.97900 27.34800 40.26200
H  50.12100 28.68100 40.22600
Mg -10.02100 17.06000 40.95000
C  -6.48100 17.05000 41.12000
C  -10.00700 20.45600 40.30700
C  -13.35500 16.93500 40.25400
C  -9.93700 13.54100 40.84000
N  -8.42000 18.60000 40.70100
C  -7.03300 18.39600 40.78000
C  -6.31100 19.71600 40.30700
C  -7.45100 20.81800 40.69500
C  -8.68900 19.93600 40.53300
C  -7.24300 21.51500 42.16600
C  -5.74200 19.71100 38.81100
C  -4.25100 19.17200 38.65300
H  -3.92600 17.86400 37.87700
N  -11.51400 18.50700 40.43800
C  -11.26900 19.83200 40.23800
C  -12.50000 20.50800 40.08400
C  -13.54100 19.50200 39.92000
C  -12.82600 18.25800 40.24000
C  -12.53700 22.02200 39.94400
C  -14.93300 19.74500 39.56600
O  -15.32800 20.83800 39.34100
C  -15.94400 18.71000 39.50400
N  -11.40600 15.50100 40.37400
C  -12.79800 15.66000 40.23700
C  -13.64100 14.34000 40.37100
C  -12.50700 13.31700 40.56400
C  -11.15500 14.09200 40.46200
C  -14.86000 14.37800 41.35700
C  -12.54100 12.00300 39.59700
C  -12.62500 10.63100 40.24100
N  -8.56700 15.58800 41.00100
C  -8.69500 14.21300 41.04700
C  -7.43700 13.62700 41.39200
C  -6.60500 14.71700 41.38800
C  -7.27500 15.84600 41.12900
C  -7.01500 12.20700 41.63100
C  -5.19500 15.05000 41.54200
O  -4.19900 14.34000 41.66300
C  -5.07000 16.58700 41.41300
C  -4.52500 17.11900 42.74900
O  -3.72800 18.00000 42.86500
O  -5.12800 16.43500 43.75900
C  -5.05800 17.08800 45.08200
H  -9.90800 21.54300 40.28200
H  -14.42200 16.71600 40.17700
H  -9.74700 12.46700 40.88600
H  -5.42500 19.94200 40.90000
H  -7.34800 21.65500 40.00400
H  -7.54800 22.56100 42.13000
H  -6.25800 21.32500 42.59200
H  -7.95300 21.05100 42.85000
H  -5.70700 20.69900 38.35300
H  -6.49100 19.17500 38.22800
H  -3.76600 19.15200 39.62900
H  -3.65100 19.93800 38.16200
H  -13.33600 22.28600 39.25100
H  -11.65100 22.44700 39.47200
H  -12.69600 22.39300 40.95700
H  -15.67300 18.10800 38.63700
H  -16.83800 19.22800 39.15800
H  -16.08900 18.12600 40.41400
H  -14.01800 14.11900 39.37300
H  -12.58600 13.10500 41.63000
H  -15.72100 13.93900 40.85300
H  -15.07400 15.35500 41.79000
H  -14.63600 13.66300 42.14800
H  -11.68200 12.25400 38.97500
H  -13.48000 12.05400 39.04500
H  -13.52000 10.06100 39.98900
H  -12.49600 10.79000 41.31200
H  -11.77700 10.11000 39.79700
H  -7.85300 11.52200 41.49800
H  -6.83500 12.06100 42.69600
H  -6.11200 11.93300 41.08600
H  -4.46500 16.88700 40.55800
H  -4.71300 18.12100 45.05600
H  -4.41700 16.37800 45.60500
H  -6.00100 16.84900 45.57300

