158

Mg 1.29900 8.31200 25.52700
C  2.18200 10.17300 28.28100
C  1.04800 5.45700 27.59600
C  0.53700 6.39500 22.85200
C  1.71000 11.09000 23.58500
N  1.74300 7.88400 27.68200
C  1.84600 8.89500 28.67600
C  1.75700 8.25000 30.07500
C  1.78800 6.71100 29.76500
C  1.46900 6.64000 28.25400
C  3.15900 6.05500 30.22200
C  0.49400 8.71300 30.72100
C  0.46900 8.65800 32.28900
H  1.53500 7.97400 33.04900
N  0.76800 6.22400 25.26800
C  0.73500 5.22800 26.28200
C  0.19200 4.00300 25.71300
C  0.05000 4.23200 24.30000
C  0.40800 5.68400 24.07600
C  0.12200 2.71900 26.63100
C  -0.25800 3.22100 23.16900
O  -0.35500 3.53800 21.98900
C  -0.67200 1.86900 23.54000
N  1.14900 8.65100 23.57600
C  0.83200 7.73500 22.65600
C  0.69400 8.32500 21.27800
C  0.70800 9.86000 21.55600
C  1.18400 9.90700 23.00100
C  1.79200 7.81900 20.20800
C  -0.65700 10.66800 21.48900
C  -0.64700 11.94300 20.62000
N  1.81000 10.30100 25.77100
C  2.00600 11.33300 24.89200
C  2.52800 12.49500 25.50200
C  2.47200 12.19200 26.90300
C  2.17800 10.75300 26.91900
C  2.94500 13.79000 24.90600
C  2.82300 12.62200 28.24400
O  3.24600 13.64500 28.70000
C  2.47500 11.40200 29.17800
C  3.61400 11.26000 30.13100
O  4.74100 10.82200 29.89100
O  3.26900 11.90100 31.35600
C  4.30700 11.93200 32.43500
H  0.89500 4.64400 28.30800
H  0.19500 5.97700 21.90300
H  1.70100 11.99900 22.98100
H  2.62500 8.66500 30.58700
H  1.02200 6.18800 30.33700
H  3.65200 6.56000 31.05300
H  3.77400 5.99200 29.32400
H  2.91200 5.06600 30.60600
H  -0.31400 8.11600 30.29900
H  0.23300 9.72200 30.40100
H  -0.42100 8.08400 32.54900
H  0.26300 9.70000 32.53700
H  0.99100 2.52700 27.26000
H  -0.05300 1.85400 25.99100
H  -0.74300 2.91700 27.26400
H  -0.93400 1.37200 22.60600
H  -1.54700 1.94200 24.18600
H  0.18300 1.40800 24.03500
H  -0.25300 8.01300 20.83900
H  1.43100 10.28100 20.85800
H  2.18500 6.81500 20.36600
H  2.63500 8.48600 20.02700
H  1.33000 7.69300 19.22900
H  -1.00100 11.00200 22.46800
H  -1.36000 9.88200 21.21500
H  -1.62200 12.05600 20.14500
H  0.18400 12.08300 19.92800
H  -0.67700 12.72400 21.37900
H  3.72700 14.23600 25.52000
H  2.18500 14.56800 24.83100
H  3.25300 13.55800 23.88700
H  1.60000 11.65600 29.77500
H  3.90100 11.45600 33.32800
H  4.49400 12.96000 32.74500
H  5.31400 11.53600 32.30400
Mg 16.51500 51.81600 26.36900
C  18.41900 50.11100 28.73000
C  14.40200 52.75000 28.86300
C  14.88600 53.26900 24.09400
C  18.76100 50.46500 23.93800
N  16.50300 51.55100 28.50800
C  17.38300 50.84200 29.23900
C  17.26600 51.13500 30.74300
C  15.78800 51.54800 30.80100
C  15.53800 52.04900 29.33000
C  14.88900 50.27700 31.06700
C  18.20500 52.19800 31.29900
C  18.60700 52.01700 32.74700
H  17.44500 51.53300 33.69000
N  14.86700 52.92500 26.50600
C  14.10700 53.21800 27.58500
C  13.01500 54.06800 27.26500
C  13.23000 54.37400 25.88000
C  14.30500 53.50100 25.38300
C  12.04200 54.68200 28.18900
C  12.48400 55.32500 24.95200
O  12.79400 55.53100 23.74400
C  11.29400 56.12300 25.54900
N  16.68200 51.65600 24.20300
C  15.83600 52.46700 23.55400
C  16.22700 52.55800 22.00300
C  17.55100 51.68900 21.95100
C  17.72000 51.28600 23.43600
C  15.18000 52.15700 20.91600
C  18.79900 52.25800 21.16800
C  19.59400 53.39800 21.81000
N  18.15800 50.49000 26.28300
C  19.00900 50.05800 25.30700
C  20.20000 49.37500 25.82600
C  20.01800 49.37900 27.19800
C  18.74900 50.05100 27.41500
C  21.31800 48.71900 25.07400
C  20.50100 48.89100 28.46500
O  21.49500 48.15200 28.64100
C  19.50700 49.31600 29.52500
C  19.09300 48.18000 30.37700
O  18.15400 47.44000 30.16800
O  19.64100 48.35900 31.61200
C  19.12100 47.61900 32.72200
H  13.52200 52.85600 29.50100
H  14.52300 53.84100 23.23800
H  19.54700 50.14000 23.25400
H  17.38200 50.22600 31.33300
H  15.55800 52.31000 31.54700
H  14.14100 50.15600 30.28400
H  14.49200 50.37000 32.07800
H  15.43400 49.33500 31.11600
H  17.71500 53.16800 31.21900
H  19.14500 52.23100 30.74800
H  19.00700 52.92600 33.19800
H  19.33700 51.21200 32.82800
H  12.02100 54.29800 29.20900
H  10.99200 54.65200 27.89700
H  12.43800 55.68300 28.36300
H  10.36000 55.56200 25.58600
H  11.01000 56.82800 24.76700
H  11.63300 56.72500 26.39200
H  16.53100 53.59700 21.87000
H  17.24100 50.75600 21.47900
H  14.94000 53.02100 20.29600
H  14.32000 51.72600 21.42800
H  15.52400 51.37200 20.24300
H  18.37300 52.65300 20.24600
H  19.47200 51.43400 20.92800
H  19.12500 53.81800 22.70000
H  19.78000 54.11400 21.00900
H  20.54700 52.90900 22.01400
H  21.34400 47.65100 25.28700
H  22.27800 49.18000 25.30500
H  21.06700 48.76200 24.01400
H  19.95500 50.16000 30.04900
H  18.47100 46.79500 32.42700
H  18.63700 48.36500 33.35300
H  19.95700 47.15200 33.24200

