158

Mg 26.36100 49.73400 27.16800
C  24.37500 50.85500 29.90100
C  28.96900 49.32600 29.43200
C  28.37900 49.25000 24.61300
C  23.84600 50.86500 25.00000
N  26.65400 50.24200 29.41000
C  25.65700 50.50200 30.31100
C  26.16400 50.37900 31.78400
C  27.65900 50.04000 31.56000
C  27.78600 49.85200 30.03500
C  28.71300 51.03100 32.25900
C  25.28500 49.31200 32.55000
C  24.56500 49.79500 33.89500
H  25.54900 50.31500 34.95600
N  28.36400 49.27500 27.01200
C  29.21800 49.07400 28.06000
C  30.45300 48.61400 27.59000
C  30.36100 48.69100 26.17000
C  28.97600 49.12100 25.83900
C  31.64700 48.21000 28.50300
C  31.46400 48.48700 25.16700
O  31.27400 48.59500 23.94700
C  32.87100 48.25200 25.51100
N  26.11300 50.01600 25.14800
C  27.09200 49.65000 24.29900
C  26.66100 49.67300 22.84700
C  25.16800 50.10100 22.98000
C  25.00500 50.24700 24.48900
C  27.49400 50.30800 21.65300
C  24.15600 49.07500 22.28800
C  23.09200 49.73500 21.37600
N  24.48600 50.78100 27.39700
C  23.62400 51.16000 26.40400
C  22.47800 51.75900 27.01000
C  22.67500 51.68000 28.37500
C  23.95100 51.06900 28.54300
C  21.31900 52.38300 26.28600
C  22.11300 52.00900 29.72000
O  21.09200 52.59600 30.00100
C  23.21800 51.49400 30.72600
C  23.59900 52.72400 31.53300
O  24.71700 53.24900 31.61800
O  22.64200 53.00800 32.50200
C  23.05000 53.93300 33.60300
H  29.77300 49.13000 30.14300
H  28.99600 49.02000 23.74200
H  23.06800 51.15200 24.29000
H  26.12100 51.30600 32.35500
H  27.86300 49.05200 31.97400
H  28.32200 51.96500 32.66400
H  29.49300 51.11000 31.50200
H  29.02800 50.45800 33.13000
H  25.98700 48.53600 32.85500
H  24.63300 48.74200 31.88800
H  24.00200 48.94900 34.29000
H  23.92900 50.67000 33.76200
H  31.34800 47.66800 29.40100
H  32.29600 49.04200 28.77500
H  32.32200 47.54100 27.96900
H  33.17400 48.94300 26.29800
H  33.42600 48.38400 24.58300
H  32.88300 47.21200 25.83900
H  26.56400 48.62300 22.57200
H  25.12100 51.13400 22.63500
H  28.44800 50.52600 22.13400
H  26.98100 51.18900 21.26500
H  27.58600 49.50200 20.92500
H  23.63100 48.45600 23.01600
H  24.71300 48.38100 21.65900
H  22.07700 49.40900 21.60600
H  23.30200 49.35900 20.37500
H  23.14500 50.81700 21.49900
H  20.42400 52.27500 26.89900
H  21.07900 52.17600 25.24300
H  21.59100 53.43700 26.23700
H  22.61200 50.84200 31.35500
H  23.26900 54.93400 33.23100
H  24.05300 53.76700 33.99700
H  22.34800 53.97000 34.43600
Mg 0.74000 43.03200 25.37700
C  2.80700 43.08700 28.23900
C  -1.79900 41.92400 27.51000
C  -1.19400 41.97300 22.70700
C  3.58000 42.95900 23.45600
N  0.60100 42.50900 27.62800
C  1.51500 42.75600 28.61900
C  0.92600 42.64100 30.02200
C  -0.53300 42.11600 29.75700
C  -0.62200 42.15700 28.18700
C  -0.86300 40.66400 30.25700
C  0.82500 44.08200 30.73000
C  1.27800 43.99800 32.20200
H  0.08200 43.90200 33.20600
N  -1.25600 42.30200 25.16000
C  -2.11700 41.89600 26.12500
C  -3.37300 41.46300 25.51000
C  -3.20600 41.50400 24.14200
C  -1.86400 42.02900 23.89500
C  -4.57600 41.02700 26.37700
C  -4.19300 41.08900 23.02000
O  -3.98800 41.16900 21.79700
C  -5.54400 40.56000 23.41000
N  1.07400 42.63700 23.40800
C  0.15900 42.24900 22.47600
C  0.80700 42.07900 21.05400
C  2.25900 42.67600 21.23400
C  2.34600 42.72000 22.79700
C  0.84500 40.61200 20.50700
C  2.69200 43.95700 20.46100
C  2.45400 45.28600 21.24600
N  2.75900 43.16100 25.72700
C  3.82700 43.17600 24.86100
C  5.10300 43.39600 25.55000
C  4.72700 43.34200 26.89500
C  3.29600 43.23800 26.93700
C  6.46200 43.37000 24.91600
C  5.25600 43.20100 28.19600
O  6.43100 43.01000 28.65100
C  4.04900 43.22200 29.12100
C  4.15900 42.08700 30.02600
O  3.88700 40.88600 29.85900
O  4.60200 42.52600 31.33000
C  4.73600 41.47800 32.44100
H  -2.58700 41.49000 28.12900
H  -1.66000 41.63600 21.77900
H  4.46000 43.05600 22.81700
H  1.55500 41.92500 30.55100
H  -1.29300 42.76500 30.19200
H  -1.15000 39.95800 29.47800
H  -1.74200 40.72100 30.90000
H  -0.01100 40.19800 30.75200
H  -0.18800 44.44400 30.90500
H  1.43000 44.76100 30.12800
H  1.84300 44.89700 32.45000
H  1.99500 43.19900 32.39200
H  -5.06100 41.88700 26.83900
H  -4.32600 40.39000 27.22600
H  -5.24700 40.38800 25.80400
H  -5.34200 39.56700 23.81000
H  -6.23000 40.70000 22.57500
H  -5.90100 41.27500 24.15100
H  0.38500 42.72700 20.28500
H  2.95400 41.92800 20.85400
H  0.16100 40.04200 21.13500
H  1.79900 40.09800 20.62200
H  0.61900 40.56900 19.44100
H  2.13000 43.96900 19.52700
H  3.72100 43.89000 20.11000
H  2.53600 46.14100 20.57500
H  3.25500 45.36900 21.98000
H  1.51800 45.24900 21.80400
H  6.49100 42.95100 23.91000
H  7.03600 42.77600 25.62800
H  6.91000 44.35900 24.82600
H  4.03000 44.17300 29.65300
H  5.57300 40.80700 32.24500
H  3.83100 40.87600 32.35700
H  4.85100 41.98400 33.39900

