158

Mg 23.76900 -5.00700 45.78000
C  26.04500 -2.76500 44.24400
C  21.32300 -3.83800 43.69500
C  22.07400 -7.65100 46.73300
C  26.67500 -6.60600 47.43200
N  23.76000 -3.53000 44.04100
C  24.77400 -2.68000 43.70500
C  24.28900 -1.55700 42.81800
C  22.81000 -1.79500 42.68200
C  22.56800 -3.14400 43.51500
C  21.84800 -0.71600 43.18000
C  24.95900 -1.59200 41.39900
C  24.96400 -0.26900 40.66900
H  24.45000 -0.20200 39.17600
N  21.87800 -5.60200 45.36400
C  20.99100 -5.03700 44.51000
C  19.79000 -5.76200 44.51300
C  20.02200 -6.95400 45.34600
C  21.38700 -6.79900 45.84700
C  18.64800 -5.26200 43.67900
C  18.96000 -7.95800 45.57800
O  17.78700 -7.81500 45.24700
C  19.25900 -9.21100 46.38900
N  24.34800 -6.92000 46.91100
C  23.35600 -7.73700 47.30800
C  23.94700 -8.97300 47.91400
C  25.38400 -8.64300 48.18100
C  25.53600 -7.29400 47.49200
C  23.15900 -9.44100 49.16400
C  26.39300 -9.69500 47.71300
C  27.49200 -10.04500 48.72200
N  25.89000 -4.71300 45.91300
C  26.85500 -5.42800 46.62200
C  28.05900 -4.71800 46.38900
C  27.82300 -3.71500 45.50000
C  26.47600 -3.74400 45.24700
C  29.38400 -5.15400 46.95200
C  28.40400 -2.60700 44.68400
O  29.62100 -2.22200 44.61900
C  27.28000 -1.96100 43.88100
C  27.21700 -0.54600 44.21000
O  27.26600 -0.04200 45.32700
O  27.18900 0.22200 42.98900
C  27.32100 1.63500 43.16300
H  20.47700 -3.36600 43.19100
H  21.66900 -8.61700 47.04200
H  27.55500 -7.06700 47.88500
H  24.52300 -0.59100 43.26700
H  22.47400 -2.12100 41.69800
H  21.10300 -1.21300 43.80200
H  21.36900 -0.36200 42.26700
H  22.27200 0.14200 43.70100
H  24.41400 -2.29300 40.76700
H  25.96300 -2.00700 41.48400
H  26.02800 -0.05100 40.57900
H  24.59000 0.56900 41.25800
H  17.73900 -5.82900 43.87800
H  18.81900 -5.31300 42.60300
H  18.35100 -4.25200 43.96300
H  19.99600 -9.81900 45.86600
H  18.35500 -9.82000 46.38000
H  19.61100 -8.93700 47.38400
H  23.92600 -9.75200 47.15300
H  25.58900 -8.52600 49.24500
H  23.00200 -10.50500 48.98900
H  22.15100 -9.04400 49.28600
H  23.78600 -9.33300 50.05000
H  26.88400 -9.15900 46.90100
H  26.06100 -10.63300 47.26800
H  27.48600 -11.13200 48.81100
H  27.33400 -9.70500 49.74500
H  28.49800 -9.72300 48.45600
H  29.65000 -6.09600 46.47000
H  29.25900 -5.33800 48.01900
H  30.08700 -4.35700 46.70900
H  27.55900 -2.01800 42.82900
H  26.50900 2.28100 42.82800
H  28.17500 2.05700 42.63500
H  27.55700 1.96900 44.17300
Mg 30.44700 57.46600 40.53800
C  27.67500 55.67100 39.58700
C  32.44600 55.01900 39.30300
C  33.07300 59.73500 40.35600
C  28.27300 60.32000 41.14700
N  30.01000 55.61500 39.34700
C  28.87400 55.00700 39.22200
C  29.05600 53.63700 38.54600
C  30.57000 53.32100 38.93700
C  31.05200 54.74100 39.22700
C  30.79400 52.33500 40.13600
C  28.71300 53.76000 37.01900
C  27.52500 52.96700 36.46600
H  26.57600 53.59600 35.46600
N  32.48900 57.38500 40.05700
C  33.09300 56.22700 39.67400
C  34.50300 56.44600 39.72900
C  34.74100 57.78800 40.07000
C  33.42700 58.41100 40.18700
C  35.54200 55.38500 39.28000
C  36.12700 58.44400 40.09100
O  37.14300 57.90400 39.66200
C  36.31300 59.77600 40.74400
N  30.59800 59.79300 40.64500
C  31.83900 60.39700 40.66300
C  31.68000 61.86500 41.10000
C  30.12200 61.99600 41.37000
C  29.63100 60.60300 41.05600
C  32.53800 62.31900 42.28200
C  29.43600 62.98500 40.52000
C  28.34300 63.81000 41.10100
N  28.34000 57.86300 40.61800
C  27.62800 59.10400 40.88100
C  26.22600 58.76600 40.82400
C  26.14200 57.42900 40.30300
C  27.49000 56.92400 40.18100
C  25.12100 59.70000 40.97300
C  25.32800 56.28300 39.81200
O  24.16300 56.23800 39.65100
C  26.25200 55.12900 39.44500
C  25.80500 54.02800 40.28900
O  25.85100 53.91300 41.47200
O  25.33200 53.07500 39.54500
C  24.82400 51.83900 40.05100
H  33.09300 54.17300 39.06400
H  33.88500 60.45900 40.45500
H  27.60500 61.12300 41.46300
H  28.39300 52.91800 39.02600
H  30.99200 52.86000 38.04400
H  31.51900 52.71300 40.85700
H  31.37500 51.48600 39.77500
H  29.90100 52.18000 40.74300
H  29.65900 53.49600 36.54700
H  28.43200 54.77600 36.74000
H  26.90300 52.56700 37.26600
H  27.95400 52.08700 35.98700
H  35.95800 55.62300 38.30000
H  35.07600 54.40000 39.27900
H  36.33000 55.28900 40.02600
H  35.53300 59.79800 41.50500
H  36.18500 60.51800 39.95600
H  37.32600 59.87300 41.13400
H  31.90400 62.60000 40.32600
H  29.90200 62.21100 42.41500
H  32.08500 62.54800 43.24600
H  32.98400 63.27100 41.99400
H  33.34300 61.60900 42.47300
H  28.99800 62.53500 39.62900
H  30.13900 63.69800 40.09000
H  28.03800 63.40500 42.06600
H  27.50500 63.84500 40.40500
H  28.61500 64.83000 41.37400
H  24.37000 59.13800 41.52900
H  24.89800 60.05000 39.96500
H  25.53200 60.52400 41.55500
H  26.01900 54.86800 38.41300
H  23.75600 51.63500 39.97700
H  25.02700 51.66900 41.10900
H  25.28200 50.99100 39.54300

