158

Mg 26.48600 49.50400 26.30400
C  24.63900 50.80000 28.83600
C  28.93900 48.54500 28.57800
C  28.50600 48.45800 23.71800
C  24.40100 50.96300 23.98400
N  26.66900 49.62700 28.48400
C  25.78000 50.20400 29.36000
C  26.22000 49.97600 30.86800
C  27.70000 49.38100 30.66200
C  27.76600 49.18300 29.10200
C  28.92600 50.27700 31.24200
C  25.26000 48.98500 31.65700
C  24.86200 49.51500 33.03400
H  24.85700 48.47000 34.18400
N  28.52200 48.73500 26.19700
C  29.32200 48.41900 27.20000
C  30.50900 47.79400 26.70500
C  30.42200 47.75700 25.27700
C  29.12900 48.36800 25.00100
C  31.61100 47.32300 27.56300
C  31.33000 47.15300 24.24000
O  31.11300 47.19200 23.04800
C  32.61900 46.43500 24.69100
N  26.52800 49.74800 24.17000
C  27.34000 49.02200 23.31100
C  26.96100 49.24200 21.80100
C  25.55600 49.95400 21.89200
C  25.49700 50.28700 23.44300
C  28.12300 49.89800 20.93100
C  24.36600 49.07700 21.28400
C  23.26700 49.81000 20.40900
N  24.74400 50.50000 26.29100
C  24.04600 51.04800 25.30700
C  22.89200 51.73000 25.77100
C  23.04100 51.61800 27.18600
C  24.17100 50.85900 27.47100
C  21.97400 52.59900 24.96300
C  22.49000 52.01000 28.46900
O  21.54400 52.71000 28.72600
C  23.47600 51.43900 29.62700
C  23.87100 52.57400 30.47100
O  24.52300 53.52000 30.13300
O  23.33400 52.43300 31.72100
C  23.82100 53.49000 32.65900
H  29.59600 48.12000 29.33900
H  29.07800 48.29200 22.80200
H  23.60500 51.36300 23.35300
H  26.04700 50.94200 31.34300
H  27.86200 48.40900 31.12800
H  29.59100 50.78100 30.54200
H  29.41100 49.58500 31.93100
H  28.57700 51.10600 31.85800
H  25.84400 48.06600 31.70300
H  24.37700 48.77500 31.05300
H  23.85600 49.86300 32.79700
H  25.52100 50.34500 33.28900
H  31.78100 46.24700 27.60000
H  31.48600 47.64800 28.59600
H  32.62000 47.60400 27.26100
H  33.15700 46.07800 23.81300
H  32.38200 45.57000 25.31000
H  33.26800 47.17200 25.16400
H  26.88300 48.24200 21.37600
H  25.45200 50.98900 21.56500
H  28.99400 50.18600 21.52000
H  27.79000 50.79400 20.40700
H  28.56400 49.20600 20.21300
H  23.79800 48.65400 22.11200
H  24.73100 48.28600 20.62900
H  22.49300 49.93500 21.16600
H  22.98700 49.13100 19.60400
H  23.67900 50.75100 20.04300
H  22.56000 53.08300 24.18300
H  21.57000 53.45800 25.49800
H  21.23200 51.90900 24.56200
H  23.01200 50.66400 30.23800
H  23.94200 53.05900 33.65300
H  23.08700 54.29200 32.74900
H  24.77900 53.97600 32.47600
Mg 0.57600 44.36300 26.32000
C  2.83400 44.27100 29.06300
C  -1.94900 43.70400 28.68700
C  -1.44500 43.80000 23.84000
C  3.35700 44.55100 24.21000
N  0.50000 44.01200 28.69200
C  1.52000 44.20500 29.56300
C  1.05500 44.05500 30.96100
C  -0.43900 43.57700 30.79200
C  -0.70800 43.78300 29.30300
C  -0.63400 42.07800 31.30400
C  1.23100 45.43300 31.72700
C  1.60400 45.41800 33.24300
H  1.06000 44.23000 34.04400
N  -1.48500 44.08800 26.23700
C  -2.32200 43.77100 27.34500
C  -3.63600 43.89200 26.88300
C  -3.60800 43.74900 25.41800
C  -2.16800 43.87600 25.11100
C  -4.86400 44.12000 27.82300
C  -4.75400 43.60000 24.42700
O  -4.59100 43.50300 23.25200
C  -6.18100 43.50700 25.03300
N  0.94900 43.96600 24.33500
C  -0.06500 43.86900 23.51500
C  0.47500 43.90500 22.05100
C  1.79700 44.68600 22.19200
C  2.07900 44.39000 23.67900
C  0.51400 42.51600 21.38600
C  1.70500 46.16300 21.91400
C  2.40000 46.60900 20.60000
N  2.63600 44.38700 26.50800
C  3.66300 44.49400 25.57200
C  4.94800 44.63800 26.16000
C  4.63900 44.48800 27.52800
C  3.24600 44.35800 27.70800
C  6.26300 44.67300 25.47200
C  5.29500 44.48600 28.81000
O  6.47200 44.51400 29.09300
C  4.14000 44.25300 29.85000
C  4.33900 43.01400 30.70800
O  4.47800 41.90200 30.22200
O  4.22000 43.28200 32.02000
C  4.32900 42.14300 32.98600
H  -2.65600 43.39900 29.46100
H  -2.10200 43.74100 22.97000
H  4.17400 44.92700 23.59100
H  1.54600 43.24100 31.49600
H  -1.16100 44.09900 31.42000
H  0.26900 41.47500 31.40400
H  -1.22600 41.50900 30.58700
H  -1.21400 42.22700 32.21500
H  0.32000 46.00000 31.53400
H  1.94300 45.99500 31.12300
H  1.12700 46.33300 33.59300
H  2.68300 45.55000 33.32600
H  -5.47900 43.22900 27.95500
H  -5.49300 44.89400 27.38500
H  -4.61200 44.60500 28.76700
H  -6.24100 42.93600 25.96000
H  -6.73500 42.82100 24.39200
H  -6.68700 44.47200 25.04700
H  -0.26600 44.47500 21.48900
H  2.52800 44.15600 21.58200
H  -0.11500 41.81400 21.93300
H  1.47900 42.02200 21.49500
H  0.23800 42.66200 20.34100
H  2.06100 46.74600 22.76300
H  0.72400 46.58300 21.69300
H  3.15800 47.35800 20.83100
H  1.69900 47.16900 19.98100
H  2.98600 45.88800 20.03100
H  6.13600 45.52100 24.79900
H  6.55200 43.73600 24.99600
H  7.01500 44.96500 26.20500
H  4.05100 45.10600 30.52300
H  5.25300 41.59000 32.81600
H  3.48900 41.46300 32.83800
H  4.41200 42.54900 33.99300

