158

Mg -1.22700 35.08800 26.68700
C  -3.07800 33.28800 29.08800
C  -0.28500 37.36100 29.01900
C  0.55600 36.73000 24.28600
C  -2.56400 32.92000 24.15400
N  -1.77700 35.31700 28.76400
C  -2.45700 34.44100 29.62600
C  -2.41000 34.95400 31.04800
C  -1.53400 36.25500 30.93200
C  -1.20100 36.32700 29.46000
C  -2.22400 37.53400 31.55200
C  -1.99600 33.88200 32.05500
C  -1.50900 34.42600 33.49500
H  -2.28300 33.74600 34.68800
N  -0.02900 36.87400 26.67500
C  0.28700 37.62700 27.74300
C  1.26400 38.62000 27.32800
C  1.54100 38.36000 25.97700
C  0.64100 37.25900 25.58000
C  1.91100 39.66000 28.28700
C  2.63500 38.96300 25.18000
O  2.88700 38.53500 24.05200
C  3.55400 39.98300 25.79600
N  -1.00600 34.83500 24.52000
C  -0.14900 35.61600 23.82700
C  0.01100 35.13600 22.38500
C  -0.91300 33.88400 22.35000
C  -1.50400 33.84400 23.77500
C  -0.22300 36.24100 21.39000
C  -0.18400 32.55100 21.99900
C  -1.12600 31.53600 21.21500
N  -2.53200 33.47800 26.50800
C  -3.03200 32.75300 25.42800
C  -3.94000 31.74200 25.88200
C  -3.93200 31.91600 27.32600
C  -3.06700 33.03500 27.63700
C  -4.74600 30.78800 24.96600
C  -4.45500 31.39700 28.57500
O  -5.11400 30.40700 28.90900
C  -4.02600 32.33200 29.70700
C  -5.25700 32.91900 30.23300
O  -6.06900 33.49200 29.54300
O  -5.33800 32.70100 31.58000
C  -6.43400 33.37800 32.18200
H  0.00200 38.00200 29.85500
H  1.16900 37.22300 23.52800
H  -2.99600 32.27000 23.39100
H  -3.45800 35.21700 31.18900
H  -0.60100 36.14800 31.48400
H  -2.49200 38.17700 30.71400
H  -1.45800 38.01300 32.16100
H  -3.07900 37.31800 32.19300
H  -1.16100 33.33500 31.61700
H  -2.74000 33.11600 32.27400
H  -1.78600 35.48000 33.51600
H  -0.43100 34.27400 33.54300
H  2.93800 39.41200 28.55800
H  1.35200 39.55900 29.21700
H  1.92500 40.68200 27.90900
H  4.36600 40.11800 25.08100
H  4.08500 39.63000 26.68000
H  3.19000 41.01000 25.81100
H  1.03800 34.78000 22.29800
H  -1.68500 34.10400 21.61300
H  -0.77100 37.01400 21.92700
H  -0.87800 35.89900 20.58900
H  0.67300 36.65600 20.92900
H  0.21700 32.06500 22.88900
H  0.67500 32.72500 21.35100
H  -2.02100 31.89400 20.70600
H  -1.44600 30.78800 21.94000
H  -0.41600 31.11300 20.50300
H  -4.06800 30.35300 24.23200
H  -5.44300 31.36800 24.36200
H  -5.28300 30.06700 25.58400
H  -3.47900 31.84000 30.51200
H  -7.02300 32.56300 32.60300
H  -6.90400 34.09300 31.50600
H  -6.18900 33.83000 33.14300
Mg -10.91900 16.66400 40.50700
C  -7.44200 16.53000 40.52500
C  -10.66700 20.07600 39.91700
C  -14.34300 16.89000 39.92000
C  -10.99700 13.26800 40.09500
N  -9.30900 18.08900 40.38200
C  -7.96700 17.84900 40.39800
C  -7.12900 19.08500 40.16400
C  -8.16300 20.22200 40.54000
C  -9.46900 19.42600 40.22300
C  -8.10000 20.75800 42.08300
C  -6.63300 19.08900 38.70100
C  -5.08700 19.00800 38.43900
H  -4.68200 18.23000 37.21800
N  -12.33500 18.35300 40.03500
C  -12.06500 19.65600 39.86600
C  -13.22400 20.50300 39.68600
C  -14.31900 19.58700 39.91400
C  -13.71900 18.19300 39.95200
C  -13.09200 22.02100 39.35900
C  -15.76600 19.97600 39.88900
O  -15.93700 21.20100 39.84900
C  -16.96300 19.07300 40.01300
N  -12.43900 15.30300 40.12900
C  -13.72800 15.59000 39.91400
C  -14.59600 14.38500 39.76800
C  -13.49900 13.22400 39.67300
C  -12.23700 13.97100 40.01700
C  -15.71400 14.26800 40.84900
C  -13.44000 12.62400 38.23100
C  -12.70300 11.19000 38.10900
N  -9.56000 15.16700 40.56100
C  -9.74000 13.79500 40.33800
C  -8.40100 13.11900 40.23400
C  -7.52400 14.18200 40.28500
C  -8.23200 15.34200 40.48700
C  -8.13300 11.69600 40.00300
C  -6.09600 14.46700 40.24500
O  -5.11300 13.70300 40.04500
C  -6.03100 15.96700 40.55800
C  -5.22600 16.08600 41.81400
O  -5.34800 15.39500 42.83500
O  -4.36700 17.21000 41.66300
C  -3.58300 17.56900 42.88000
H  -10.52100 21.14300 39.73500
H  -15.43500 16.89200 39.93600
H  -11.05200 12.20000 39.87500
H  -6.24800 19.26600 40.78000
H  -8.02900 21.08300 39.88600
H  -8.93700 20.35500 42.65300
H  -7.98300 21.83800 42.16700
H  -7.15000 20.50400 42.55300
H  -6.99700 20.01600 38.25800
H  -7.01200 18.24900 38.11900
H  -4.61300 18.57200 39.31800
H  -4.61900 19.97900 38.27800
H  -13.12700 22.03600 38.27000
H  -12.13000 22.46700 39.61400
H  -13.80700 22.70200 39.82200
H  -17.82300 19.71900 40.18800
H  -16.87200 18.36600 40.83700
H  -16.94600 18.62100 39.02100
H  -15.11900 14.40800 38.81200
H  -13.57400 12.50200 40.48600
H  -15.93000 13.20000 40.79800
H  -16.62600 14.72900 40.46800
H  -15.28800 14.45600 41.83400
H  -12.84100 13.33500 37.66100
H  -14.41600 12.46500 37.77300
H  -12.94600 10.76700 39.08300
H  -11.65700 11.22500 37.80400
H  -13.20300 10.44600 37.48900
H  -8.25100 11.10100 40.90900
H  -7.09200 11.55300 39.71400
H  -8.72000 11.15500 39.26000
H  -5.37900 16.27700 39.74100
H  -2.72100 18.03300 42.39900
H  -3.22800 16.68400 43.40800
H  -3.92400 18.31300 43.59900

