158

Mg 40.54800 8.16800 29.49900
C  42.82400 9.63100 31.99000
C  38.67600 7.00600 32.03700
C  38.92400 6.33600 27.22900
C  43.13500 8.89200 27.11700
N  40.84900 8.24200 31.70300
C  41.65600 8.98900 32.50200
C  41.12900 9.08000 33.91300
C  39.89800 8.11100 33.89300
C  39.79800 7.69800 32.44000
C  39.80000 6.99300 34.88400
C  40.81800 10.55000 34.31400
C  39.79700 10.65800 35.49800
H  40.09000 11.82900 36.41300
N  38.85400 7.06100 29.60300
C  38.23600 6.64400 30.75800
C  37.08500 5.90300 30.41400
C  37.06200 5.75100 28.98800
C  38.29000 6.37900 28.53700
C  36.08400 5.49600 31.46200
C  36.17100 5.07400 28.08800
O  36.38200 4.96100 26.89200
C  34.92200 4.55500 28.58800
N  41.05300 7.60200 27.48800
C  40.18700 6.87600 26.70300
C  40.57600 6.87400 25.20800
C  41.65900 8.03100 25.20900
C  41.99300 8.24200 26.67000
C  41.07500 5.45300 24.70800
C  41.26600 9.40700 24.58800
C  40.09500 10.12700 25.15900
N  42.57600 8.99100 29.54900
C  43.39800 9.19900 28.41500
C  44.58200 9.90700 28.94900
C  44.41000 10.05000 30.35500
C  43.14600 9.57200 30.61600
C  45.81500 10.25100 28.15000
C  44.95200 10.66000 31.62900
O  45.91800 11.38200 31.80300
C  43.91600 10.40200 32.69500
C  44.41400 9.67300 33.83200
O  44.90800 8.58500 33.76600
O  44.08400 10.39600 34.92900
C  44.08200 9.66800 36.19400
H  38.09800 6.56600 32.85300
H  38.30700 5.78800 26.51400
H  43.89000 9.23300 26.40600
H  41.87200 8.80600 34.66200
H  38.97000 8.64100 34.11000
H  40.73500 6.97200 35.44400
H  39.66100 6.09300 34.28600
H  38.93900 6.99800 35.55200
H  40.29100 10.88100 33.42000
H  41.75400 11.09200 34.44600
H  39.58300 9.75900 36.07600
H  38.89000 10.89700 34.94200
H  35.03800 5.63300 31.19000
H  36.22500 5.85900 32.48000
H  36.29700 4.44000 31.62900
H  35.14100 3.79300 29.33600
H  34.35000 3.92400 27.90800
H  34.39500 5.38800 29.05100
H  39.75700 7.16100 24.54800
H  42.59600 7.73100 24.73900
H  42.16200 5.48700 24.62500
H  40.66800 4.99400 23.80700
H  40.90600 4.75700 25.53000
H  41.08600 9.26300 23.52300
H  42.11300 10.09000 24.52100
H  40.43700 11.14100 25.36600
H  39.84300 9.66100 26.11200
H  39.21200 10.10700 24.52100
H  46.68300 9.59700 28.22900
H  46.15800 11.04600 28.81300
H  45.74700 10.53600 27.10000
H  43.67100 11.41900 33.00100
H  44.91100 9.98600 36.82600
H  44.03400 8.58500 36.08200
H  43.09200 9.75200 36.64100
Mg 40.24000 41.60400 27.10200
C  39.56100 44.05700 29.67200
C  41.24500 39.57700 29.39300
C  41.07500 39.65900 24.58300
C  39.32900 44.21600 24.82500
N  40.59300 41.97700 29.28900
C  40.07200 42.85500 30.12000
C  40.00800 42.37700 31.55100
C  40.73300 40.96500 31.40400
C  40.85200 40.79900 29.86900
C  42.00800 40.70700 32.22200
C  38.66500 42.40200 32.26600
C  38.62000 41.78100 33.65100
H  38.27500 42.66800 34.86100
N  41.04300 39.78000 26.97600
C  41.42200 39.09600 28.08900
C  41.96900 37.83800 27.64100
C  42.04100 37.91800 26.22500
C  41.35900 39.15200 25.85800
C  42.50100 36.75700 28.53200
C  42.69300 36.94300 25.25500
O  42.79200 37.24400 24.04200
C  43.36500 35.63900 25.74500
N  40.16600 41.89400 25.04700
C  40.46300 40.85500 24.22800
C  40.20300 41.23600 22.79700
C  39.31200 42.50900 22.86200
C  39.66500 42.93700 24.29400
C  41.54100 41.28000 21.98200
C  37.82300 42.25000 22.58000
C  37.27400 41.14000 23.49700
N  39.60000 43.64300 27.15400
C  39.34000 44.59100 26.16600
C  39.06500 45.91400 26.68300
C  39.07600 45.72900 28.06200
C  39.41100 44.38100 28.29900
C  38.73600 47.17500 25.86800
C  38.83700 46.36000 29.32200
O  38.42200 47.49000 29.63000
C  39.07300 45.28400 30.39000
C  39.95300 45.68500 31.52700
O  41.18000 45.55900 31.54700
O  39.19200 46.16700 32.53300
C  39.93800 46.45100 33.80100
H  41.50900 38.83000 30.14500
H  41.21400 39.03700 23.69600
H  39.16700 45.02300 24.10700
H  40.65900 43.08600 32.06300
H  39.93900 40.27600 31.69400
H  42.17400 41.60300 32.81900
H  42.78300 40.43100 31.50800
H  41.92500 39.90300 32.95400
H  37.97600 41.94000 31.55900
H  38.35200 43.43200 32.43400
H  39.55200 41.29000 33.93000
H  37.92800 40.94400 33.55300
H  43.58100 36.65400 28.41900
H  42.11100 35.74500 28.42200
H  42.35700 37.06900 29.56600
H  43.71100 35.13800 24.84100
H  42.64400 34.93000 26.15200
H  44.10000 35.95800 26.48400
H  39.59300 40.53500 22.22700
H  39.66600 43.28400 22.18200
H  41.71400 42.30200 21.64500
H  41.38600 40.58800 21.15400
H  42.36100 40.92500 22.60600
H  37.72200 42.07700 21.50800
H  37.30400 43.20500 22.65700
H  36.49900 41.51100 24.16800
H  38.01000 40.44400 23.89900
H  36.86600 40.49100 22.72200
H  38.57200 47.97800 26.58700
H  37.83900 46.86200 25.33400
H  39.56700 47.39900 25.19900
H  38.12900 44.99700 30.85200
H  40.74500 45.74400 33.99300
H  39.25600 46.31400 34.64000
H  40.42100 47.42200 33.91000

