158

Mg 54.52200 24.12700 44.69800
C  51.93000 26.26000 43.93200
C  52.90600 21.69400 42.81400
C  57.19500 22.08200 44.83300
C  56.32200 26.66700 46.04800
N  52.63600 24.03300 43.43500
C  51.69300 25.04400 43.41600
C  50.56000 24.61700 42.38900
C  50.72500 23.00100 42.43400
C  52.12700 22.84400 43.01600
C  49.56500 22.25400 43.24900
C  50.83600 25.20300 40.96500
C  50.81900 24.42500 39.66000
H  50.52200 25.17000 38.36200
N  54.94600 22.11100 44.03200
C  54.12400 21.34900 43.28400
C  54.60800 20.03000 43.21400
C  55.96000 20.06700 43.69400
C  56.12900 21.43200 44.22200
C  53.96200 18.86600 42.50900
C  56.96200 18.89500 43.61700
O  56.71300 17.82500 43.08700
C  58.29200 19.06700 44.20200
N  56.55100 24.40100 45.18000
C  57.39300 23.34800 45.34300
C  58.74400 23.80100 45.86100
C  58.43200 25.40600 46.20000
C  56.98700 25.47600 45.76100
C  59.24700 22.97200 47.04700
C  59.40500 26.45600 45.46800
C  60.20700 27.46700 46.25900
N  54.16200 26.07000 45.16600
C  54.93400 26.98300 45.76600
C  54.20500 28.22800 45.94300
C  52.97200 27.98900 45.27800
C  53.03000 26.66300 44.75400
C  54.63300 29.56400 46.46900
C  51.66400 28.46800 44.89800
O  51.26000 29.55000 45.04500
C  50.91500 27.41100 44.05700
C  50.54300 27.97700 42.81300
O  51.37200 28.34300 41.94200
O  49.21700 28.03100 42.72000
C  48.74400 28.44000 41.43400
H  52.35900 20.99600 42.17600
H  58.04000 21.40900 44.99100
H  56.88100 27.44800 46.56800
H  49.59900 24.98900 42.74400
H  50.65600 22.57500 41.43300
H  49.96600 21.79400 44.15200
H  49.14600 21.50800 42.57300
H  48.81600 22.94900 43.62900
H  51.79900 25.71300 40.98400
H  49.98000 25.86700 40.83900
H  50.04800 23.65400 39.68200
H  51.76800 23.91700 39.48900
H  54.31300 18.86600 41.47700
H  52.88600 19.04000 42.49300
H  54.19600 17.89800 42.95300
H  58.18500 19.38600 45.23900
H  58.87400 19.76900 43.60500
H  58.74900 18.08600 44.07300
H  59.36100 23.69300 44.97000
H  58.48900 25.62400 47.26700
H  58.53100 22.18400 47.28100
H  59.54700 23.63600 47.85800
H  60.15400 22.45600 46.73400
H  58.85200 27.00100 44.70300
H  60.18700 25.92500 44.92500
H  61.21700 27.23300 45.92200
H  60.08600 27.48500 47.34200
H  59.82100 28.43000 45.92700
H  54.96300 30.19800 45.64600
H  55.51600 29.32300 47.06100
H  53.85700 29.92600 47.14400
H  50.02900 27.17600 44.64600
H  49.24200 28.05200 40.54600
H  48.85500 29.52400 41.44500
H  47.73500 28.02800 41.42700
Mg 16.47600 51.83400 26.60100
C  18.32600 50.24200 29.08100
C  14.00600 52.46000 28.83900
C  14.53600 52.83400 23.96700
C  18.91300 50.82500 24.22700
N  16.24100 51.36700 28.61500
C  17.09800 50.75300 29.50000
C  16.64900 50.96000 30.99200
C  15.14700 51.25300 30.80100
C  15.10900 51.74000 29.36000
C  14.15100 50.17400 31.12000
C  17.38500 52.11200 31.81500
C  18.00600 51.78500 33.24600
H  17.08800 51.04000 34.27100
N  14.56000 52.62800 26.47500
C  13.72400 52.90700 27.53700
C  12.65800 53.71500 27.02100
C  12.82400 53.88200 25.59100
C  14.02200 53.10700 25.26200
C  11.56400 54.39700 27.92700
C  12.11400 54.84500 24.59100
O  12.50500 54.93100 23.44000
C  10.96000 55.68600 25.10200
N  16.63700 51.58100 24.43500
C  15.74600 52.21500 23.63200
C  16.23300 52.31300 22.17700
C  17.72300 51.92900 22.30900
C  17.76500 51.33800 23.69300
C  15.34600 51.44200 21.21100
C  18.82400 52.91200 21.81800
C  20.01300 52.33700 21.11500
N  18.18400 50.76400 26.59600
C  19.07600 50.50700 25.58300
C  20.24900 49.87400 26.18100
C  20.02100 49.81700 27.56000
C  18.74800 50.32700 27.70200
C  21.46400 49.54900 25.36900
C  20.64500 49.46400 28.80900
O  21.80700 49.13200 29.18200
C  19.43200 49.56100 29.85500
C  19.12000 48.15000 30.28700
O  18.39800 47.33300 29.74700
O  19.79400 47.97000 31.44400
C  19.51000 46.69800 32.06900
H  13.37000 52.86400 29.62900
H  13.85500 53.08100 23.15000
H  19.75300 50.76600 23.53000
H  16.76600 50.02000 31.52900
H  14.94400 52.12300 31.42600
H  13.52900 49.97200 30.24800
H  13.44000 50.45900 31.89500
H  14.57800 49.19300 31.33200
H  16.73900 52.98800 31.86800
H  18.15000 52.38600 31.08800
H  18.33000 52.70000 33.74000
H  18.93300 51.21200 33.25700
H  11.86000 55.42000 28.16100
H  11.40400 53.91400 28.89100
H  10.62000 54.43300 27.38400
H  10.13500 55.04800 25.41800
H  10.59500 56.29500 24.27500
H  11.39600 56.33300 25.86300
H  16.16600 53.29400 21.70700
H  17.80200 51.01500 21.72100
H  15.94100 50.82500 20.53800
H  14.69800 52.13100 20.66900
H  14.77000 50.73600 21.80900
H  19.23700 53.38600 22.70800
H  18.32800 53.74400 21.31700
H  20.28300 52.81800 20.17500
H  19.91900 51.28700 20.83900
H  20.80900 52.47200 21.84800
H  22.21700 49.27100 26.10600
H  21.84400 50.50500 25.00800
H  21.31700 48.84000 24.55400
H  19.73200 50.13300 30.73300
H  18.48300 46.39900 31.86200
H  19.47000 46.86700 33.14500
H  20.23100 45.90400 31.87100

