158

Mg 30.35100 57.59300 41.16400
C  27.34200 55.89800 40.21200
C  32.07200 54.81900 40.16800
C  32.95500 59.53100 41.42600
C  28.23500 60.50700 41.64100
N  29.74200 55.57800 40.27800
C  28.48500 55.16200 39.92500
C  28.58800 53.95100 39.15200
C  30.01600 53.35500 39.46900
C  30.68100 54.61000 40.08200
C  30.07500 52.21200 40.53200
C  28.26300 54.18700 37.61700
C  27.00800 53.50200 36.96400
H  26.47700 54.22200 35.65700
N  32.29000 57.24500 40.84200
C  32.83700 56.02300 40.45900
C  34.24400 56.16400 40.60900
C  34.52400 57.49700 41.14600
C  33.25600 58.13800 41.20100
C  35.33200 55.18500 40.06100
C  35.89700 58.04900 41.51000
O  36.87400 57.37800 41.30900
C  36.16100 59.40400 42.09400
N  30.53000 59.77000 41.54500
C  31.79500 60.27200 41.57300
C  31.76700 61.87300 41.60500
C  30.20500 62.16500 41.80600
C  29.62800 60.75000 41.66400
C  32.78100 62.58300 42.61500
C  29.50800 63.23000 40.87000
C  28.81600 64.43600 41.56100
N  28.24600 58.09300 41.15500
C  27.57000 59.26300 41.42200
C  26.12600 59.06700 41.48700
C  26.00200 57.72300 40.99000
C  27.33300 57.23700 40.78300
C  25.07200 60.09400 41.90000
C  25.04200 56.62400 40.60200
O  23.82900 56.55400 40.65400
C  25.82500 55.49500 39.98000
C  25.49100 54.16000 40.54600
O  25.96400 53.78400 41.64900
O  24.43800 53.49300 39.91300
C  24.21000 52.15800 40.44900
H  32.72500 53.96100 39.99200
H  33.79900 60.22200 41.47500
H  27.70700 61.43400 41.87500
H  27.90700 53.15000 39.43900
H  30.66500 53.00600 38.66600
H  30.94300 51.56600 40.40500
H  29.21200 51.55200 40.43700
H  30.16600 52.61100 41.54200
H  29.12900 53.71900 37.14700
H  28.31100 55.27400 37.56300
H  26.24900 53.50900 37.74600
H  27.28900 52.46600 36.77700
H  34.88500 54.45000 39.39300
H  35.95900 54.64300 40.76900
H  36.05300 55.71800 39.44100
H  35.41000 59.63000 42.85100
H  36.10100 60.18000 41.33100
H  37.17200 59.52700 42.48000
H  32.07100 62.13800 40.59300
H  29.99700 62.42100 42.84500
H  32.57000 62.36000 43.66100
H  32.65900 63.66600 42.59300
H  33.78100 62.23400 42.35700
H  28.77900 62.69000 40.26500
H  30.32100 63.61600 40.25600
H  27.74700 64.23000 41.50400
H  28.95500 65.39400 41.06000
H  29.12700 64.53200 42.60200
H  24.53000 60.51700 41.05400
H  25.55900 60.99200 42.28000
H  24.37200 59.63700 42.60000
H  25.67100 55.34800 38.91100
H  23.14000 52.11800 40.24600
H  24.23000 52.02000 41.53000
H  24.71900 51.40600 39.84700
Mg 35.83900 48.99400 25.88000
C  35.77100 47.22500 28.93200
C  34.37700 51.67100 27.41700
C  35.84800 50.58700 22.90100
C  37.10100 46.03600 24.31500
N  35.26300 49.35700 28.00600
C  35.42600 48.60300 29.08100
C  35.24200 49.48400 30.38600
C  34.62500 50.81500 29.84200
C  34.74200 50.56400 28.26100
C  33.21600 51.20100 30.31900
C  36.49900 49.56000 31.25300
C  36.33500 48.98400 32.70800
H  34.97600 48.87100 33.35700
N  35.11300 50.87200 25.25000
C  34.59000 51.83100 26.02900
C  34.36600 52.97700 25.22700
C  34.55800 52.55600 23.84000
C  35.23900 51.35500 23.92300
C  33.79300 54.23000 25.87200
C  34.27600 53.21100 22.56300
O  34.76900 52.96900 21.44700
C  33.24200 54.40800 22.61200
N  36.28800 48.39700 23.89800
C  36.34200 49.31600 22.92300
C  36.98700 48.69800 21.63000
C  37.37200 47.27100 22.05600
C  36.87600 47.16700 23.51200
C  36.03800 48.59900 20.44700
C  38.98400 47.07300 21.96000
C  39.77300 47.73600 23.13200
N  36.36900 47.12000 26.44400
C  36.90500 46.05300 25.71300
C  37.13200 44.91700 26.59600
C  36.67500 45.35700 27.83900
C  36.21600 46.66500 27.70900
C  37.62500 43.61400 26.16000
C  36.58200 44.86700 29.19800
O  36.77400 43.79100 29.71300
C  36.00500 46.10000 29.95600
C  34.89100 45.66500 30.82600
O  33.75000 45.60400 30.49700
O  35.37500 45.30500 32.09900
C  34.35000 44.55800 32.83600
H  33.89700 52.54800 27.85400
H  35.95900 51.16400 21.98000
H  37.64400 45.17500 23.91900
H  34.50900 48.97900 31.01500
H  35.23100 51.65900 30.17100
H  32.66900 51.43300 29.40600
H  33.17900 52.09600 30.94100
H  32.75100 50.36700 30.84400
H  36.82000 50.59000 31.40900
H  37.32400 48.98300 30.83400
H  36.98000 49.50200 33.41800
H  36.77000 47.98500 32.73300
H  33.85800 55.11400 25.23700
H  34.41100 54.57200 26.70300
H  32.78000 54.05400 26.23400
H  33.54900 55.30200 23.15500
H  32.33500 53.99300 23.05200
H  33.07000 54.79200 21.60700
H  37.87100 49.29000 21.39600
H  36.76900 46.55700 21.49400
H  35.34300 47.77200 20.59200
H  36.65900 48.37100 19.58000
H  35.57800 49.58300 20.35200
H  39.30100 47.59600 21.05700
H  39.27700 46.02500 21.90200
H  40.63600 48.33900 22.85000
H  40.13900 46.87300 23.68800
H  39.08000 48.27400 23.77900
H  38.67900 43.68500 25.89300
H  37.04300 43.28600 25.29800
H  37.61400 43.02700 27.07800
H  36.75500 46.50200 30.63700
H  34.83800 43.97200 33.61500
H  33.70500 43.94200 32.21000
H  33.65600 45.18700 33.39400

