158

Mg 47.20400 34.41600 27.67700
C  45.53700 32.62600 30.13100
C  47.51200 37.07900 29.95400
C  48.27500 36.25700 25.24700
C  46.24300 31.84500 25.36700
N  46.59300 34.74600 29.82300
C  45.96400 33.79900 30.63800
C  45.96400 34.25400 32.04900
C  46.32500 35.82400 31.95800
C  46.95100 35.86800 30.51900
C  45.15000 36.85000 32.20300
C  46.97000 33.41400 32.94300
C  46.72800 33.35600 34.50100
H  45.88200 34.51200 35.13700
N  47.77700 36.36400 27.58700
C  47.99400 37.31900 28.64000
C  48.60400 38.47100 28.13100
C  48.95500 38.16700 26.77300
C  48.33800 36.90000 26.49900
C  49.03400 39.63700 29.10300
C  49.77500 38.94200 25.83000
O  49.95400 38.68300 24.63000
C  50.43100 40.25000 26.29100
N  47.23700 34.07300 25.61100
C  47.73300 35.07300 24.80500
C  47.69500 34.57800 23.31200
C  46.94500 33.21300 23.34900
C  46.79200 33.00700 24.84400
C  47.04900 35.64500 22.45200
C  47.60600 32.04600 22.56900
C  48.73900 31.25900 23.31300
N  46.37200 32.46900 27.67900
C  45.95800 31.58600 26.74000
C  45.41600 30.39000 27.33600
C  45.14000 30.84000 28.65300
C  45.70800 32.10200 28.81000
C  44.96900 29.09200 26.67800
C  44.42200 30.50800 29.82400
O  43.79400 29.53400 30.10100
C  44.42100 31.70800 30.74400
C  44.38100 31.27700 32.12900
O  45.22700 30.58400 32.64400
O  43.21800 31.73800 32.70700
C  43.17000 31.75300 34.21300
H  47.43400 37.87500 30.69700
H  48.74800 36.74300 24.39100
H  46.06600 30.96700 24.74300
H  44.93400 34.19100 32.40200
H  47.09700 36.14700 32.65700
H  44.18500 36.34500 32.22700
H  44.99800 37.53300 31.36800
H  45.42300 37.29700 33.16000
H  48.01500 33.71600 32.86900
H  46.92800 32.40700 32.52700
H  47.68000 33.44400 35.02500
H  46.09400 32.52600 34.81500
H  48.54200 40.55100 28.77000
H  50.11700 39.76100 29.11600
H  48.79000 39.46800 30.15200
H  49.79100 40.86800 26.91900
H  50.63200 40.99100 25.51700
H  51.39500 40.00000 26.73600
H  48.73300 34.47600 22.99500
H  45.91800 33.37100 23.02000
H  47.84700 36.19400 21.95200
H  46.32600 36.22300 23.02900
H  46.50200 35.15300 21.64800
H  48.04800 32.45200 21.65900
H  46.90100 31.35500 22.10800
H  48.39800 30.29200 23.68100
H  49.19800 31.76900 24.16000
H  49.72100 31.23800 22.84100
H  44.37200 29.39100 25.81700
H  44.48200 28.46200 27.42300
H  45.87600 28.66000 26.25500
H  43.42100 32.06200 30.49400
H  42.33800 31.12500 34.53100
H  42.90300 32.77800 34.47000
H  44.07500 31.49800 34.76600
Mg -10.10700 17.34200 42.67700
C  -6.60200 16.94400 42.74100
C  -9.50200 20.59100 41.41600
C  -13.41000 17.68600 42.09600
C  -10.45500 13.81300 43.04700
N  -8.23300 18.69400 42.24000
C  -6.92100 18.25200 42.39600
C  -5.93400 19.39500 42.11300
C  -6.90200 20.63700 41.76600
C  -8.31400 19.91400 41.79900
C  -6.74600 21.79600 42.82900
C  -4.97900 19.06300 40.90500
C  -5.56900 18.25600 39.71700
H  -5.01000 18.45700 38.29600
N  -11.27500 18.92500 41.86300
C  -10.84200 20.16800 41.51300
C  -11.93800 20.97100 41.10900
C  -13.12600 20.18000 41.25800
C  -12.66200 18.84700 41.79000
C  -11.76200 22.40700 40.70000
C  -14.60100 20.62100 40.91900
O  -14.78900 21.66100 40.30300
C  -15.80800 19.74600 41.09700
N  -11.74900 15.86600 42.39900
C  -13.02900 16.32400 42.40600
C  -13.99600 15.20600 42.57700
C  -13.03800 13.96400 42.97400
C  -11.66300 14.55300 42.78900
C  -15.15700 15.40000 43.58500
C  -13.29200 12.69600 42.16800
C  -13.26200 12.79900 40.63100
N  -8.92400 15.63200 42.89900
C  -9.14600 14.31100 43.03900
C  -7.93200 13.65900 43.28600
C  -6.99500 14.61100 43.30400
C  -7.59900 15.81200 42.91800
C  -7.80500 12.15700 43.39900
C  -5.59400 14.81100 43.44500
O  -4.79300 13.91000 43.64400
C  -5.26900 16.27900 43.05800
C  -4.55200 16.91700 44.15500
O  -3.43900 17.43600 44.08900
O  -5.47300 17.12700 45.20900
C  -5.15000 17.87100 46.41700
H  -9.23400 21.57000 41.01300
H  -14.50200 17.70300 42.10400
H  -10.58300 12.74100 43.21300
H  -5.32400 19.61900 42.98700
H  -6.58600 20.92300 40.76300
H  -6.11200 21.65600 43.70400
H  -7.69600 21.95800 43.33700
H  -6.53300 22.71300 42.28000
H  -4.21000 18.44000 41.36200
H  -4.58800 20.02300 40.56600
H  -6.62400 18.50200 39.59500
H  -5.44600 17.20600 39.98000
H  -11.69600 22.42700 39.61200
H  -10.93700 22.92500 41.18800
H  -12.61100 22.95900 41.10500
H  -15.62500 18.81200 40.56600
H  -16.57400 20.35100 40.61200
H  -16.02200 19.54300 42.14700
H  -14.39500 14.94800 41.59600
H  -13.17900 13.76600 44.03700
H  -15.74400 16.30000 43.40300
H  -14.84400 15.47900 44.62600
H  -15.84600 14.56100 43.68300
H  -14.31200 12.39800 42.41200
H  -12.56700 11.91400 42.39700
H  -13.16200 13.84400 40.33400
H  -14.23000 12.55200 40.19600
H  -12.49100 12.15600 40.20500
H  -8.69300 11.55800 43.19800
H  -7.43500 11.91500 44.39500
H  -7.19400 11.75900 42.58900
H  -4.67100 16.38900 42.15300
H  -5.13400 18.93600 46.18700
H  -4.18300 17.61300 46.85100
H  -5.93800 17.62200 47.12700

