158

Mg 25.93800 49.63100 26.26100
C  23.76300 50.47700 28.82100
C  28.21100 48.57100 28.50900
C  28.15000 49.10900 23.68500
C  23.68000 50.92500 23.91200
N  26.02500 49.75800 28.52100
C  24.93000 49.92900 29.31200
C  25.28100 49.55000 30.75400
C  26.76200 49.02600 30.66400
C  27.05100 49.12500 29.10700
C  27.88500 49.72200 31.55200
C  24.21800 48.56600 31.43700
C  23.75200 49.02300 32.85600
H  24.70400 49.66500 33.96300
N  27.87900 48.95700 26.13900
C  28.58600 48.41400 27.16700
C  29.81000 47.79900 26.72000
C  29.84100 48.00700 25.23900
C  28.59200 48.70500 24.97200
C  30.81000 46.99900 27.61700
C  30.94000 47.54700 24.28600
O  30.83700 47.74300 23.10000
C  32.01500 46.66800 24.78900
N  25.95000 49.97500 24.06100
C  26.97500 49.72700 23.26700
C  26.68900 50.03000 21.82900
C  25.15800 50.30500 21.84800
C  24.82600 50.36700 23.31700
C  27.57200 51.18400 21.28300
C  24.36200 49.20600 21.05800
C  24.06300 47.86500 21.76100
N  24.14200 50.53500 26.32300
C  23.34800 51.01800 25.27200
C  22.08400 51.54700 25.84000
C  22.18500 51.33100 27.21500
C  23.50800 50.79300 27.45600
C  20.91600 52.06700 25.08400
C  21.49800 51.58000 28.46400
O  20.43100 52.13500 28.66100
C  22.50200 51.00200 29.57300
C  22.83800 52.08700 30.63200
O  23.62100 53.05600 30.51300
O  22.04200 51.90200 31.79200
C  22.26800 52.88300 32.83800
H  28.81300 47.92500 29.15200
H  28.82700 48.81300 22.88100
H  22.89700 51.28400 23.24100
H  25.29500 50.52600 31.23800
H  26.87200 47.97700 30.93600
H  28.56500 48.98200 31.97200
H  27.47700 50.32900 32.36000
H  28.60300 50.20600 30.89000
H  24.69500 47.58700 31.47100
H  23.27200 48.37800 30.93000
H  23.39800 48.03800 33.15900
H  22.78600 49.52600 32.81500
H  31.79300 47.44400 27.46100
H  30.74900 45.93900 27.37300
H  30.69700 47.00400 28.70100
H  32.69500 47.21200 25.44500
H  32.69300 46.36400 23.99100
H  31.56200 45.77700 25.22300
H  26.95000 49.25200 21.11100
H  24.90100 51.29000 21.45800
H  28.48700 51.17200 21.87500
H  27.06700 52.13300 21.46300
H  27.79700 50.98400 20.23600
H  24.87900 48.89300 20.15100
H  23.39300 49.63000 20.79700
H  24.01800 46.95000 21.17100
H  23.07600 47.99200 22.20700
H  24.73300 47.67600 22.60000
H  21.00100 53.15100 25.15800
H  20.06400 51.77000 25.69500
H  20.71400 51.71000 24.07400
H  21.96400 50.25700 30.15900
H  23.00400 52.48500 33.53700
H  21.39100 52.97600 33.47900
H  22.62900 53.86300 32.52700
Mg 7.01100 57.20500 41.73300
C  5.93600 53.75900 41.84600
C  9.89400 56.12200 40.21100
C  7.72100 60.49700 41.16600
C  3.75400 58.03200 42.65500
N  7.77700 55.12200 41.12500
C  7.24600 53.86900 41.21400
C  8.15400 52.78300 40.62500
C  9.55600 53.56900 40.56700
C  9.03600 55.03900 40.62100
C  10.54500 53.30300 41.70000
C  7.54800 52.34200 39.28000
C  7.48900 50.91800 38.88900
H  6.48400 50.44800 37.83700
N  8.69700 58.20400 40.88600
C  9.77300 57.54100 40.33500
C  10.61900 58.55200 39.83000
C  10.02700 59.84300 40.08400
C  8.71700 59.55300 40.72700
C  12.08900 58.21900 39.35400
C  10.71900 61.20800 39.92600
O  11.69500 61.34500 39.19200
C  10.05200 62.43000 40.31500
N  5.91700 58.97600 41.75800
C  6.44700 60.21300 41.70200
C  5.52400 61.34900 42.08000
C  4.23000 60.50100 42.38600
C  4.65600 59.05400 42.23700
C  6.12400 62.31000 43.13600
C  3.04500 60.87300 41.49700
C  2.18800 62.06700 42.10300
N  5.19600 56.13600 42.26900
C  3.99500 56.66500 42.62800
C  3.14200 55.60400 43.09900
C  3.91600 54.44700 42.81000
C  5.14800 54.78000 42.24100
C  1.67400 55.72000 43.73700
C  3.98700 52.99700 43.04800
O  3.24700 52.26500 43.65300
C  5.33300 52.45800 42.25500
C  4.83900 51.51500 41.14900
O  4.21200 51.76000 40.16500
O  5.05200 50.19300 41.57500
C  4.29300 49.11700 40.98000
H  10.86600 55.83000 39.80800
H  7.88600 61.56400 41.00100
H  2.86500 58.28600 43.23500
H  8.26300 51.92800 41.29400
H  10.15600 53.53100 39.65800
H  11.54500 53.04200 41.35600
H  10.08000 52.40300 42.10100
H  10.45800 54.09500 42.44300
H  8.16000 52.78600 38.49500
H  6.61600 52.89700 39.16900
H  7.15700 50.34000 39.75200
H  8.49100 50.66500 38.54300
H  12.01400 58.50400 38.30500
H  12.41000 57.21100 39.61600
H  12.75500 58.80500 39.98800
H  9.19300 62.62000 39.67200
H  10.77900 63.23800 40.24400
H  9.68200 62.25900 41.32600
H  5.41100 61.97400 41.19300
H  4.01000 60.67900 43.43900
H  7.20500 62.17600 43.16900
H  5.81600 62.07900 44.15600
H  5.90500 63.37200 43.02800
H  2.40000 60.00000 41.59100
H  3.32700 61.17700 40.48900
H  1.31300 61.52900 42.46800
H  1.92000 62.95300 41.52700
H  2.65300 62.41800 43.02400
H  1.68700 55.50200 44.80500
H  1.00200 55.02400 43.23500
H  1.36700 56.74600 43.53400
H  5.91300 51.91900 43.00500
H  3.99400 48.51400 41.83800
H  5.04100 48.55800 40.41800
H  3.42900 49.41900 40.38900

