158

Mg -2.95600 17.58100 25.85300
C  -3.18600 15.06500 28.26800
C  -3.47300 19.91800 28.15800
C  -2.84500 19.70800 23.34500
C  -3.08300 14.92700 23.41200
N  -3.14100 17.44400 28.01200
C  -3.39600 16.37300 28.74700
C  -3.69700 16.79200 30.20700
C  -3.84900 18.35200 30.04000
C  -3.38200 18.61400 28.66200
C  -5.28300 18.98700 30.38800
C  -2.76600 16.41800 31.38300
C  -2.72500 17.29500 32.64300
H  -2.73500 16.51200 33.95300
N  -3.04900 19.52600 25.77500
C  -3.12600 20.36100 26.87800
C  -3.12500 21.69400 26.48200
C  -2.95100 21.72900 25.06700
C  -2.91700 20.29900 24.64500
C  -3.07100 22.85000 27.40800
C  -2.86000 22.92900 24.13200
O  -2.90100 22.74800 22.91500
C  -2.80900 24.28900 24.63300
N  -3.21900 17.33500 23.69400
C  -3.00100 18.39200 22.96200
C  -2.80700 18.03700 21.51100
C  -3.04400 16.51600 21.45900
C  -3.10600 16.19900 22.93600
C  -3.60000 18.93100 20.46600
C  -1.96700 15.71200 20.66300
C  -2.40900 15.21600 19.29400
N  -2.92800 15.35400 25.78600
C  -2.94400 14.48500 24.74700
C  -2.87700 13.14700 25.26100
C  -2.94800 13.31500 26.68800
C  -2.92600 14.68500 26.94600
C  -2.82400 11.95700 24.39600
C  -3.05200 12.61700 27.95800
O  -2.99000 11.37000 28.17800
C  -3.16400 13.75800 29.06400
C  -2.00900 13.57600 29.85900
O  -0.89600 14.01900 29.64500
O  -2.43000 12.79900 30.92300
C  -1.34800 12.70600 31.90000
H  -3.82700 20.58200 28.95000
H  -2.43200 20.35300 22.56600
H  -3.20700 14.10700 22.70200
H  -4.59900 16.24600 30.48200
H  -3.04800 18.80200 30.62700
H  -5.95300 18.12700 30.38400
H  -5.70400 19.72900 29.70900
H  -5.11500 19.42100 31.37300
H  -1.80800 16.42500 30.86300
H  -2.84800 15.39600 31.75200
H  -3.53700 18.01600 32.73800
H  -1.80000 17.86700 32.57100
H  -4.00200 23.41500 27.37000
H  -2.28400 23.56400 27.16700
H  -2.85300 22.68300 28.46300
H  -2.59400 25.06000 23.89400
H  -2.01300 24.43500 25.36300
H  -3.79300 24.46100 25.07100
H  -1.76800 18.23900 21.24700
H  -4.03700 16.22000 21.12200
H  -4.49700 19.37300 20.89900
H  -3.92000 18.31900 19.62300
H  -3.01400 19.72300 20.00000
H  -1.58000 14.99200 21.38400
H  -1.08700 16.32100 20.45700
H  -3.38700 15.64100 19.07200
H  -2.47000 14.13100 19.20100
H  -1.71200 15.63700 18.56900
H  -2.53000 11.07300 24.96300
H  -2.24400 12.10500 23.48500
H  -3.78200 11.93700 23.87700
H  -3.95800 13.71000 29.80900
H  -1.65000 12.11900 32.76800
H  -1.12900 13.68600 32.32400
H  -0.45600 12.22800 31.49600
Mg 48.41500 34.33500 27.34500
C  46.92000 33.03600 30.11300
C  49.01100 37.24200 29.14500
C  49.31700 35.78700 24.42000
C  47.53700 31.50700 25.55300
N  48.14500 35.00600 29.51800
C  47.52500 34.28300 30.46800
C  47.64000 35.01700 31.83800
C  47.91200 36.52800 31.29200
C  48.47600 36.24400 29.95200
C  46.65800 37.52300 31.30800
C  48.75100 34.47200 32.67500
C  48.58000 34.52000 34.21100
H  47.51600 35.37400 34.87400
N  49.02300 36.20900 26.82700
C  49.26900 37.25100 27.70900
C  49.98000 38.30700 27.09100
C  49.94800 38.03500 25.67800
C  49.41000 36.63000 25.59300
C  50.41000 39.54100 27.83100
C  50.47600 38.82200 24.49300
O  50.30200 38.43700 23.34400
C  51.06300 40.20800 24.65500
N  48.42300 33.72000 25.28100
C  48.87700 34.48800 24.28800
C  48.76200 33.77300 22.92300
C  48.18400 32.44200 23.31700
C  48.12600 32.51600 24.78300
C  47.96400 34.52200 21.77700
C  48.96900 31.24500 22.76300
C  50.16500 30.58200 23.47600
N  47.41700 32.62500 27.65100
C  47.11700 31.53300 26.89800
C  46.44100 30.56400 27.70300
C  46.21700 31.12300 28.92800
C  46.84500 32.38300 28.85600
C  45.95800 29.19000 27.28400
C  45.58600 30.86400 30.14800
O  44.90000 29.89300 30.60600
C  45.90000 32.18900 30.99600
C  46.20100 31.80300 32.40000
O  47.23300 31.23600 32.85300
O  45.06500 32.21900 33.09200
C  44.80900 31.75500 34.44100
H  49.26100 38.15600 29.68900
H  49.66900 36.26400 23.50300
H  47.43900 30.52100 25.09400
H  46.73000 34.78600 32.39100
H  48.71800 36.99100 31.86100
H  46.45000 37.78700 30.27100
H  47.03300 38.43000 31.78300
H  45.79500 37.14900 31.85900
H  49.67100 34.99700 32.41600
H  48.83300 33.41400 32.42700
H  49.63600 34.66100 34.43900
H  48.39700 33.47200 34.44700
H  50.72000 39.25100 28.83500
H  49.61700 40.27100 27.99800
H  51.28300 40.05900 27.43400
H  50.33200 40.92200 25.03500
H  51.61900 40.60200 23.80500
H  51.80300 40.15600 25.45400
H  49.77100 33.57800 22.56000
H  47.15800 32.40300 22.95200
H  48.65100 34.57500 20.93300
H  47.55700 35.50900 21.99600
H  47.08200 33.94500 21.49900
H  49.27700 31.47100 21.74300
H  48.20600 30.46700 22.73000
H  50.43400 31.14700 24.36800
H  50.98700 30.49800 22.76400
H  49.91500 29.54700 23.70800
H  46.35300 28.91000 26.30700
H  44.87900 29.13200 27.14100
H  46.27500 28.40900 27.97500
H  44.96700 32.74500 30.90600
H  44.70600 32.66700 35.02900
H  45.50800 31.04800 34.88900
H  43.87300 31.24700 34.20800

