158

Mg 8.35600 2.36100 27.93600
C  10.12400 1.25800 30.61900
C  6.45200 4.38300 29.90800
C  7.03300 3.57000 25.23900
C  10.03400 -0.09400 25.96900
N  8.21100 2.70500 30.08100
C  9.14000 2.21700 31.00900
C  8.89400 2.75100 32.39800
C  7.46800 3.53600 32.16400
C  7.40300 3.63100 30.65500
C  6.18500 2.92600 32.76500
C  9.99300 3.64900 32.89600
C  9.72000 4.39900 34.24500
H  10.60000 4.07700 35.50600
N  6.91900 3.82000 27.64800
C  6.16200 4.52800 28.57200
C  5.28800 5.47200 27.96800
C  5.58200 5.36800 26.55100
C  6.55100 4.20000 26.42200
C  4.23100 6.21800 28.78200
C  4.95000 6.16400 25.41000
O  5.33600 6.06400 24.29600
C  3.92800 7.33300 25.78200
N  8.54600 1.83800 25.89800
C  7.86900 2.55100 24.98300
C  7.96300 1.90700 23.53100
C  9.11300 0.91300 23.75200
C  9.13500 0.76800 25.27800
C  6.58800 1.22000 23.13000
C  10.54700 1.31700 23.14300
C  11.20700 0.16100 22.40000
N  9.66700 0.85500 28.19500
C  10.23000 -0.08400 27.34800
C  11.05800 -1.00700 28.02500
C  11.08600 -0.49300 29.35200
C  10.26900 0.63300 29.36600
C  11.80000 -2.21600 27.48000
C  11.80800 -0.62900 30.66900
O  12.75000 -1.29200 31.12400
C  11.10400 0.53000 31.59400
C  10.55400 -0.18600 32.71200
O  9.48900 -0.76500 32.67900
O  11.34200 -0.08800 33.81900
C  10.76800 -0.43400 35.11300
H  5.85900 5.01700 30.57100
H  6.56500 4.02500 24.36400
H  10.47600 -0.92700 25.41800
H  8.73300 1.98600 33.15800
H  7.57200 4.55300 32.54200
H  6.31700 2.31200 33.65600
H  5.66300 2.21300 32.12600
H  5.50600 3.72000 33.07600
H  10.17800 4.28700 32.03100
H  10.91300 3.08300 33.04300
H  8.68100 4.28100 34.55200
H  9.78100 5.46400 34.01900
H  4.12100 5.78300 29.77500
H  3.26200 6.06400 28.30700
H  4.39900 7.29500 28.74900
H  3.04100 6.89000 26.23300
H  3.53600 7.86900 24.91800
H  4.48900 8.00900 26.42700
H  8.34100 2.58800 22.76800
H  8.73000 -0.01800 23.33200
H  5.74600 1.49800 23.76400
H  6.47000 0.14300 23.24700
H  6.43700 1.66200 22.14500
H  11.22500 1.80200 23.84500
H  10.35900 2.00300 22.31700
H  12.13000 -0.05000 22.94000
H  11.55800 0.45000 21.40900
H  10.54000 -0.69000 22.26200
H  11.17400 -3.03100 27.11400
H  12.36600 -2.53600 28.35400
H  12.51900 -1.79700 26.77600
H  11.71700 1.30400 32.05400
H  10.03500 -1.23000 34.97900
H  10.45000 0.41500 35.71700
H  11.65700 -0.77100 35.64600
Mg 23.80000 -6.15900 46.92400
C  25.95400 -3.61600 45.84700
C  21.38500 -4.78700 44.86400
C  21.92000 -8.76100 47.69800
C  26.49400 -7.68800 48.54500
N  23.77100 -4.52500 45.38900
C  24.70300 -3.57400 45.31700
C  24.27500 -2.38700 44.40600
C  22.72000 -2.65300 44.37600
C  22.59800 -4.07600 44.91000
C  21.83400 -1.70500 45.18900
C  24.97500 -2.55300 43.03600
C  25.74000 -1.23200 42.50200
H  25.01400 -0.59700 41.16500
N  21.90800 -6.73800 46.28200
C  21.09600 -6.05400 45.43200
C  19.84300 -6.76600 45.29800
C  19.98700 -7.88700 46.15800
C  21.34200 -7.83400 46.76200
C  18.82600 -6.37600 44.31600
C  18.94300 -8.91600 46.38000
O  17.80700 -8.79500 45.90600
C  19.14900 -10.14700 47.22100
N  24.19700 -7.97800 47.93100
C  23.20400 -8.86300 48.12000
C  23.67400 -10.10800 48.93900
C  25.19100 -9.78200 49.19000
C  25.32200 -8.40900 48.53300
C  22.86400 -10.48400 50.20700
C  26.16000 -10.83800 48.46900
C  26.92300 -11.84200 49.49000
N  25.75300 -5.72300 47.27400
C  26.72400 -6.42700 47.95900
C  27.98400 -5.67800 47.94900
C  27.66300 -4.53000 47.13600
C  26.35200 -4.67800 46.72700
C  29.14500 -6.02900 48.74000
C  28.19600 -3.31400 46.58800
O  29.29100 -2.74600 46.76600
C  27.12900 -2.68900 45.73700
C  26.87400 -1.35700 46.13600
O  26.11500 -1.03900 47.06200
O  27.75400 -0.46100 45.52800
C  27.42300 0.96000 45.86400
H  20.53000 -4.22600 44.48000
H  21.22600 -9.47200 48.15100
H  27.34100 -8.13000 49.07400
H  24.41500 -1.42800 44.90600
H  22.40900 -2.59800 43.33300
H  21.37900 -2.28300 45.99500
H  21.00700 -1.33600 44.58200
H  22.38000 -0.93200 45.72900
H  24.25900 -2.80400 42.25300
H  25.71800 -3.35000 43.01300
H  26.75500 -1.52900 42.23800
H  25.73100 -0.53400 43.33900
H  18.50800 -7.13600 43.60200
H  19.29300 -5.58700 43.72600
H  17.96700 -5.88900 44.77800
H  18.34800 -10.87000 47.06500
H  19.22100 -9.91400 48.28400
H  20.06800 -10.58400 46.82900
H  23.52900 -10.97200 48.29000
H  25.46700 -9.57100 50.22300
H  21.95800 -9.87700 50.23800
H  23.37000 -10.23100 51.13900
H  22.70900 -11.56100 50.25800
H  26.97000 -10.36600 47.91500
H  25.56300 -11.32700 47.69900
H  26.34600 -11.76500 50.41100
H  27.98400 -11.61200 49.57900
H  26.84300 -12.89000 49.20000
H  28.75300 -6.53800 49.62100
H  29.75200 -5.15600 48.97700
H  29.81200 -6.62000 48.11300
H  27.42100 -2.61700 44.68900
H  28.22000 1.30800 46.52200
H  26.43500 1.15900 46.27700
H  27.53500 1.45200 44.89700

