158

Mg 24.46400 -5.52200 46.43100
C  26.23900 -2.96100 44.61500
C  21.82100 -4.75500 44.48800
C  23.18600 -8.48500 47.39900
C  27.49400 -6.43300 47.97300
N  24.06000 -3.99200 44.70500
C  24.86400 -3.03700 44.22400
C  24.22300 -2.28800 43.07900
C  22.77300 -2.67400 43.28300
C  22.87200 -3.85500 44.15500
C  21.78700 -1.63800 43.87000
C  24.77700 -2.58200 41.68200
C  25.07600 -1.30300 40.88000
H  24.66200 -1.30100 39.41800
N  22.75800 -6.37800 46.00300
C  21.77800 -5.96000 45.18600
C  20.67100 -6.86400 45.19100
C  20.88700 -7.85600 46.13700
C  22.31100 -7.60800 46.56800
C  19.37900 -6.61800 44.42100
C  19.95300 -8.91800 46.47400
O  18.78700 -9.04400 46.02700
C  20.34000 -10.07500 47.42500
N  25.15000 -7.09800 47.68800
C  24.43900 -8.28200 47.86000
C  25.20300 -9.32900 48.79000
C  26.55400 -8.60000 49.00700
C  26.43800 -7.28600 48.15300
C  24.49500 -9.67100 50.14600
C  27.80700 -9.47800 48.87900
C  28.80100 -9.28700 50.09500
N  26.41500 -4.84700 46.39800
C  27.56500 -5.25000 47.08700
C  28.68700 -4.43300 46.78600
C  28.24200 -3.57900 45.78100
C  26.82800 -3.82000 45.60600
C  30.09300 -4.61200 47.34600
C  28.58000 -2.39100 44.87800
O  29.54300 -1.67900 44.76200
C  27.31000 -2.09700 44.06300
C  26.91000 -0.61500 44.08400
O  26.11800 0.01900 44.80500
O  27.67500 0.07600 43.19700
C  27.50500 1.46900 42.90800
H  20.89300 -4.35900 44.06900
H  22.84700 -9.48300 47.68500
H  28.41000 -6.80300 48.43600
H  24.33700 -1.24900 43.38700
H  22.31900 -2.90200 42.31900
H  22.29200 -0.78600 44.32600
H  21.15100 -2.02700 44.66500
H  21.16000 -1.18000 43.10500
H  24.15800 -3.24800 41.08100
H  25.74700 -3.07100 41.77200
H  26.15300 -1.29400 40.71400
H  24.70500 -0.46500 41.47000
H  18.56900 -6.20300 45.02000
H  19.06500 -7.56300 43.97600
H  19.60500 -5.99400 43.55600
H  20.87300 -9.74400 48.31600
H  21.00600 -10.75100 46.88900
H  19.51800 -10.74900 47.66600
H  25.42600 -10.26200 48.27200
H  26.48500 -8.03300 49.93500
H  25.18200 -9.33400 50.92200
H  24.56000 -10.75900 50.18500
H  23.49200 -9.25700 50.25100
H  28.36100 -9.13700 48.00400
H  27.61700 -10.54200 48.74200
H  28.48700 -8.45800 50.73000
H  29.77600 -8.95200 49.74100
H  28.96400 -10.19000 50.68300
H  30.77300 -3.85200 46.95900
H  30.24300 -5.65800 47.08000
H  30.00900 -4.60100 48.43200
H  27.72000 -2.36000 43.08800
H  27.86100 1.74100 41.91400
H  28.01600 2.06900 43.66200
H  26.47500 1.79700 43.04800
Mg 24.83300 1.43500 29.54700
C  26.84900 0.97200 32.38200
C  22.08600 1.13500 31.58500
C  22.78400 1.50300 26.84200
C  27.63400 1.28900 27.57800
N  24.51000 0.81700 31.74900
C  25.47200 0.89900 32.73900
C  24.83400 0.95000 34.08100
C  23.30600 0.59300 33.80800
C  23.23200 0.97100 32.26800
C  22.90700 -0.84100 34.10400
C  25.04600 2.27300 34.85400
C  25.66300 2.04900 36.21800
H  25.68900 3.25200 37.22300
N  22.74900 1.34800 29.25400
C  21.78800 1.19200 30.23400
C  20.48800 1.18600 29.68300
C  20.71700 1.13800 28.29100
C  22.10200 1.30900 28.04100
C  19.22800 0.97100 30.53500
C  19.70300 0.86500 27.19500
O  20.08600 0.77400 26.06100
C  18.20600 0.59400 27.39200
N  25.17700 1.35400 27.51400
C  24.17000 1.55000 26.55200
C  24.78000 1.58400 25.08900
C  26.25400 1.86400 25.44800
C  26.39600 1.51200 26.91900
C  24.56200 0.25400 24.33500
C  26.78100 3.27400 24.99800
C  26.49000 4.44200 25.88200
N  26.85500 1.09300 29.87600
C  27.83900 1.04900 28.93000
C  29.13500 0.90900 29.64600
C  28.74300 0.89400 31.04100
C  27.36900 0.97900 31.07400
C  30.48500 0.91100 29.07800
C  29.30200 0.87400 32.35000
O  30.47800 0.84700 32.66400
C  28.09100 1.08600 33.28800
C  28.11300 0.17000 34.39800
O  27.61000 -0.97600 34.42600
O  28.94000 0.64800 35.39200
C  28.93600 -0.21100 36.60400
H  21.25400 1.20900 32.28800
H  22.14800 1.63100 25.96300
H  28.40800 1.37700 26.81300
H  25.13300 0.10900 34.70800
H  22.63400 1.28600 34.31400
H  22.72500 -1.35600 33.16000
H  21.95700 -0.74000 34.62800
H  23.53400 -1.50800 34.69500
H  24.09600 2.80500 34.90700
H  25.71400 2.89800 34.26200
H  26.63500 1.56000 36.28100
H  24.93000 1.35700 36.63100
H  18.39000 1.60000 30.23600
H  19.33300 1.09200 31.61400
H  18.84900 -0.03700 30.37400
H  18.08900 -0.41900 27.00500
H  17.59300 1.13800 26.67300
H  17.84900 0.69700 28.41600
H  24.42900 2.42300 24.48900
H  26.83300 1.06800 24.98000
H  23.95500 0.47900 23.45800
H  24.15900 -0.41400 25.09600
H  25.51700 -0.16300 24.01200
H  26.34000 3.49500 24.02600
H  27.85400 3.23800 24.80900
H  25.73900 5.09100 25.43200
H  27.42800 4.93200 26.14500
H  26.19700 4.07800 26.86700
H  30.72600 -0.12200 28.82600
H  31.27100 1.28900 29.73200
H  30.50000 1.48600 28.15300
H  28.08400 2.12700 33.61100
H  29.18900 -1.26600 36.49400
H  27.98700 -0.15500 37.13800
H  29.77400 0.19100 37.17400

