158

Mg 44.80400 5.37300 46.94800
C  42.96900 8.31000 46.89100
C  41.92100 3.62500 46.02500
C  46.67500 2.66700 46.49000
C  47.77900 7.38500 47.18200
N  42.72300 5.93600 46.40500
C  42.18600 7.17600 46.53700
C  40.72600 7.28400 46.13800
C  40.45900 5.76300 45.83400
C  41.72500 5.05300 46.25400
C  39.12700 5.09200 46.43800
C  40.15200 8.37900 45.15700
C  40.74100 8.29600 43.69400
H  39.93600 7.78000 42.45700
N  44.36000 3.40400 46.48900
C  43.13700 2.86500 46.17400
C  43.31300 1.40700 45.91400
C  44.64800 1.12000 46.07000
C  45.31100 2.44900 46.38700
C  42.25300 0.51400 45.47600
C  45.31200 -0.25200 45.93300
O  44.65800 -1.26700 45.69600
C  46.80600 -0.53400 45.83700
N  46.93900 5.10200 46.64600
C  47.39900 3.82400 46.54400
C  48.92200 3.95400 46.51800
C  49.38000 5.47000 46.64200
C  47.93900 5.99700 46.84500
C  49.71000 2.97700 47.37700
C  50.01000 6.06900 45.35600
C  51.23700 5.35000 44.77100
N  45.32000 7.38100 47.12600
C  46.54500 8.08300 47.22300
C  46.26400 9.51300 47.43300
C  44.89100 9.67800 47.27200
C  44.35200 8.36100 47.07400
C  47.28300 10.55300 47.62700
C  43.78600 10.57200 47.34400
O  43.82200 11.78800 47.60300
C  42.48700 9.73000 46.98000
C  41.56600 9.95300 48.09500
O  41.75600 9.63800 49.27600
O  40.43800 10.51800 47.59800
C  39.26300 10.68100 48.54600
H  41.02900 3.11200 45.66000
H  47.40300 1.85500 46.54300
H  48.69800 7.95200 47.35000
H  40.26600 7.63300 47.06300
H  40.46400 5.59000 44.75800
H  39.49600 4.71500 47.39200
H  38.58200 4.24900 46.01300
H  38.52300 5.97900 46.62800
H  40.13300 9.40900 45.51200
H  39.09300 8.21800 44.95100
H  41.55000 7.57700 43.82500
H  41.17200 9.28900 43.57400
H  42.55400 0.12400 44.50400
H  41.25500 0.93300 45.34400
H  42.06400 -0.35800 46.10100
H  47.00400 -1.55100 45.49600
H  47.12700 -0.41100 46.87100
H  47.21100 0.24400 45.19000
H  49.09700 3.65400 45.48500
H  49.98000 5.74800 47.50900
H  50.23100 2.25800 46.74400
H  49.02900 2.44600 48.04300
H  50.50400 3.46100 47.94400
H  50.37700 7.06800 45.59300
H  49.25400 6.19100 44.58100
H  51.01200 5.05500 43.74600
H  51.51700 4.52100 45.42200
H  52.07100 6.05200 44.78100
H  47.68300 10.71400 48.62800
H  46.94500 11.51800 47.24900
H  48.16900 10.31100 47.03900
H  42.03400 10.13200 46.07400
H  38.48900 10.03000 48.14100
H  38.95000 11.72100 48.44900
H  39.44000 10.49600 49.60600
Mg 46.65500 25.53300 29.04100
C  48.02300 27.77400 31.53700
C  46.03500 23.43300 31.76600
C  46.03600 23.14400 26.85700
C  47.92900 27.68900 26.74700
N  46.92800 25.67200 31.43800
C  47.39500 26.69500 32.16200
C  47.14300 26.48700 33.67400
C  46.79400 24.96100 33.73400
C  46.52100 24.71000 32.21800
C  47.74300 24.08400 34.50300
C  46.10400 27.35400 34.28500
C  46.43800 27.99200 35.62000
H  45.44300 28.00900 36.82400
N  45.94000 23.62200 29.28900
C  45.80400 22.93900 30.44600
C  45.30100 21.58600 30.13000
C  45.29100 21.53100 28.73400
C  45.77300 22.80400 28.19500
C  44.70100 20.69000 31.10500
C  45.05500 20.34500 27.84600
O  45.12800 20.36500 26.64800
C  44.64000 19.05200 28.42100
N  46.91700 25.43300 27.02800
C  46.55200 24.36000 26.26600
C  46.79900 24.71800 24.81700
C  47.17100 26.16900 24.80100
C  47.40800 26.41500 26.29500
C  47.79700 23.74400 24.06600
C  46.10500 27.17000 24.21700
C  46.51000 27.83600 22.87500
N  47.70100 27.41400 29.05600
C  48.12700 28.18100 28.05000
C  48.70600 29.41900 28.52700
C  48.66700 29.28500 29.91900
C  48.14600 28.04000 30.15000
C  49.33500 30.54200 27.72100
C  48.96200 29.89700 31.10900
O  49.46400 30.99500 31.42400
C  48.58200 28.98400 32.23200
C  49.72200 28.47900 33.08100
O  50.47300 27.58300 32.88100
O  49.63400 29.17500 34.26300
C  50.45500 28.72800 35.40500
H  45.96800 22.70400 32.57600
H  45.62600 22.58000 26.01600
H  48.16000 28.35600 25.91400
H  48.12100 26.66800 34.12000
H  45.84700 24.87400 34.26600
H  47.30800 23.58300 35.36700
H  48.60300 24.59300 34.93800
H  48.15700 23.29300 33.87800
H  45.15400 26.83200 34.40300
H  45.82100 28.11000 33.55200
H  46.42200 29.02000 35.25600
H  47.46800 27.81200 35.92800
H  45.55800 20.08300 31.39500
H  43.82500 20.14600 30.75100
H  44.55300 21.15900 32.07800
H  43.56400 19.09800 28.59100
H  45.25900 18.77600 29.27400
H  44.87800 18.29000 27.67900
H  45.81200 24.58400 24.37400
H  48.14300 26.32800 24.33500
H  48.66400 24.30900 23.72300
H  47.28000 23.46700 23.14800
H  48.11100 22.88500 24.65900
H  46.00500 27.97700 24.94300
H  45.12200 26.71900 24.08600
H  47.55900 27.65300 22.64200
H  46.32300 28.90900 22.91100
H  45.88000 27.37200 22.11600
H  50.23900 30.12700 27.27600
H  49.62000 31.45200 28.24900
H  48.64400 30.71700 26.89600
H  47.89400 29.60000 32.81100
H  51.47900 29.10100 35.38900
H  50.56400 27.64300 35.43300
H  50.14600 29.16300 36.35500

