158

Mg 35.13700 1.87300 29.47300
C  32.95900 2.82400 32.03100
C  37.68700 1.62400 31.69100
C  37.19000 1.53600 26.91700
C  32.45100 2.49100 27.22600
N  35.22600 2.15400 31.59600
C  34.19100 2.47800 32.43400
C  34.67900 2.32500 33.93100
C  36.24400 2.06900 33.82000
C  36.42400 1.88800 32.29100
C  37.21700 3.06700 34.48400
C  33.87700 1.22500 34.67500
C  33.49500 1.63100 36.13400
H  34.38000 2.73600 36.81900
N  37.17200 1.62200 29.37000
C  38.06000 1.49500 30.33800
C  39.35400 1.22600 29.81600
C  39.29700 1.47200 28.42400
C  37.84500 1.61300 28.17400
C  40.53400 1.02500 30.68000
C  40.37000 1.44900 27.40200
O  40.16100 1.73400 26.24600
C  41.73300 1.16500 27.85900
N  34.80900 2.05200 27.35000
C  35.83700 1.65000 26.57600
C  35.43000 1.43200 25.12700
C  33.85900 1.71900 25.15300
C  33.66600 2.17100 26.62200
C  36.20100 2.38600 24.08300
C  32.90000 0.67100 24.55300
C  32.50600 -0.50800 25.56000
N  33.08500 2.52500 29.57000
C  32.15500 2.72500 28.56000
C  30.96900 3.20700 29.12900
C  31.19800 3.35600 30.51600
C  32.51100 2.82300 30.74000
C  29.71200 3.57900 28.38100
C  30.67300 3.67000 31.78900
O  29.60300 4.21600 32.04000
C  31.80100 3.36700 32.89500
C  32.21600 4.69600 33.43000
O  32.73000 5.68200 32.78600
O  32.05400 4.67400 34.81900
C  32.19900 5.97000 35.51200
H  38.45500 1.35400 32.41800
H  37.94700 1.23100 26.19200
H  31.53500 2.57600 26.63800
H  34.50300 3.27400 34.43700
H  36.51400 1.11900 34.28200
H  37.86500 3.55600 33.75600
H  37.86600 2.60700 35.22900
H  36.62300 3.82400 34.99600
H  34.47900 0.31700 34.71100
H  32.96500 1.04300 34.10800
H  33.34600 0.71900 36.71300
H  32.44400 1.91900 36.09100
H  41.21500 1.87500 30.69400
H  41.07400 0.17200 30.26900
H  40.28400 0.70400 31.69100
H  42.10700 1.97800 28.48100
H  42.52200 0.96700 27.13300
H  41.55200 0.25300 28.42700
H  35.63400 0.40000 24.84000
H  33.58700 2.53700 24.48700
H  35.51300 3.01600 23.52000
H  36.77300 1.87300 23.31000
H  36.92600 2.96800 24.65300
H  33.41600 0.32800 23.65700
H  31.95600 1.10600 24.22500
H  31.42000 -0.47900 25.47100
H  32.93500 -0.38200 26.55400
H  32.82300 -1.48800 25.20400
H  29.85300 3.95800 27.36900
H  29.27100 4.33100 29.03400
H  29.07200 2.70400 28.26800
H  31.47300 2.73800 33.72200
H  31.50900 5.98200 36.35500
H  31.97100 6.84600 34.90500
H  33.22400 6.14000 35.84000
Mg -6.14300 25.26000 25.67800
C  -4.61900 26.59700 28.45600
C  -7.86700 23.28300 27.58000
C  -6.97900 23.54900 22.86000
C  -4.06100 27.25200 23.63100
N  -6.15200 24.89100 27.79800
C  -5.58500 25.63700 28.78700
C  -6.03900 25.28500 30.21100
C  -6.91900 23.96700 29.82300
C  -6.97600 24.04400 28.25700
C  -6.33900 22.68700 30.22600
C  -6.91900 26.30700 30.92400
C  -6.78900 26.47700 32.43500
H  -6.52600 25.30600 33.46100
N  -7.34800 23.73300 25.27400
C  -8.03200 23.05800 26.20500
C  -8.86400 22.06000 25.58900
C  -8.52500 22.04000 24.15700
C  -7.57500 23.15000 24.07400
C  -10.05400 21.32300 26.37100
C  -9.11200 21.13700 23.07700
O  -8.75000 21.31500 21.93500
C  -10.05300 20.01400 23.34900
N  -5.61900 25.37700 23.54000
C  -6.18900 24.62400 22.57800
C  -5.64000 24.85600 21.14100
C  -4.92000 26.22000 21.36000
C  -4.79600 26.28800 22.94200
C  -4.76900 23.66000 20.70100
C  -5.69800 27.49500 20.89700
C  -5.01700 28.16900 19.71400
N  -4.65700 26.67800 25.91300
C  -3.82100 27.34100 25.01800
C  -2.92600 28.27800 25.79600
C  -3.18800 27.88300 27.14000
C  -4.24100 26.91400 27.17700
C  -1.93100 29.26700 25.29000
C  -2.76400 28.16900 28.50500
O  -2.04300 28.97200 29.03900
C  -3.76400 27.32700 29.42100
C  -2.99400 26.47900 30.33100
O  -2.40800 25.44400 30.10700
O  -2.93300 27.13900 31.52800
C  -2.37300 26.37500 32.64500
H  -8.48800 22.66400 28.23200
H  -7.25200 23.04300 21.93200
H  -3.46400 27.97800 23.07500
H  -5.23300 25.07200 30.91400
H  -7.91900 23.94500 30.25700
H  -6.18100 22.01200 29.38400
H  -6.98900 22.18800 30.94500
H  -5.44200 22.78900 30.83700
H  -7.93400 26.14000 30.56100
H  -6.59800 27.30400 30.62100
H  -7.67200 26.98900 32.81700
H  -6.03900 27.23800 32.65200
H  -11.04300 21.30600 25.91300
H  -10.25500 21.77800 27.34100
H  -9.86000 20.25300 26.44600
H  -10.13300 19.44800 22.42100
H  -11.05500 20.33500 23.63300
H  -9.70600 19.32000 24.11400
H  -6.44200 24.93000 20.40700
H  -3.94300 26.09800 20.89300
H  -4.14300 23.89800 19.84100
H  -5.38400 22.87400 20.26300
H  -4.16400 23.27200 21.52100
H  -5.73200 28.27900 21.65400
H  -6.72900 27.29200 20.60700
H  -5.34400 27.77700 18.75100
H  -3.93500 28.04300 19.75200
H  -5.06000 29.24800 19.86500
H  -1.96500 29.46800 24.21900
H  -0.92700 29.05900 25.65900
H  -2.25900 30.21800 25.71000
H  -4.37400 28.05000 29.96300
H  -2.88300 26.66800 33.56300
H  -1.31900 26.58600 32.82700
H  -2.43200 25.29800 32.49500

