158

Mg 26.73000 49.16700 27.37000
C  24.54500 50.62700 29.75500
C  28.76900 48.12900 29.93700
C  28.76700 48.03100 25.02600
C  24.66300 50.39300 24.85800
N  26.75500 49.47300 29.65100
C  25.62400 49.91300 30.35900
C  25.78800 49.56500 31.85200
C  27.27300 48.94900 31.89600
C  27.60900 48.79700 30.40400
C  28.41100 49.80900 32.50500
C  24.62800 48.59800 32.21500
C  23.78500 48.78200 33.51400
H  23.85600 47.74500 34.57200
N  28.47000 48.20100 27.46700
C  29.13900 47.86400 28.60000
C  30.43000 47.41100 28.13900
C  30.55500 47.43800 26.72500
C  29.18600 47.86200 26.35300
C  31.47400 46.98000 29.19200
C  31.71000 46.97800 25.73600
O  31.69700 47.14900 24.52600
C  33.02000 46.47000 26.39900
N  26.80200 49.40600 25.25000
C  27.67200 48.65600 24.51000
C  27.34100 48.77200 22.96600
C  26.17300 49.71600 22.90600
C  25.84400 49.78800 24.41200
C  28.63800 49.20600 22.12700
C  25.14500 49.38500 21.88400
C  24.20900 48.18600 22.28900
N  25.01100 50.34100 27.27700
C  24.28800 50.72200 26.16300
C  23.25700 51.63900 26.58000
C  23.26600 51.57400 27.97200
C  24.34900 50.80900 28.35600
C  22.24900 52.23100 25.64500
C  22.60100 52.01000 29.19000
O  21.63100 52.71800 29.37700
C  23.42500 51.29600 30.39600
C  23.85400 52.38600 31.35100
O  24.88700 53.04800 31.32400
O  23.03400 52.29800 32.48300
C  23.35500 52.96400 33.78600
H  29.36000 47.71700 30.75900
H  29.41700 47.49400 24.33100
H  23.98000 50.79100 24.10500
H  25.67700 50.44100 32.49200
H  27.30900 47.93100 32.28500
H  29.18300 50.08300 31.78600
H  28.98400 49.17100 33.17800
H  28.02100 50.69800 33.00200
H  24.98800 47.56900 32.23700
H  23.84400 48.59200 31.45900
H  22.72000 48.88400 33.30300
H  24.06200 49.73300 33.96800
H  31.97900 46.02400 29.05500
H  31.18600 46.92900 30.24200
H  32.26600 47.72900 29.17400
H  33.48600 47.26000 26.98800
H  33.63400 46.19900 25.54100
H  32.90700 45.54300 26.96100
H  26.98600 47.77400 22.70900
H  26.53200 50.73000 22.72900
H  29.49000 49.53900 22.72000
H  28.43900 50.02800 21.43900
H  28.93200 48.32900 21.55100
H  25.59500 49.22600 20.90400
H  24.45600 50.22800 21.82600
H  24.29800 47.98900 23.35700
H  24.55500 47.40200 21.61600
H  23.21500 48.59700 22.11100
H  21.99300 51.40900 24.97600
H  22.80900 53.08100 25.25600
H  21.34300 52.51900 26.17800
H  22.79900 50.59100 30.94300
H  22.36700 53.03900 34.23900
H  23.86600 53.91900 33.67000
H  23.87500 52.28200 34.46000
Mg 17.08700 51.84200 26.34500
C  18.62900 50.14600 29.04300
C  14.73200 53.14900 28.52300
C  15.63200 53.28500 23.84100
C  19.22900 49.98400 24.14400
N  16.75100 51.55700 28.49200
C  17.50700 50.94000 29.42600
C  16.95600 51.26400 30.93700
C  15.60700 51.97700 30.62700
C  15.69000 52.28300 29.08500
C  14.28500 51.23600 31.13700
C  17.95600 52.27100 31.70500
C  18.08500 51.93500 33.26700
H  17.10000 51.09000 34.13700
N  15.33800 53.08700 26.19900
C  14.57700 53.57100 27.20700
C  13.70200 54.61300 26.66700
C  13.98300 54.71600 25.23300
C  14.96300 53.64300 25.00500
C  12.74600 55.34700 27.50400
C  13.45000 55.63200 24.16900
O  13.89600 55.55600 22.99000
C  12.45100 56.68900 24.56500
N  17.32900 51.54400 24.27800
C  16.61500 52.33800 23.44100
C  17.04500 52.15200 21.94000
C  18.18200 51.13200 22.09800
C  18.23300 50.81700 23.56000
C  15.89900 51.63100 21.00500
C  19.52200 51.54000 21.52200
C  20.32200 52.61100 22.19600
N  18.67800 50.43400 26.46500
C  19.43000 49.75500 25.52000
C  20.44700 49.06500 26.23900
C  20.13200 49.15900 27.63700
C  19.01200 49.93600 27.67700
C  21.62300 48.33400 25.66000
C  20.60100 48.77200 28.98000
O  21.63500 48.26100 29.40800
C  19.57700 49.42700 29.99000
C  18.96700 48.41700 30.83600
O  18.10900 47.59800 30.56600
O  19.59600 48.33400 32.12000
C  19.11800 47.33200 33.07700
H  14.12500 53.62000 29.30000
H  15.29200 53.75700 22.91700
H  19.85100 49.43900 23.43100
H  16.74200 50.32000 31.43700
H  15.61100 52.92500 31.16500
H  13.64600 51.29400 30.25600
H  13.72100 51.95000 31.73700
H  14.28400 50.26600 31.63600
H  17.65300 53.31000 31.57700
H  18.91200 51.90000 31.33400
H  18.14900 52.92000 33.72700
H  19.04400 51.44400 33.43400
H  13.05600 56.33700 27.83700
H  12.57200 54.94600 28.50200
H  11.76700 55.48300 27.04400
H  11.50700 56.20600 24.81600
H  12.36700 57.40500 23.74800
H  12.84800 57.18700 25.45000
H  17.45600 53.12500 21.66700
H  17.99300 50.18700 21.58700
H  16.03400 52.34600 20.19300
H  14.94300 51.62100 21.52900
H  16.17500 50.63800 20.65000
H  19.15700 51.99100 20.59900
H  20.02700 50.62200 21.22200
H  21.32700 52.21700 22.34600
H  19.99300 53.00200 23.15900
H  20.24500 53.39900 21.44700
H  21.25900 47.70400 24.84900
H  22.21400 47.73100 26.35000
H  22.28200 49.09100 25.23400
H  20.14700 50.13300 30.59500
H  19.37600 47.67500 34.07900
H  19.59600 46.35300 33.02700
H  18.03800 47.20700 33.00300

