158

Mg 30.53200 57.67100 40.09700
C  27.57600 55.77400 39.26100
C  32.40300 54.99100 38.92000
C  33.15900 59.63000 40.18400
C  28.43800 60.52200 40.52700
N  30.03600 55.59900 39.20600
C  28.79000 55.09200 39.01800
C  28.85500 53.72600 38.30400
C  30.41200 53.32500 38.47600
C  31.02600 54.67600 38.96500
C  30.67900 52.25100 39.58500
C  28.15600 53.57400 36.83000
C  29.12700 53.49100 35.64200
H  28.62100 53.92200 34.24100
N  32.52200 57.31100 39.61800
C  33.08300 56.18800 39.22700
C  34.51100 56.44400 39.04100
C  34.75800 57.80200 39.34800
C  33.43200 58.28500 39.80400
C  35.47400 55.40300 38.50700
C  36.15900 58.63100 39.18000
O  37.14800 58.01100 38.77900
C  36.39500 59.95800 39.66800
N  30.77700 59.79700 40.25100
C  31.97800 60.34200 40.41900
C  31.98200 61.84300 40.58600
C  30.45900 62.11700 40.85000
C  29.82600 60.75500 40.49400
C  33.04500 62.46900 41.51800
C  29.85900 63.33500 40.15100
C  29.28300 64.41800 41.03500
N  28.45800 58.07200 39.97200
C  27.77900 59.25700 40.23300
C  26.29400 58.97700 40.23300
C  26.22300 57.66300 39.80400
C  27.50300 57.13400 39.66400
C  25.21500 59.90700 40.53000
C  25.30100 56.61500 39.43000
O  24.07100 56.59700 39.35400
C  26.14500 55.35300 39.11000
C  25.77900 54.18200 39.99800
O  26.33700 53.75400 40.98600
O  24.67400 53.56100 39.43900
C  24.19200 52.39600 40.22500
H  33.00800 54.16300 38.54600
H  34.04800 60.24000 40.35600
H  27.66800 61.26600 40.74200
H  28.35600 52.95600 38.89300
H  30.83400 52.94600 37.54500
H  31.06400 52.67700 40.51100
H  31.35400 51.52400 39.13300
H  29.76500 51.69900 39.80400
H  27.70800 54.55000 36.64800
H  27.55600 52.66700 36.89900
H  29.23700 52.40900 35.56700
H  30.10600 53.92400 35.84700
H  35.33600 55.23500 37.43900
H  35.15400 54.48900 39.00800
H  36.50700 55.57900 38.80900
H  36.14100 59.95300 40.72800
H  35.84700 60.64800 39.02700
H  37.45900 60.18200 39.59000
H  32.14700 62.33800 39.62900
H  30.50000 62.38000 41.90700
H  32.69000 63.08500 42.34400
H  33.65100 63.17100 40.94500
H  33.72500 61.75500 41.98200
H  29.02800 63.01400 39.52200
H  30.56700 63.78100 39.45200
H  29.87800 65.33100 40.99800
H  29.14600 64.14200 42.08000
H  28.24700 64.50900 40.70800
H  25.28000 60.13700 41.59300
H  24.23100 59.54200 40.23400
H  25.50500 60.82800 40.02400
H  26.11000 55.08200 38.05500
H  24.25800 52.48000 41.31000
H  24.70800 51.48900 39.91100
H  23.12900 52.18800 40.10100
Mg 37.21100 49.95300 25.15700
C  37.47600 47.90700 28.02400
C  36.26100 52.63400 27.15400
C  36.40600 51.43400 22.36400
C  37.96600 47.03800 23.25100
N  36.88700 50.20900 27.28400
C  37.07400 49.23500 28.27600
C  36.89500 49.81100 29.69700
C  36.36600 51.26500 29.43500
C  36.48700 51.35800 27.89600
C  34.96700 51.62700 30.08300
C  38.23100 49.82400 30.48600
C  38.25500 49.14900 31.87500
H  37.06000 49.53200 32.76900
N  36.48900 51.75300 24.78600
C  36.16100 52.79200 25.74000
C  35.70300 53.92000 25.03600
C  35.67800 53.54600 23.62500
C  36.26500 52.20600 23.52800
C  35.08600 55.12100 25.67900
C  35.34200 54.42100 22.49600
O  35.38700 54.00900 21.36300
C  35.01400 55.87800 22.65900
N  37.21800 49.33400 23.12300
C  36.92200 50.18500 22.11000
C  37.14900 49.58000 20.70500
C  37.94800 48.27500 21.00600
C  37.69300 48.18400 22.59400
C  35.73700 49.40800 19.93700
C  39.50400 48.30200 20.84100
C  40.10900 47.01600 20.25400
N  37.68300 47.86200 25.54400
C  37.97300 46.87200 24.64900
C  38.12800 45.60300 25.37700
C  37.99000 45.95400 26.73900
C  37.67800 47.33100 26.81300
C  38.24500 44.25700 24.64700
C  38.08500 45.45100 28.10300
O  38.32500 44.36600 28.64700
C  37.58100 46.71700 28.96500
C  36.28400 46.36000 29.49700
O  35.18000 46.43700 28.93600
O  36.43300 46.03600 30.85000
C  35.27800 45.66000 31.59400
H  36.00600 53.57700 27.64200
H  36.11600 52.02900 21.49400
H  38.20900 46.20500 22.58700
H  36.14800 49.22500 30.23200
H  37.02400 51.98100 29.92800
H  35.07300 52.47000 30.76500
H  34.52300 50.77300 30.59500
H  34.21100 51.86000 29.33300
H  38.65400 50.79400 30.74700
H  38.98400 49.25000 29.94600
H  39.20300 49.35600 32.37200
H  38.28900 48.08800 31.62800
H  34.21100 55.50600 25.15500
H  35.82700 55.85400 25.99800
H  34.58900 54.75000 26.57400
H  34.02400 56.02400 23.09100
H  35.08900 56.36700 21.68800
H  35.73900 56.37600 23.30300
H  37.77900 50.29500 20.17600
H  37.50200 47.43100 20.47900
H  35.81900 49.72400 18.89700
H  34.99000 49.97900 20.48800
H  35.42200 48.36800 20.01600
H  39.97800 48.50500 21.80100
H  39.71700 49.15900 20.20300
H  39.48400 46.14200 20.43800
H  41.04300 46.78800 20.76800
H  40.31500 47.30100 19.22200
H  37.93800 43.48200 25.35000
H  39.32500 44.24000 24.50300
H  37.73500 44.10600 23.69500
H  38.31600 46.84800 29.75900
H  35.48800 45.36500 32.62200
H  34.86900 44.87800 30.95300
H  34.63800 46.53900 31.52600

