158

Mg 34.56900 2.37600 29.45200
C  32.72900 3.41700 32.18900
C  37.30300 1.86300 31.53300
C  36.37600 1.82700 26.62600
C  31.81500 3.17200 27.33600
N  34.94700 2.69600 31.50200
C  33.97600 3.00400 32.53100
C  34.49800 2.72500 33.95200
C  36.03300 2.72500 33.63700
C  36.13100 2.33300 32.11700
C  36.90600 3.91000 33.83000
C  33.90000 1.36000 34.53900
C  33.48000 1.41700 36.00500
H  34.31700 2.22700 36.95100
N  36.48000 1.84800 29.14500
C  37.48700 1.72700 30.09400
C  38.73900 1.36900 29.43700
C  38.51500 1.34900 28.01100
C  37.03700 1.67900 27.84700
C  39.94500 1.18800 30.17100
C  39.48000 0.98300 26.89700
O  39.06100 0.84600 25.76300
C  40.89400 0.56600 27.14600
N  34.11400 2.33000 27.30800
C  35.05000 2.18100 26.38200
C  34.47600 2.31900 24.96200
C  33.03700 2.73000 25.23200
C  32.93800 2.79200 26.69700
C  35.24700 3.43500 24.12200
C  31.96300 1.74100 24.61000
C  32.20400 0.23000 24.87800
N  32.71200 3.17600 29.66100
C  31.66400 3.29100 28.73300
C  30.46500 3.67600 29.43200
C  30.76100 3.67400 30.76500
C  32.18900 3.45800 30.85800
C  29.09600 4.04300 28.82500
C  30.21400 3.83800 32.06300
O  28.98400 3.83100 32.39800
C  31.50600 3.77000 33.05100
C  31.58200 5.04300 33.80700
O  32.13800 6.10300 33.53000
O  30.88100 4.80100 34.94900
C  30.61200 6.02100 35.78900
H  38.15700 1.60900 32.16400
H  36.95700 1.82000 25.70200
H  30.94300 3.50000 26.76600
H  34.30800 3.65400 34.49100
H  36.49000 1.86800 34.13300
H  37.09100 4.34800 32.84900
H  37.83700 3.69200 34.35300
H  36.36600 4.61300 34.46300
H  34.58900 0.52000 34.44800
H  33.00400 1.22700 33.93300
H  33.47000 0.37800 36.33600
H  32.46500 1.79800 35.89000
H  40.28800 0.20300 29.85600
H  39.89400 1.49400 31.21600
H  40.66700 1.89800 29.76600
H  41.40300 1.49000 27.42100
H  41.31700 0.24900 26.19300
H  41.11300 -0.25300 27.83000
H  34.50100 1.42500 24.34000
H  32.77200 3.69900 24.80900
H  35.71200 2.92300 23.27900
H  36.13600 3.82800 24.61600
H  34.66200 4.28700 23.77700
H  31.90700 1.95600 23.54200
H  30.93800 1.92000 24.93500
H  33.04000 0.12800 25.57000
H  32.49900 -0.22500 23.93200
H  31.28400 -0.21800 25.25400
H  29.27900 4.18600 27.76000
H  28.70500 4.92400 29.33400
H  28.55100 3.10000 28.85400
H  31.33000 2.97500 33.77600
H  30.51400 6.90000 35.15300
H  31.51400 6.13600 36.39000
H  29.66200 5.85900 36.29900
Mg 49.38600 35.61300 28.22600
C  46.81900 33.86500 29.86700
C  49.36500 37.95100 30.76800
C  51.17600 37.49600 26.18200
C  48.76200 33.36600 25.47100
N  48.34600 35.75600 30.05300
C  47.39600 34.93500 30.63500
C  47.20100 35.19200 32.16800
C  47.70800 36.68800 32.25500
C  48.55000 36.79100 30.94700
C  46.52300 37.63200 32.24200
C  48.13800 34.23200 32.99800
C  47.92200 34.27900 34.51000
H  46.93000 35.31000 35.14900
N  50.22000 37.47200 28.41900
C  50.08100 38.30100 29.55600
C  50.75600 39.57100 29.27800
C  51.19200 39.51700 27.85700
C  50.87700 38.10800 27.41800
C  50.82800 40.73900 30.26500
C  51.78800 40.59700 26.98500
O  51.92800 40.45100 25.81300
C  52.05900 41.96100 27.55200
N  49.93900 35.36900 26.14200
C  50.81400 36.26900 25.58500
C  51.33300 35.82800 24.24100
C  50.48300 34.48400 24.00100
C  49.66100 34.35900 25.24200
C  51.07100 36.85100 23.09800
C  51.39800 33.18800 23.75800
C  50.82200 32.18200 22.74200
N  48.18100 33.86800 27.77500
C  48.04700 33.06000 26.65800
C  46.90500 32.09200 26.86400
C  46.38400 32.38300 28.07100
C  47.25400 33.35900 28.58500
C  46.44200 31.06200 25.82400
C  45.38000 31.95800 28.99800
O  44.59400 30.99400 28.99000
C  45.56700 32.98400 30.19100
C  45.61600 32.27400 31.43300
O  46.59100 31.61200 31.84200
O  44.43900 32.41500 32.07700
C  44.32700 31.79600 33.40300
H  49.47100 38.69300 31.56200
H  51.70400 38.11900 25.45800
H  48.58000 32.70500 24.62100
H  46.16800 34.97000 32.43800
H  48.25700 36.77800 33.19200
H  45.56500 37.18400 31.97800
H  46.71300 38.43000 31.52400
H  46.36200 38.06100 33.23100
H  49.16800 34.58500 32.94000
H  48.17400 33.19700 32.65800
H  48.90900 34.61700 34.82900
H  47.63700 33.24800 34.72000
H  50.33200 41.61400 29.84400
H  51.83500 41.09600 30.47800
H  50.24200 40.47100 31.14400
H  51.12800 42.51600 27.66500
H  52.64500 42.57600 26.86900
H  52.46000 41.80600 28.55400
H  52.40200 35.61900 24.25200
H  49.79400 34.60900 23.16600
H  50.42700 36.57200 22.26400
H  52.02100 37.17300 22.67300
H  50.50500 37.68000 23.52300
H  51.51500 32.55800 24.64000
H  52.35300 33.51400 23.34700
H  50.94300 31.23300 23.26300
H  51.23500 32.12000 21.73500
H  49.75400 32.39800 22.72700
H  46.70300 30.11300 26.29100
H  46.93600 31.10600 24.85300
H  45.37000 30.96500 25.65200
H  44.72000 33.66400 30.27900
H  43.33100 31.45400 33.68300
H  44.67100 32.50300 34.15800
H  44.96900 30.92800 33.55600

