158

Mg 27.32700 50.13700 27.10000
C  25.10700 50.96200 29.66100
C  29.71100 49.43900 29.52500
C  29.57700 49.53400 24.65100
C  25.11700 51.41700 24.81300
N  27.37400 50.26300 29.28300
C  26.28100 50.42200 30.14200
C  26.63100 50.24900 31.59600
C  28.23900 50.01700 31.48500
C  28.50400 49.95500 29.96000
C  29.05000 50.97300 32.41800
C  25.74000 49.11900 32.29800
C  24.84000 49.53100 33.55300
H  24.72300 48.63500 34.81300
N  29.35500 49.49600 27.07700
C  30.09900 49.17400 28.14600
C  31.39000 48.75900 27.76400
C  31.41200 48.85700 26.36400
C  30.06000 49.38200 25.95300
C  32.45600 48.30800 28.76700
C  32.52600 48.58000 25.30500
O  32.42700 48.71100 24.09200
C  33.85700 47.96900 25.73500
N  27.32700 50.28800 24.99400
C  28.30500 49.89100 24.19700
C  27.80300 49.92700 22.66300
C  26.34900 50.51500 22.78600
C  26.26400 50.78500 24.28900
C  28.62600 50.58800 21.53800
C  25.23600 49.55700 22.32700
C  24.05800 50.21500 21.65000
N  25.44900 50.96800 27.12800
C  24.63500 51.36200 26.11500
C  23.35000 51.76200 26.58200
C  23.46100 51.71300 27.99200
C  24.79200 51.13300 28.27000
C  22.20100 52.20000 25.74200
C  22.80300 51.94500 29.31200
O  21.71600 52.31700 29.60500
C  23.90700 51.42800 30.48900
C  24.14900 52.63800 31.27100
O  24.75400 53.58300 30.75400
O  23.58200 52.66500 32.49400
C  23.47000 53.92400 33.17600
H  30.35400 49.14500 30.35700
H  30.26700 49.23200 23.86000
H  24.30800 51.65500 24.11900
H  26.45200 51.21300 32.07300
H  28.36700 49.01900 31.90200
H  29.92100 51.37800 31.90300
H  29.58000 50.63800 33.31000
H  28.47400 51.85500 32.69700
H  26.39900 48.36300 32.72600
H  25.19800 48.60400 31.50500
H  23.77100 49.51800 33.34300
H  25.21300 50.51700 33.82800
H  33.47700 48.24600 28.39300
H  32.32000 47.31700 29.20200
H  32.39000 49.04200 29.57000
H  33.74900 46.92800 26.03900
H  34.19300 48.63200 26.53200
H  34.54800 47.91800 24.89300
H  27.72400 48.87700 22.38100
H  26.26700 51.52200 22.37700
H  29.11500 49.91600 20.83400
H  29.37700 51.24400 21.98100
H  27.95800 51.20200 20.93500
H  24.90700 48.94200 23.16400
H  25.68800 49.00100 21.50500
H  24.25700 51.27100 21.46800
H  23.09500 50.14700 22.15500
H  24.07100 49.74300 20.66800
H  22.58200 52.96600 25.06600
H  21.44600 52.59100 26.42300
H  21.74900 51.36200 25.21000
H  23.56100 50.65700 31.17700
H  22.39100 54.03800 33.28600
H  23.72000 54.83100 32.62700
H  23.91900 53.88500 34.16900
Mg 1.36900 42.07100 24.90000
C  3.42200 42.26300 27.81700
C  -1.24000 41.01800 26.82300
C  -0.37400 41.85300 22.12800
C  4.40700 42.31500 23.07600
N  1.14800 41.74300 27.02400
C  2.06700 42.09700 28.02900
C  1.37600 42.15700 29.35100
C  -0.05600 41.69500 29.02300
C  -0.11000 41.49200 27.55800
C  -0.49500 40.50200 29.81500
C  1.53600 43.57600 30.01400
C  1.50500 43.72100 31.55500
H  1.25700 42.64000 32.57500
N  -0.55900 41.58300 24.47700
C  -1.43700 41.07600 25.43900
C  -2.67200 40.62800 24.76800
C  -2.49300 40.93700 23.38000
C  -1.13900 41.50700 23.26400
C  -3.77200 39.88300 25.40200
C  -3.37000 40.73900 22.22600
O  -2.91300 40.80900 21.06700
C  -4.75400 40.44200 22.46500
N  1.84300 42.05800 22.96800
C  0.95300 42.11100 21.89300
C  1.70500 42.25900 20.54400
C  3.05300 42.70300 21.01400
C  3.11900 42.38900 22.48500
C  1.64200 40.92900 19.66500
C  3.36100 44.26900 20.86000
C  3.25600 44.93000 19.45600
N  3.50500 42.24600 25.32400
C  4.60300 42.31800 24.44600
C  5.85500 42.40200 25.18800
C  5.46700 42.39500 26.50200
C  4.04500 42.29500 26.55100
C  7.14500 42.25400 24.39900
C  5.90100 42.45300 27.85100
O  7.03800 42.46400 28.28400
C  4.62100 42.43800 28.78800
C  4.77600 41.53300 29.96700
O  5.08000 40.31700 29.91600
O  4.72100 42.25800 31.16700
C  4.98800 41.42500 32.35800
H  -2.04800 40.62300 27.44300
H  -0.80300 41.84100 21.12400
H  5.25800 42.43000 22.40200
H  1.79400 41.57600 30.17300
H  -0.74700 42.52200 29.18800
H  -1.52400 40.64100 30.14700
H  0.10100 40.39800 30.72100
H  -0.51100 39.52800 29.32600
H  0.78800 44.27800 29.64600
H  2.45400 43.99100 29.59900
H  0.74900 44.44300 31.86500
H  2.47900 44.12800 31.82700
H  -3.49800 39.51700 26.39100
H  -3.96100 38.97100 24.83600
H  -4.68000 40.48400 25.36000
H  -5.14100 41.21500 23.12800
H  -4.72500 39.42500 22.85800
H  -5.36800 40.44000 21.56500
H  1.28900 43.10200 19.99100
H  3.87300 42.24500 20.46200
H  1.19100 40.99200 18.67500
H  1.21700 40.10500 20.23700
H  2.63500 40.50000 19.53000
H  4.41100 44.32300 21.14900
H  2.85900 44.88500 21.60600
H  2.83500 44.26400 18.70300
H  4.20600 45.16100 18.97400
H  2.78300 45.91200 19.45800
H  7.01800 41.84900 23.39500
H  7.78300 41.63300 25.02700
H  7.74500 43.16300 24.35300
H  4.52600 43.47300 29.11500
H  5.79900 40.70200 32.26600
H  4.11700 40.84800 32.67000
H  5.25000 42.04000 33.21900

