158

Mg -0.31900 6.82600 26.46200
C  0.58200 8.96700 29.16700
C  -0.13400 4.08000 28.41700
C  -0.29100 4.99800 23.55200
C  0.22600 9.78000 24.34700
N  0.16800 6.62100 28.52700
C  0.26400 7.63600 29.47200
C  0.18600 7.00800 30.87800
C  0.09300 5.52000 30.62000
C  -0.00800 5.38800 29.09000
C  1.25800 4.57600 31.06700
C  -1.00200 7.57500 31.74200
C  -0.90100 7.59300 33.30200
H  0.30900 7.06800 33.98100
N  -0.28100 4.83700 26.05500
C  -0.25200 3.83000 27.05200
C  -0.28000 2.55400 26.39700
C  -0.26400 2.78500 24.99600
C  -0.24500 4.26000 24.76700
C  -0.38100 1.27200 27.17100
C  -0.38500 1.75500 23.90000
O  -0.31000 2.10100 22.72100
C  -0.70300 0.34500 24.10200
N  -0.14000 7.32100 24.26600
C  -0.22700 6.37400 23.31200
C  -0.28000 6.97800 21.83600
C  -0.07300 8.47200 22.10000
C  0.05600 8.53600 23.68400
C  0.91700 6.48400 20.94500
C  -1.17700 9.47800 21.58400
C  -2.53800 9.50500 22.38900
N  0.23700 8.98000 26.66800
C  0.44000 10.00900 25.74900
C  0.81400 11.22100 26.44800
C  0.74900 10.83200 27.77400
C  0.42300 9.51400 27.87500
C  1.11200 12.49700 25.87700
C  1.09800 11.33900 29.11400
O  1.50400 12.42500 29.51100
C  0.84500 10.14400 30.07900
C  2.03000 9.90900 31.00100
O  3.05500 9.25500 30.73700
O  1.64600 10.62000 32.15600
C  2.62400 10.65700 33.20500
H  -0.28500 3.21800 29.07000
H  -0.24500 4.49700 22.58300
H  0.31700 10.63300 23.67100
H  1.14600 7.18900 31.36200
H  -0.79300 5.08500 31.08100
H  2.07300 5.09300 31.57200
H  1.69600 4.19100 30.14600
H  0.92200 3.72500 31.65900
H  -1.82200 6.97400 31.34800
H  -1.17300 8.57100 31.33400
H  -1.77900 7.14000 33.76200
H  -0.97100 8.66200 33.50700
H  -1.34000 0.83600 26.89200
H  -0.32500 1.32100 28.25800
H  0.33300 0.53900 26.79400
H  -1.65500 0.35600 24.63300
H  0.18300 -0.13900 24.51200
H  -0.91700 -0.23600 23.20600
H  -1.20600 6.54800 21.45500
H  0.86900 8.79400 21.65500
H  1.48100 7.29600 20.48600
H  0.50100 5.80500 20.20100
H  1.56200 5.98300 21.66700
H  -1.30900 9.21600 20.53400
H  -0.62200 10.41100 21.68700
H  -2.44300 10.20200 23.22100
H  -2.79800 8.53600 22.81500
H  -3.31200 9.87200 21.71500
H  0.26400 12.88300 25.31100
H  2.00200 12.32900 25.27100
H  1.53500 13.16400 26.62900
H  -0.04700 10.42300 30.64100
H  2.76600 11.67800 33.55700
H  3.59600 10.23900 32.94300
H  2.26900 10.04200 34.03200
Mg 54.31800 24.95700 46.07300
C  51.73800 26.92500 44.90900
C  52.86400 22.25500 44.24400
C  57.31000 23.14700 46.29700
C  55.84700 27.59800 47.49700
N  52.57100 24.68900 44.66200
C  51.62100 25.61900 44.32000
C  50.51600 24.98900 43.49900
C  50.68600 23.52800 43.72000
C  52.11700 23.41900 44.37400
C  49.66900 22.86200 44.66100
C  50.76900 25.28500 41.96300
C  52.18000 25.78900 41.49500
H  53.30400 24.75900 41.39900
N  55.01100 23.04000 45.42200
C  54.23200 22.13900 44.64400
C  54.98900 20.90300 44.41500
C  56.24300 21.10400 45.12200
C  56.27600 22.44800 45.59000
C  54.45800 19.67500 43.74600
C  57.35400 20.03900 45.09500
O  57.15600 18.98900 44.55600
C  58.78900 20.28200 45.55400
N  56.37200 25.24600 46.82900
C  57.39600 24.39300 46.85300
C  58.69000 25.05000 47.38700
C  58.24100 26.54400 47.70800
C  56.68500 26.42500 47.40600
C  59.32500 24.29300 48.60200
C  58.89700 27.65300 46.83700
C  58.73600 27.52000 45.35200
N  53.94100 26.82800 46.29400
C  54.59000 27.74700 46.99300
C  53.75300 28.93000 46.96000
C  52.56700 28.66800 46.15300
C  52.78900 27.31400 45.71300
C  54.05800 30.24100 47.61400
C  51.35200 29.19000 45.64400
O  50.85100 30.29800 45.74300
C  50.69900 28.04600 44.75800
C  50.68100 28.64400 43.42700
O  51.61900 29.12500 42.76900
O  49.39600 28.31700 42.84200
C  49.24000 28.49800 41.38000
H  52.22900 21.45600 43.85700
H  58.24400 22.61700 46.49700
H  56.32600 28.53200 47.79600
H  49.54900 25.41900 43.75900
H  50.63200 22.92900 42.81000
H  48.75700 23.42400 44.46000
H  49.83700 22.82300 45.73700
H  49.55900 21.85100 44.27100
H  50.09400 26.08500 41.65700
H  50.45700 24.48500 41.29200
H  52.42900 26.67100 42.08500
H  52.17300 26.10400 40.45200
H  55.16100 19.31100 42.99700
H  53.48100 19.82000 43.28500
H  54.32500 18.87300 44.47300
H  59.42000 19.46100 45.21400
H  58.87600 20.39800 46.63400
H  59.23000 21.12800 45.02600
H  59.40700 24.98100 46.56800
H  58.50400 26.76700 48.74200
H  59.22500 24.92300 49.48600
H  60.34200 24.09700 48.26100
H  58.76600 23.38300 48.81900
H  59.93500 27.34500 46.96300
H  58.82200 28.68000 47.19300
H  57.79800 26.99700 45.16600
H  59.52000 27.03300 44.77200
H  58.51700 28.47800 44.88000
H  54.87200 30.21200 48.33900
H  53.17100 30.72600 48.02200
H  54.41200 31.01200 46.92900
H  49.69000 27.68300 44.95500
H  50.19100 28.35900 40.86500
H  48.75000 29.45600 41.20800
H  48.50300 27.76200 41.06000

