158

Mg 46.88700 34.74100 28.95800
C  45.73300 32.54900 31.29000
C  47.18700 37.22500 31.31700
C  47.59700 36.94200 26.48400
C  46.23700 32.30500 26.44700
N  46.57700 34.79900 31.06000
C  46.15600 33.75500 31.84500
C  46.18700 34.13200 33.35700
C  46.17600 35.71200 33.12000
C  46.72200 35.95400 31.76600
C  44.75200 36.44500 33.23300
C  47.37900 33.43200 34.09100
C  48.20900 34.40100 35.00300
H  47.42100 35.15200 36.12300
N  47.43000 36.75700 28.95700
C  47.65800 37.56900 30.04900
C  48.26800 38.76800 29.61600
C  48.44100 38.70900 28.22100
C  47.81300 37.42300 27.82100
C  48.66600 39.80800 30.68500
C  49.01400 39.81100 27.30400
O  49.00100 39.80000 26.11600
C  49.64000 41.06200 27.89800
N  46.90000 34.68900 26.80300
C  47.27200 35.69700 26.03700
C  47.04600 35.41400 24.53900
C  46.64200 33.88700 24.52900
C  46.59800 33.57500 25.98600
C  45.98400 36.37500 23.89000
C  47.57400 32.89600 23.62300
C  47.69700 33.19400 22.09300
N  46.07600 32.83400 28.85800
C  45.83800 31.96500 27.77900
C  45.28000 30.71100 28.23500
C  45.09000 30.90600 29.62800
C  45.66100 32.19600 29.95500
C  44.98000 29.53500 27.26100
C  44.62400 30.34700 30.91700
O  44.12300 29.24600 31.20400
C  44.86500 31.50000 31.97300
C  45.33500 31.00700 33.30000
O  46.34300 30.38300 33.48800
O  44.34500 31.13400 34.23000
C  44.64700 30.78200 35.61600
H  47.34900 37.94000 32.12600
H  47.83800 37.65800 25.69500
H  46.15200 31.56300 25.65000
H  45.26200 33.79600 33.82700
H  46.73600 36.36900 33.78600
H  44.84000 37.26200 33.94900
H  44.04300 35.64800 33.45700
H  44.24000 36.92100 32.39700
H  48.06000 32.89700 33.43000
H  46.96600 32.73500 34.82100
H  48.71900 35.03400 34.27800
H  49.03100 33.87100 35.48500
H  49.66700 40.16300 30.44000
H  48.72100 39.29900 31.64700
H  47.98300 40.63900 30.86600
H  48.84300 41.60300 28.40800
H  49.81300 41.69900 27.03100
H  50.58400 40.84600 28.39800
H  47.95700 35.40600 23.94100
H  45.60600 33.81000 24.20100
H  45.39900 36.93300 24.62100
H  45.34100 35.73200 23.29000
H  46.39200 37.11700 23.20400
H  47.18600 31.87700 23.63800
H  48.57800 32.99600 24.03400
H  46.90300 33.89300 21.83100
H  47.49900 32.22400 21.63900
H  48.73400 33.45700 21.88400
H  45.78500 29.41500 26.53600
H  44.13400 29.91000 26.68400
H  44.79200 28.65500 27.87600
H  43.93300 32.05700 32.07800
H  43.71200 30.57900 36.13800
H  45.17800 31.53200 36.20200
H  45.24400 29.87200 35.55200
Mg -10.28500 40.90600 42.74100
C  -9.39500 37.61500 41.74600
C  -7.38500 42.06300 41.48100
C  -11.42100 43.92600 43.13900
C  -13.43100 39.56300 43.46000
N  -8.62000 39.96300 41.62400
C  -8.41000 38.59300 41.40400
C  -7.15300 38.40000 40.52300
C  -6.48400 39.83000 40.57100
C  -7.51100 40.68200 41.30600
C  -5.18400 39.86000 41.32700
C  -7.31100 37.83400 39.07400
C  -6.55000 36.49900 38.72600
H  -5.37500 36.59300 37.74300
N  -9.52800 42.67000 42.31200
C  -8.28000 42.99200 41.86500
C  -8.07800 44.42400 41.77700
C  -9.22800 44.96500 42.35700
C  -10.10900 43.89400 42.65600
C  -6.77900 45.02000 41.44800
C  -9.37000 46.45200 42.69700
O  -8.64500 47.28100 42.15100
C  -10.37700 46.93600 43.70200
N  -12.23700 41.61700 42.99500
C  -12.34600 42.90500 43.38700
C  -13.69400 43.14200 44.09800
C  -14.42400 41.78300 43.83600
C  -13.28700 40.92200 43.46200
C  -13.64100 43.60900 45.58100
C  -15.48400 41.81800 42.72500
C  -16.90100 41.66700 43.26100
N  -11.21700 38.95300 42.87600
C  -12.51200 38.60600 43.04500
C  -12.72600 37.22700 42.93600
C  -11.42800 36.73200 42.52900
C  -10.60800 37.86200 42.35400
C  -14.06600 36.43500 43.02200
C  -10.71500 35.52400 42.15700
O  -11.00300 34.32300 42.12200
C  -9.35700 36.12800 41.47900
C  -8.28800 35.38000 42.05400
O  -7.84400 35.39300 43.18200
O  -7.78900 34.55800 41.09400
C  -6.80900 33.56700 41.40700
H  -6.45600 42.48800 41.09600
H  -11.88300 44.91300 43.21500
H  -14.45500 39.19600 43.56300
H  -6.55600 37.66500 41.06300
H  -6.39200 40.20500 39.55200
H  -4.81600 38.83400 41.35400
H  -5.36100 40.28200 42.31700
H  -4.44700 40.49400 40.83400
H  -7.00500 38.63300 38.39800
H  -8.37600 37.60800 39.02600
H  -7.31400 35.88600 38.24800
H  -6.25400 35.99400 39.64500
H  -7.07900 45.89700 40.87500
H  -6.20000 44.38900 40.77400
H  -6.16700 45.27300 42.31400
H  -9.88300 47.79800 44.15100
H  -10.48700 46.19700 44.49500
H  -11.26600 47.13800 43.10400
H  -14.22100 43.90300 43.52400
H  -14.82400 41.37800 44.76500
H  -14.25900 44.48400 45.78300
H  -12.60300 43.90000 45.74200
H  -13.79600 42.90700 46.39900
H  -15.21400 40.96500 42.10300
H  -15.44600 42.67100 42.04700
H  -17.47000 42.39700 42.68500
H  -16.92500 41.90100 44.32500
H  -17.28500 40.66700 43.05700
H  -14.86700 36.83900 42.40300
H  -14.28100 36.26000 44.07600
H  -13.80700 35.45800 42.61200
H  -9.54900 35.95200 40.42100
H  -6.48900 33.72200 42.43800
H  -5.95900 33.66400 40.73200
H  -7.31500 32.60200 41.39000

