158

Mg 24.69000 -5.22700 46.18300
C  26.63400 -2.80200 44.58200
C  22.05000 -4.55500 44.23600
C  23.42000 -8.27300 46.97200
C  27.72700 -6.32400 47.79800
N  24.51400 -3.95600 44.50600
C  25.35400 -2.98200 44.06300
C  24.67000 -2.03400 42.96500
C  23.14400 -2.44200 43.16700
C  23.21400 -3.71100 43.99500
C  22.30000 -1.27300 43.68500
C  25.27500 -2.49400 41.63400
C  25.68500 -1.29700 40.72900
H  25.13300 -1.26200 39.27900
N  22.91300 -6.15800 45.81500
C  21.92000 -5.72400 45.02300
C  20.78500 -6.58900 45.05600
C  21.18300 -7.66300 45.81600
C  22.56700 -7.40700 46.29200
C  19.55000 -6.30900 44.26600
C  20.28000 -8.75300 46.29100
O  19.13900 -8.81000 45.84300
C  20.67200 -9.92300 47.24700
N  25.39900 -7.02600 47.45000
C  24.71700 -8.14400 47.44900
C  25.49900 -9.27500 48.12100
C  26.89700 -8.69100 48.48900
C  26.67200 -7.24500 47.87400
C  24.83100 -10.02000 49.32200
C  28.21600 -9.43900 47.87500
C  28.20700 -10.98800 47.86500
N  26.69200 -4.57500 46.37100
C  27.77400 -5.11600 47.04300
C  28.96800 -4.25600 46.81100
C  28.55800 -3.34800 45.83000
C  27.18400 -3.59100 45.53800
C  30.28100 -4.33300 47.44400
C  28.98600 -2.36500 45.00100
O  30.09600 -1.95100 44.83100
C  27.79200 -1.87900 44.12600
C  27.45100 -0.47500 44.34100
O  27.03600 -0.11900 45.43700
O  27.79100 0.30100 43.25200
C  27.88400 1.74400 43.40100
H  21.19400 -4.28100 43.61700
H  23.17000 -9.33400 47.02500
H  28.66200 -6.68600 48.23000
H  24.76700 -0.99600 43.28400
H  22.67300 -2.73600 42.23000
H  22.87300 -0.44700 44.10700
H  21.56100 -1.48700 44.45700
H  21.63100 -0.96700 42.88100
H  24.55400 -3.10300 41.08900
H  26.18900 -3.02900 41.89400
H  26.77100 -1.20700 40.74500
H  25.21000 -0.40000 41.12700
H  19.01400 -7.23100 44.04100
H  19.74800 -5.72500 43.36700
H  18.73700 -5.84800 44.82600
H  19.75600 -10.49100 47.41100
H  21.03300 -9.54700 48.20500
H  21.38800 -10.65100 46.86500
H  25.68700 -9.94700 47.28400
H  26.97000 -8.52200 49.56300
H  24.87900 -11.07200 49.04100
H  23.79900 -9.67900 49.41300
H  25.32300 -9.93500 50.29100
H  29.07300 -9.15600 48.48500
H  28.38800 -9.20300 46.82500
H  28.78400 -11.49700 48.63700
H  28.66300 -11.29600 46.92400
H  27.15600 -11.26400 47.95600
H  30.79400 -5.24400 47.13600
H  30.25400 -4.47100 48.52500
H  30.88400 -3.44900 47.23300
H  28.01700 -1.92100 43.06100
H  27.86900 2.05100 44.44700
H  27.06600 2.26900 42.90900
H  28.85200 2.08700 43.03500
Mg 16.12700 -1.90300 28.28100
C  15.37600 0.09000 30.96500
C  18.23500 -3.73000 30.29300
C  16.96900 -3.76100 25.53400
C  14.04800 0.12400 26.23500
N  16.79200 -1.79000 30.36800
C  16.31700 -0.93100 31.27700
C  16.84600 -1.18400 32.63700
C  18.03700 -2.27100 32.35800
C  17.67600 -2.66200 30.93400
C  19.46300 -1.77900 32.45500
C  15.85300 -1.71900 33.72600
C  16.18600 -1.25700 35.20000
H  17.60300 -0.70300 35.53000
N  17.42000 -3.51900 27.96500
C  18.15700 -4.17300 28.93400
C  18.71900 -5.36800 28.32500
C  18.40900 -5.36400 26.89400
C  17.51300 -4.16000 26.74700
C  19.50600 -6.37800 29.13100
C  18.88000 -6.20900 25.75000
O  18.60500 -6.13200 24.58600
C  19.82200 -7.29600 26.06000
N  15.72300 -1.71400 26.17200
C  16.16700 -2.67800 25.23100
C  15.77500 -2.19100 23.81500
C  14.54400 -1.21200 24.18000
C  14.71300 -0.91900 25.59800
C  16.86800 -1.44600 23.05400
C  13.13000 -1.69900 23.69700
C  12.18300 -2.56400 24.49500
N  14.89100 -0.25400 28.51500
C  14.14400 0.52500 27.58900
C  13.48800 1.56300 28.33700
C  13.92500 1.44900 29.64400
C  14.81200 0.33100 29.73800
C  12.58000 2.59800 27.70100
C  13.81200 2.01900 30.97100
O  13.23300 2.99500 31.41200
C  14.75100 1.11400 31.86500
C  15.61000 2.06800 32.52400
O  16.62400 2.53100 32.00600
O  15.17900 2.28200 33.84400
C  15.96500 3.33700 34.53300
H  18.91100 -4.41400 30.81000
H  17.13800 -4.41400 24.67500
H  13.33000 0.71800 25.66500
H  17.25600 -0.20400 32.88100
H  18.01700 -3.15300 32.99800
H  19.40200 -0.82300 32.97400
H  19.88800 -1.61300 31.46600
H  20.09700 -2.46300 33.02100
H  15.66500 -2.79100 33.66400
H  14.87900 -1.28500 33.49900
H  15.85900 -2.15200 35.72800
H  15.52400 -0.46800 35.55600
H  19.40600 -7.38800 28.73400
H  19.08700 -6.49300 30.13000
H  20.53100 -6.03200 29.26300
H  20.57900 -6.83200 26.69300
H  20.27900 -7.71200 25.16200
H  19.36400 -8.14400 26.57000
H  15.37500 -3.03700 23.25600
H  14.67700 -0.27200 23.64300
H  16.53900 -0.56100 22.50900
H  17.27200 -2.21000 22.39100
H  17.64900 -1.07600 23.71800
H  13.25400 -2.30000 22.79700
H  12.63800 -0.76000 23.44200
H  11.25200 -2.01800 24.64500
H  12.53800 -2.66100 25.52100
H  12.11800 -3.57400 24.09000
H  12.37600 3.41400 28.39300
H  11.66800 2.09700 27.37500
H  13.29200 2.85600 26.91700
H  14.15400 0.61200 32.62700
H  16.96800 3.67500 34.27100
H  16.02900 3.09800 35.59400
H  15.23700 4.14300 34.44200

