158

Mg 0.06700 7.13700 25.36200
C  0.76200 9.04500 28.22600
C  0.22800 4.31600 27.25100
C  -0.18900 5.41500 22.59200
C  0.80500 10.03300 23.43500
N  0.33700 6.80800 27.49300
C  0.50700 7.67600 28.53000
C  0.51800 6.97600 29.87000
C  0.54500 5.45400 29.56300
C  0.43600 5.51500 27.99700
C  1.77300 4.70300 30.05500
C  -0.58700 7.46500 30.90600
C  -0.40400 7.12800 32.33200
H  0.84300 6.46100 32.92200
N  -0.25500 5.12800 25.04000
C  -0.00300 4.15100 25.87900
C  -0.13500 2.89300 25.29400
C  -0.37200 3.13300 23.87600
C  -0.32700 4.64100 23.72800
C  -0.02000 1.52500 26.11100
C  -0.59200 2.26300 22.66100
O  -0.92800 2.72800 21.60200
C  -0.44700 0.83900 22.77900
N  0.47700 7.59700 23.25900
C  0.09200 6.75400 22.34400
C  -0.02300 7.42200 20.92500
C  0.21600 8.96700 21.27300
C  0.49800 8.85100 22.75400
C  0.98500 6.91400 19.84500
C  -0.92500 9.91200 20.73200
C  -2.17100 10.10500 21.63000
N  0.85300 9.12000 25.70000
C  1.02900 10.17900 24.83500
C  1.29800 11.40200 25.65300
C  1.21200 10.99500 26.94300
C  0.98300 9.63800 26.94300
C  1.57900 12.78500 25.18600
C  1.41000 11.46500 28.29000
O  1.69000 12.56700 28.72600
C  1.07800 10.20700 29.21100
C  2.22300 9.98800 30.07800
O  3.17400 9.34000 29.79000
O  2.01600 10.69700 31.20800
C  2.87900 10.30800 32.33200
H  0.28000 3.43900 27.89900
H  -0.51100 4.90300 21.68300
H  0.87300 10.95800 22.85700
H  1.48700 7.22500 30.30400
H  -0.35000 4.90300 29.85500
H  1.52200 4.00000 30.84900
H  2.45100 5.39300 30.55700
H  2.33500 4.17700 29.28400
H  -1.56800 7.15200 30.54900
H  -0.77500 8.53400 30.80100
H  -1.32600 6.62300 32.62000
H  -0.49700 8.08500 32.84500
H  0.97500 1.54400 26.55800
H  0.22800 0.62400 25.55000
H  -0.67100 1.28800 26.95300
H  -0.93800 0.29600 21.97200
H  -0.85400 0.56700 23.75300
H  0.63400 0.73100 22.68200
H  -0.99100 7.25000 20.45500
H  1.11600 9.42100 20.86000
H  1.75300 6.24700 20.23700
H  1.56600 7.73800 19.43300
H  0.42400 6.44500 19.03700
H  -1.29100 9.40000 19.84200
H  -0.52000 10.87700 20.42700
H  -2.18300 9.41900 22.47600
H  -2.99800 9.83300 20.97300
H  -2.24300 11.13400 21.98100
H  1.77400 12.99500 24.13500
H  2.35000 13.25600 25.79500
H  0.69800 13.34800 25.49600
H  0.19800 10.40600 29.82400
H  3.92300 10.16900 32.04900
H  2.47100 9.33500 32.60500
H  2.75800 11.05800 33.11300
Mg -9.96400 17.18100 42.52200
C  -6.47900 16.79600 42.28400
C  -9.51500 20.43100 41.63300
C  -13.30500 17.50800 42.39300
C  -10.17200 13.69700 42.67800
N  -8.05200 18.44800 41.97000
C  -6.78700 18.12100 41.97000
C  -5.89300 19.39800 41.62700
C  -6.90600 20.60700 41.54600
C  -8.27800 19.82300 41.78900
C  -6.62500 21.89700 42.35400
C  -5.05300 19.21500 40.38500
C  -5.56700 18.20800 39.27600
H  -4.88100 18.50100 37.85900
N  -11.29200 18.76400 42.18100
C  -10.85700 19.98800 41.82300
C  -12.05300 20.80200 41.56400
C  -13.25600 20.05800 41.86900
C  -12.69200 18.74000 42.27000
C  -11.90300 22.19000 41.00100
C  -14.72600 20.48700 41.82700
O  -15.13900 21.58900 41.37000
C  -15.86300 19.59800 42.20900
N  -11.47200 15.72200 42.29000
C  -12.81700 16.18100 42.33800
C  -13.75200 14.93800 42.63800
C  -12.72600 13.81700 42.59000
C  -11.36400 14.43500 42.56600
C  -14.47100 15.12300 44.05800
C  -12.97500 12.73700 41.45500
C  -13.04300 11.23600 41.87900
N  -8.60300 15.52900 42.65400
C  -8.86900 14.15900 42.74400
C  -7.66100 13.41800 42.82900
C  -6.68100 14.41400 42.74100
C  -7.25500 15.69300 42.54500
C  -7.46600 11.94300 42.88100
C  -5.32600 14.63600 42.71500
O  -4.30000 13.91300 42.73000
C  -5.15800 16.16800 42.49300
C  -4.31700 16.65900 43.71000
O  -3.15700 17.02900 43.60800
O  -5.09600 16.72100 44.83400
C  -4.52400 17.60600 45.86700
H  -9.26600 21.47200 41.41600
H  -14.38000 17.33200 42.47600
H  -10.30900 12.61700 42.76500
H  -5.25900 19.58500 42.49300
H  -6.90500 20.93900 40.50800
H  -5.59500 21.90300 42.71200
H  -7.28000 21.92200 43.22500
H  -6.79600 22.69800 41.63500
H  -4.00000 19.14700 40.66000
H  -4.96800 20.10300 39.75800
H  -6.65400 18.15700 39.20500
H  -5.25900 17.19900 39.54900
H  -11.16200 22.09700 40.20700
H  -11.40700 22.93900 41.61800
H  -12.89900 22.44400 40.63800
H  -15.99100 18.87400 41.40400
H  -16.74900 20.19500 42.42300
H  -15.61000 19.14300 43.16700
H  -14.47500 14.88800 41.82400
H  -12.63000 13.29400 43.54100
H  -14.45000 14.16800 44.58300
H  -15.44300 15.48100 43.71700
H  -13.93300 15.85600 44.65900
H  -12.19000 12.89600 40.71600
H  -13.90400 13.02900 40.96500
H  -13.98500 10.71700 41.69800
H  -12.76500 11.07600 42.92100
H  -12.23300 10.70700 41.37700
H  -8.34900 11.34300 42.66000
H  -6.96400 11.56200 43.77000
H  -6.66400 11.66300 42.20000
H  -4.62300 16.48300 41.59700
H  -3.85900 18.34200 45.41500
H  -4.03000 17.12900 46.71300
H  -5.24300 18.25700 46.36400

