158

Mg 53.58400 25.51300 44.03800
C  50.74800 27.46500 43.93800
C  51.72200 22.87000 42.80200
C  56.42700 23.76100 43.84000
C  55.44800 28.42000 45.08300
N  51.56300 25.25700 43.43600
C  50.59800 26.21800 43.35100
C  49.23200 25.72100 42.78500
C  49.43600 24.19800 42.94600
C  51.02000 24.05000 43.14200
C  48.51500 23.44700 43.99700
C  48.97200 26.22700 41.26200
C  50.15600 26.29600 40.30000
H  50.10100 25.51500 38.93600
N  53.99500 23.58400 43.40500
C  53.13700 22.67400 42.86900
C  53.84400 21.49600 42.47900
C  55.21700 21.74900 42.86600
C  55.29900 23.07700 43.37000
C  53.16400 20.31300 41.96700
C  56.16000 20.62600 42.81700
O  55.81400 19.47500 42.52500
C  57.52600 20.74900 43.48800
N  55.70600 26.09900 44.13700
C  56.65600 25.12500 44.24300
C  57.97100 25.67000 44.87000
C  57.68000 27.20300 45.08200
C  56.20100 27.25200 44.73500
C  58.35800 25.00200 46.25000
C  58.45100 28.15300 44.15700
C  58.33100 27.89800 42.61200
N  53.18800 27.48400 44.50500
C  54.00800 28.56400 45.00000
C  53.20400 29.62300 45.42800
C  51.95900 29.28400 44.92200
C  51.95000 27.98300 44.42000
C  53.59700 30.90100 46.17900
C  50.58800 29.78400 44.82300
O  50.07300 30.81800 45.18900
C  49.77300 28.66200 44.08500
C  49.50700 29.12800 42.69200
O  50.33400 29.32500 41.79800
O  48.21700 29.39900 42.56400
C  47.67800 29.95300 41.36000
H  51.14700 22.02000 42.42800
H  57.34100 23.18200 43.98800
H  55.98800 29.26200 45.52200
H  48.35400 26.06800 43.33000
H  49.17800 23.70300 42.01000
H  49.03300 22.76000 44.66600
H  47.79100 22.89600 43.39700
H  48.01600 24.26000 44.52400
H  48.51900 27.21900 41.27900
H  48.19700 25.64100 40.76900
H  51.04100 25.84700 40.75100
H  50.46700 27.30800 40.03900
H  53.61700 19.89900 41.06700
H  52.10400 20.47400 41.77600
H  53.25700 19.49500 42.68100
H  57.91100 19.73500 43.38400
H  57.55800 21.02800 44.54100
H  58.10300 21.42900 42.86100
H  58.82500 25.62300 44.19400
H  57.68300 27.56300 46.11000
H  59.01900 24.16600 46.02300
H  57.44500 24.56300 46.65400
H  58.81200 25.65000 46.99900
H  59.49800 28.04800 44.44300
H  58.00300 29.14100 44.26900
H  59.28400 27.58700 42.18300
H  58.05500 28.84800 42.15400
H  57.59700 27.17200 42.26100
H  54.46500 30.86100 46.83600
H  52.79300 31.34400 46.76800
H  53.90500 31.66800 45.46800
H  48.80800 28.40700 44.52500
H  46.59800 30.05900 41.46900
H  47.85200 29.44500 40.41100
H  47.99900 30.99100 41.27900
Mg 17.09600 52.03000 26.26700
C  19.09700 50.40600 28.63400
C  14.65000 52.40300 28.69700
C  15.06700 53.52900 24.03900
C  19.25400 51.05500 23.85100
N  17.03900 51.57600 28.48500
C  17.90600 50.92900 29.25600
C  17.35100 50.76000 30.69400
C  15.84800 51.07500 30.47400
C  15.83900 51.77300 29.13700
C  14.90200 49.79900 30.52500
C  18.04500 51.72200 31.69900
C  18.26800 50.98000 32.99900
H  17.25100 51.32300 34.10400
N  15.13900 52.96200 26.36600
C  14.35300 53.04000 27.45100
C  13.09000 53.70400 27.09600
C  13.30700 54.16400 25.78500
C  14.51700 53.50300 25.28900
C  11.95500 53.96700 28.16900
C  12.42000 54.92700 24.93100
O  12.61000 54.93500 23.69800
C  11.23400 55.60500 25.52100
N  16.98600 52.11200 24.24900
C  16.17100 52.87700 23.54500
C  16.50300 52.87600 22.05200
C  17.79700 52.08200 21.99400
C  18.07700 51.73000 23.47000
C  15.33600 52.36400 21.11100
C  18.95900 52.70000 21.11000
C  19.89100 53.78900 21.75500
N  18.86300 50.88000 26.20700
C  19.66800 50.60200 25.13300
C  20.78200 49.75200 25.58400
C  20.66700 49.71700 26.97200
C  19.46000 50.42000 27.28400
C  21.81000 49.13300 24.68200
C  21.29000 49.32400 28.21600
O  22.34500 48.78100 28.47600
C  20.33000 49.76700 29.27300
C  19.95600 48.75400 30.23900
O  19.03100 47.96400 30.20700
O  20.89300 48.81300 31.23500
C  20.67100 47.93800 32.39200
H  13.91500 52.41000 29.50400
H  14.65400 54.18000 23.26600
H  20.03700 50.73500 23.16000
H  17.36900 49.69300 30.91800
H  15.45300 51.80400 31.18100
H  13.88300 50.17800 30.61300
H  15.10900 49.23900 31.43600
H  15.09200 49.13100 29.68500
H  17.34800 52.51700 31.96200
H  18.99100 52.13200 31.34600
H  19.27600 51.20700 33.34500
H  18.25500 49.91100 32.78600
H  11.98200 55.02500 28.42700
H  12.05300 53.28200 29.01100
H  11.05100 53.66000 27.64300
H  10.84900 56.32900 24.80300
H  11.49400 56.20900 26.39000
H  10.45000 54.90800 25.81900
H  16.73900 53.92500 21.87300
H  17.68200 51.08200 21.57500
H  15.71300 51.70900 20.32600
H  14.80900 53.22600 20.70300
H  14.68600 51.74000 21.72500
H  18.49900 53.19000 20.25200
H  19.67600 51.95500 20.76400
H  20.92100 53.48200 21.93600
H  19.62000 54.23400 22.71300
H  19.98100 54.54100 20.97100
H  21.28700 48.88100 23.75900
H  22.24700 48.24700 25.14100
H  22.65300 49.80600 24.52400
H  20.72600 50.52600 29.94800
H  19.78900 48.14200 33.00000
H  21.58800 48.00800 32.97600
H  20.63700 46.94100 31.95300

