158

Mg 47.12700 25.18100 28.12300
C  48.27000 27.47900 30.85100
C  46.29000 23.01800 30.51500
C  46.74000 23.01600 25.61500
C  48.55800 27.55000 25.96000
N  47.29500 25.23100 30.42500
C  47.73900 26.24100 31.30500
C  47.41400 25.88200 32.78000
C  47.11200 24.34300 32.63400
C  46.81200 24.21300 31.15300
C  48.15700 23.24200 33.08600
C  46.24000 26.70600 33.35400
C  46.51000 27.41000 34.64800
H  45.35600 27.58600 35.60600
N  46.56100 23.32200 28.05800
C  46.24900 22.54500 29.15300
C  45.83600 21.23200 28.68400
C  45.92400 21.23000 27.30400
C  46.41200 22.55000 26.90200
C  45.35600 20.15300 29.58300
C  45.60300 20.04900 26.27300
O  45.79700 20.17400 25.08100
C  45.20000 18.65800 26.81600
N  47.66200 25.24900 26.07600
C  47.24500 24.27600 25.22900
C  47.33600 24.74400 23.80100
C  47.79900 26.22900 23.91800
C  48.01600 26.38500 25.39800
C  48.42500 23.92300 23.03700
C  46.72400 27.26800 23.51200
C  46.67800 27.70000 22.06700
N  48.16600 27.09800 28.26000
C  48.69900 27.85400 27.32200
C  49.36000 28.93100 27.94600
C  49.17300 28.95300 29.29200
C  48.39500 27.77500 29.48000
C  50.15400 29.99900 27.13500
C  49.50200 29.59900 30.54100
O  50.14100 30.62500 30.79200
C  48.77000 28.73100 31.67800
C  49.76600 28.44800 32.71200
O  50.52300 27.51700 32.72800
O  49.74100 29.44500 33.70800
C  50.58100 29.21000 34.88400
H  45.98200 22.36100 31.33000
H  46.43200 22.53500 24.68400
H  48.94000 28.15800 25.13800
H  48.33300 25.99800 33.35500
H  46.22000 24.07400 33.20000
H  48.92300 23.60600 33.77100
H  48.69300 22.81300 32.24000
H  47.60200 22.42000 33.53900
H  45.33500 26.11200 33.47400
H  46.10300 27.46300 32.58100
H  46.75100 28.47000 34.55800
H  47.23900 26.80700 35.18900
H  44.29700 19.98000 29.39100
H  45.50300 20.47200 30.61500
H  45.79200 19.18200 29.34800
H  44.33400 18.65800 27.47700
H  46.15000 18.43000 27.30000
H  45.02400 18.02200 25.94800
H  46.40500 24.61500 23.24900
H  48.71500 26.59400 23.45400
H  48.04900 22.99600 22.60400
H  49.05600 23.48600 23.81100
H  49.12600 24.42800 22.37200
H  46.66000 28.09300 24.22200
H  45.77700 26.73200 23.58200
H  47.44700 27.13700 21.53900
H  46.76200 28.78400 21.99500
H  45.72000 27.52200 21.57900
H  49.91300 30.07300 26.07400
H  51.19800 29.68800 27.16700
H  49.93600 30.94100 27.63900
H  47.92100 29.24900 32.12300
H  50.39500 30.12600 35.44600
H  51.64600 29.04200 34.72800
H  50.16500 28.42900 35.52000
Mg 36.10400 49.08500 25.60800
C  36.46500 47.14600 28.47400
C  34.82300 51.61100 27.62600
C  35.37900 50.84500 22.81600
C  37.08900 46.31700 23.57000
N  35.50100 49.16500 27.77500
C  35.95900 48.42400 28.79000
C  35.86900 49.10200 30.14000
C  35.09200 50.40800 29.77500
C  35.16200 50.40400 28.28500
C  33.60600 50.46600 30.27400
C  37.20600 49.22700 30.97400
C  37.09200 49.24400 32.50600
H  35.71100 49.53600 33.10500
N  35.23200 50.93600 25.29500
C  34.86700 51.86200 26.24400
C  34.48600 53.10300 25.60600
C  34.43100 52.80800 24.20400
C  35.02400 51.46400 24.04400
C  34.25300 54.40000 26.43600
C  34.03500 53.73600 23.08400
O  34.19400 53.45800 21.91600
C  33.47900 55.14200 23.38100
N  36.46500 48.74000 23.48700
C  35.96800 49.60100 22.53100
C  36.10600 49.04100 21.08200
C  36.80600 47.62900 21.27200
C  36.78100 47.53900 22.82500
C  34.71200 49.02500 20.39300
C  38.29700 47.55400 20.70800
C  38.72900 46.22900 19.94000
N  36.74200 47.22600 25.90100
C  37.06900 46.19300 25.02300
C  37.50700 45.02800 25.72900
C  37.20900 45.36000 27.05800
C  36.73100 46.70000 27.17700
C  38.24500 43.88200 25.22700
C  37.19800 44.84000 28.45100
O  37.61900 43.75800 28.78700
C  36.62500 45.98100 29.37300
C  35.39500 45.55300 30.00700
O  34.27000 45.28600 29.53900
O  35.56400 45.74200 31.35300
C  34.40100 45.47000 32.28100
H  34.49600 52.43700 28.26100
H  35.32500 51.43700 21.90000
H  37.29700 45.41000 22.99800
H  35.13400 48.47200 30.64000
H  35.50500 51.38100 30.04400
H  33.43700 51.47800 30.64100
H  33.29100 49.74600 31.02900
H  32.92100 50.28000 29.44700
H  37.59700 50.22900 30.79900
H  37.91300 48.48800 30.59600
H  37.78900 49.98900 32.89100
H  37.49600 48.25700 32.73200
H  33.18200 54.58500 26.50800
H  34.66300 55.17000 25.78100
H  34.82500 54.41800 27.36400
H  34.35900 55.77800 23.48000
H  32.65800 55.09900 24.09600
H  32.99100 55.49300 22.47100
H  36.77100 49.74600 20.58300
H  36.17200 46.79600 20.96800
H  34.72800 49.68200 19.52300
H  33.84700 49.18900 21.03700
H  34.59000 48.06400 19.89500
H  39.09000 47.60100 21.45400
H  38.42300 48.41500 20.05100
H  39.40900 45.59000 20.50300
H  39.15100 46.54700 18.98700
H  37.87500 45.61900 19.64600
H  38.74200 43.55400 26.14000
H  38.85400 44.18500 24.37500
H  37.55500 43.07800 24.96900
H  37.48200 46.15400 30.02400
H  33.54500 44.95300 31.84800
H  34.06200 46.39100 32.75700
H  34.77100 44.81500 33.07000

