158

Mg 35.09100 3.14400 30.00400
C  32.75700 4.16600 32.43600
C  37.51900 3.23200 32.33500
C  37.31200 2.44400 27.57400
C  32.59300 3.38400 27.73300
N  35.07400 3.75500 32.12000
C  34.06500 3.97500 32.89500
C  34.51400 3.97700 34.37300
C  36.12900 3.89600 34.28800
C  36.26000 3.63200 32.82200
C  36.90300 5.19700 34.67100
C  33.84400 2.79700 35.23800
C  33.46300 3.07800 36.64300
H  34.37200 4.16600 37.27400
N  37.16400 2.92900 29.89900
C  37.94000 2.84100 31.02900
C  39.33700 2.41300 30.73800
C  39.27500 2.16200 29.32000
C  37.91100 2.50200 28.84600
C  40.46700 2.39400 31.88100
C  40.34000 1.63000 28.39000
O  40.12300 1.29200 27.21600
C  41.59200 1.25900 28.97000
N  34.96000 2.90400 27.89000
C  36.01800 2.63800 27.09300
C  35.57700 2.47800 25.63100
C  34.00200 2.69500 25.67600
C  33.86800 3.00500 27.16800
C  36.26900 3.59700 24.80100
C  33.14600 1.47000 25.26100
C  31.80300 1.80200 24.54800
N  33.09900 3.77900 29.99400
C  32.20800 3.77400 28.96900
C  30.92000 4.23100 29.45500
C  31.06300 4.32600 30.86600
C  32.42300 4.10800 31.12500
C  29.62400 4.46300 28.58900
C  30.36700 4.69800 32.04900
O  29.17300 4.99400 32.21100
C  31.44400 4.44600 33.19700
C  31.46100 5.57800 34.13000
O  31.82700 6.68500 33.81100
O  30.82500 5.30200 35.31600
C  30.49400 6.37300 36.21800
H  38.30300 3.11300 33.08500
H  38.03800 2.12400 26.82300
H  31.79200 3.53700 27.00700
H  34.17600 4.95500 34.71400
H  36.45600 3.01800 34.84600
H  36.34300 5.87700 35.31200
H  37.13700 5.80600 33.79700
H  37.78700 4.98900 35.27400
H  34.66300 2.07800 35.23200
H  32.97400 2.35500 34.75400
H  33.41300 2.18300 37.26300
H  32.43300 3.43100 36.58000
H  40.29500 1.47500 32.44100
H  40.31400 3.24000 32.55100
H  41.48000 2.59700 31.53200
H  41.26100 0.61900 29.78800
H  42.21500 2.05400 29.38100
H  42.13100 0.64500 28.24900
H  35.84600 1.46300 25.33800
H  33.74400 3.45000 24.93400
H  36.91400 3.06800 24.09900
H  36.92400 4.22000 25.40900
H  35.68500 4.29200 24.19900
H  33.10100 0.75400 26.08100
H  33.73400 0.83800 24.59600
H  32.18600 1.74300 23.53000
H  31.42900 2.80000 24.77800
H  31.06600 1.03800 24.79400
H  29.67200 5.29500 27.88700
H  28.68700 4.69800 29.09500
H  29.38900 3.60200 27.96300
H  31.00800 3.58800 33.70900
H  31.01900 6.17500 37.15300
H  29.45900 6.31900 36.55400
H  30.76800 7.31600 35.74600
Mg -12.96500 16.08100 42.07700
C  -9.94100 14.57700 41.48100
C  -11.68600 19.04200 40.55300
C  -16.04100 17.55400 42.38100
C  -14.41900 13.02100 42.87300
N  -10.92900 16.71700 41.14500
C  -9.84400 15.92200 41.07700
C  -8.65100 16.65200 40.38400
C  -9.23600 18.13200 40.31200
C  -10.69200 18.00000 40.70900
C  -8.42900 19.28900 41.01300
C  -8.09500 15.99200 39.12500
C  -6.58200 15.51600 39.07800
H  -5.69700 16.29100 38.12400
N  -13.74900 18.07100 41.59400
C  -13.01400 19.09600 41.01300
C  -13.93100 20.23200 40.87900
C  -15.19900 19.82200 41.42700
C  -15.03300 18.43600 41.87800
C  -13.42600 21.49200 40.22000
C  -16.45100 20.75300 41.61300
O  -16.49100 21.87400 41.12400
C  -17.59500 20.36700 42.50800
N  -14.96400 15.41800 42.51000
C  -16.01700 16.20300 42.73500
C  -17.22600 15.47100 43.28800
C  -16.77100 14.03900 43.14400
C  -15.27800 14.17300 42.85900
C  -17.60900 15.86400 44.83500
C  -17.49000 13.23100 42.00400
C  -17.43600 11.66500 42.06100
N  -12.28600 14.18800 42.35500
C  -13.01200 13.01800 42.67200
C  -12.05400 11.92600 42.76000
C  -10.82300 12.47600 42.32300
C  -11.01100 13.87200 42.05400
C  -12.30600 10.58100 43.27100
C  -9.42800 12.24000 41.96700
O  -8.83200 11.18400 41.88700
C  -8.82900 13.57200 41.52100
C  -7.79500 14.06000 42.48500
O  -7.99900 14.42100 43.64100
O  -6.57000 13.95700 41.84500
C  -5.32700 14.35600 42.60800
H  -11.28400 19.96100 40.12300
H  -17.02500 18.01500 42.27400
H  -14.89000 12.05200 43.05100
H  -7.84500 16.64800 41.11800
H  -9.21900 18.40100 39.25600
H  -7.54800 18.93100 41.54600
H  -9.19300 19.71800 41.66200
H  -8.23600 20.14300 40.36500
H  -8.28400 16.55500 38.21000
H  -8.66300 15.07900 38.95100
H  -6.75100 14.58100 38.54500
H  -6.06300 15.53600 40.03700
H  -13.77300 21.42800 39.18900
H  -12.33700 21.53500 40.20500
H  -13.76300 22.34800 40.80400
H  -18.37500 20.01100 41.83500
H  -17.88500 21.34300 42.89600
H  -17.32400 19.66000 43.29200
H  -18.12600 15.69600 42.71500
H  -16.99500 13.54500 44.08900
H  -18.00900 16.87800 44.84400
H  -16.74700 15.65600 45.46900
H  -18.40600 15.22800 45.22100
H  -16.89700 13.49400 41.12800
H  -18.51400 13.60300 41.99400
H  -16.85800 11.23800 41.24200
H  -18.41800 11.19600 41.99500
H  -17.05800 11.39600 43.04800
H  -13.20300 10.18300 42.79500
H  -12.42700 10.57100 44.35400
H  -11.46300 9.93200 43.03600
H  -8.39400 13.53800 40.52200
H  -4.57100 14.89600 42.03600
H  -4.75100 13.46300 42.85100
H  -5.60200 14.91600 43.50100

