158

Mg 0.62700 8.84000 26.23700
C  1.65700 10.40700 29.08600
C  0.09100 5.91200 28.11400
C  0.02200 7.09000 23.39900
C  1.75200 11.45100 24.27900
N  1.06500 8.10600 28.33500
C  1.20200 9.13000 29.33900
C  1.04800 8.53500 30.70900
C  0.85000 6.98100 30.42100
C  0.55700 6.98200 28.84700
C  2.02300 6.03600 30.82200
C  -0.15600 9.08200 31.45900
C  -0.05500 9.26700 32.98700
H  1.24400 8.97100 33.73000
N  0.05400 6.77200 25.79000
C  -0.12200 5.78900 26.73900
C  -0.72000 4.66900 26.07900
C  -0.84700 4.91300 24.68500
C  -0.22000 6.32100 24.57100
C  -1.06700 3.42200 26.85200
C  -1.52300 4.07400 23.61200
O  -1.61500 4.53500 22.46500
C  -1.91100 2.69800 23.86600
N  0.98500 9.13500 24.18400
C  0.62700 8.28500 23.14700
C  1.01100 8.76200 21.72600
C  1.35700 10.26200 22.04300
C  1.39100 10.28900 23.56700
C  2.26900 8.06600 21.21200
C  0.35900 11.34100 21.37800
C  -0.78300 11.77600 22.33700
N  1.50600 10.65400 26.53300
C  1.86900 11.67600 25.69000
C  2.30700 12.81800 26.43600
C  2.31700 12.35500 27.77200
C  1.81500 11.01300 27.78400
C  2.63800 14.15400 25.92500
C  2.57900 12.71700 29.13600
O  3.02700 13.77800 29.61400
C  2.23000 11.47200 30.06100
C  3.50800 11.05900 30.68500
O  4.34600 10.36900 30.17600
O  3.49100 11.49000 32.00300
C  4.53100 10.97300 32.95400
H  -0.21800 5.11800 28.79700
H  -0.32200 6.43800 22.59400
H  2.15800 12.22200 23.62000
H  1.94300 8.63000 31.32300
H  -0.04200 6.60900 30.92500
H  1.65800 5.35900 31.59500
H  2.87900 6.58100 31.21900
H  2.39400 5.58700 29.90100
H  -1.03600 8.46300 31.28400
H  -0.39500 10.03400 30.98400
H  -0.87900 8.73400 33.46000
H  -0.26600 10.28100 33.32600
H  -0.57600 2.57800 26.36800
H  -2.14500 3.26500 26.82300
H  -0.77800 3.57500 27.89200
H  -2.72500 2.33900 23.23600
H  -2.24600 2.45200 24.87400
H  -1.00300 2.10100 23.78300
H  0.08900 8.57900 21.17400
H  2.37900 10.46800 21.72700
H  2.29400 8.24800 20.13800
H  2.05600 7.01000 21.38100
H  3.20900 8.29500 21.71500
H  -0.03200 10.93400 20.44600
H  1.04600 12.12100 21.04900
H  -0.82400 11.17700 23.24700
H  -1.72000 11.71400 21.78200
H  -0.61800 12.77900 22.73100
H  1.73500 14.69900 25.65000
H  3.28500 14.06300 25.05300
H  3.10400 14.84200 26.63000
H  1.50600 11.77000 30.81900
H  5.47700 11.24700 32.48600
H  4.47500 9.89800 33.12600
H  4.59500 11.42000 33.94600
Mg 6.06700 55.63200 39.35500
C  5.41500 52.23300 39.77900
C  9.47000 55.03500 38.61800
C  6.45200 58.83900 38.06600
C  2.56500 56.31700 39.60400
N  7.15000 53.82800 38.98000
C  6.72900 52.53500 39.38600
C  7.93600 51.57000 39.19600
C  9.18600 52.53400 39.25900
C  8.57200 53.91900 38.94500
C  10.02300 52.49700 40.56600
C  7.86400 50.67000 37.95700
C  7.53400 51.31200 36.57000
H  6.08100 51.02500 36.12300
N  7.73700 56.75700 38.49800
C  9.04100 56.33900 38.33600
C  9.86600 57.43900 37.96700
C  8.98900 58.53700 37.69700
C  7.62400 58.06500 38.03700
C  11.42800 57.32800 37.84800
C  9.43700 59.94500 37.42100
O  10.57800 60.15600 37.05800
C  8.54300 61.13800 37.42500
N  4.67200 57.29900 38.87000
C  5.15100 58.46800 38.43400
C  3.99900 59.57500 38.41200
C  2.78100 58.67700 38.73300
C  3.40700 57.39900 39.24400
C  4.16400 60.69000 39.41300
C  1.89000 58.49300 37.44600
C  1.10700 59.76800 37.08100
N  4.28500 54.57000 39.67200
C  2.95300 54.95800 39.80700
C  2.14700 53.82900 40.23600
C  3.06000 52.75600 40.32300
C  4.31700 53.21000 39.90600
C  0.72100 53.76800 40.45700
C  3.18000 51.30100 40.62400
O  2.49000 50.42200 41.11400
C  4.67900 50.89000 40.20600
C  4.58100 49.90600 39.19300
O  3.75900 50.00600 38.27400
O  5.36000 48.77900 39.50400
C  4.96800 47.64000 38.73400
H  10.47500 54.66300 38.40700
H  6.49800 59.83100 37.61100
H  1.49400 56.51900 39.68300
H  7.91100 50.93500 40.08100
H  9.90000 52.21400 38.50000
H  9.71200 51.85500 41.39000
H  10.15900 53.51900 40.91900
H  10.99800 52.09800 40.28500
H  7.09100 49.93000 38.16200
H  8.78900 50.09900 37.87700
H  8.35900 51.03200 35.91500
H  7.62200 52.39900 36.56700
H  11.60400 57.33300 36.77300
H  11.77800 56.41500 38.32900
H  11.88400 58.17700 38.35800
H  9.08100 62.04300 37.14200
H  7.98100 61.19800 38.35700
H  7.92600 60.87700 36.56500
H  3.88600 60.03400 37.43000
H  2.07700 59.10100 39.44900
H  5.22800 60.90600 39.51200
H  3.91200 60.27200 40.38700
H  3.49100 61.54400 39.35300
H  1.17500 57.67200 37.49400
H  2.54500 58.24700 36.60900
H  0.05200 59.60600 37.30300
H  1.19100 59.90900 36.00300
H  1.49800 60.63900 37.60700
H  0.15600 53.36900 39.61400
H  0.28300 54.65000 40.92500
H  0.45600 52.91500 41.08300
H  5.15300 50.34900 41.02500
H  5.90800 47.22000 38.37600
H  4.22800 47.68000 37.93500
H  4.48300 46.94800 39.42300

