158

Mg 54.97100 24.67800 44.18300
C  52.20400 26.33600 43.07100
C  53.66300 21.78400 42.77400
C  57.86200 22.99700 44.95200
C  56.43800 27.73100 45.37200
N  53.25300 24.16100 42.91400
C  52.26400 25.04900 42.55600
C  51.17100 24.36000 41.82100
C  51.31200 22.92200 42.40500
C  52.83800 22.92000 42.64400
C  50.36500 22.58400 43.55200
C  51.41500 24.50500 40.26700
C  50.22300 24.90000 39.29300
H  50.44100 25.23900 37.81800
N  55.66900 22.65100 43.90500
C  54.90600 21.65300 43.30000
C  55.68500 20.46000 43.35100
C  56.89100 20.73900 44.14500
C  56.84900 22.17200 44.41000
C  55.25200 19.23800 42.56300
C  57.97600 19.67900 44.38900
O  57.78300 18.48400 44.19000
C  59.15200 19.93600 45.20600
N  56.87300 25.33900 44.82300
C  57.87800 24.38200 45.14000
C  59.14100 24.96700 45.73400
C  58.80700 26.53200 45.53400
C  57.31400 26.57700 45.23700
C  59.50300 24.45800 47.18700
C  59.70500 27.22800 44.40300
C  60.85000 28.12000 44.81600
N  54.44600 26.62900 44.35000
C  55.02400 27.73000 44.95700
C  54.03700 28.76900 45.02300
C  52.89900 28.31400 44.35200
C  53.21500 26.96000 43.91000
C  54.27500 30.06800 45.58000
C  51.60600 28.66800 43.78300
O  50.95200 29.67000 43.87400
C  51.08800 27.38200 43.05200
C  50.66100 27.73700 41.68000
O  51.40700 28.00300 40.73700
O  49.26500 27.65100 41.66200
C  48.56800 28.21400 40.47900
H  53.08700 20.85700 42.72900
H  58.74900 22.41100 45.20300
H  56.93800 28.53900 45.91000
H  50.18800 24.71400 42.13100
H  51.11900 22.27700 41.54800
H  50.86300 22.15500 44.42200
H  49.58900 21.86200 43.30200
H  49.83500 23.39200 44.05700
H  51.82700 23.58000 39.86300
H  52.16000 25.29000 40.14100
H  49.77700 25.75700 39.79800
H  49.56900 24.02900 39.31900
H  54.96200 19.64400 41.59400
H  54.31700 18.81400 42.93000
H  56.02700 18.48900 42.40100
H  58.80100 20.55400 46.03200
H  59.87400 20.52400 44.63800
H  59.61100 19.03800 45.62000
H  59.85400 24.64200 44.97600
H  58.97800 27.06900 46.46700
H  58.71000 23.86100 47.63700
H  59.82300 25.28500 47.82000
H  60.33700 23.76000 47.12300
H  58.97200 27.79300 43.82600
H  60.18100 26.52800 43.71600
H  61.10200 27.98400 45.86800
H  60.55600 29.16100 44.68100
H  61.72500 27.77900 44.26400
H  53.61500 30.70000 44.98600
H  55.30000 30.41200 45.44200
H  53.92600 30.07100 46.61300
H  50.23100 27.13500 43.67800
H  48.22100 27.36100 39.89500
H  49.31000 28.77300 39.90900
H  47.82300 28.95400 40.76800
Mg 46.78100 24.74800 28.83900
C  47.64600 27.29500 31.02900
C  46.17500 22.67900 31.59600
C  46.45800 22.13400 26.76100
C  47.72200 26.64000 26.05900
N  46.76500 25.02500 31.02100
C  47.10800 26.15500 31.68800
C  46.75200 25.96600 33.13400
C  46.53200 24.46800 33.37300
C  46.49100 23.98300 31.89100
C  47.65000 23.76500 34.21500
C  45.52400 26.88100 33.59000
C  45.39900 27.22400 35.12600
H  46.32900 26.75300 36.13600
N  46.25300 22.75400 29.10800
C  46.12300 22.06600 30.32500
C  45.91900 20.67200 30.07200
C  45.91100 20.51600 28.63000
C  46.22000 21.84400 28.09200
C  45.82700 19.61000 31.16500
C  45.66500 19.24600 27.83700
O  45.53100 19.20300 26.62400
C  45.45300 17.99500 28.53000
N  47.06200 24.35300 26.73300
C  46.83200 23.26800 26.12100
C  47.12100 23.38200 24.60800
C  47.11100 24.95900 24.38300
C  47.26900 25.42400 25.82500
C  48.41000 22.64000 24.12100
C  45.85000 25.49900 23.72200
C  44.49600 25.15300 24.39100
N  47.53600 26.57300 28.57300
C  47.91500 27.16200 27.42200
C  48.59400 28.42200 27.81100
C  48.46900 28.52500 29.17100
C  47.82500 27.34200 29.60500
C  49.26500 29.35200 26.83200
C  48.82600 29.30100 30.35300
O  49.48700 30.33500 30.33000
C  48.21200 28.59900 31.56600
C  49.38900 28.35200 32.43800
O  50.40800 27.67800 32.23000
O  49.02800 28.94000 33.67900
C  50.09800 28.68900 34.72500
H  45.92700 22.08500 32.47900
H  46.16500 21.37500 26.03300
H  47.99300 27.37800 25.30100
H  47.63100 26.21300 33.73000
H  45.54000 24.19300 33.73100
H  47.39000 22.90900 34.83700
H  48.37000 24.42900 34.69300
H  48.20300 23.09700 33.55600
H  44.64200 26.30900 33.30000
H  45.43800 27.83800 33.07500
H  44.37200 26.99900 35.41500
H  45.26800 28.29100 35.30800
H  45.94800 19.89400 32.21000
H  46.60400 18.86700 30.98300
H  44.91300 19.05800 30.94400
H  46.29600 17.80000 29.19300
H  45.43700 17.28200 27.70600
H  44.55100 17.78500 29.10500
H  46.37000 22.94500 23.95000
H  47.98900 25.22700 23.79500
H  49.27300 23.05200 24.64400
H  48.49700 22.88000 23.06200
H  48.45100 21.56300 24.28900
H  45.88700 25.04800 22.73000
H  46.02700 26.55800 23.53700
H  44.61000 24.37100 25.14200
H  43.93400 24.65300 23.60100
H  44.02000 26.05800 24.76600
H  50.22500 28.98800 26.46400
H  49.42300 30.24000 27.44400
H  48.63700 29.57100 25.96800
H  47.55200 29.30800 32.06400
H  51.12100 28.54900 34.37800
H  49.75000 27.73400 35.11900
H  50.10800 29.49700 35.45700

