158

Mg 40.66100 40.70900 26.41000
C  39.93800 42.91800 28.88800
C  42.09000 38.61800 28.72400
C  41.24300 38.42200 23.87500
C  39.89600 43.18300 23.98400
N  41.21000 40.84000 28.59900
C  40.54000 41.78300 29.39800
C  40.78500 41.39900 30.86000
C  41.78500 40.13200 30.76500
C  41.73700 39.82400 29.27300
C  43.19200 40.40100 31.34600
C  39.46800 41.09200 31.64300
C  39.21100 42.01100 32.88200
H  38.75900 41.33200 34.22700
N  41.45900 38.70300 26.34100
C  41.89600 38.03700 27.41100
C  42.32300 36.66900 26.99500
C  42.00500 36.62700 25.61200
C  41.51200 37.94200 25.20000
C  42.90300 35.64600 28.04000
C  42.20700 35.43000 24.59400
O  41.95900 35.44800 23.42000
C  42.96600 34.20000 25.10500
N  40.63000 40.75300 24.23800
C  40.95500 39.68400 23.42900
C  40.79500 40.04900 21.94500
C  40.31800 41.56600 21.96600
C  40.38300 41.89500 23.47800
C  41.98200 39.85800 21.01200
C  38.98000 41.78800 21.27400
C  37.73400 41.81200 22.18700
N  40.00400 42.58600 26.37200
C  39.71500 43.47100 25.36400
C  39.16300 44.68000 25.97700
C  39.25900 44.51700 27.33400
C  39.79800 43.20300 27.56200
C  38.70100 45.91500 25.22100
C  39.13500 45.15800 28.64900
O  38.62100 46.21600 29.02600
C  39.48000 44.10500 29.70500
C  40.54000 44.66300 30.58900
O  41.75500 44.77100 30.36800
O  39.86900 45.09900 31.72400
C  40.63900 46.05000 32.59700
H  42.60400 38.00800 29.47000
H  41.29800 37.63600 23.11900
H  39.51000 43.97100 23.33400
H  41.28600 42.29000 31.23700
H  41.51400 39.24700 31.34000
H  43.19100 41.32300 31.92700
H  43.92000 40.49200 30.54000
H  43.40500 39.53800 31.97600
H  39.49400 40.06600 32.00900
H  38.58700 41.20700 31.01100
H  38.37300 42.59900 32.50800
H  40.09000 42.61900 33.09700
H  42.24000 34.86500 28.41300
H  43.21600 36.16700 28.94500
H  43.77400 35.21300 27.54700
H  42.37300 33.79700 25.92600
H  44.00100 34.46100 25.32500
H  43.07000 33.52300 24.25600
H  39.98800 39.39500 21.61500
H  41.06000 42.17400 21.44900
H  42.92400 40.05200 21.52600
H  41.92600 40.54400 20.16700
H  42.05400 38.81600 20.70100
H  38.88000 41.08000 20.45200
H  39.03300 42.79000 20.84700
H  37.16300 42.73700 22.10400
H  37.86800 41.65500 23.25800
H  37.19000 40.94400 21.81800
H  37.61800 46.01100 25.30400
H  38.99100 45.94200 24.17100
H  39.07500 46.81800 25.70200
H  38.54300 43.92300 30.23300
H  41.12000 45.38900 33.31800
H  39.96200 46.74100 33.10000
H  41.40600 46.59100 32.04300
Mg -10.65200 40.24600 39.53900
C  -9.21300 36.98900 38.86800
C  -7.82400 41.60600 38.28200
C  -12.25200 43.10500 39.36300
C  -13.56300 38.56500 40.55700
N  -8.82000 39.39700 38.68200
C  -8.41000 38.06900 38.44800
C  -6.95800 37.99400 37.92100
C  -6.53100 39.40700 38.52100
C  -7.76600 40.23400 38.39000
C  -5.97000 39.34700 40.00200
C  -6.88500 37.88200 36.35900
C  -6.16600 36.66000 35.82700
H  -6.85800 35.91300 34.72500
N  -10.08300 42.12600 38.93800
C  -8.83600 42.54600 38.49700
C  -8.83200 43.94800 38.37900
C  -10.08300 44.42000 38.69300
C  -10.86600 43.22300 39.03700
C  -7.53600 44.73000 37.93000
C  -10.57400 45.81700 38.52400
O  -9.78300 46.61100 38.13200
C  -11.95700 46.35700 38.81500
N  -12.63000 40.76100 39.83900
C  -13.08500 42.04500 39.69300
C  -14.49700 42.21100 40.17700
C  -14.90200 40.73500 40.46400
C  -13.64600 39.97700 40.30800
C  -14.56500 43.00000 41.41600
C  -15.95500 40.22500 39.47300
C  -17.37400 40.15600 40.00900
N  -11.25200 38.16900 39.88500
C  -12.45600 37.69200 40.30000
C  -12.32100 36.23500 40.60300
C  -11.13500 35.93800 39.95300
C  -10.51600 37.15000 39.52400
C  -13.26800 35.30000 41.26900
C  -10.21800 34.83400 39.53800
O  -10.36700 33.64800 39.70900
C  -8.99400 35.48200 38.79800
C  -7.77500 35.00800 39.45700
O  -7.35700 35.51300 40.53900
O  -7.12300 34.00700 38.69800
C  -5.77800 33.68900 39.21100
H  -6.88900 41.93200 37.82100
H  -12.78400 44.05500 39.44100
H  -14.51200 38.09900 40.82900
H  -6.41800 37.16200 38.37300
H  -5.86100 39.97800 37.87900
H  -6.76500 39.67500 40.67100
H  -5.14900 40.05400 40.12300
H  -5.75400 38.31300 40.27100
H  -6.29600 38.73100 36.01200
H  -7.87900 37.82700 35.91500
H  -6.01200 35.87800 36.57100
H  -5.21100 36.90800 35.36400
H  -7.52000 44.91200 36.85600
H  -6.67400 44.12000 38.20100
H  -7.39400 45.66200 38.47800
H  -12.60600 46.08500 37.98300
H  -11.76200 47.42500 38.72000
H  -12.26700 45.96900 39.78600
H  -15.09900 42.71000 39.41800
H  -15.26600 40.62800 41.48600
H  -13.84300 42.53700 42.08800
H  -15.57600 43.08700 41.81400
H  -14.47900 44.08500 41.35200
H  -15.79700 39.22100 39.08000
H  -15.94000 40.96900 38.67700
H  -17.85600 39.28800 39.55900
H  -17.99000 41.03800 39.83400
H  -17.41300 40.02600 41.09000
H  -13.29200 35.52500 42.33500
H  -12.93700 34.30500 40.97100
H  -14.22700 35.35800 40.75500
H  -8.90300 35.18800 37.75200
H  -5.73000 33.71600 40.29900
H  -4.97400 34.38900 38.98000
H  -5.51400 32.66100 38.96300

