158

Mg -2.17300 17.59600 26.89900
C  -2.68600 15.10100 29.61900
C  -2.75700 19.92600 29.30200
C  -1.97100 19.79800 24.46100
C  -2.71600 14.93700 24.64900
N  -2.75700 17.49300 29.13600
C  -2.71300 16.38900 30.05700
C  -2.75100 16.81400 31.57600
C  -2.89700 18.29900 31.38000
C  -2.73700 18.60200 29.85900
C  -4.15100 18.92800 31.98000
C  -1.54300 16.34900 32.50200
C  -1.29600 17.06000 33.90900
H  -0.77300 16.15700 35.07300
N  -2.15500 19.60200 26.92600
C  -2.55400 20.41500 27.97500
C  -2.39600 21.73200 27.58500
C  -2.04500 21.74700 26.20500
C  -2.01800 20.35300 25.76800
C  -2.66300 22.93900 28.49600
C  -1.91200 22.93200 25.16000
O  -1.76500 22.73300 23.97900
C  -2.04700 24.36100 25.65800
N  -2.34900 17.39400 24.82100
C  -2.25400 18.48100 24.04700
C  -2.44800 18.10300 22.60500
C  -2.56700 16.57100 22.64600
C  -2.50000 16.24400 24.14700
C  -3.60500 18.80100 21.87900
C  -1.60100 15.75800 21.68200
C  -0.34400 14.98700 22.10600
N  -2.51500 15.51200 27.05100
C  -2.74600 14.60100 26.09200
C  -2.92700 13.22900 26.65900
C  -2.83600 13.44600 28.06500
C  -2.65200 14.80400 28.25800
C  -3.11500 11.91600 25.97900
C  -2.90800 12.71000 29.33500
O  -3.11300 11.50200 29.57900
C  -2.85100 13.82400 30.44700
C  -1.54100 13.48700 31.08800
O  -0.47900 13.99400 30.82900
O  -1.74400 12.54400 31.98500
C  -0.63800 12.36900 32.94500
H  -2.83800 20.69200 30.07600
H  -1.92700 20.47800 23.60700
H  -2.74500 14.07600 23.97800
H  -3.62100 16.28200 31.96100
H  -2.02800 18.83800 31.75800
H  -4.74100 19.46400 31.23600
H  -3.93900 19.38000 32.94900
H  -4.80100 18.08100 32.20100
H  -0.63800 16.36100 31.89400
H  -1.74200 15.36600 32.92900
H  -2.20000 17.64100 34.08800
H  -0.45500 17.70500 33.65700
H  -1.86000 23.66100 28.34700
H  -2.70100 22.66400 29.55000
H  -3.60300 23.41300 28.21400
H  -2.92100 24.37500 26.30800
H  -2.23500 25.15200 24.93300
H  -1.19500 24.65600 26.26900
H  -1.52500 18.36100 22.08500
H  -3.55800 16.25600 22.32000
H  -4.27300 19.22800 22.62700
H  -4.25100 18.19700 21.24100
H  -3.24800 19.65100 21.29800
H  -1.26100 16.43100 20.89500
H  -2.23400 14.94800 21.32100
H  -0.48000 13.95900 21.77100
H  -0.24500 15.03100 23.19100
H  0.59800 15.37900 21.72400
H  -3.69300 11.28100 26.64900
H  -2.18500 11.38500 25.77600
H  -3.77600 12.19000 25.15700
H  -3.63300 13.66500 31.18900
H  -0.01000 13.25700 32.88900
H  -0.01700 11.47500 32.88000
H  -1.12900 12.33600 33.91800
Mg 24.36100 -4.24700 45.81300
C  26.69700 -2.14400 44.12100
C  22.00000 -3.42800 43.44400
C  22.51200 -7.16200 46.66600
C  27.05500 -5.68300 47.44900
N  24.38000 -2.95900 43.99000
C  25.39900 -2.12700 43.51900
C  24.89900 -1.16400 42.40500
C  23.26200 -1.39600 42.51600
C  23.17900 -2.70000 43.36700
C  22.47600 -0.12700 42.99300
C  25.60100 -1.44000 41.10600
C  25.67200 -0.37600 39.95300
H  25.14600 -0.79000 38.54900
N  22.42300 -5.04300 45.25900
C  21.60700 -4.49700 44.30200
C  20.35500 -5.25200 44.28800
C  20.55700 -6.40000 45.15500
C  21.89500 -6.19500 45.81700
C  19.15500 -4.84100 43.30800
C  19.60400 -7.60900 45.32800
O  18.65800 -7.66000 44.59600
C  19.79200 -8.84500 46.19000
N  24.76300 -6.09200 46.82600
C  23.78700 -6.96500 47.24000
C  24.30400 -8.08100 48.22100
C  25.69800 -7.48200 48.57600
C  25.88900 -6.39400 47.48900
C  23.51900 -8.56900 49.36700
C  26.85100 -8.55200 48.67000
C  27.98600 -8.37100 49.69600
N  26.46400 -4.00100 45.91400
C  27.42900 -4.60100 46.57500
C  28.72000 -3.93600 46.40000
C  28.49100 -2.87300 45.44200
C  27.11000 -3.03600 45.14500
C  30.00300 -4.22800 47.25500
C  29.08000 -1.82500 44.67000
O  30.20100 -1.31400 44.54500
C  27.93400 -1.35300 43.69000
C  27.65500 0.07200 43.77800
O  27.03700 0.54800 44.72000
O  28.10700 0.89100 42.69600
C  27.86500 2.31300 42.53300
H  21.14400 -3.20700 42.80300
H  21.92000 -8.01400 47.01000
H  27.80700 -6.02700 48.16200
H  25.14200 -0.15000 42.72200
H  22.73500 -1.69800 41.61100
H  23.20000 0.68600 43.05600
H  21.95800 -0.32900 43.93000
H  21.80100 0.31900 42.26200
H  25.10700 -2.27100 40.60300
H  26.59600 -1.83700 41.30600
H  26.73000 -0.13500 39.85400
H  25.08700 0.39000 40.46200
H  19.37600 -5.53700 42.50000
H  19.24200 -3.80000 42.99600
H  18.27000 -5.10100 43.88900
H  20.57100 -9.49000 45.78400
H  18.82600 -9.35100 46.19100
H  19.96200 -8.53300 47.22100
H  24.44500 -8.91800 47.53600
H  25.65300 -7.02700 49.56500
H  22.53800 -8.09400 49.38400
H  23.92400 -8.52500 50.37800
H  23.15900 -9.59800 49.36600
H  27.31800 -8.42000 47.69400
H  26.48400 -9.57500 48.75100
H  28.37200 -9.32400 50.05800
H  27.64700 -7.89300 50.61500
H  28.80300 -7.75300 49.32200
H  30.11600 -3.56600 48.11400
H  30.89100 -4.05700 46.64600
H  29.97600 -5.29100 47.49600
H  28.29700 -1.64300 42.70400
H  27.15200 2.81500 43.18700
H  27.52600 2.43000 41.50400
H  28.85000 2.77400 42.60200

