158

Mg 49.84300 46.94500 43.63200
C  46.37000 47.07700 43.00300
C  49.84800 43.81300 42.08400
C  53.21600 47.17500 43.43000
C  49.72400 50.35300 44.32700
N  48.25800 45.58800 42.73200
C  46.95300 45.87800 42.51500
C  46.22900 44.63900 41.93700
C  47.25000 43.45700 42.21600
C  48.55400 44.28500 42.30300
C  46.98000 42.69700 43.55900
C  45.71900 44.88500 40.50700
C  44.16800 44.72900 40.37400
H  43.58600 45.24000 39.03900
N  51.37600 45.61700 42.99700
C  51.11700 44.43400 42.34000
C  52.36900 43.82600 41.84200
C  53.37200 44.77700 42.27900
C  52.66200 45.93700 42.92200
C  52.47200 42.45800 41.17700
C  54.93800 44.63900 42.03200
O  55.33400 43.60600 41.43400
C  55.91400 45.65900 42.53800
N  51.25300 48.45100 43.94800
C  52.57100 48.26300 43.99400
C  53.28300 49.41900 44.61800
C  52.32500 50.56000 44.75700
C  50.99500 49.75200 44.40000
C  54.01800 49.03900 45.90300
C  52.73700 51.81600 43.93000
C  52.30500 53.19700 44.64900
N  48.38300 48.47700 43.61300
C  48.47100 49.79600 43.96800
C  47.12900 50.36700 44.04000
C  46.30400 49.35700 43.63200
C  47.10500 48.23300 43.41800
C  46.72800 51.77400 44.31900
C  44.96900 48.98900 43.31600
O  43.89200 49.58800 43.33400
C  44.93200 47.48800 42.93100
C  44.17800 46.73900 43.96400
O  44.63500 46.03300 44.86500
O  42.88800 46.79100 43.55600
C  41.88700 45.94000 44.21000
H  49.82200 42.75100 41.83100
H  54.29800 47.31800 43.38300
H  49.71500 51.36600 44.73500
H  45.36700 44.38700 42.55500
H  47.30200 42.76000 41.38000
H  47.78200 42.68200 44.29800
H  46.93300 41.61800 43.41600
H  45.97200 42.96300 43.87700
H  46.23000 44.15500 39.87900
H  46.01800 45.85800 40.11500
H  43.70600 45.27200 41.19800
H  43.96100 43.66700 40.50400
H  53.34200 41.99500 41.64300
H  52.84000 42.47300 40.15100
H  51.63100 41.77500 41.29700
H  55.67100 46.57600 42.00000
H  56.93100 45.29700 42.39000
H  55.67600 45.87400 43.58000
H  54.06500 49.72300 43.92200
H  52.02000 50.80600 45.77400
H  53.80600 48.03000 46.25700
H  53.83400 49.68500 46.76200
H  55.07400 49.10000 45.64000
H  52.26800 51.78400 42.94600
H  53.81500 51.83700 43.77200
H  51.67400 53.68800 43.90900
H  53.12900 53.90300 44.75800
H  51.64100 53.15800 45.51300
H  47.30200 52.21600 45.13300
H  45.65400 51.75000 44.50200
H  46.89500 52.51000 43.53200
H  44.60900 47.28500 41.91000
H  41.34100 45.45900 43.39900
H  41.25800 46.59200 44.81700
H  42.23800 45.09500 44.80100
Mg -5.36000 24.95200 26.09100
C  -3.78200 26.03800 28.94000
C  -7.27800 22.79200 28.05300
C  -6.27400 23.40400 23.32400
C  -3.01900 26.87500 24.11500
N  -5.55800 24.57300 28.21600
C  -4.92400 25.24700 29.16200
C  -5.35700 24.90900 30.52400
C  -6.24800 23.63400 30.21000
C  -6.37100 23.60500 28.77400
C  -5.71400 22.33700 30.79200
C  -6.05500 26.04800 31.19800
C  -5.89100 26.16000 32.77100
H  -5.11700 25.08200 33.55800
N  -6.73000 23.41200 25.72400
C  -7.42100 22.71200 26.61200
C  -8.31600 21.91100 25.92500
C  -8.09300 22.15600 24.51000
C  -6.94400 22.94000 24.45400
C  -9.32900 21.05200 26.56800
C  -8.86800 21.46200 23.33900
O  -8.45500 21.54600 22.19000
C  -10.06600 20.55000 23.55800
N  -4.61200 25.08600 24.00700
C  -5.21300 24.28500 23.09800
C  -4.66500 24.59900 21.63700
C  -3.61200 25.75700 21.89700
C  -3.79100 25.94900 23.44500
C  -4.13800 23.42000 20.86700
C  -3.98000 27.13100 21.20800
C  -3.32600 27.24100 19.79400
N  -3.72400 26.17200 26.39400
C  -2.91700 26.94700 25.52500
C  -2.04400 27.79900 26.39000
C  -2.39100 27.42100 27.74700
C  -3.40300 26.48300 27.65100
C  -1.08800 28.78100 25.93000
C  -2.05200 27.70500 29.05300
O  -1.11900 28.37200 29.42900
C  -3.01900 26.89400 30.02100
C  -2.19000 26.17900 30.99400
O  -1.59200 25.15200 30.74400
O  -2.00800 26.85000 32.12800
C  -1.13800 26.28800 33.14800
H  -7.91900 22.07900 28.57600
H  -6.56000 22.96600 22.36500
H  -2.33800 27.48000 23.51200
H  -4.43100 24.63700 31.03200
H  -7.16700 23.70300 30.79100
H  -4.74700 22.45800 31.28000
H  -5.47600 21.60500 30.02100
H  -6.32300 21.84400 31.55000
H  -7.12200 25.90100 31.03200
H  -5.87400 27.03300 30.76800
H  -6.94000 26.06300 33.05200
H  -5.56000 27.17700 32.98300
H  -9.63100 20.16300 26.01600
H  -10.24300 21.63400 26.68600
H  -8.95000 20.69500 27.52600
H  -10.84000 21.14000 24.04900
H  -9.69700 19.65500 24.05700
H  -10.46200 20.19000 22.60900
H  -5.55200 24.99800 21.14600
H  -2.61600 25.45700 21.57200
H  -4.83100 23.28400 20.03600
H  -4.18700 22.50900 21.46300
H  -3.10200 23.59200 20.57400
H  -3.73000 28.02200 21.78400
H  -5.06200 27.06700 21.09300
H  -4.07700 27.28000 19.00400
H  -2.61600 26.45500 19.53600
H  -2.75800 28.16900 19.84800
H  -0.87800 29.41100 26.79500
H  -1.74400 29.36400 25.28300
H  -0.18000 28.35800 25.50100
H  -3.65300 27.61800 30.53200
H  -0.07300 26.45000 32.97900
H  -1.20800 25.20100 33.19400
H  -1.48000 26.69900 34.09800

