158

Mg 40.64700 9.62200 30.17900
C  42.66400 11.10100 32.74800
C  38.68600 8.40300 32.61800
C  39.09100 7.98100 27.77500
C  43.07400 10.47300 27.76000
N  40.68200 9.79200 32.40300
C  41.56300 10.48500 33.24400
C  41.14700 10.37400 34.75900
C  39.93700 9.33800 34.64700
C  39.66400 9.22300 33.15600
C  40.20100 7.93900 35.29300
C  40.92100 11.74600 35.38200
C  40.02500 11.68000 36.63100
H  40.46400 12.45200 37.89400
N  39.11200 8.35300 30.18700
C  38.36000 7.99500 31.27200
C  37.25800 7.07500 30.86800
C  37.33200 7.07200 29.46400
C  38.58100 7.82100 29.06500
C  36.30700 6.46400 31.87000
C  36.25500 6.44400 28.53500
O  36.28000 6.57900 27.34700
C  35.10900 5.68600 29.00300
N  41.02100 9.23500 27.96600
C  40.19100 8.63300 27.17500
C  40.40000 8.75400 25.69200
C  41.71600 9.63900 25.71800
C  41.96000 9.79200 27.21800
C  40.59300 7.41000 24.98600
C  41.46900 11.09500 25.07000
C  42.62600 11.79400 24.22000
N  42.55300 10.45100 30.15900
C  43.37600 10.72700 29.11500
C  44.52200 11.46500 29.67000
C  44.33500 11.60500 31.01900
C  43.13900 10.95400 31.31600
C  45.54300 12.09600 28.85000
C  44.86000 12.26600 32.23700
O  45.75500 13.06300 32.32900
C  43.80000 11.90800 33.44400
C  44.68100 11.30200 34.46000
O  45.12800 10.17900 34.42800
O  44.99500 12.18200 35.45700
C  45.79700 11.69400 36.59400
H  38.12200 7.96800 33.44500
H  38.36800 7.54200 27.08500
H  43.79500 10.87300 27.04300
H  41.97000 9.99500 35.36600
H  39.04300 9.83100 35.02900
H  41.12000 7.98700 35.87700
H  40.42900 7.19100 34.53300
H  39.35400 7.69900 35.93600
H  40.39600 12.35200 34.64400
H  41.82900 12.24700 35.71900
H  39.98500 10.62200 36.88900
H  38.98200 11.90800 36.41100
H  36.55100 6.68400 32.91000
H  36.01900 5.43400 31.65900
H  35.30500 6.85600 31.69800
H  34.35500 5.53500 28.23000
H  34.59800 6.28700 29.75600
H  35.53500 4.74600 29.35300
H  39.52400 9.23400 25.25600
H  42.61100 9.20200 25.27400
H  39.68000 7.16500 24.44400
H  40.81400 6.63700 25.72300
H  41.41800 7.38500 24.27400
H  41.23500 11.71200 25.93700
H  40.53100 11.07000 24.51600
H  42.32700 12.01500 23.19500
H  43.53700 11.20400 24.31700
H  42.86000 12.74700 24.69300
H  45.25500 13.10500 28.55400
H  45.75400 11.53800 27.93700
H  46.47800 12.12300 29.40800
H  43.43100 12.90100 33.70000
H  45.12800 11.27900 37.34800
H  46.27800 12.53700 37.09100
H  46.55400 10.99200 36.24500
Mg -12.69700 37.65300 42.18800
C  -10.22500 35.28800 41.54400
C  -10.66900 40.10200 40.99300
C  -15.24200 39.70700 42.66100
C  -14.67300 34.95300 43.46500
N  -10.67600 37.70100 41.12300
C  -9.83000 36.61100 41.13500
C  -8.44300 37.04700 40.54900
C  -8.50200 38.62900 40.84100
C  -9.99600 38.85600 40.94400
C  -7.76800 39.07800 42.16000
C  -8.37300 36.55100 39.01500
C  -7.23400 35.53100 38.69700
H  -6.35400 35.93800 37.56200
N  -13.00000 39.59200 41.78100
C  -12.05300 40.46700 41.30900
C  -12.62600 41.83900 41.29000
C  -13.86700 41.72000 41.90300
C  -14.13300 40.31200 42.14900
C  -11.91800 43.05000 40.81400
C  -14.80500 42.97900 42.13100
O  -14.45500 44.09300 41.73300
C  -16.06500 42.85100 42.83200
N  -14.91900 37.36700 42.73100
C  -15.67200 38.39200 42.92700
C  -16.95600 38.01600 43.71000
C  -16.78800 36.41000 43.74700
C  -15.35500 36.17100 43.34300
C  -17.24900 38.61800 45.11200
C  -17.81200 35.58500 42.85800
C  -17.32300 35.14800 41.42000
N  -12.58200 35.56500 42.33800
C  -13.44000 34.63600 42.93100
C  -12.77700 33.36600 42.94800
C  -11.53100 33.51200 42.39100
C  -11.43200 34.89500 42.04000
C  -13.33100 32.04800 43.44600
C  -10.30700 32.89600 41.97300
O  -9.88300 31.72500 42.14900
C  -9.38100 34.04800 41.47800
C  -8.03600 34.03600 42.26300
O  -6.93000 33.86000 41.76300
O  -8.30900 34.13300 43.60400
C  -7.26200 34.15700 44.56900
H  -10.08600 40.92100 40.56800
H  -15.98900 40.46900 42.89000
H  -15.32100 34.20800 43.93300
H  -7.65800 36.58800 41.14900
H  -8.10800 39.19000 39.99300
H  -8.50700 39.18400 42.95400
H  -7.26400 40.02000 41.94200
H  -6.98500 38.36900 42.42900
H  -8.28000 37.38400 38.31900
H  -9.28900 36.06200 38.68300
H  -7.55800 34.50700 38.51300
H  -6.58000 35.44000 39.56500
H  -12.13800 43.83400 41.53900
H  -12.38600 43.36600 39.88100
H  -10.83300 42.95500 40.78400
H  -16.40100 43.86200 43.06300
H  -15.97200 42.31200 43.77500
H  -16.80300 42.29100 42.25700
H  -17.79000 38.31500 43.07500
H  -16.87800 36.04300 44.77000
H  -17.96000 39.42800 44.94900
H  -16.34100 38.96900 45.60400
H  -17.69500 37.76500 45.62200
H  -18.72700 36.15000 42.67900
H  -18.19500 34.72300 43.40300
H  -17.66000 34.11200 41.38100
H  -16.24000 35.24400 41.34600
H  -17.90000 35.49900 40.56400
H  -14.35100 31.94500 43.07600
H  -13.15000 31.96100 44.51700
H  -12.79500 31.20800 43.00300
H  -9.12000 33.78700 40.45200
H  -6.40800 33.49000 44.44800
H  -7.79800 34.11400 45.51700
H  -6.96800 35.18600 44.77700

