158

Mg -1.80400 17.12300 27.07400
C  -2.68200 14.96000 29.81600
C  -2.37000 19.71200 29.23700
C  -1.75600 19.10000 24.38500
C  -1.54100 14.27300 25.06900
N  -2.31600 17.21800 29.28900
C  -2.64700 16.29100 30.19300
C  -3.03700 16.86500 31.50000
C  -2.93000 18.43000 31.28300
C  -2.52700 18.45300 29.81200
C  -4.18000 19.24400 31.76400
C  -2.26100 16.31500 32.78500
C  -2.19400 17.19700 33.92700
H  -1.53500 16.55400 35.17100
N  -1.92400 19.11600 26.85200
C  -2.16500 20.02300 27.88700
C  -2.16400 21.35000 27.32300
C  -2.04000 21.20200 25.87000
C  -1.94000 19.75400 25.64500
C  -2.41700 22.57800 28.14000
C  -2.07200 22.21100 24.84000
O  -2.09200 21.96500 23.63300
C  -2.09900 23.68600 25.23700
N  -1.78700 16.75100 24.97900
C  -1.65700 17.76000 24.12400
C  -1.34500 17.24000 22.64800
C  -0.95800 15.68300 22.97100
C  -1.35300 15.54500 24.44100
C  -2.48800 17.37700 21.62900
C  0.52200 15.38400 22.59800
C  1.60400 15.29900 23.68200
N  -2.14800 15.00200 27.31900
C  -1.91700 14.03800 26.39600
C  -2.21600 12.73500 27.03500
C  -2.58400 13.05900 28.34600
C  -2.38900 14.43100 28.49700
C  -2.29000 11.41800 26.29400
C  -3.04900 12.53200 29.61500
O  -3.31900 11.39000 29.96600
C  -2.96500 13.70600 30.68100
C  -1.85400 13.39200 31.59800
O  -0.66600 13.37600 31.29700
O  -2.37900 13.05800 32.79900
C  -1.35200 12.96800 33.85900
H  -2.57500 20.46500 30.00100
H  -1.70200 19.78500 23.53600
H  -1.54600 13.45300 24.34800
H  -4.09600 16.64000 31.61700
H  -2.10700 18.76900 31.91300
H  -3.98100 19.95400 32.56700
H  -4.98800 18.57900 32.06800
H  -4.53500 19.90500 30.97400
H  -1.28300 15.88100 32.57900
H  -2.92800 15.57000 33.22000
H  -3.17600 17.63500 34.10600
H  -1.47100 17.97200 33.67000
H  -2.47300 22.29200 29.19000
H  -3.33100 23.06100 27.79300
H  -1.62100 23.31900 28.07200
H  -3.04900 23.95100 25.70200
H  -2.16000 24.33900 24.36700
H  -1.31300 24.01900 25.91500
H  -0.52400 17.83700 22.25200
H  -1.66900 14.99400 22.51500
H  -2.30600 16.53300 20.96400
H  -2.25500 18.33800 21.17000
H  -3.46600 17.34700 22.10900
H  0.92400 16.19800 21.99600
H  0.66400 14.48000 22.00600
H  1.14800 15.58300 24.63000
H  2.31300 16.10100 23.47400
H  2.10600 14.33400 23.62100
H  -1.65000 11.51300 25.41700
H  -3.27600 11.28700 25.84900
H  -1.93200 10.72000 27.05100
H  -3.90800 13.85700 31.20600
H  -0.88900 11.98100 33.85000
H  -1.78000 13.24700 34.82200
H  -0.54700 13.70300 33.88200
Mg -12.88100 16.28700 40.99200
C  -9.85800 14.60000 40.35400
C  -11.35800 19.18600 39.73000
C  -15.93600 17.83000 40.61100
C  -14.49600 13.16100 40.95600
N  -10.81100 16.76700 40.15200
C  -9.74900 15.94600 40.05100
C  -8.66200 16.60500 39.28500
C  -9.08300 18.12400 39.31000
C  -10.48900 18.03900 39.80900
C  -8.08500 19.08300 40.06200
C  -8.35500 16.04500 37.85800
C  -6.87100 16.25500 37.47900
H  -6.26500 15.30700 36.48400
N  -13.51800 18.30100 40.51400
C  -12.72900 19.27300 39.95700
C  -13.57200 20.43800 39.79700
C  -14.90200 20.07400 40.16600
C  -14.83300 18.65700 40.44200
C  -13.07800 21.74300 39.24800
C  -16.04000 20.95200 40.16900
O  -15.89600 22.19200 39.87200
C  -17.35200 20.56100 40.80900
N  -14.99300 15.62800 40.90500
C  -16.05300 16.48500 40.81200
C  -17.38400 15.69500 40.99800
C  -16.91300 14.21800 40.95700
C  -15.35800 14.31200 40.95500
C  -18.19600 16.09100 42.18700
C  -17.37100 13.37600 39.79000
C  -18.16300 12.10500 40.08500
N  -12.36000 14.30500 41.01500
C  -13.10400 13.16300 41.06700
C  -12.19300 11.98800 41.07900
C  -10.87800 12.51700 40.94900
C  -11.06500 13.94200 40.85200
C  -12.48500 10.53900 40.96100
C  -9.44800 12.16600 40.68700
O  -8.88400 11.10300 40.46100
C  -8.75000 13.55400 40.38200
C  -7.80100 13.88900 41.44600
O  -8.02200 14.23800 42.59400
O  -6.56700 13.85300 40.86700
C  -5.44800 14.39000 41.74300
H  -10.80000 20.00400 39.26900
H  -16.93900 18.16800 40.34200
H  -14.93200 12.19600 41.22100
H  -7.72800 16.52700 39.84200
H  -9.02600 18.54600 38.30600
H  -7.69300 19.85000 39.39400
H  -7.19900 18.54200 40.39700
H  -8.47600 19.72600 40.84900
H  -8.95900 16.60000 37.14000
H  -8.67900 15.00900 37.75600
H  -6.25300 16.29800 38.37500
H  -6.76000 17.22800 37.00000
H  -13.78200 22.14900 38.52200
H  -12.16300 21.68800 38.65700
H  -12.79800 22.50600 39.97400
H  -18.06500 20.18700 40.07500
H  -17.87200 21.42800 41.21600
H  -17.11500 19.91900 41.65800
H  -18.03900 15.89900 40.15000
H  -17.29400 13.70600 41.84100
H  -19.15300 16.35900 41.73900
H  -17.58600 16.92200 42.54200
H  -18.24700 15.26100 42.89200
H  -16.54200 12.93400 39.23600
H  -17.97400 13.91100 39.05700
H  -17.89900 11.49100 39.22400
H  -19.24600 12.22300 40.12400
H  -17.81000 11.48600 40.91000
H  -13.27300 10.36900 40.22700
H  -12.59900 10.04900 41.92800
H  -11.63800 10.10800 40.42700
H  -8.17600 13.41100 39.46600
H  -4.55300 14.45500 41.12500
H  -5.27800 13.68000 42.55200
H  -5.53100 15.37900 42.19300

