158

Mg 35.01700 3.44300 29.81000
C  32.97000 4.64400 32.28300
C  37.67200 3.21900 31.96800
C  37.11400 2.80800 27.13100
C  32.44200 4.09300 27.50600
N  35.21900 3.80200 31.92400
C  34.20600 4.27400 32.77300
C  34.72700 4.15100 34.19000
C  36.32400 3.99000 34.07200
C  36.44500 3.69200 32.54400
C  37.18800 5.17800 34.57600
C  34.05800 2.98600 34.94200
C  33.72700 3.14300 36.48000
H  34.53500 4.12400 37.29700
N  37.07900 2.96800 29.56700
C  38.00700 2.81100 30.63800
C  39.30600 2.39800 30.08600
C  39.12700 2.43300 28.70100
C  37.69500 2.75600 28.36500
C  40.49600 2.18900 31.00200
C  40.30000 2.16400 27.65500
O  40.14700 2.26000 26.49300
C  41.72100 1.86200 28.00700
N  34.85800 3.48300 27.74100
C  35.82400 3.14300 26.80400
C  35.40900 3.11900 25.36800
C  33.88000 3.13200 25.57000
C  33.67900 3.57100 27.01800
C  36.03400 4.25300 24.45600
C  33.17200 1.78400 25.32700
C  31.89200 1.75400 24.45200
N  33.06000 4.35900 29.81400
C  32.11900 4.42600 28.87200
C  30.86200 4.85100 29.43400
C  31.15000 4.85600 30.74100
C  32.49800 4.61900 30.98800
C  29.61000 5.14200 28.68700
C  30.56000 5.11600 32.05000
O  29.40400 5.42400 32.41900
C  31.65800 4.75000 33.08600
C  31.55800 5.92100 34.09400
O  31.84400 7.12500 33.91600
O  31.21100 5.32300 35.23700
C  30.79800 6.23400 36.30800
H  38.45700 3.26800 32.72400
H  37.73000 2.61900 26.24900
H  31.58300 3.93700 26.85000
H  34.37500 5.07300 34.65400
H  36.68300 3.08900 34.57100
H  37.78100 5.52000 33.72700
H  37.94800 4.81100 35.26600
H  36.56800 6.02000 34.88100
H  34.60800 2.04600 34.92200
H  33.15300 2.74300 34.38600
H  33.84400 2.11700 36.83000
H  32.69700 3.40800 36.71500
H  41.17900 3.01800 30.81700
H  40.94600 1.20900 30.84400
H  40.07200 2.18200 32.00600
H  42.28600 1.62800 27.10500
H  41.72400 0.92200 28.56000
H  42.14600 2.67700 28.59200
H  35.87100 2.20400 24.99600
H  33.38500 3.82800 24.89200
H  36.85200 4.76000 24.96800
H  35.27400 5.02100 24.31500
H  36.35000 3.70200 23.57000
H  32.88900 1.36500 26.29300
H  33.80100 1.00200 24.90200
H  31.48100 0.76000 24.62800
H  32.16500 1.93200 23.41200
H  31.18800 2.40000 24.97600
H  29.87100 5.57600 27.72200
H  29.14900 5.94900 29.25700
H  28.86000 4.35900 28.79300
H  31.47700 3.83400 33.64900
H  30.33400 5.62800 37.08600
H  30.04500 6.97800 36.04700
H  31.68500 6.62300 36.80700
Mg 49.44900 46.11800 42.88900
C  46.01600 46.21500 41.87600
C  49.59100 42.76300 41.95900
C  52.76400 46.48900 42.70300
C  49.06400 49.52900 43.65800
N  48.02900 44.72300 41.87400
C  46.68700 44.99400 41.69200
C  46.04900 43.69800 41.17100
C  47.05900 42.56400 41.60200
C  48.33800 43.34100 41.79100
C  46.77400 41.56700 42.77100
C  45.76100 43.62700 39.64900
C  44.53100 42.82000 39.24000
H  44.01900 43.12800 37.85200
N  51.03400 44.76900 42.47400
C  50.84300 43.42200 42.15300
C  52.19900 42.89500 41.96500
C  53.16400 43.92800 42.26800
C  52.38700 45.12900 42.47400
C  52.48500 41.42900 41.78700
C  54.63100 43.76700 42.41400
O  55.19000 42.70500 42.16600
C  55.58500 44.87700 42.98600
N  50.79800 47.69800 43.28400
C  52.09000 47.64800 43.08400
C  52.80000 48.93200 43.45400
C  51.65200 49.89200 43.85800
C  50.35300 49.03900 43.53800
C  53.92000 48.91600 44.53500
C  51.67500 51.30100 43.11000
C  51.20600 52.51300 43.90600
N  47.91800 47.61300 42.82900
C  47.91400 48.86900 43.27500
C  46.52700 49.32600 43.27900
C  45.85100 48.37000 42.67300
C  46.67400 47.34600 42.41500
C  46.09900 50.64400 43.86700
C  44.50600 48.06700 42.30000
O  43.58200 48.87300 42.30400
C  44.54600 46.65100 41.76000
C  43.69700 45.84400 42.61100
O  43.86600 45.59800 43.76900
O  42.70600 45.26000 41.83200
C  41.77900 44.32700 42.40200
H  49.49000 41.69100 41.77600
H  53.82300 46.75600 42.67400
H  48.91700 50.58500 43.89600
H  45.12400 43.55400 41.73000
H  47.12500 41.79300 40.83400
H  45.82500 41.90500 43.18900
H  47.60200 41.59000 43.47800
H  46.57500 40.55000 42.43300
H  46.70500 43.30000 39.21100
H  45.55000 44.59800 39.20200
H  43.69800 42.97500 39.92600
H  44.78700 41.76700 39.35900
H  51.55200 40.98800 41.43700
H  52.59600 40.89800 42.73300
H  53.26300 41.12000 41.08900
H  55.67500 45.71000 42.29000
H  56.56400 44.47600 43.24800
H  55.16100 45.18400 43.94300
H  53.24400 49.41800 42.58500
H  51.49400 50.02100 44.92900
H  54.90500 49.03200 44.08400
H  54.08700 48.02500 45.14000
H  53.81000 49.73500 45.24600
H  51.00300 51.29300 42.25200
H  52.69200 51.42000 42.73600
H  50.90100 52.28800 44.92800
H  50.34200 52.98900 43.44200
H  51.98400 53.27600 43.86900
H  46.59800 51.52500 43.46300
H  46.42200 50.72600 44.90400
H  45.02000 50.79200 43.83100
H  44.02000 46.74800 40.81100
H  41.17400 43.71000 41.73700
H  41.15400 44.98200 43.00900
H  42.33500 43.65700 43.05700

