158

Mg 23.92000 -5.55400 45.57400
C  25.93000 -2.99600 44.47000
C  21.34100 -4.00400 43.67300
C  22.19800 -8.26400 45.92900
C  26.59700 -7.02000 47.13000
N  23.70500 -3.75200 44.15600
C  24.70300 -2.93700 43.83700
C  24.37100 -1.90800 42.77700
C  22.83000 -1.96500 42.69400
C  22.60200 -3.37900 43.50900
C  22.05400 -0.86200 43.39600
C  25.16200 -2.01500 41.44500
C  25.43500 -0.64700 40.72300
H  25.17600 -0.57600 39.25000
N  22.01900 -6.08900 44.85300
C  21.06100 -5.28700 44.25200
C  19.78100 -5.96700 44.23700
C  19.96400 -7.29600 44.79500
C  21.36800 -7.20800 45.30400
C  18.47100 -5.40600 43.62800
C  18.92900 -8.38100 44.88700
O  17.77100 -8.16300 44.49800
C  19.30400 -9.83900 45.35100
N  24.39300 -7.53200 46.19200
C  23.50600 -8.48900 46.31500
C  23.99600 -9.63600 47.23500
C  25.40500 -9.22600 47.54400
C  25.46500 -7.86500 46.93500
C  23.11100 -9.99100 48.49200
C  26.47500 -10.21100 46.99800
C  26.85500 -11.29300 47.92000
N  25.88500 -5.11300 45.84600
C  26.83200 -5.74500 46.60600
C  28.03300 -4.91200 46.56800
C  27.66300 -3.87200 45.74600
C  26.37300 -4.02800 45.30700
C  29.38800 -5.21700 47.04600
C  28.23000 -2.65000 45.15200
O  29.30600 -2.12500 45.38500
C  27.12200 -2.04900 44.28000
C  26.75900 -0.71200 44.80700
O  26.02500 -0.48900 45.77400
O  27.46800 0.21300 44.11800
C  27.25600 1.59600 44.35500
H  20.52600 -3.52200 43.12800
H  21.59600 -9.09500 46.30400
H  27.43400 -7.48400 47.65700
H  24.66700 -0.95300 43.21200
H  22.45500 -2.00300 41.67100
H  22.09200 -0.01600 42.71000
H  22.68900 -0.68500 44.26500
H  21.06800 -1.19300 43.72100
H  24.74500 -2.64600 40.66000
H  26.18200 -2.34800 41.63500
H  26.49100 -0.37500 40.73800
H  24.86600 0.17700 41.15400
H  18.55700 -4.54500 42.96500
H  17.95100 -5.16300 44.55400
H  17.94900 -6.17800 43.06200
H  18.37600 -10.35600 45.10600
H  19.24200 -9.75400 46.43600
H  20.25500 -10.27100 45.04000
H  23.91500 -10.33400 46.40200
H  25.59700 -9.13700 48.61400
H  23.79100 -10.39600 49.24300
H  22.36700 -10.66600 48.07000
H  22.41100 -9.21700 48.80500
H  27.36800 -9.68600 46.65700
H  26.13800 -10.73800 46.10500
H  26.14100 -11.22200 48.74000
H  27.88000 -11.20200 48.28200
H  26.59200 -12.26500 47.50400
H  29.86900 -6.00900 46.47100
H  29.28300 -5.54600 48.07900
H  29.99900 -4.31500 47.00200
H  27.47900 -1.94600 43.25600
H  26.68500 2.13600 43.60000
H  28.20200 2.13800 44.34700
H  26.89000 1.75300 45.37000
Mg -11.57300 38.69700 42.57300
C  -9.96700 35.79200 41.42000
C  -9.12300 40.51200 40.79700
C  -13.56200 41.38400 42.59600
C  -14.20300 36.67900 43.46900
N  -9.90300 38.18100 41.28300
C  -9.46600 36.95400 40.87800
C  -8.19500 37.02400 40.11600
C  -7.76200 38.51600 40.22200
C  -9.01200 39.16200 40.76400
C  -6.42400 38.75900 41.05400
C  -8.41600 36.54500 38.66900
C  -7.26700 35.45400 38.34500
H  -5.99300 35.95300 37.64500
N  -11.35200 40.65800 41.86200
C  -10.23500 41.21400 41.24300
C  -10.42100 42.67900 41.09300
C  -11.68300 42.99600 41.73800
C  -12.23400 41.68200 42.12800
C  -9.38700 43.47700 40.46700
C  -12.26000 44.45500 41.89400
O  -11.65100 45.38100 41.27600
C  -13.48200 44.80500 42.66300
N  -13.63000 39.03700 42.82000
C  -14.14600 40.25300 43.03200
C  -15.48300 40.18600 43.66500
C  -15.82600 38.71900 43.67900
C  -14.41900 38.08400 43.43600
C  -15.50500 40.80700 45.13600
C  -16.75000 38.29600 42.62200
C  -18.17800 38.23200 43.25000
N  -11.92900 36.67500 42.82800
C  -13.00000 36.01200 43.14000
C  -12.80400 34.57100 43.18600
C  -11.47300 34.42300 42.53600
C  -11.07500 35.71500 42.24600
C  -13.84900 33.61100 43.59700
C  -10.45200 33.50700 42.07500
O  -10.32700 32.28600 42.15000
C  -9.52700 34.30800 41.30400
C  -8.28800 34.21200 42.14900
O  -8.20400 34.63100 43.29900
O  -7.32800 33.51800 41.44200
C  -5.95800 33.45500 41.95200
H  -8.27700 41.04400 40.35600
H  -14.12300 42.31800 42.65900
H  -15.03200 36.03100 43.76200
H  -7.55100 36.38900 40.72400
H  -7.57000 38.92400 39.23000
H  -5.86400 37.82900 41.15700
H  -6.55700 39.23000 42.02700
H  -5.80000 39.37900 40.41000
H  -8.37300 37.42300 38.02400
H  -9.39400 36.07900 38.55200
H  -7.87100 34.92300 37.60900
H  -7.02700 34.69400 39.08800
H  -8.39800 43.12800 40.76300
H  -9.41500 44.48600 40.87800
H  -9.44600 43.54100 39.38000
H  -14.31000 44.36000 42.11200
H  -13.64600 45.88300 42.66200
H  -13.37200 44.39700 43.66800
H  -16.12300 40.71900 42.96100
H  -16.15100 38.33000 44.64400
H  -14.53000 41.04700 45.56100
H  -16.05600 40.16800 45.82700
H  -16.06100 41.74000 45.23200
H  -16.55600 37.40900 42.01900
H  -16.75600 39.13400 41.92500
H  -18.57500 37.23900 43.04100
H  -18.64600 39.06000 42.71700
H  -18.29500 38.50300 44.30000
H  -14.46700 33.95900 44.42500
H  -13.36100 32.70700 43.96200
H  -14.45700 33.42300 42.71300
H  -9.43400 33.99500 40.26400
H  -5.30600 33.07000 41.16700
H  -5.93300 32.71400 42.75000
H  -5.56800 34.41500 42.29200

