158

Mg 47.45600 16.31600 27.93100
C  45.27000 15.69800 30.68900
C  49.54400 17.77800 30.34300
C  49.09700 17.80700 25.51300
C  45.12300 15.09300 25.87300
N  47.35400 16.76700 30.26000
C  46.46100 16.30700 31.13200
C  46.80900 16.56800 32.61500
C  48.02500 17.57300 32.41100
C  48.38100 17.33900 30.95500
C  47.73100 19.06000 32.73400
C  47.02800 15.23100 33.44000
C  46.69800 15.30600 34.91500
H  46.27600 16.62900 35.62600
N  49.19700 17.41700 27.92800
C  49.96800 17.81100 29.00000
C  51.22100 18.29900 28.48600
C  51.02800 18.47700 27.04600
C  49.69000 17.87600 26.78400
C  52.39200 18.69400 29.34000
C  51.97000 18.99700 25.91700
O  51.68200 19.10200 24.70600
C  53.34300 19.29600 26.31800
N  47.13500 16.51700 26.02700
C  47.90800 17.26700 25.14300
C  47.44900 17.17300 23.63100
C  46.41600 15.98600 23.80000
C  46.15800 15.87000 25.34000
C  46.73700 18.48600 23.14100
C  46.97000 14.62700 23.19600
C  45.94400 13.71600 22.61300
N  45.58300 15.53600 28.14500
C  44.76100 14.96400 27.21800
C  43.58900 14.39800 27.80600
C  43.74100 14.64900 29.19200
C  44.99200 15.35400 29.35000
C  42.43100 13.70800 27.14400
C  43.11500 14.50600 30.48000
O  42.09100 13.91200 30.78500
C  44.05500 15.19900 31.48000
C  43.32200 16.24100 32.29100
O  42.75200 17.19400 31.86500
O  43.31200 15.77700 33.59700
C  42.65200 16.72200 34.55100
H  50.31700 18.32900 30.88300
H  49.49700 18.29300 24.62100
H  44.47700 14.60800 25.13800
H  45.93600 17.07300 33.02900
H  48.90400 17.20800 32.94200
H  46.70900 19.29500 33.03000
H  48.05300 19.64800 31.87500
H  48.33200 19.48500 33.53800
H  48.09900 15.05700 33.33600
H  46.43400 14.42500 33.00800
H  47.63600 15.03400 35.39900
H  46.02600 14.52400 35.26800
H  53.21700 18.04700 29.04200
H  52.20700 18.49400 30.39600
H  52.70800 19.73700 29.33000
H  53.75200 18.37200 26.72900
H  53.46900 20.06000 27.08500
H  53.84900 19.67100 25.42800
H  48.27800 16.86600 22.99300
H  45.42700 16.19100 23.39100
H  47.09500 19.34000 23.71600
H  45.64900 18.42600 23.16800
H  47.00700 18.67800 22.10300
H  47.59100 14.14600 23.95200
H  47.59200 14.96200 22.36500
H  46.19500 13.36500 21.61200
H  45.02300 14.30000 22.60000
H  45.89400 12.84400 23.26500
H  42.22200 14.09200 26.14500
H  41.52300 13.86300 27.72700
H  42.66200 12.64200 27.13400
H  44.41300 14.48400 32.22100
H  42.94200 17.73700 34.28000
H  42.89700 16.47500 35.58400
H  41.58200 16.54800 34.43500
Mg 48.21100 44.18400 43.20500
C  44.77800 44.22000 42.72200
C  48.07000 40.70700 42.52700
C  51.46200 44.19400 43.46200
C  48.22800 47.66000 42.98300
N  46.54900 42.56300 42.47800
C  45.23400 42.86300 42.57800
C  44.40600 41.61700 42.52300
C  45.49600 40.46000 42.61000
C  46.80500 41.24700 42.45200
C  45.44300 39.61600 43.87500
C  43.55300 41.55100 41.23400
C  44.12200 42.23500 40.00800
H  43.77600 41.54600 38.71300
N  49.61200 42.62600 42.97300
C  49.32900 41.27100 42.81800
C  50.59500 40.59500 42.75700
C  51.62900 41.55300 43.07200
C  50.94600 42.89000 43.17600
C  50.81200 39.12000 42.50500
C  53.15200 41.27300 43.34000
O  53.64300 40.18300 43.37100
C  54.06500 42.40900 43.72500
N  49.61300 45.71100 43.07500
C  50.85700 45.44200 43.41500
C  51.77400 46.68000 43.52800
C  50.78000 47.83900 43.16600
C  49.46900 47.07700 43.07100
C  52.55500 46.95600 44.78200
C  51.09400 48.61500 41.85000
C  51.87000 49.97100 42.07400
N  46.84500 45.69300 42.89600
C  46.97800 47.05600 42.93400
C  45.68700 47.71300 42.87300
C  44.74700 46.62500 42.87400
C  45.52400 45.40700 42.85800
C  45.46700 49.21600 42.92400
C  43.29800 46.24900 42.92600
O  42.34500 46.96200 43.00100
C  43.27800 44.65400 42.75500
C  42.24400 44.18400 43.69100
O  41.25900 43.60500 43.28800
O  42.53100 44.47800 44.97700
C  41.63400 44.06600 46.02600
H  47.95400 39.62500 42.43000
H  52.51200 44.35400 43.71200
H  48.30800 48.74700 42.90700
H  43.68400 41.75000 43.33000
H  45.51700 39.77800 41.76000
H  46.01700 38.70400 43.70800
H  44.41600 39.28900 44.03700
H  45.85600 40.11100 44.75400
H  42.61800 42.04600 41.49500
H  43.40200 40.48600 41.05600
H  45.20400 42.30000 40.12100
H  43.75500 43.26100 39.97200
H  51.39600 38.85400 41.62300
H  49.93300 38.49600 42.34300
H  51.05700 38.65100 43.45800
H  54.33800 43.20000 43.02600
H  55.05300 42.00900 43.95800
H  53.66700 42.86200 44.63300
H  52.51600 46.59300 42.73500
H  50.71900 48.60900 43.93400
H  52.22100 46.28600 45.57400
H  52.42300 47.95400 45.20100
H  53.60000 46.70700 44.59700
H  50.16100 48.85600 41.34100
H  51.79600 48.04200 41.24400
H  51.23100 50.83800 41.90500
H  52.63900 49.92400 41.30300
H  52.30600 50.11100 43.06300
H  44.63200 49.46400 42.26900
H  46.37900 49.70900 42.58800
H  45.26000 49.53200 43.94700
H  42.81300 44.37300 41.81000
H  42.10200 43.27500 46.61100
H  40.68200 43.65800 45.68700
H  41.38600 44.87900 46.70800

