158

Mg 25.43400 2.41700 29.64400
C  27.59800 2.28900 32.41100
C  22.77100 2.42200 31.88900
C  23.47800 2.44500 27.01500
C  28.17000 1.47600 27.59800
N  25.25100 2.48800 31.88900
C  26.28900 2.58300 32.79100
C  25.79500 2.78400 34.22300
C  24.20900 2.71500 34.06000
C  24.03300 2.57900 32.50800
C  23.63200 1.48200 34.89500
C  26.44700 4.08900 34.84000
C  27.14400 3.96500 36.23100
H  26.70500 4.75700 37.54300
N  23.42300 2.51600 29.44400
C  22.50700 2.40600 30.42800
C  21.17700 2.32100 29.85800
C  21.31700 2.35300 28.46900
C  22.79500 2.47500 28.23400
C  19.93600 2.22100 30.70100
C  20.29700 2.22600 27.32500
O  20.56100 2.04100 26.17200
C  18.87300 2.25800 27.59500
N  25.70800 1.75300 27.58300
C  24.78400 2.18900 26.68900
C  25.33800 2.17900 25.28700
C  26.86200 1.92200 25.45900
C  26.91800 1.74400 26.98400
C  24.53200 1.07600 24.47900
C  27.74300 3.13200 24.86400
C  27.93000 4.42500 25.83900
N  27.43000 1.84700 29.93700
C  28.37100 1.47500 28.96800
C  29.63500 1.28500 29.69200
C  29.35600 1.66900 31.03700
C  28.01800 1.91700 31.10300
C  30.89200 0.71200 29.15500
C  29.85900 1.76500 32.37500
O  31.03100 1.58600 32.80000
C  28.71700 2.12400 33.30200
C  28.67400 1.02200 34.22000
O  28.17200 -0.06200 34.03700
O  29.15400 1.40300 35.43300
C  28.82000 0.52700 36.62600
H  21.88000 2.55600 32.50500
H  22.79400 2.62400 26.18300
H  28.88800 1.34800 26.78500
H  26.16100 1.87400 34.69900
H  23.71300 3.60800 34.43900
H  22.64600 1.21400 34.51400
H  23.56000 1.90900 35.89500
H  24.38500 0.70800 34.74100
H  25.73200 4.88800 35.03900
H  27.08500 4.60300 34.12200
H  28.20100 4.20800 36.11700
H  27.22100 2.91000 36.49300
H  20.14000 2.13000 31.76700
H  19.45600 1.29100 30.39700
H  19.28100 3.09100 30.64100
H  18.47500 1.33500 28.01700
H  18.41400 2.39800 26.61600
H  18.77700 3.06200 28.32400
H  25.15400 3.18800 24.91800
H  27.11000 0.97400 24.98100
H  23.85600 0.52200 25.13000
H  25.12300 0.33900 23.93400
H  23.96300 1.62100 23.72600
H  27.28500 3.47500 23.93600
H  28.60500 2.62700 24.42700
H  28.08100 4.15800 26.88500
H  27.00400 4.99800 25.78400
H  28.81800 4.98400 25.54400
H  30.49900 -0.07100 28.50500
H  31.56300 0.23200 29.86600
H  31.40300 1.47000 28.56200
H  28.93900 2.98800 33.92900
H  27.77200 0.46700 36.92000
H  29.45700 0.78000 37.47400
H  29.23100 -0.45100 36.37500
Mg -6.17300 25.51300 26.13500
C  -4.64300 26.68800 28.94900
C  -8.33500 23.84800 28.00500
C  -7.18300 23.85300 23.32100
C  -3.62900 27.10800 24.16100
N  -6.22400 25.10300 28.21100
C  -5.64300 25.82500 29.25000
C  -6.28700 25.42400 30.58800
C  -7.26000 24.24600 30.23800
C  -7.30400 24.38600 28.72400
C  -6.75800 22.83100 30.63300
C  -6.89900 26.62100 31.43000
C  -6.74500 26.60900 32.93600
H  -6.12400 25.33500 33.61600
N  -7.60900 24.03700 25.67800
C  -8.41000 23.51600 26.58700
C  -9.26400 22.57200 26.04300
C  -8.88300 22.46300 24.66800
C  -7.83300 23.44100 24.47100
C  -10.35700 21.81500 26.90400
C  -9.47900 21.58700 23.60400
O  -9.06500 21.70200 22.43700
C  -10.71500 20.83500 23.88800
N  -5.57900 25.58900 24.10600
C  -6.06900 24.68500 23.13300
C  -5.33600 24.74300 21.80800
C  -4.29500 25.87800 22.03000
C  -4.53100 26.27200 23.49900
C  -4.71200 23.38700 21.42800
C  -4.30600 27.02000 20.92200
C  -3.02400 27.38700 20.17600
N  -4.59600 26.79800 26.42000
C  -3.69200 27.35100 25.55500
C  -2.87500 28.32200 26.30400
C  -3.22400 28.05600 27.65900
C  -4.15000 27.06100 27.69700
C  -1.74600 29.21100 25.84300
C  -2.89500 28.42800 29.02800
O  -2.07500 29.27400 29.48000
C  -3.89300 27.55600 29.94100
C  -3.14600 26.80300 30.92500
O  -2.74700 25.63000 30.83300
O  -2.89100 27.51300 32.05900
C  -1.96400 27.00800 33.06600
H  -9.13600 23.49100 28.65600
H  -7.55600 23.34800 22.42800
H  -2.89300 27.70500 23.61900
H  -5.44100 25.12100 31.20600
H  -8.19100 24.42800 30.77500
H  -6.02100 23.08800 31.39400
H  -6.30200 22.40500 29.73900
H  -7.58500 22.23000 31.01000
H  -7.97800 26.64200 31.27700
H  -6.53100 27.53500 30.96400
H  -7.70800 26.77100 33.42100
H  -6.23100 27.54300 33.16300
H  -10.30700 22.14600 27.94200
H  -10.11300 20.75700 26.81400
H  -11.33100 22.09300 26.50300
H  -10.53800 19.92700 24.46500
H  -11.11300 20.55400 22.91300
H  -11.50200 21.45100 24.32200
H  -5.98400 25.11700 21.01500
H  -3.26900 25.51200 22.08400
H  -5.03500 22.64900 22.16100
H  -3.63200 23.27300 21.33400
H  -5.09100 23.13600 20.43700
H  -4.54600 27.96700 21.40400
H  -5.06600 26.83400 20.16300
H  -2.17700 26.79500 20.52200
H  -2.74000 28.43500 20.07900
H  -3.11200 27.28400 19.09400
H  -2.23800 30.16900 25.67100
H  -1.38500 28.94000 24.85100
H  -1.09800 29.34500 26.70900
H  -4.50600 28.23700 30.53000
H  -1.66600 25.96300 32.97700
H  -2.50600 27.12200 34.00500
H  -1.09100 27.64200 33.22200

