158

Mg 48.17400 35.13300 27.56800
C  46.22400 33.27900 29.82900
C  48.54400 37.50200 29.99900
C  49.71700 36.95600 25.21800
C  47.00600 32.94500 25.01600
N  47.48700 35.28900 29.61400
C  46.82200 34.36300 30.36300
C  46.94600 34.59700 31.83100
C  47.31900 36.14500 31.89800
C  47.85600 36.35700 30.40400
C  46.12100 37.13300 32.30000
C  48.06900 33.66500 32.35100
C  48.07800 33.38400 33.85000
H  47.20300 34.29900 34.79900
N  49.08800 36.95500 27.64800
C  49.17700 37.76600 28.75200
C  50.20400 38.76900 28.46000
C  50.63000 38.66000 27.10300
C  49.90200 37.44500 26.62700
C  50.67600 39.82600 29.55900
C  51.57600 39.46300 26.26500
O  51.79100 39.07300 25.09500
C  52.21100 40.66800 26.83800
N  48.24700 35.03500 25.36300
C  49.05200 35.90600 24.70600
C  48.96400 35.61500 23.21900
C  48.41900 34.10700 23.13000
C  47.83100 33.99400 24.59000
C  48.01800 36.58700 22.42700
C  49.39200 32.94300 22.75800
C  50.45400 32.43000 23.64000
N  46.99900 33.42700 27.36400
C  46.57800 32.65300 26.30200
C  45.56400 31.70400 26.67900
C  45.26300 31.99700 28.04700
C  46.24400 32.93800 28.43200
C  44.94500 30.65600 25.73500
C  44.43100 31.63400 29.26500
O  43.53400 30.83800 29.46600
C  45.13400 32.51600 30.48600
C  45.70200 31.34700 31.33700
O  46.45900 30.50000 30.84500
O  45.18200 31.35000 32.58000
C  45.74200 30.39000 33.51600
H  48.79500 38.10900 30.87100
H  50.07800 37.56000 24.38300
H  46.64400 32.20000 24.30500
H  46.06400 34.39000 32.43700
H  48.20300 36.29800 32.51700
H  46.29900 37.68100 33.22500
H  45.14000 36.66400 32.37900
H  46.05200 37.87400 31.50400
H  49.07600 34.03300 32.15500
H  47.84600 32.73400 31.82900
H  49.09700 33.46600 34.22800
H  47.72700 32.36700 34.02600
H  51.66000 39.53400 29.92500
H  49.96800 39.91800 30.38200
H  50.83900 40.78200 29.06100
H  53.02100 40.39700 27.51400
H  51.46500 41.30200 27.31700
H  52.72200 41.32600 26.13500
H  49.94500 35.55500 22.74800
H  47.57500 33.87500 22.48100
H  47.33400 36.95100 23.19400
H  47.59000 36.14600 21.52700
H  48.61400 37.44400 22.11300
H  49.83200 33.21900 21.80100
H  48.90800 32.01700 22.44600
H  51.29500 32.09700 23.03300
H  50.12500 31.56000 24.20800
H  50.72800 33.15200 24.41000
H  44.20800 29.99200 26.18600
H  45.65800 29.95100 25.30600
H  44.44700 31.24600 24.96500
H  44.38900 33.06300 31.06400
H  46.75400 30.11900 33.21600
H  45.05200 29.55300 33.62100
H  45.77900 30.96600 34.44000
Mg 31.44000 58.44500 40.60700
C  28.51300 56.73800 39.39700
C  33.36100 55.85400 39.47400
C  34.23500 60.26300 41.33100
C  29.35700 61.22500 41.04900
N  31.00300 56.61000 39.56500
C  29.74000 56.08800 39.08700
C  29.88700 54.79300 38.41300
C  31.33800 54.33400 38.85800
C  31.94900 55.63500 39.42000
C  31.31800 53.18700 39.85800
C  29.67800 55.07500 36.86700
C  28.60300 54.18200 36.27800
H  27.63400 54.77200 35.22800
N  33.45500 58.08700 40.48000
C  34.05900 56.93800 40.07700
C  35.47000 57.05700 40.19800
C  35.76800 58.33700 40.73000
C  34.44800 58.96600 40.91500
C  36.40100 55.92900 39.69300
C  37.14400 58.87300 41.09500
O  38.11000 58.16900 40.98600
C  37.36600 60.15500 41.73100
N  31.75400 60.50600 41.10400
C  33.00100 60.94400 41.43500
C  32.86300 62.48000 41.47700
C  31.32000 62.79100 41.74600
C  30.76800 61.38600 41.34700
C  33.60500 63.11500 42.72300
C  30.74600 63.89500 40.87800
C  29.62400 64.87500 41.43000
N  29.37400 58.83800 40.38500
C  28.67000 60.03900 40.62700
C  27.28300 59.83300 40.26500
C  27.11300 58.49200 39.92600
C  28.45500 57.96700 39.95200
C  26.15200 60.92800 40.22500
C  26.25300 57.52400 39.48000
O  25.03000 57.55400 39.35200
C  27.13300 56.24500 39.02400
C  26.63600 55.13100 39.90400
O  27.05600 54.90500 41.03700
O  25.59000 54.41300 39.31900
C  24.71100 53.49200 40.08300
H  33.88200 54.89400 39.46200
H  35.06200 60.91900 41.61200
H  28.60800 62.00500 41.20100
H  29.28200 53.98000 38.81400
H  31.97600 54.03500 38.02600
H  30.44300 53.29100 40.49800
H  32.18200 53.04500 40.50700
H  31.28200 52.31400 39.20600
H  30.61800 54.94200 36.33200
H  29.38300 56.11900 36.76400
H  27.99100 53.63100 36.99200
H  29.12500 53.36000 35.78600
H  36.28500 56.05700 38.61700
H  36.09000 54.91800 39.95600
H  37.47200 55.94500 39.89500
H  38.36200 60.15200 42.17500
H  36.68600 60.28700 42.57200
H  37.35900 60.99000 41.03000
H  33.09400 62.86200 40.48300
H  31.01800 62.99400 42.77300
H  34.43600 63.73700 42.39000
H  34.09400 62.36300 43.34200
H  33.07800 63.74400 43.44100
H  30.56500 63.46400 39.89400
H  31.54100 64.60900 40.65700
H  28.70800 64.65400 40.88200
H  30.13800 65.82700 41.29300
H  29.47400 64.67800 42.49100
H  25.87100 61.18400 41.24600
H  25.31200 60.39300 39.78000
H  26.41300 61.79300 39.61500
H  26.96600 56.08100 37.96000
H  24.98500 52.44900 39.92800
H  23.68000 53.52700 39.73300
H  24.73400 53.71900 41.14900

