158

Mg 47.54700 34.83400 27.92100
C  45.47300 33.51300 30.40600
C  48.34300 37.41900 30.08500
C  49.21400 36.27600 25.46800
C  46.50100 32.24700 25.86900
N  47.00000 35.34000 30.00600
C  46.24200 34.66800 30.85400
C  46.57100 35.04400 32.26300
C  47.00700 36.59700 32.04700
C  47.48500 36.43000 30.62500
C  45.84800 37.71900 32.04900
C  47.76900 34.19400 32.84900
C  47.97000 34.33200 34.34100
H  47.13400 35.35700 35.11000
N  48.62100 36.60900 27.78200
C  48.86100 37.53900 28.75700
C  49.71500 38.57300 28.31400
C  50.05800 38.22200 26.92100
C  49.34200 36.98400 26.68100
C  50.12300 39.75800 29.10800
C  50.91100 38.97100 25.93500
O  51.05000 38.55300 24.76300
C  51.62300 40.28800 26.29500
N  47.75700 34.39800 25.89900
C  48.53500 35.11000 25.07600
C  48.48100 34.52000 23.63400
C  47.82300 33.13900 23.84600
C  47.37400 33.21700 25.30400
C  47.77900 35.42200 22.57300
C  48.58400 31.82000 23.52500
C  50.11400 31.80600 23.63500
N  46.24900 33.26000 28.04700
C  45.93600 32.25200 27.09800
C  44.97300 31.28100 27.69300
C  44.73000 31.73700 28.96800
C  45.48500 32.96100 29.08400
C  44.37600 30.00200 26.98000
C  43.97600 31.56400 30.18600
O  43.17300 30.73000 30.54700
C  44.38000 32.70100 31.08100
C  44.71400 32.21500 32.40600
O  45.65800 31.41700 32.59700
O  43.84300 32.73700 33.31500
C  44.03600 32.32100 34.75000
H  48.57600 38.15800 30.85400
H  49.76300 36.64700 24.60100
H  46.20600 31.42500 25.21300
H  45.74000 34.88100 32.95000
H  47.76800 36.94800 32.74400
H  44.92700 37.20700 32.32900
H  45.63800 38.25400 31.12300
H  46.06100 38.43700 32.84000
H  48.68000 34.53800 32.35900
H  47.67300 33.14200 32.57800
H  49.00700 34.56100 34.58700
H  47.71500 33.35800 34.75700
H  50.70100 39.34600 29.93500
H  49.29700 40.25600 29.61400
H  50.79000 40.43900 28.58000
H  52.35300 39.99500 27.04900
H  50.96200 41.09700 26.60500
H  52.13100 40.56700 25.37200
H  49.46400 34.30200 23.21700
H  46.88500 33.02800 23.30300
H  47.65200 36.41600 23.00300
H  46.76500 35.08900 22.35300
H  48.39300 35.63100 21.69700
H  48.55600 31.75300 22.43700
H  48.15000 30.91900 23.95900
H  50.49000 31.86900 22.61400
H  50.43100 30.82400 23.98700
H  50.47800 32.49000 24.40100
H  44.83400 30.05800 25.99200
H  43.29100 29.97900 27.07400
H  44.76900 29.14100 27.52100
H  43.41800 33.21000 31.02400
H  43.16900 31.82800 35.18800
H  44.24800 33.22500 35.32100
H  44.87400 31.62500 34.76800
Mg 1.47900 42.89700 26.09400
C  3.53400 43.11600 28.91900
C  -0.99100 41.63400 28.39500
C  -0.46600 41.67600 23.54700
C  4.20200 43.09700 23.94900
N  1.29400 42.39900 28.45600
C  2.25700 42.66000 29.34500
C  1.70500 42.50100 30.79900
C  0.23400 41.87100 30.64800
C  0.15200 42.00300 29.08300
C  -0.10900 40.47600 31.30800
C  1.72700 43.84500 31.49100
C  1.84800 43.97000 33.04100
H  1.88400 42.58700 33.80100
N  -0.51900 42.01200 25.96100
C  -1.32500 41.61100 27.02600
C  -2.58800 41.17100 26.48000
C  -2.51600 41.13800 25.04800
C  -1.12500 41.62000 24.74300
C  -3.79900 40.86200 27.30500
C  -3.47200 40.63100 24.02100
O  -3.30100 40.62900 22.81300
C  -4.65600 39.99600 24.52800
N  1.77200 42.57600 24.07100
C  0.81500 42.11500 23.25100
C  1.31000 42.13200 21.77800
C  2.74000 42.82200 21.83100
C  2.96800 42.76600 23.35400
C  1.18500 40.71800 21.02800
C  2.77700 44.35500 21.24200
C  2.51500 45.62200 22.08800
N  3.46500 43.19400 26.31900
C  4.42500 43.33000 25.36700
C  5.68800 43.76800 25.99000
C  5.41200 43.62500 27.37200
C  4.02300 43.25800 27.54100
C  6.99100 43.83300 25.32200
C  6.04300 43.62500 28.61400
O  7.21300 43.71400 28.90700
C  4.89200 43.36300 29.69600
C  5.31500 42.26200 30.55200
O  5.26600 41.06400 30.32400
O  5.65100 42.81300 31.73600
C  6.09900 41.94600 32.83000
H  -1.74300 41.35800 29.13700
H  -0.98000 41.42200 22.61800
H  4.94100 43.39500 23.20300
H  2.36500 41.81600 31.33100
H  -0.53000 42.49000 31.11700
H  0.87500 40.15900 31.65300
H  -0.55300 39.72600 30.65300
H  -0.71500 40.54700 32.21100
H  0.82100 44.42800 31.32400
H  2.57000 44.41500 31.10100
H  1.00200 44.51500 33.45800
H  2.76900 44.52300 33.22300
H  -4.71300 41.30000 26.90600
H  -3.65500 41.36000 28.26400
H  -3.82400 39.78200 27.45300
H  -4.94600 39.34900 23.70100
H  -5.42200 40.76000 24.66000
H  -4.57800 39.35900 25.40900
H  0.60100 42.73200 21.20700
H  3.49400 42.16100 21.40300
H  2.09100 40.11100 21.02900
H  0.91900 40.93400 19.99400
H  0.35200 40.14500 21.43500
H  1.94900 44.40700 20.53600
H  3.74300 44.49900 20.75900
H  1.95000 46.36500 21.52600
H  3.44200 46.04900 22.47200
H  1.87000 45.45000 22.95000
H  6.91300 44.38500 24.38500
H  7.36600 42.82500 25.14600
H  7.72900 44.28400 25.98500
H  4.76400 44.23600 30.33600
H  5.36500 42.10800 33.61900
H  7.03900 42.38200 33.17000
H  6.13900 40.89800 32.53100

