158

Mg 16.80700 -2.04000 27.54900
C  16.03600 0.29300 30.00300
C  18.32100 -3.99400 30.02500
C  18.35500 -3.78000 25.18900
C  15.98800 0.38300 25.09400
N  17.19600 -1.83600 29.75600
C  16.63100 -0.88700 30.57700
C  16.83600 -1.19400 32.08600
C  17.59600 -2.57900 32.01100
C  17.80000 -2.81300 30.49400
C  18.91100 -2.59600 32.81200
C  15.52400 -1.31000 32.87800
C  15.33600 -0.29000 34.01700
H  16.61400 0.09100 34.78500
N  17.82100 -3.78500 27.56200
C  18.29600 -4.48400 28.66800
C  19.09700 -5.62100 28.30000
C  19.29200 -5.52800 26.85000
C  18.51800 -4.29300 26.51800
C  19.64200 -6.61300 29.33200
C  20.06300 -6.41400 25.99800
O  20.15600 -6.11500 24.81000
C  20.69300 -7.66300 26.45900
N  17.05400 -1.73700 25.43700
C  17.77800 -2.57500 24.74400
C  17.87000 -2.20400 23.24000
C  17.05600 -0.93100 23.16300
C  16.59500 -0.75700 24.61700
C  19.32100 -2.02600 22.69800
C  15.88300 -0.95000 22.11400
C  15.99700 0.13000 21.03100
N  16.06400 -0.11700 27.52000
C  15.68800 0.74700 26.50000
C  15.11900 1.99400 27.03100
C  15.13500 1.78200 28.40000
C  15.80700 0.57900 28.66000
C  14.81100 3.24400 26.35100
C  14.83400 2.47000 29.70400
O  14.25600 3.56800 29.92700
C  15.45300 1.49200 30.77900
C  16.57000 2.34000 31.48900
O  17.76900 2.36800 31.10900
O  16.09500 2.92400 32.61000
C  16.86300 4.06100 33.06300
H  18.77900 -4.63300 30.78300
H  18.91800 -4.41700 24.50300
H  15.81400 1.22300 24.41900
H  17.52100 -0.41000 32.40800
H  16.90900 -3.30100 32.45300
H  18.93600 -1.68300 33.40600
H  19.73900 -2.60000 32.10300
H  18.88200 -3.48800 33.43800
H  15.42300 -2.21800 33.47200
H  14.70100 -1.14600 32.18300
H  14.67700 -0.75700 34.74800
H  14.81800 0.56000 33.57200
H  20.72700 -6.57400 29.23600
H  19.28500 -7.58400 28.98900
H  19.35300 -6.54600 30.38000
H  20.05300 -8.28700 27.08400
H  21.54200 -7.41300 27.09600
H  21.20200 -8.01200 25.56000
H  17.52700 -3.02000 22.60300
H  17.75600 -0.11500 22.98300
H  19.50000 -1.24000 21.96400
H  19.58700 -3.00900 22.30900
H  19.92200 -1.86100 23.59200
H  14.89200 -0.80300 22.54500
H  15.93300 -1.93800 21.65700
H  16.22600 1.03600 21.59400
H  15.03400 0.29300 20.54800
H  16.76100 -0.04900 20.27400
H  15.35800 3.24800 25.40800
H  15.09900 4.06000 27.01400
H  13.75900 3.22900 26.06800
H  14.76000 1.19600 31.56700
H  17.10400 4.72300 32.23100
H  17.80200 3.84400 33.57200
H  16.27700 4.59800 33.80800
Mg 26.63600 50.22300 26.36300
C  24.54400 51.58400 28.83700
C  28.80400 49.35100 28.84900
C  28.80900 49.06400 23.99400
C  24.53400 51.50600 23.94100
N  26.68200 50.54400 28.60800
C  25.73600 51.07800 29.40400
C  26.06400 50.91600 30.83300
C  27.59300 50.51300 30.84000
C  27.70600 50.06400 29.32600
C  28.60300 51.54500 31.36000
C  25.16700 49.86400 31.61300
C  24.46800 50.40500 32.96100
H  25.41700 51.09500 33.97800
N  28.44300 49.23300 26.42600
C  29.18400 48.96500 27.54100
C  30.45400 48.26900 27.16900
C  30.48600 48.24600 25.75000
C  29.21600 48.78900 25.35200
C  31.44800 47.75400 28.20200
C  31.53400 47.70000 24.81000
O  31.47900 47.81800 23.64300
C  32.66200 46.89100 25.30600
N  26.69300 50.31900 24.28200
C  27.68000 49.77500 23.49900
C  27.36700 49.80300 21.99600
C  25.95300 50.52300 21.95300
C  25.66000 50.79000 23.53600
C  28.44400 50.61100 21.13200
C  24.85000 49.65000 21.30700
C  23.56200 50.39800 20.89600
N  24.80900 51.37100 26.32000
C  24.09800 51.79700 25.26400
C  22.96800 52.54300 25.74900
C  23.04200 52.44300 27.18300
C  24.22400 51.73500 27.45800
C  21.80400 53.04600 25.05100
C  22.49100 52.83700 28.40200
O  21.56300 53.59000 28.65400
C  23.35300 52.27300 29.54600
C  23.90300 53.38300 30.33500
O  24.96800 53.96900 30.08900
O  23.07200 53.73200 31.38700
C  23.58300 54.80000 32.20200
H  29.43900 49.05900 29.68800
H  29.46700 48.72600 23.19100
H  23.92700 51.79200 23.07900
H  25.90000 51.90300 31.26400
H  27.70800 49.73400 31.59400
H  28.09100 52.43700 31.72300
H  29.35600 51.73700 30.59700
H  29.16500 51.09300 32.17700
H  25.84200 49.03100 31.81000
H  24.42000 49.40400 30.96500
H  23.90300 49.64000 33.49400
H  23.73400 51.16300 32.69000
H  31.47200 46.68100 28.39100
H  31.38600 48.24300 29.17400
H  32.42600 48.01000 27.79500
H  33.53300 47.44400 25.65700
H  32.91200 46.24900 24.46100
H  32.41800 46.12900 26.04600
H  27.32500 48.77000 21.64900
H  26.17900 51.46200 21.44900
H  28.64400 49.99000 20.25900
H  29.30100 50.81700 21.77400
H  28.21200 51.60500 20.75000
H  24.57200 48.71500 21.79400
H  25.30100 49.24500 20.40100
H  22.85100 50.15400 21.68500
H  23.15600 50.00900 19.96200
H  23.56100 51.48700 20.84500
H  21.83600 54.13400 25.00000
H  20.91400 52.89400 25.66200
H  21.71000 52.71500 24.01600
H  22.71900 51.63500 30.16200
H  23.77500 55.70200 31.62100
H  24.48700 54.49000 32.72600
H  22.87000 54.98400 33.00600

