158

Mg 30.97500 58.42200 41.33500
C  28.11100 56.74300 39.77400
C  32.96500 56.30900 39.69100
C  33.41300 60.41900 42.22100
C  28.50800 60.96200 42.37800
N  30.53800 56.79600 39.76600
C  29.35100 56.16100 39.39200
C  29.67600 55.03100 38.46200
C  31.23200 54.82400 38.62000
C  31.61300 56.10700 39.42600
C  31.65500 53.57800 39.47800
C  29.24300 55.35100 36.93300
C  28.14600 54.43600 36.19800
H  27.26100 55.11700 35.18100
N  32.92700 58.25800 41.18600
C  33.59100 57.33200 40.42000
C  34.99500 57.51600 40.59100
C  35.18400 58.69400 41.41400
C  33.80700 59.18900 41.67000
C  36.05500 56.55500 40.13200
C  36.41900 59.28600 41.89000
O  37.47900 58.69500 41.72300
C  36.43000 60.60500 42.56100
N  30.88600 60.42500 42.17000
C  32.09900 60.96800 42.47700
C  31.96000 62.35600 42.99800
C  30.41400 62.49700 43.28500
C  29.88600 61.19900 42.55900
C  32.90000 62.75400 44.09400
C  29.75900 63.76800 42.63600
C  28.58200 64.45100 43.37800
N  28.84100 58.72600 41.26500
C  28.05200 59.81800 41.67600
C  26.64900 59.47000 41.45800
C  26.64700 58.33800 40.64300
C  27.95300 57.83300 40.54400
C  25.41200 60.20000 41.86100
C  25.77000 57.38600 39.95300
O  24.56800 57.46800 39.75200
C  26.67000 56.27500 39.33700
C  26.24100 54.98700 39.87100
O  26.65900 54.47900 40.92800
O  25.32500 54.44200 39.01100
C  24.84200 53.05200 39.32700
H  33.61100 55.57600 39.20300
H  34.12500 61.16400 42.58200
H  27.67000 61.61100 42.63600
H  29.15100 54.14700 38.82500
H  31.74900 54.79200 37.66100
H  32.49900 52.98300 39.13000
H  30.85200 52.84800 39.58400
H  31.92100 53.91000 40.48100
H  30.09000 55.49400 36.26200
H  28.78800 56.34100 36.91600
H  27.57700 53.94200 36.98600
H  28.85500 53.79300 35.67800
H  36.71400 57.21500 39.56800
H  35.67300 55.77700 39.47200
H  36.63700 56.09200 40.92900
H  35.79200 60.52600 43.44100
H  35.99600 61.30100 41.84300
H  37.40500 60.90500 42.94400
H  32.20800 62.92900 42.10400
H  30.09300 62.38700 44.32100
H  33.68500 63.43900 43.77200
H  33.43300 61.90500 44.52100
H  32.24000 63.21000 44.83200
H  29.39000 63.47500 41.65300
H  30.48900 64.57000 42.52800
H  27.60800 64.03900 43.11500
H  28.55300 65.51500 43.14000
H  28.70200 64.23700 44.44000
H  24.70600 59.40400 42.09500
H  25.15200 60.74900 40.95600
H  25.39800 60.83700 42.74600
H  26.63000 56.16600 38.25400
H  25.66000 52.33400 39.27300
H  24.13300 52.66800 38.59400
H  24.31100 52.99700 40.27700
Mg 6.97300 53.47100 41.24500
C  6.31400 50.16100 40.43600
C  9.87000 53.27400 39.34100
C  7.18000 56.86100 41.39700
C  3.50500 53.76300 42.38000
N  7.89800 51.98400 40.05400
C  7.50700 50.66900 39.90000
C  8.52000 49.98200 38.83700
C  9.79800 50.80300 39.11000
C  9.15100 52.10300 39.52600
C  10.72900 50.33600 40.24100
C  7.94900 50.14800 37.31300
C  8.23200 48.95100 36.49000
H  7.42000 48.67200 35.26900
N  8.46700 54.82300 40.61000
C  9.52000 54.54200 39.81300
C  10.24500 55.71900 39.56600
C  9.59400 56.87100 40.28500
C  8.36000 56.22500 40.83400
C  11.42900 55.65900 38.55900
C  10.12500 58.30800 40.34800
O  11.12900 58.65200 39.74300
C  9.56300 59.37000 41.36500
N  5.51800 55.11300 41.73400
C  5.93500 56.37300 41.80600
C  4.73400 57.24100 42.18900
C  3.65000 56.25200 42.76600
C  4.24200 54.91800 42.21900
C  5.05900 58.45100 43.11400
C  2.13800 56.52600 42.26700
C  1.19200 56.45800 43.48200
N  5.28500 52.24100 41.44400
C  3.98500 52.43600 41.97900
C  3.32700 51.21200 42.05900
C  4.15700 50.24700 41.48800
C  5.32700 50.94500 41.11200
C  1.99300 50.88600 42.54400
C  4.33200 48.79900 41.19600
O  3.62700 47.83000 41.48700
C  5.79700 48.79800 40.45900
C  5.70800 48.00100 39.29100
O  4.80500 48.17200 38.44300
O  6.59100 46.90500 39.25600
C  6.43200 45.94900 38.18400
H  10.81100 53.16000 38.79800
H  7.12000 57.94600 41.28700
H  2.52200 53.92900 42.82700
H  8.71700 48.94300 39.10200
H  10.39900 50.90600 38.20700
H  10.69300 51.04100 41.07100
H  11.74100 50.21500 39.85500
H  10.36000 49.44000 40.74000
H  8.42400 51.00900 36.84300
H  6.88300 50.25000 37.51600
H  8.11400 48.04900 37.09000
H  9.22200 49.23000 36.12900
H  11.29000 54.98000 37.71800
H  12.26600 55.22400 39.10500
H  11.81600 56.59300 38.15000
H  9.04200 58.96400 42.23200
H  8.93200 60.03800 40.77800
H  10.43100 59.91400 41.73900
H  4.33600 57.63200 41.25300
H  3.71400 56.21600 43.85400
H  4.82800 59.38900 42.60900
H  6.13900 58.34900 43.21500
H  4.54600 58.43700 44.07500
H  1.80100 55.87600 41.45900
H  2.04000 57.52300 41.83700
H  1.70100 56.35000 44.44000
H  0.49200 55.63000 43.37600
H  0.65500 57.40000 43.37400
H  1.36200 50.28000 41.89300
H  1.35500 51.76900 42.50900
H  2.16900 50.49500 43.54600
H  6.50500 48.31200 41.13100
H  6.41100 45.00300 38.72400
H  7.33100 45.81300 37.58300
H  5.49200 46.00700 37.63500

