158

Mg 45.56000 5.09500 48.24900
C  43.41700 7.75100 47.46600
C  42.96000 2.89900 47.92600
C  47.84500 2.69900 48.49900
C  48.28100 7.44400 47.87000
N  43.41900 5.27400 47.77400
C  42.75700 6.52000 47.52100
C  41.24800 6.22900 47.40600
C  41.07800 4.74200 47.86600
C  42.57300 4.26500 47.85700
C  40.36100 4.50000 49.24900
C  40.51600 6.56900 46.06400
C  39.49300 7.71600 46.13600
H  38.68700 7.86400 44.85400
N  45.43700 3.00900 48.15000
C  44.24800 2.29200 48.05200
C  44.55100 0.91100 48.28300
C  45.95100 0.79200 48.35900
C  46.49100 2.19700 48.35000
C  43.46900 -0.15300 48.33400
C  46.68200 -0.53800 48.49000
O  46.17600 -1.67500 48.56000
C  48.13600 -0.55500 48.58900
N  47.80200 5.12100 48.01300
C  48.43500 3.96000 48.33900
C  49.96200 4.13200 48.40900
C  50.13500 5.64600 48.19700
C  48.67100 6.14100 48.01800
C  50.43700 3.58500 49.80000
C  51.08000 6.04800 46.96500
C  52.41800 6.72500 47.30200
N  45.84400 7.16000 47.89100
C  46.97100 7.93700 47.82700
C  46.57900 9.27800 47.42200
C  45.21000 9.28100 47.40100
C  44.79000 7.93600 47.60700
C  47.53100 10.43400 47.28200
C  44.00800 10.05700 47.13600
O  43.90000 11.26000 46.88900
C  42.78000 9.09100 47.14900
C  41.89700 9.58500 48.25200
O  41.76000 9.10500 49.38600
O  41.05900 10.54800 47.72100
C  39.98100 11.10900 48.66800
H  42.06900 2.27500 47.83100
H  48.60700 1.93400 48.65800
H  49.20600 8.00000 48.04000
H  40.81700 6.78800 48.23700
H  40.49900 4.19900 47.11800
H  39.91100 5.39000 49.68800
H  41.14200 4.20800 49.95000
H  39.64200 3.68900 49.13200
H  40.16500 5.69300 45.51900
H  41.20400 7.06700 45.38000
H  39.90900 8.67800 46.43500
H  38.71700 7.34700 46.80700
H  43.56100 -0.84700 47.49900
H  42.46400 0.26000 48.42100
H  43.63400 -0.70900 49.25700
H  48.45600 -0.13200 47.63700
H  48.34400 -1.62300 48.52200
H  48.58200 -0.06800 49.45600
H  50.37500 3.50300 47.62000
H  50.56700 6.13100 49.07200
H  50.51300 2.49700 49.77900
H  49.74800 3.81900 50.61100
H  51.39900 4.02500 50.06200
H  50.55200 6.78400 46.35800
H  51.22600 5.19500 46.30200
H  52.64000 6.68100 48.36900
H  52.33900 7.76800 46.99600
H  53.23300 6.20500 46.80000
H  48.32400 10.22400 46.56500
H  47.94100 10.55300 48.28500
H  46.79200 11.19600 47.03400
H  42.24000 9.00200 46.20600
H  39.86000 12.17700 48.49000
H  40.28600 11.01500 49.71000
H  39.02800 10.58100 48.63400
Mg 54.56100 24.44500 44.37900
C  51.49300 26.16800 44.09900
C  52.67000 21.45600 44.14900
C  57.23900 22.87700 43.17300
C  56.18000 27.53100 43.84900
N  52.32700 23.89200 44.05700
C  51.29900 24.76600 44.01700
C  50.03000 24.00100 44.30500
C  50.43300 22.55400 44.59200
C  51.89700 22.60000 44.16800
C  50.26600 22.06200 46.06400
C  48.96100 24.10400 43.07400
C  49.38900 23.46400 41.74800
H  49.82300 24.36700 40.55600
N  54.96000 22.42700 43.84300
C  54.04700 21.38700 43.90500
C  54.82200 20.21700 43.55400
C  56.12000 20.63500 43.02100
C  56.15100 22.01400 43.32700
C  54.23200 18.81000 43.52600
C  57.16300 19.77800 42.37700
O  57.02000 18.56900 42.47000
C  58.35000 20.24700 41.55600
N  56.35900 25.05400 43.44300
C  57.36000 24.23500 43.33800
C  58.65200 24.98600 42.84700
C  58.33400 26.48600 43.08000
C  56.84600 26.38000 43.49800
C  59.88200 24.42300 43.54900
C  58.47100 27.27400 41.77300
C  59.61200 28.31900 41.76700
N  54.01400 26.48600 44.21600
C  54.79700 27.58200 44.13200
C  53.95500 28.71900 44.43400
C  52.68600 28.18900 44.46800
C  52.75600 26.84000 44.22100
C  54.47100 30.15200 44.67300
C  51.31000 28.48900 44.66900
O  50.76300 29.53600 45.01200
C  50.52600 27.33400 44.23200
C  49.83800 27.76100 42.94800
O  50.39800 27.94400 41.88700
O  48.46100 27.75200 43.02700
C  47.54300 28.00500 41.88000
H  52.10000 20.53000 44.25200
H  58.18100 22.41200 42.87400
H  56.66600 28.50900 43.87100
H  49.58600 24.45700 45.19000
H  49.87900 21.84300 43.98100
H  49.75100 21.10300 46.00800
H  49.74600 22.88000 46.56300
H  51.17600 21.94300 46.65300
H  48.93100 25.16900 42.84300
H  47.91500 23.90900 43.31400
H  48.57200 22.82700 41.41000
H  50.22500 22.80700 41.98800
H  54.50500 18.21600 42.65400
H  53.14400 18.79800 43.46200
H  54.55100 18.20000 44.37100
H  57.91400 21.12400 41.07700
H  58.74800 19.39100 41.01000
H  59.01600 20.60800 42.34000
H  58.75000 24.79100 41.77900
H  58.83600 26.97200 43.91600
H  60.68100 24.45800 42.80900
H  59.70700 23.46000 44.02800
H  60.18000 25.10800 44.34300
H  57.60000 27.88700 41.53900
H  58.71100 26.65700 40.90700
H  59.12900 29.27400 41.56200
H  60.40000 28.14300 41.03600
H  60.03700 28.38500 42.76900
H  55.23800 30.18300 45.44600
H  53.68100 30.75700 45.11700
H  54.91900 30.66500 43.82200
H  49.84300 27.01800 45.02100
H  46.67300 28.45600 42.35800
H  47.25900 27.01200 41.53100
H  47.91400 28.58500 41.03500

