158

Mg 47.60000 16.48200 28.75500
C  45.73700 16.25600 31.67500
C  49.91700 18.50600 30.58300
C  49.11600 17.16100 25.87200
C  45.01300 14.96300 27.04200
N  47.71800 17.28900 30.82500
C  46.90200 16.97500 31.87300
C  47.31600 17.53800 33.25000
C  48.58900 18.42300 32.79800
C  48.76200 18.06900 31.31100
C  48.39100 19.95000 33.04900
C  47.78000 16.32700 34.20000
C  47.19900 16.36900 35.57500
H  46.94300 17.77800 36.22300
N  49.28200 17.67400 28.31100
C  50.12100 18.41500 29.19500
C  51.23000 18.93400 28.45000
C  51.00400 18.46600 27.07500
C  49.80200 17.66500 26.99600
C  52.41000 19.65600 29.06300
C  51.95000 18.62300 25.80700
O  51.75500 18.14700 24.73600
C  53.18900 19.61500 25.90900
N  47.06100 16.14800 26.82400
C  47.88500 16.49800 25.79600
C  47.36000 16.16100 24.40000
C  46.22400 15.18700 24.78000
C  46.06300 15.45900 26.27300
C  46.81100 17.30600 23.54900
C  46.55800 13.70600 24.50600
C  45.72000 13.04900 23.41600
N  45.72200 15.72800 29.23800
C  44.80700 15.07000 28.44600
C  43.64600 14.64000 29.24400
C  43.97300 15.10200 30.51800
C  45.25400 15.69600 30.46200
C  42.50900 13.90500 28.83500
C  43.47100 15.14300 31.92600
O  42.50400 14.55300 32.43900
C  44.67400 15.95000 32.67600
C  44.04900 17.09500 33.28200
O  43.96000 18.24200 32.84600
O  43.51000 16.72600 34.49300
C  42.74600 17.77400 35.10100
H  50.67700 19.07800 31.12000
H  49.53400 17.32600 24.87600
H  44.24200 14.40400 26.50800
H  46.55800 18.23700 33.60300
H  49.52900 18.07200 33.22500
H  48.62200 20.40500 32.08500
H  49.13900 20.35100 33.73300
H  47.36700 20.23500 33.29100
H  48.82700 16.31800 34.50300
H  47.65000 15.39900 33.64300
H  47.85500 15.75600 36.19300
H  46.25000 15.85300 35.43200
H  53.32100 19.09200 28.86100
H  52.34900 19.74900 30.14700
H  52.54400 20.64300 28.61900
H  52.85500 20.63200 26.11400
H  53.54900 19.52800 24.88400
H  54.01800 19.19500 26.47800
H  48.15400 15.70300 23.81000
H  45.29400 15.40500 24.25600
H  45.75000 17.13700 23.36500
H  47.35100 17.37400 22.60500
H  46.82500 18.19400 24.18100
H  46.41300 13.11400 25.40900
H  47.56800 13.40300 24.23000
H  46.41100 12.35900 22.93100
H  45.29000 13.72500 22.67800
H  44.90500 12.40200 23.74000
H  41.64500 14.56500 28.91800
H  42.21000 13.09400 29.49800
H  42.67800 13.63700 27.79200
H  44.94300 15.16200 33.37900
H  43.38900 18.61800 35.35000
H  42.26200 17.52300 36.04500
H  41.94100 18.16200 34.47700
Mg 36.49300 49.19000 24.45400
C  36.42300 47.22000 27.56200
C  34.95800 51.71800 26.30600
C  36.17700 50.82600 21.68900
C  37.37200 46.26600 22.85300
N  35.83200 49.41600 26.73600
C  36.10500 48.57000 27.79900
C  35.59400 49.18300 29.10400
C  34.81300 50.47200 28.59200
C  35.22900 50.59300 27.14800
C  33.27100 50.68900 28.90100
C  36.72900 49.46300 30.20100
C  36.50000 48.85700 31.56900
H  35.01600 48.90200 32.24700
N  35.89800 51.12800 24.07500
C  35.28800 52.00900 25.00200
C  34.97800 53.22300 24.20400
C  35.42500 53.09500 22.83400
C  35.84600 51.68100 22.81500
C  34.34100 54.50400 24.83300
C  35.48900 54.00000 21.71700
O  35.88000 53.66900 20.61900
C  35.05500 55.45000 21.88900
N  36.87000 48.61200 22.55700
C  36.65500 49.51700 21.57900
C  36.88600 48.85100 20.21500
C  37.30100 47.45400 20.58600
C  37.04600 47.41200 22.06200
C  35.82800 48.88600 19.05200
C  38.82600 47.07300 20.22400
C  39.97200 47.61000 21.03000
N  36.85600 47.20200 25.02600
C  37.30200 46.10800 24.23300
C  37.53400 44.92900 24.99700
C  37.20200 45.40000 26.29800
C  36.75700 46.70900 26.26100
C  38.03000 43.62500 24.46600
C  37.17800 44.94600 27.70500
O  37.45400 43.89200 28.21800
C  36.68900 46.09900 28.47600
C  35.50300 45.62300 29.24900
O  34.34800 45.54500 28.84300
O  35.90200 45.17000 30.50000
C  34.87500 44.58400 31.36900
H  34.47400 52.59400 26.74200
H  35.97600 51.30700 20.72900
H  37.68500 45.38500 22.29000
H  34.96100 48.35100 29.41200
H  35.18900 51.26400 29.23900
H  32.72500 50.88600 27.97800
H  33.09400 51.42500 29.68500
H  32.89500 49.84100 29.47300
H  36.97300 50.52300 30.26500
H  37.66100 49.03500 29.83300
H  37.20400 49.42600 32.17500
H  36.87800 47.83500 31.59400
H  35.00000 55.36400 24.70500
H  34.15400 54.53600 25.90600
H  33.40800 54.70600 24.30700
H  33.97200 55.43000 22.00400
H  35.36400 55.98400 20.99000
H  35.63000 55.84200 22.72800
H  37.76600 49.34400 19.80000
H  36.56000 46.76000 20.18900
H  35.62100 49.94600 18.90100
H  34.94500 48.43900 19.50800
H  36.22700 48.40800 18.15700
H  39.07300 47.22000 19.17200
H  38.92900 45.98800 20.24600
H  39.68400 48.61100 21.35000
H  40.93700 47.71800 20.53600
H  40.29500 46.95900 21.84200
H  38.78800 43.84600 23.71400
H  37.20400 42.98400 24.15600
H  38.50500 43.05600 25.26500
H  37.48900 46.54900 29.06500
H  35.27600 44.13100 32.27600
H  34.24900 43.86400 30.84200
H  34.15300 45.33200 31.69600

