158

Mg 53.40300 24.77700 44.97400
C  50.66200 26.75000 44.13800
C  51.71800 22.14800 43.49300
C  56.31400 22.96400 44.72600
C  55.21500 27.48500 45.88400
N  51.43500 24.49100 43.76600
C  50.43100 25.41600 43.59200
C  49.30300 24.83200 42.64300
C  49.48600 23.35500 43.03400
C  50.99200 23.27400 43.46200
C  48.51100 22.92700 44.16700
C  49.69600 25.10500 41.14400
C  48.56500 25.23600 40.07900
H  47.95600 23.94800 39.54400
N  53.90400 22.75500 44.36700
C  53.03900 21.92600 43.73000
C  53.74600 20.65800 43.51700
C  55.10000 20.85400 43.94000
C  55.17000 22.22400 44.33100
C  53.21600 19.41300 42.85600
C  56.18800 19.74500 43.90100
O  55.94400 18.68400 43.39200
C  57.47800 19.89500 44.45100
N  55.45800 25.20400 45.19400
C  56.42800 24.29500 45.20800
C  57.79200 24.80300 45.69900
C  57.43000 26.29400 45.93800
C  55.93800 26.38600 45.61600
C  58.24700 23.95000 46.95500
C  58.14900 27.33900 45.09600
C  58.40700 28.70400 45.72300
N  52.99100 26.75100 45.14600
C  53.86700 27.78400 45.50200
C  53.10200 28.98800 45.58700
C  51.83700 28.61100 45.01600
C  51.84200 27.23600 44.81100
C  53.51700 30.35100 46.00700
C  50.59600 29.10700 44.59800
O  50.09700 30.24600 44.61900
C  49.75200 27.95000 44.10200
C  48.97100 28.23900 42.80800
O  49.40400 28.41200 41.69900
O  47.63600 28.30700 43.02200
C  46.77000 28.38600 41.81500
H  51.13100 21.31100 43.10700
H  57.28200 22.46900 44.62500
H  55.63800 28.43600 46.21600
H  48.27200 25.13800 42.82100
H  49.23200 22.68700 42.21000
H  48.91800 22.47700 45.07200
H  47.91500 22.11100 43.75700
H  47.70400 23.62700 44.38300
H  50.22300 24.25200 40.71600
H  50.26400 26.03500 41.13200
H  48.96900 25.92800 39.34000
H  47.67500 25.70300 40.50100
H  53.81800 19.17900 41.97900
H  52.21000 19.55600 42.46100
H  53.23900 18.62800 43.61200
H  58.04700 18.97200 44.55900
H  57.39300 20.40800 45.40900
H  58.04500 20.48100 43.72700
H  58.51300 24.61100 44.90400
H  57.43500 26.45900 47.01500
H  59.25700 23.63700 46.68600
H  57.73300 22.99900 47.09400
H  58.34400 24.63700 47.79500
H  57.61300 27.59200 44.18100
H  59.13300 26.93300 44.86200
H  59.45400 28.99300 45.81000
H  57.88500 28.74000 46.67900
H  57.91800 29.47400 45.12700
H  53.03900 31.11300 45.39100
H  54.59900 30.42300 45.89400
H  53.19900 30.52700 47.03500
H  49.04200 27.77700 44.91000
H  46.87000 27.42200 41.31600
H  47.01000 29.12600 41.05200
H  45.75900 28.45400 42.21700
Mg 30.28100 59.97000 39.30100
C  27.23900 58.35400 38.04900
C  32.01900 57.25400 38.21400
C  33.14600 61.66000 39.75000
C  28.25700 62.79200 39.76600
N  29.67500 58.10300 37.98800
C  28.42400 57.61900 37.78600
C  28.58600 56.31800 37.02100
C  29.94500 55.82000 37.51700
C  30.60700 57.12200 37.95400
C  30.02300 54.70600 38.64600
C  28.29200 56.53400 35.47900
C  27.14200 55.74900 34.78400
H  26.25400 56.41700 33.81600
N  32.33600 59.50600 39.04200
C  32.80300 58.32700 38.65200
C  34.19600 58.37400 38.65800
C  34.62000 59.61000 39.15900
C  33.38300 60.33800 39.38000
C  35.09000 57.30800 38.02700
C  36.03800 60.05500 39.39900
O  36.94100 59.33900 39.06000
C  36.32200 61.27000 40.13500
N  30.63400 61.93000 39.62000
C  31.86800 62.37700 39.83400
C  31.80100 63.94600 39.82100
C  30.29600 64.21200 40.19600
C  29.66000 62.88500 39.88000
C  32.81500 64.68200 40.79900
C  29.68600 65.42800 39.47000
C  28.83600 66.39900 40.43200
N  28.13000 60.52100 39.05300
C  27.51600 61.70100 39.33800
C  26.05300 61.56400 39.16000
C  25.88100 60.18700 38.67600
C  27.18100 59.64400 38.64800
C  24.90300 62.60000 39.22000
C  24.89800 59.24900 38.21000
O  23.66700 59.33300 38.11200
C  25.80600 57.94600 37.84000
C  25.26700 56.83500 38.58200
O  25.72300 56.43600 39.67300
O  24.18600 56.32200 37.93400
C  23.49400 55.22500 38.61000
H  32.55600 56.37900 37.84100
H  33.98900 62.35400 39.73300
H  27.68000 63.70900 39.89700
H  27.94000 55.51600 37.38000
H  30.53700 55.44700 36.68100
H  30.79800 55.03100 39.34000
H  30.39300 53.76300 38.24300
H  29.12500 54.66900 39.26400
H  29.17500 56.26400 34.89800
H  28.02800 57.59000 35.43100
H  26.44400 55.26500 35.46800
H  27.59400 54.86500 34.33400
H  34.57400 56.68600 37.29500
H  35.59900 56.79500 38.84300
H  35.92500 57.72200 37.46100
H  37.25900 61.24300 40.69100
H  35.57000 61.27700 40.92400
H  36.27600 62.19700 39.56300
H  32.05600 64.38100 38.85400
H  30.22000 64.30300 41.28000
H  33.50800 64.01900 41.31700
H  32.24000 65.17300 41.58300
H  33.32800 65.44700 40.21600
H  29.04100 65.11200 38.65100
H  30.55800 66.03400 39.22500
H  28.74700 66.01600 41.44900
H  27.83900 66.59900 40.03800
H  29.45400 67.24400 40.73400
H  24.02700 62.11700 38.78800
H  25.27600 63.51400 38.75700
H  24.75000 62.78000 40.28400
H  25.66100 57.69300 36.78900
H  23.99800 54.32300 38.26500
H  22.44500 55.19000 38.31500
H  23.62000 55.30400 39.69000

