158

Mg 36.79600 49.66500 25.67300
C  37.21200 47.48200 28.37700
C  35.41000 51.97700 27.87300
C  35.78700 51.52400 23.13800
C  38.07100 47.35900 23.52100
N  36.26900 49.58500 27.88000
C  36.67000 48.66300 28.81000
C  36.32300 49.14900 30.23400
C  35.65100 50.53800 30.00300
C  35.63300 50.71900 28.45600
C  34.18600 50.64700 30.61300
C  37.61800 49.23100 31.08300
C  37.57200 48.68700 32.51000
H  36.29200 49.13500 33.25700
N  35.79200 51.55000 25.50200
C  35.48900 52.38500 26.52000
C  35.15000 53.80100 25.97800
C  35.33700 53.64900 24.55800
C  35.63100 52.20600 24.32800
C  34.68400 54.92400 26.87400
C  35.13200 54.65600 23.49500
O  35.21600 54.47700 22.30400
C  34.78900 56.04800 23.81700
N  36.90400 49.43200 23.64800
C  36.21400 50.24000 22.79200
C  36.33200 49.77000 21.37500
C  37.39600 48.65400 21.42200
C  37.49800 48.47500 22.92500
C  34.97900 49.44700 20.61900
C  38.72100 48.94400 20.80700
C  39.55500 47.77100 20.07500
N  37.53100 47.81000 25.82500
C  38.01600 46.99600 24.85800
C  38.53200 45.82200 25.46100
C  38.25900 45.97000 26.82200
C  37.52900 47.15100 27.03100
C  39.14400 44.59400 24.82800
C  38.39200 45.32700 28.08600
O  38.96800 44.33100 28.53900
C  37.73200 46.31800 29.14500
C  36.65700 45.64900 29.90900
O  35.49300 45.51300 29.59400
O  37.19300 45.37300 31.13900
C  36.31100 45.07100 32.24100
H  34.98500 52.80000 28.45100
H  35.42300 52.13100 22.30600
H  38.51500 46.63200 22.83700
H  35.50700 48.53000 30.60700
H  36.28800 51.29200 30.46600
H  33.55500 50.18300 29.85500
H  33.97900 51.71400 30.70000
H  34.04900 50.20000 31.59700
H  38.06300 50.22400 31.02700
H  38.33400 48.68500 30.46800
H  38.43700 49.18900 32.94300
H  37.74500 47.61300 32.57500
H  35.46300 55.64400 27.12300
H  34.40800 54.61900 27.88400
H  33.90200 55.49900 26.37800
H  33.71200 56.18800 23.91200
H  35.06900 56.71000 22.99700
H  35.25500 56.42800 24.72600
H  36.80900 50.61400 20.87700
H  36.93100 47.78200 20.96200
H  34.90400 50.10900 19.75600
H  34.12500 49.66900 21.25900
H  34.93500 48.42700 20.23600
H  39.40800 49.23100 21.60300
H  38.69800 49.68700 20.00900
H  40.06500 47.13600 20.79800
H  40.38200 48.13900 19.46700
H  38.83600 47.14800 19.54200
H  38.53900 44.47500 23.92900
H  39.25900 43.74100 25.49700
H  40.14000 44.83400 24.45500
H  38.63200 46.61700 29.68300
H  35.46000 44.50600 31.85700
H  35.79600 45.94900 32.62900
H  36.80200 44.52500 33.04700
Mg 17.36300 52.41000 25.97500
C  19.34200 50.87700 28.41800
C  15.24500 53.58300 28.53700
C  15.33500 53.80900 23.66900
C  19.62500 51.31600 23.58500
N  17.35800 52.36000 28.15800
C  18.26300 51.68500 28.95900
C  17.96600 51.84900 30.42600
C  16.48100 52.28800 30.40100
C  16.34200 52.87000 28.96000
C  15.44800 51.20200 30.76300
C  19.01500 52.81200 31.09600
C  19.25600 52.48600 32.62300
H  18.17700 51.79100 33.47400
N  15.46300 53.47400 26.08200
C  14.78500 53.88300 27.24900
C  13.67600 54.76200 26.85100
C  13.68200 54.86900 25.42000
C  14.86100 54.01900 25.01500
C  12.79800 55.36100 27.87200
C  12.75900 55.63400 24.48300
O  12.80700 55.54500 23.30000
C  11.89300 56.69200 25.04900
N  17.43100 52.47100 23.93800
C  16.47600 53.09200 23.18800
C  16.78500 53.09400 21.66900
C  18.15100 52.25900 21.67400
C  18.43800 52.03700 23.18100
C  15.66900 52.52600 20.81800
C  19.42500 52.98400 20.92800
C  19.90200 54.28900 21.57600
N  19.14800 51.22300 25.93200
C  19.95000 50.89400 24.91500
C  20.97500 50.03800 25.37500
C  20.77100 49.87000 26.76800
C  19.63900 50.71600 27.06000
C  22.06000 49.38000 24.64900
C  21.24200 49.35900 28.01100
O  22.17600 48.63700 28.21100
C  20.28100 49.95000 29.16700
C  19.65000 48.92800 30.02200
O  19.07500 47.93500 29.60000
O  19.96000 49.13600 31.38000
C  19.75500 48.13300 32.35400
H  14.60000 53.93000 29.34800
H  14.75200 54.28000 22.87400
H  20.30200 50.89900 22.83600
H  18.04200 50.85700 30.87300
H  16.43400 53.11100 31.11500
H  14.69800 51.07000 29.98300
H  15.06800 51.44700 31.75400
H  15.87300 50.21100 30.92700
H  18.64000 53.83100 31.19300
H  19.98000 52.85100 30.58900
H  19.46500 53.43200 33.12200
H  20.12800 51.84700 32.76300
H  12.95200 54.74500 28.75800
H  11.74300 55.22200 27.63400
H  13.02800 56.39500 28.12600
H  11.15200 56.32900 25.76300
H  11.29400 57.07400 24.22200
H  12.57700 57.49200 25.33100
H  16.97100 54.10500 21.30500
H  17.96200 51.26600 21.26500
H  14.78300 53.05200 21.17500
H  15.42100 51.48200 21.00700
H  15.76400 52.74000 19.75300
H  19.14900 53.20300 19.89600
H  20.34200 52.39800 20.86800
H  19.74100 55.04000 20.80200
H  20.92400 54.28700 21.95400
H  19.23200 54.62200 22.36900
H  22.26100 50.12400 23.87800
H  21.57600 48.49000 24.24700
H  22.87000 49.23200 25.36200
H  20.75200 50.61700 29.89000
H  18.98800 48.47300 33.04900
H  20.66200 47.99900 32.94400
H  19.46700 47.21600 31.84100

