158

Mg -12.19800 17.24500 40.85700
C  -8.81600 16.22600 40.66600
C  -11.09600 20.51400 40.06700
C  -15.26100 18.16400 39.58800
C  -13.17400 13.92000 40.85300
N  -10.18300 18.26500 40.38000
C  -8.93900 17.64500 40.44200
C  -7.79800 18.60900 40.36100
C  -8.54400 19.98700 40.47900
C  -10.02400 19.60300 40.36300
C  -8.25500 20.83400 41.76700
C  -7.08100 18.36900 38.99800
C  -5.57300 18.15200 39.19800
H  -4.82700 17.08500 38.43800
N  -13.15600 19.10000 40.26900
C  -12.47000 20.32600 39.96100
C  -13.48600 21.29800 39.58500
C  -14.75500 20.61100 39.52600
C  -14.43000 19.24800 39.80600
C  -13.11900 22.66500 39.16700
C  -16.06900 21.26800 39.20100
O  -16.07500 22.47400 39.00100
C  -17.40000 20.55900 39.07900
N  -13.94500 16.17600 40.28700
C  -15.06800 16.82100 39.81300
C  -16.19000 15.77600 39.52600
C  -15.55100 14.45900 40.09100
C  -14.12600 14.84500 40.46100
C  -17.54600 16.26100 40.08400
C  -15.63200 13.26700 39.10700
C  -14.77700 13.16400 37.79300
N  -11.25900 15.41300 40.87000
C  -11.76200 14.15500 40.85700
C  -10.63500 13.16200 41.08600
C  -9.50300 13.93800 40.98700
C  -9.93300 15.25300 40.81200
C  -10.67000 11.62500 41.29800
C  -8.04800 13.86800 40.96400
O  -7.26400 12.87700 41.01700
C  -7.54900 15.36000 40.75800
C  -6.60000 15.64700 41.81700
O  -6.85400 16.25800 42.84300
O  -5.29100 15.31500 41.50100
C  -4.31800 15.42600 42.60900
H  -10.76000 21.55200 40.00800
H  -16.21400 18.41100 39.11500
H  -13.49100 12.87500 40.85300
H  -7.10300 18.44100 41.18400
H  -8.34300 20.57500 39.58300
H  -7.84300 20.10500 42.46500
H  -9.07300 21.43400 42.16700
H  -7.48500 21.59300 41.62500
H  -7.07500 19.26300 38.37400
H  -7.46300 17.46000 38.53500
H  -5.36200 17.91800 40.24200
H  -5.08600 19.12000 39.07400
H  -13.63400 22.97800 38.25900
H  -12.05900 22.78900 38.94400
H  -13.38100 23.36800 39.95900
H  -17.53900 20.29900 38.03000
H  -18.15400 21.31800 39.28700
H  -17.62000 19.69200 39.70100
H  -16.30200 15.56000 38.46300
H  -16.09700 14.25100 41.01200
H  -18.36400 15.54400 40.15300
H  -17.92400 17.06900 39.45700
H  -17.31800 16.42100 41.13800
H  -16.58600 13.44800 38.61100
H  -15.71400 12.32400 39.64800
H  -15.36200 12.78500 36.95500
H  -14.05500 12.36300 37.95800
H  -14.24600 14.07800 37.52800
H  -11.72300 11.41000 41.47600
H  -10.13100 11.21200 42.15000
H  -10.26900 11.12900 40.41300
H  -7.09400 15.36500 39.76700
H  -4.76400 15.42500 43.60300
H  -3.54700 16.14200 42.32200
H  -3.83700 14.45200 42.52100
Mg -4.44400 24.74000 25.92100
C  -2.96300 26.12100 28.84000
C  -6.40800 22.85300 28.01000
C  -5.26400 22.89700 23.23500
C  -2.05800 26.42900 23.99600
N  -4.55200 24.48100 28.15800
C  -3.92100 25.23700 29.12300
C  -4.55200 25.01500 30.49300
C  -5.35900 23.73800 30.22200
C  -5.49200 23.63600 28.69500
C  -4.81800 22.38500 30.77700
C  -5.38400 26.33500 30.93600
C  -5.54300 26.66700 32.42900
H  -5.10400 25.58900 33.39400
N  -5.71200 23.16300 25.65600
C  -6.50000 22.63000 26.63100
C  -7.36400 21.63700 25.93600
C  -6.91600 21.49800 24.63100
C  -5.94100 22.58900 24.42500
C  -8.58000 21.00300 26.64700
C  -7.32600 20.53900 23.55400
O  -6.80800 20.42200 22.45400
C  -8.30900 19.47600 23.92000
N  -3.63500 24.50500 23.93000
C  -4.27100 23.85600 22.98300
C  -3.43400 23.94000 21.67600
C  -2.59400 25.20500 21.89100
C  -2.77000 25.42000 23.38700
C  -2.67100 22.65300 21.29500
C  -2.94400 26.47900 20.98800
C  -1.68600 27.23300 20.43600
N  -2.87700 26.04200 26.27400
C  -1.97100 26.70000 25.41300
C  -1.14700 27.63400 26.16400
C  -1.50300 27.45200 27.53300
C  -2.52200 26.44300 27.53600
C  -0.18200 28.63200 25.58400
C  -1.18500 27.82400 28.84800
O  -0.27800 28.49100 29.35200
C  -2.14500 27.03000 29.77100
C  -1.44900 26.40900 30.83200
O  -0.63000 25.50600 30.67500
O  -1.73700 26.97200 32.05300
C  -1.10500 26.25800 33.22500
H  -7.13300 22.32700 28.63500
H  -5.40400 22.29300 22.33600
H  -1.35400 26.92400 23.32500
H  -3.77400 24.77000 31.21600
H  -6.32800 24.01200 30.64000
H  -3.99300 22.71700 31.40700
H  -4.35900 21.77400 30.00000
H  -5.46900 21.79400 31.42100
H  -6.35700 26.23500 30.45500
H  -5.00600 27.28500 30.55600
H  -6.53400 27.05300 32.66800
H  -4.97700 27.57100 32.65000
H  -9.35700 20.94300 25.88400
H  -8.79700 21.63900 27.50500
H  -8.26700 20.02000 26.99800
H  -8.14700 18.93500 24.85200
H  -8.30700 18.73500 23.12100
H  -9.26100 19.99200 24.04900
H  -4.09600 24.09500 20.82400
H  -1.56700 24.84900 21.81400
H  -1.59400 22.78000 21.18200
H  -2.96600 22.20600 20.34600
H  -2.67400 21.93000 22.11100
H  -3.48500 27.16500 21.64000
H  -3.58000 26.12700 20.17600
H  -1.68400 28.09000 21.11000
H  -1.87400 27.65700 19.44900
H  -0.82500 26.58600 20.60300
H  0.58200 28.81800 26.33900
H  -0.53200 29.61300 25.26100
H  0.29400 28.23700 24.68700
H  -2.81800 27.79900 30.15200
H  -1.47100 26.63800 34.17900
H  -0.02400 26.36700 33.14300
H  -1.31900 25.19300 33.13100

