158

Mg 44.32000 3.18200 48.20200
C  42.11300 5.79900 47.37600
C  41.58500 1.05000 47.58400
C  46.42200 0.56700 48.14600
C  47.08400 5.44400 47.67700
N  42.06700 3.45800 47.41300
C  41.37700 4.59500 47.37700
C  39.87800 4.29100 46.99700
C  39.72600 2.81900 47.38500
C  41.22900 2.37900 47.41000
C  38.98500 2.55600 48.78000
C  39.61300 4.63800 45.50900
C  38.68600 5.80600 45.20900
H  39.03100 6.79400 44.01600
N  44.03400 1.04700 48.11600
C  42.84800 0.38100 47.88500
C  43.16200 -1.00700 47.88900
C  44.51500 -1.20100 47.97700
C  45.08600 0.15600 48.09600
C  42.10900 -2.02500 47.70500
C  45.34100 -2.49800 47.94100
O  44.80500 -3.60700 47.80600
C  46.81900 -2.55400 48.16100
N  46.39400 3.09900 48.07300
C  47.03800 1.89000 48.11600
C  48.59600 2.01600 47.87700
C  48.82800 3.54400 47.99300
C  47.37100 4.06100 47.89700
C  49.43000 1.27900 48.94300
C  49.86900 4.17400 47.06300
C  51.05100 3.24300 46.53900
N  44.57400 5.23100 47.70200
C  45.76400 6.06300 47.61000
C  45.27700 7.39400 47.38000
C  43.89200 7.31600 47.26500
C  43.54000 5.96200 47.43600
C  46.33400 8.51400 47.08800
C  42.82000 8.17600 47.04400
O  42.76500 9.42900 46.98100
C  41.57400 7.18900 47.07700
C  40.70000 7.74700 48.16000
O  40.70500 7.29000 49.29400
O  39.88400 8.75200 47.64500
C  38.66800 9.01900 48.47200
H  40.72600 0.40200 47.39900
H  47.28200 -0.10500 48.09400
H  47.89600 6.16100 47.53600
H  39.34100 4.98200 47.64600
H  39.24500 2.10800 46.71400
H  38.67900 3.46000 49.30800
H  39.72500 2.04000 49.39200
H  38.22900 1.77300 48.71800
H  39.20700 3.77300 44.98500
H  40.61300 4.69900 45.08100
H  38.55000 6.41400 46.10300
H  37.75100 5.36400 44.86200
H  41.17400 -1.64300 47.29600
H  41.99500 -2.61400 48.61500
H  42.32100 -2.83400 47.00500
H  47.42900 -2.05300 47.41000
H  47.10100 -3.60700 48.17400
H  47.03500 -2.16000 49.15400
H  48.93100 1.81700 46.85900
H  49.16000 3.75700 49.00900
H  48.81800 1.02800 49.80900
H  50.21500 1.91500 49.35200
H  49.93200 0.45800 48.43200
H  50.32200 4.97800 47.64300
H  49.39100 4.68200 46.22600
H  51.33900 2.59500 47.36700
H  51.95900 3.78700 46.27800
H  50.72000 2.75400 45.62300
H  47.22900 8.19500 46.55400
H  46.59200 9.00300 48.02700
H  45.82300 9.26300 46.48300
H  41.10600 7.33100 46.10200
H  38.53100 8.66800 49.49500
H  37.81500 8.54700 47.98600
H  38.36800 10.06600 48.42400
Mg -9.50800 39.94900 41.81700
C  -8.58800 36.72800 40.94200
C  -6.48400 41.04100 40.52700
C  -10.57100 43.02500 42.21100
C  -12.65500 38.73100 42.71000
N  -7.77100 39.00500 40.94700
C  -7.65600 37.71700 40.58500
C  -6.32200 37.39700 39.93100
C  -5.57500 38.72700 40.15500
C  -6.66900 39.64400 40.59300
C  -4.33800 38.68300 41.14200
C  -6.32200 36.83700 38.46000
C  -5.16400 35.98300 38.02800
H  -4.29200 36.48600 36.85100
N  -8.66000 41.75900 41.42300
C  -7.41600 42.03900 40.97600
C  -7.18200 43.44300 40.80100
C  -8.30400 44.08200 41.39800
C  -9.25000 42.94100 41.72900
C  -5.93700 44.11400 40.24100
C  -8.49900 45.58800 41.64600
O  -7.56200 46.37900 41.43900
C  -9.91400 46.16300 41.85800
N  -11.42500 40.76800 42.24500
C  -11.58200 42.09800 42.47900
C  -13.06400 42.44800 42.91500
C  -13.67900 41.00000 43.10200
C  -12.54700 40.09600 42.59900
C  -13.07300 43.50400 44.07000
C  -15.01800 40.73200 42.28900
C  -16.24700 40.29800 43.14100
N  -10.42700 38.14100 41.97000
C  -11.68900 37.82100 42.33200
C  -11.76800 36.33200 42.43900
C  -10.58700 35.90400 41.93200
C  -9.82300 37.08400 41.56700
C  -12.96900 35.51400 42.71600
C  -9.75200 34.70800 41.54600
O  -9.99200 33.50700 41.73900
C  -8.38800 35.22400 40.94500
C  -7.27600 34.78100 41.84400
O  -7.07900 35.13500 42.99600
O  -6.48700 33.87400 41.19400
C  -5.38400 33.48000 42.07800
H  -5.49600 41.42500 40.26700
H  -10.92700 44.02600 42.46400
H  -13.67100 38.41500 42.95500
H  -5.94000 36.62300 40.59700
H  -5.04400 39.08100 39.27200
H  -4.16500 37.64000 41.40600
H  -4.45700 39.22100 42.08300
H  -3.44000 39.01100 40.61800
H  -6.39500 37.63900 37.72600
H  -7.29000 36.34400 38.37500
H  -5.55200 34.98000 37.84600
H  -4.41400 35.89600 38.81400
H  -5.36600 43.37900 39.67400
H  -5.32200 44.46100 41.07100
H  -6.19200 44.93500 39.57200
H  -10.54000 45.81200 41.03800
H  -9.83300 47.24900 41.79700
H  -10.30000 45.90400 42.84400
H  -13.62500 42.92000 42.10800
H  -13.89200 40.85800 44.16200
H  -12.14500 44.06300 44.18900
H  -13.41600 43.03900 44.99400
H  -13.80700 44.28400 43.86700
H  -14.94600 39.92600 41.55900
H  -15.14500 41.63100 41.68600
H  -17.19400 40.27300 42.60200
H  -16.33600 41.03300 43.94100
H  -16.04500 39.28400 43.48600
H  -13.58900 35.81700 43.55900
H  -12.80400 34.46300 42.95300
H  -13.68700 35.49100 41.89600
H  -8.24200 34.81900 39.94400
H  -4.88900 34.32600 42.55500
H  -4.70500 32.94900 41.41200
H  -5.71200 32.76300 42.83100

