158

Mg -1.22200 17.16900 26.58900
C  -1.71100 14.98500 29.21700
C  -2.52700 19.79600 28.44900
C  -1.50900 19.03400 23.85400
C  -1.39400 14.33300 24.54900
N  -1.86500 17.34700 28.56800
C  -1.84900 16.40200 29.55700
C  -2.15400 16.96000 30.95200
C  -2.72000 18.33800 30.59300
C  -2.38300 18.47700 29.10500
C  -4.14400 18.60700 31.09900
C  -0.92500 17.02000 31.89600
C  -1.07000 17.52400 33.33800
H  -0.36200 16.78700 34.49000
N  -1.54000 19.20200 26.24800
C  -2.17200 20.10000 27.13100
C  -2.26000 21.41900 26.52600
C  -1.84400 21.21900 25.17700
C  -1.63800 19.73600 25.05100
C  -2.70300 22.77600 27.25200
C  -1.72000 22.26700 24.18000
O  -1.36300 21.95300 23.06900
C  -1.83500 23.76100 24.42200
N  -1.30600 16.69800 24.49400
C  -1.46200 17.68700 23.53900
C  -1.48100 17.18300 22.09100
C  -1.23300 15.60000 22.34500
C  -1.38800 15.53400 23.88300
C  -2.82100 17.55500 21.34100
C  0.11600 15.09400 21.75900
C  1.48500 15.52100 22.46400
N  -1.53500 15.09100 26.82600
C  -1.57700 14.03900 25.88400
C  -1.58600 12.81500 26.48800
C  -1.71800 13.12000 27.87000
C  -1.65100 14.52300 27.96200
C  -1.70000 11.54500 25.92200
C  -1.75000 12.55900 29.23700
O  -1.74100 11.39300 29.62600
C  -1.80300 13.76100 30.14100
C  -0.65100 13.69300 31.09600
O  0.55700 13.85200 30.85300
O  -1.10400 13.11800 32.28400
C  -0.04600 12.69600 33.11200
H  -2.82300 20.51000 29.22000
H  -1.70700 19.67300 22.99100
H  -1.37600 13.45300 23.90400
H  -2.89500 16.32000 31.43100
H  -2.15900 19.01900 31.23300
H  -4.56100 17.68400 31.50100
H  -4.68300 18.82200 30.17700
H  -4.13100 19.34000 31.90500
H  -0.24300 17.66600 31.34200
H  -0.47800 16.02600 31.92300
H  -2.12100 17.66100 33.59300
H  -0.60500 18.51000 33.32400
H  -3.39200 23.29600 26.58600
H  -1.85100 23.42000 27.47100
H  -3.12600 22.55900 28.23300
H  -1.38700 24.08800 25.36100
H  -2.88000 24.04000 24.28300
H  -1.19700 24.27100 23.70100
H  -0.61700 17.66800 21.63700
H  -2.08400 15.04700 21.94700
H  -3.44500 18.08200 22.06300
H  -3.31300 16.68100 20.91500
H  -2.56000 18.29500 20.58500
H  0.12100 15.60000 20.79300
H  0.10300 14.02300 21.55700
H  1.86500 16.28200 21.78300
H  2.05200 14.62200 22.70900
H  1.18600 16.05500 23.36600
H  -1.29900 11.58000 24.90900
H  -2.75700 11.31000 25.79700
H  -1.24700 10.73600 26.49400
H  -2.68400 13.73100 30.78300
H  0.71100 13.41000 33.43500
H  0.47400 11.79100 32.79700
H  -0.41300 12.49000 34.11800
Mg -5.39400 24.69900 26.54600
C  -3.71200 26.46200 29.26100
C  -6.22000 22.36800 28.92500
C  -6.80900 22.85900 24.19200
C  -3.98400 26.90700 24.35400
N  -5.15900 24.55700 28.82000
C  -4.49700 25.35800 29.74700
C  -4.66500 24.95000 31.19500
C  -5.33900 23.57100 30.98600
C  -5.68100 23.51700 29.45200
C  -4.49500 22.28200 31.49800
C  -5.38100 26.06700 32.03900
C  -6.70900 25.84900 32.81700
H  -6.64800 25.28700 34.28700
N  -6.40700 22.88900 26.50300
C  -6.54600 22.06800 27.57900
C  -6.99400 20.80600 27.18300
C  -7.33800 20.97200 25.81000
C  -6.92300 22.33800 25.42100
C  -7.09600 19.68400 28.16200
C  -8.03500 20.01000 24.87800
O  -8.19400 20.28200 23.71000
C  -8.60900 18.72200 25.38800
N  -5.36800 24.77300 24.59100
C  -6.11000 24.02100 23.73000
C  -6.14300 24.56400 22.26800
C  -5.23600 25.85400 22.36300
C  -4.87400 25.92100 23.94300
C  -5.58400 23.56900 21.20400
C  -5.91200 27.14700 21.95700
C  -5.03300 27.86400 20.89200
N  -4.12500 26.38500 26.70800
C  -3.54900 27.19900 25.70200
C  -2.75800 28.25000 26.33800
C  -2.81000 27.96900 27.69200
C  -3.61200 26.78400 27.91100
C  -2.11400 29.34800 25.52400
C  -2.27000 28.38400 28.86600
O  -1.33400 29.18300 29.06500
C  -2.84200 27.45700 29.99900
C  -1.73200 26.83700 30.80700
O  -0.89900 26.03600 30.49200
O  -1.73400 27.41400 32.06200
C  -0.93000 26.78900 33.15900
H  -6.50400 21.61800 29.66600
H  -7.15900 22.28900 23.32900
H  -3.61200 27.66000 23.65700
H  -3.64600 24.76300 31.53400
H  -6.27600 23.50500 31.53900
H  -3.53000 22.57800 31.90800
H  -4.28100 21.67100 30.62100
H  -4.98700 21.61600 32.20600
H  -5.54700 26.91600 31.37600
H  -4.57000 26.37800 32.69600
H  -7.31400 25.24000 32.14500
H  -7.08300 26.87300 32.81800
H  -6.15000 19.70700 28.70200
H  -7.40500 18.70800 27.78800
H  -7.97200 19.86100 28.78700
H  -9.00100 18.28900 24.46800
H  -9.38800 19.06900 26.06800
H  -7.84000 18.09900 25.84500
H  -7.19400 24.78900 22.08600
H  -4.31800 25.66100 21.80900
H  -4.68700 23.04300 21.53400
H  -5.20200 23.93400 20.25100
H  -6.43400 22.91700 21.00500
H  -5.94000 27.83900 22.79800
H  -6.95000 26.90900 21.72500
H  -3.96500 27.79100 21.09700
H  -5.21000 28.90400 21.16500
H  -5.33400 27.75200 19.85100
H  -2.85000 29.93700 24.97700
H  -1.58300 28.85900 24.70700
H  -1.44800 29.92200 26.16800
H  -3.42200 28.07800 30.68100
H  -0.71700 27.52500 33.93400
H  0.04600 26.47900 32.78600
H  -1.46700 25.90600 33.50600

