158

Mg 40.36700 8.89900 29.86800
C  42.12500 10.26600 32.70900
C  38.00100 7.75700 32.05500
C  38.94900 7.40600 27.31000
C  43.12900 9.92200 27.83500
N  40.11400 8.98300 32.05100
C  40.87600 9.68400 33.00300
C  40.32800 9.45800 34.37200
C  39.00700 8.64200 34.21300
C  39.05000 8.44100 32.68700
C  38.87200 7.30400 34.99700
C  40.14400 10.76500 35.24000
C  39.43600 10.52200 36.64100
H  40.34200 10.42200 37.95000
N  38.59500 7.84500 29.69200
C  37.75900 7.51900 30.68200
C  36.69200 6.80600 30.13600
C  36.92400 6.64000 28.73500
C  38.18100 7.27300 28.50400
C  35.48500 6.35000 30.96200
C  36.16700 5.87100 27.71700
O  36.64000 5.60500 26.62900
C  34.74000 5.48200 28.02500
N  41.10000 8.57900 27.92900
C  40.25700 8.00800 27.01900
C  40.90400 7.98700 25.59500
C  42.20400 8.80300 25.79100
C  42.14200 9.16700 27.28400
C  41.16500 6.46800 25.07800
C  42.20700 10.01300 24.76700
C  41.21800 11.14800 24.95500
N  42.23300 9.93900 30.16100
C  43.21300 10.29200 29.22700
C  44.21800 11.08100 29.99600
C  43.86100 11.05400 31.33200
C  42.64200 10.36200 31.42800
C  45.36600 11.73600 29.29700
C  44.30000 11.41000 32.67100
O  45.25900 12.07500 32.95800
C  43.19200 10.93500 33.69700
C  43.71400 9.95000 34.64300
O  43.90700 8.76500 34.40700
O  43.88400 10.56300 35.88100
C  44.46700 9.65700 36.92900
H  37.19600 7.46500 32.73400
H  38.52200 7.07600 26.36100
H  43.97800 10.26300 27.23900
H  41.02900 8.75400 34.82300
H  38.20500 9.36900 34.34400
H  39.67900 7.28000 35.73000
H  39.21300 6.45100 34.41200
H  37.88400 7.15300 35.43100
H  39.57200 11.55200 34.74900
H  41.12500 11.16800 35.49300
H  38.85400 9.60400 36.54800
H  38.75200 11.37100 36.66400
H  34.67000 6.77700 30.37900
H  35.39000 6.73000 31.97900
H  35.43000 5.26100 30.94700
H  34.63000 4.98700 28.99000
H  34.49100 4.70400 27.30400
H  34.11700 6.34400 27.78600
H  40.40200 8.55300 24.81100
H  43.09200 8.17800 25.70500
H  42.16700 6.24500 24.71200
H  40.48600 6.22100 24.26200
H  41.01700 5.70200 25.83800
H  42.07200 9.61100 23.76300
H  43.18900 10.48500 24.72900
H  40.37400 10.91100 25.60300
H  40.88700 11.58800 24.01500
H  41.72000 12.00100 25.41200
H  45.85400 12.50900 29.89100
H  45.07400 12.18400 28.34800
H  46.08000 10.97700 28.97600
H  42.85500 11.89900 34.07900
H  45.41000 10.07800 37.27700
H  44.76800 8.68300 36.54200
H  43.76100 9.47400 37.74000
Mg 48.49400 44.44600 41.93800
C  45.11000 43.62800 41.61200
C  49.26800 41.24500 41.90300
C  51.64500 45.42400 41.43000
C  47.56000 47.94300 41.53300
N  47.33100 42.68600 41.55400
C  45.99500 42.55300 41.64900
C  45.54000 41.05200 41.78900
C  46.91500 40.33300 41.97700
C  47.92100 41.48800 41.84600
C  47.11300 39.52900 43.37400
C  44.58100 40.47700 40.65300
C  44.74800 41.04300 39.26000
H  44.95800 40.05300 38.09300
N  50.20800 43.44100 41.71800
C  50.37300 42.10500 41.80000
C  51.79300 41.77600 41.81500
C  52.54600 42.99500 41.79500
C  51.44500 44.00200 41.67500
C  52.23200 40.32600 41.84800
C  54.10200 43.23300 41.87100
O  54.91100 42.28900 41.85700
C  54.75800 44.61400 41.77700
N  49.43800 46.42400 41.47500
C  50.77800 46.53700 41.49000
C  51.26700 48.02600 41.31600
C  49.85400 48.78300 41.25700
C  48.88400 47.65400 41.45100
C  52.13400 48.36800 42.58900
C  49.59400 49.77300 40.02500
C  49.06600 51.22800 40.40000
N  46.69600 45.63400 41.74900
C  46.47300 46.97800 41.63500
C  44.98500 47.17200 41.55800
C  44.39200 45.88500 41.52800
C  45.45800 44.99500 41.67200
C  44.26600 48.51200 41.57300
C  43.14600 45.11700 41.40600
O  41.97200 45.50200 41.25800
C  43.57800 43.61100 41.60800
C  42.91000 43.11700 42.89400
O  42.20200 42.09500 42.93300
O  43.24400 43.91300 43.90500
C  42.81000 43.47600 45.20500
H  49.44500 40.17900 42.05600
H  52.67600 45.77700 41.49800
H  47.23900 48.98700 41.50300
H  44.96200 40.97000 42.71000
H  47.00400 39.76100 41.05400
H  46.47000 38.65000 43.41600
H  46.73400 40.18400 44.15800
H  48.18000 39.33500 43.49000
H  43.55900 40.48900 41.03000
H  44.85700 39.42300 40.63200
H  45.56800 41.75700 39.18100
H  43.81700 41.59700 39.14400
H  51.87800 39.76500 40.98300
H  51.58700 39.84100 42.58000
H  53.28800 40.12400 42.02800
H  54.49800 44.98700 40.78600
H  55.81100 44.34100 41.83900
H  54.37700 45.22600 42.59400
H  51.79400 48.13200 40.36800
H  49.85300 49.46500 42.10700
H  51.66400 49.16200 43.16900
H  53.13000 48.60600 42.21700
H  52.27300 47.52400 43.26600
H  48.83600 49.30400 39.39800
H  50.51800 49.73800 39.44700
H  49.32500 51.39200 41.44600
H  47.99300 51.34500 40.25200
H  49.66200 52.01600 39.93900
H  43.40200 48.61700 40.91600
H  45.04700 49.19500 41.23800
H  43.94500 48.79700 42.57500
H  43.15800 42.93300 40.86500
H  42.85200 44.29700 45.92000
H  43.45300 42.70800 45.63400
H  41.82000 43.01900 45.19300

