158

Mg 25.80300 1.53900 29.38100
C  27.98700 1.17500 32.12400
C  23.17100 2.05700 31.45500
C  23.95500 1.80400 26.67500
C  28.60300 0.46900 27.39500
N  25.63500 1.59200 31.58800
C  26.63700 1.45200 32.50800
C  26.11700 1.81700 33.90000
C  24.51400 1.94300 33.63300
C  24.40400 1.86100 32.11300
C  23.55200 0.90600 34.36200
C  26.90100 2.99000 34.55600
C  27.52000 2.88800 35.98300
H  26.88500 3.72200 37.03500
N  23.85600 1.79500 29.13300
C  22.92400 1.96200 30.07100
C  21.57500 2.09300 29.45300
C  21.78400 2.11100 28.02500
C  23.21100 1.88500 27.86500
C  20.32000 2.32000 30.33400
C  20.69700 2.30700 26.99000
O  20.91100 2.02900 25.84000
C  19.28400 2.81100 27.33700
N  26.16800 1.04600 27.32300
C  25.28500 1.46700 26.40300
C  25.89100 1.59400 24.98100
C  27.29000 0.88200 25.26600
C  27.38900 0.78200 26.74900
C  25.12200 0.95300 23.80900
C  28.51200 1.67900 24.59900
C  29.77000 0.86500 24.09900
N  27.87200 0.94500 29.63900
C  28.83700 0.50000 28.79200
C  30.03600 0.20100 29.47300
C  29.75900 0.54900 30.84700
C  28.43300 0.91000 30.83800
C  31.31000 -0.26200 28.82500
C  30.28500 0.67000 32.17600
O  31.46600 0.45400 32.49300
C  29.19200 1.14100 33.11100
C  29.02100 -0.03800 34.09200
O  28.19700 -0.92600 33.85300
O  29.85700 0.02800 35.22300
C  29.45600 -0.88000 36.23400
H  22.37500 2.33300 32.14900
H  23.46400 2.07400 25.73700
H  29.38000 0.19400 26.67900
H  26.35500 0.93900 34.50100
H  23.99900 2.87100 33.88200
H  22.78500 1.53700 34.81300
H  24.13600 0.33400 35.08300
H  23.09200 0.25300 33.62100
H  26.11400 3.73100 34.70100
H  27.50800 3.53400 33.83300
H  28.57700 3.12300 35.86400
H  27.42100 1.83000 36.22700
H  19.44800 1.89000 29.84000
H  20.08800 3.38500 30.36900
H  20.42300 1.85700 31.31500
H  18.67900 1.94000 27.59000
H  18.85800 3.41200 26.53300
H  19.29300 3.36000 28.27800
H  26.09400 2.62900 24.70700
H  27.30900 -0.16200 24.95500
H  25.81700 0.30500 23.27400
H  24.76900 1.72800 23.12800
H  24.29900 0.31500 24.13000
H  28.70500 2.43400 25.36200
H  28.13100 2.19800 23.72000
H  29.50800 -0.19200 24.05300
H  30.74900 1.06100 24.53500
H  29.85700 1.04600 23.02800
H  32.18300 -0.39500 29.46300
H  31.67000 0.22700 27.91900
H  31.02900 -1.25700 28.48100
H  29.25900 2.11300 33.59900
H  30.31400 -1.04600 36.88600
H  29.23400 -1.89500 35.90600
H  28.67000 -0.47500 36.87100
Mg 48.69600 15.32400 28.68800
C  46.48400 15.67300 31.38200
C  51.06900 17.13700 30.48000
C  50.51400 15.63400 25.93200
C  46.00400 14.08500 26.60900
N  48.70300 16.27400 30.66300
C  47.73100 16.17300 31.60700
C  48.32000 16.70400 33.00800
C  49.81000 17.23500 32.66100
C  49.88800 16.90200 31.19400
C  50.00000 18.64000 33.14300
C  48.24000 15.49700 34.04100
C  47.72600 15.81400 35.48100
H  47.67300 17.24600 35.96300
N  50.51400 16.25200 28.26000
C  51.34800 16.90600 29.10400
C  52.56800 17.33100 28.40300
C  52.47400 16.74700 27.05500
C  51.16600 16.12000 27.05900
C  53.57500 18.28000 28.99300
C  53.49400 16.85200 25.87800
O  53.19300 16.47800 24.73200
C  54.85600 17.37900 26.13600
N  48.24900 14.87700 26.55300
C  49.25200 15.08200 25.65400
C  48.89600 14.56900 24.29800
C  47.50400 13.88400 24.50100
C  47.22800 14.27700 25.95300
C  48.95900 15.70900 23.15000
C  47.37600 12.33200 24.09500
C  46.19400 12.07700 23.05400
N  46.70400 14.87300 28.90000
C  45.77200 14.37900 27.98400
C  44.48600 14.17300 28.67700
C  44.72300 14.64900 30.02800
C  46.10000 15.06700 30.09500
C  43.23500 13.56500 28.01800
C  44.14900 14.86100 31.30500
O  42.98500 14.60600 31.64400
C  45.28500 15.42400 32.26000
C  44.72600 16.58900 32.94600
O  44.65700 17.74100 32.46800
O  44.24400 16.21600 34.17300
C  43.66700 17.29500 34.89300
H  51.89600 17.60600 31.01700
H  51.26700 15.76100 25.15100
H  45.24400 13.55100 26.03400
H  47.69400 17.53900 33.32400
H  50.59700 16.62400 33.10300
H  51.00300 18.76400 33.55000
H  49.29600 19.05300 33.86600
H  50.05700 19.32600 32.29800
H  49.20000 15.00500 34.19700
H  47.54600 14.71400 33.73500
H  48.24000 15.21500 36.23300
H  46.68600 15.49700 35.56900
H  53.90500 19.10900 28.36700
H  54.41700 17.62900 29.22900
H  53.28800 18.67700 29.96600
H  54.91800 18.46700 26.12400
H  55.50500 16.94500 25.37600
H  55.24000 17.10400 27.11800
H  49.57100 13.75200 24.04300
H  46.84500 14.51800 23.90800
H  48.16500 15.52500 22.42700
H  49.90900 15.61900 22.62300
H  48.85400 16.67600 23.64300
H  47.11000 11.78800 25.00200
H  48.33900 11.96400 23.74200
H  46.61200 11.51700 22.21700
H  45.85700 13.01800 22.62100
H  45.35000 11.53800 23.48500
H  43.14200 14.24200 27.16900
H  42.29400 13.47100 28.56100
H  43.60600 12.58800 27.70800
H  45.45300 14.63900 32.99700
H  44.27800 17.74000 35.67900
H  42.83500 16.89500 35.47300
H  43.23300 18.10000 34.29900

