158

Mg 0.49700 7.65900 26.45300
C  1.39000 9.93300 29.09000
C  0.89000 5.13900 28.63200
C  0.37500 5.49100 23.83700
C  1.11500 10.32700 24.24500
N  0.90200 7.61100 28.70800
C  1.17200 8.60700 29.55300
C  1.33900 8.06000 30.95500
C  1.33900 6.50900 30.70400
C  1.07000 6.37000 29.22400
C  2.70400 5.77300 31.09400
C  0.34700 8.67600 32.03100
C  0.96000 9.18000 33.33500
H  2.15900 8.53400 33.86000
N  0.35400 5.65200 26.27700
C  0.51500 4.75100 27.31700
C  0.44600 3.44800 26.79600
C  0.33500 3.50500 25.38500
C  0.36900 4.92400 25.06700
C  0.33700 2.29600 27.81600
C  0.22200 2.41700 24.31800
O  -0.01000 2.64300 23.11100
C  0.50100 0.98900 24.69200
N  0.78000 7.87500 24.41400
C  0.57400 6.82100 23.52500
C  0.61900 7.34100 22.09600
C  0.54700 8.87800 22.25300
C  0.85800 9.05300 23.71900
C  1.97100 6.90100 21.42000
C  -0.85700 9.37400 21.84700
C  -0.78100 10.64600 20.97200
N  1.19000 9.71300 26.58700
C  1.38400 10.65900 25.59900
C  1.81200 11.95200 26.22500
C  1.79000 11.64800 27.55900
C  1.45700 10.29400 27.76500
C  1.82400 13.22100 25.51100
C  1.86400 12.32200 28.85000
O  2.18700 13.46600 29.00600
C  1.65700 11.15700 29.91100
C  2.95500 11.21500 30.75900
O  3.92500 10.49600 30.51100
O  2.72300 12.07500 31.84500
C  3.87500 12.28100 32.76200
H  1.08200 4.22700 29.20000
H  0.35200 4.79000 23.00100
H  1.24200 11.18600 23.58200
H  2.33400 8.38700 31.25700
H  0.57900 5.96400 31.26200
H  3.42400 6.37500 31.64800
H  3.22100 5.28200 30.27000
H  2.38300 4.96900 31.75600
H  -0.43100 7.95900 32.29700
H  -0.26000 9.39200 31.47600
H  0.19300 9.03400 34.09600
H  1.14200 10.24800 33.21600
H  0.14700 1.35500 27.30100
H  -0.47400 2.46800 28.52300
H  1.29300 2.24000 28.33700
H  -0.47400 0.63400 25.02800
H  1.28700 1.06500 25.44200
H  0.73800 0.39300 23.81000
H  -0.23400 6.90600 21.57600
H  1.33800 9.40600 21.72000
H  2.62300 7.74400 21.19200
H  1.77200 6.40100 20.47300
H  2.47200 6.20000 22.08800
H  -1.35900 9.67100 22.76800
H  -1.49600 8.64700 21.34600
H  -1.68800 10.84200 20.40000
H  0.09000 10.75500 20.32600
H  -0.69800 11.51200 21.62800
H  0.92800 13.43800 24.93000
H  2.61400 13.29100 24.76300
H  1.94600 14.01300 26.25000
H  0.77500 11.37500 30.51300
H  3.51800 12.89600 33.58800
H  4.65100 12.82200 32.21900
H  4.19400 11.35900 33.24700
Mg 16.78300 -2.13800 27.29900
C  16.09600 -0.38100 30.25400
C  18.79400 -4.28000 29.24800
C  18.04400 -3.60300 24.49500
C  15.21500 0.22100 25.40300
N  17.41600 -2.24000 29.55800
C  16.95200 -1.48000 30.57400
C  17.46000 -1.92900 31.94100
C  18.49800 -3.09700 31.51100
C  18.20700 -3.24700 30.01600
C  20.05200 -2.72800 31.84900
C  16.29800 -2.42200 32.87000
C  16.21600 -1.89100 34.35100
H  17.40300 -1.06400 34.95100
N  18.02600 -3.82300 26.95700
C  18.73500 -4.57700 27.85400
C  19.31700 -5.77100 27.19600
C  19.04400 -5.59900 25.83400
C  18.33000 -4.32400 25.68800
C  20.07700 -6.80600 27.97300
C  19.50300 -6.48800 24.71000
O  19.12600 -6.24900 23.59600
C  20.43400 -7.69700 24.95000
N  16.71700 -1.73300 25.26800
C  17.34500 -2.42000 24.31300
C  17.16400 -1.83700 22.88700
C  16.15700 -0.62600 23.17600
C  15.94100 -0.72200 24.70500
C  18.49800 -1.43200 22.23700
C  14.83300 -0.76700 22.43700
C  14.71300 -0.06400 20.97800
N  15.77500 -0.50300 27.70900
C  15.10400 0.33700 26.82600
C  14.35900 1.27500 27.61800
C  14.68400 1.03700 28.97900
C  15.58900 -0.00900 28.97200
C  13.52100 2.42400 27.12900
C  14.48800 1.52500 30.33000
O  13.72800 2.41400 30.70000
C  15.45500 0.62400 31.30600
C  16.53000 1.57900 31.75600
O  17.66300 1.70200 31.23600
O  16.17400 2.24600 32.89400
C  17.06400 3.28500 33.44400
H  19.48000 -4.93300 29.79200
H  18.24400 -4.13300 23.56100
H  14.66600 1.02800 24.91300
H  17.99400 -1.05500 32.31500
H  18.15900 -4.07300 31.86000
H  20.59600 -2.42300 30.95500
H  20.60300 -3.55000 32.30500
H  20.09500 -1.93200 32.59300
H  16.31700 -3.51200 32.87100
H  15.36300 -2.03000 32.46900
H  16.04000 -2.75800 34.98800
H  15.30200 -1.31200 34.47800
H  19.81900 -7.75500 27.50300
H  19.77700 -6.93000 29.01400
H  21.13800 -6.57500 27.89100
H  21.28800 -7.45600 25.58400
H  20.89200 -8.02000 24.01500
H  19.79300 -8.48400 25.34600
H  16.75900 -2.63600 22.26600
H  16.57700 0.33900 22.88900
H  18.45800 -0.37000 21.99500
H  18.80500 -2.02000 21.37200
H  19.30400 -1.61000 22.94900
H  13.95900 -0.48900 23.02700
H  14.76100 -1.84800 22.32300
H  14.51900 -0.89100 20.29500
H  15.64800 0.32800 20.57900
H  13.99900 0.74600 20.83200
H  12.54000 2.16900 27.53000
H  13.56100 2.26000 26.05300
H  13.95500 3.38800 27.39400
H  14.83600 0.18600 32.08900
H  18.06000 3.13900 33.02600
H  17.03200 3.19200 34.53000
H  16.72800 4.26300 33.09900

