158

Mg 8.83100 48.28200 26.69700
C  6.74400 47.98800 29.42400
C  11.50500 48.81700 28.85500
C  10.88800 48.46100 23.98800
C  6.11900 47.94400 24.60400
N  9.13700 48.43400 28.95200
C  8.07600 48.24500 29.80600
C  8.66900 48.28500 31.25100
C  10.16900 48.71800 31.08900
C  10.34000 48.60900 29.59100
C  10.60700 50.09700 31.68200
C  8.45500 46.98900 32.17600
C  9.31800 46.65000 33.32400
H  8.70800 45.84100 34.53700
N  10.85400 48.81600 26.47400
C  11.77500 49.00200 27.47400
C  13.07700 49.35800 26.87500
C  12.98500 48.99000 25.51600
C  11.52700 48.76800 25.22600
C  14.24800 49.87300 27.66900
C  14.12800 48.72700 24.56100
O  13.93600 48.37600 23.39100
C  15.53800 48.71800 25.03900
N  8.54800 48.27700 24.59100
C  9.52700 48.33700 23.63300
C  9.08600 47.79800 22.25600
C  7.53000 47.89100 22.43500
C  7.35200 48.00600 23.96900
C  9.71500 48.59300 21.03400
C  6.69900 46.84600 21.67800
C  5.84500 47.37700 20.51900
N  6.77900 48.06500 26.90800
C  5.79500 47.92300 25.98800
C  4.52400 47.80900 26.60700
C  4.85900 47.79600 27.96700
C  6.25500 47.91500 28.09800
C  3.22500 47.83400 25.89700
C  4.25900 47.66500 29.23600
O  3.09600 47.61900 29.60500
C  5.48500 47.64500 30.24300
C  5.55100 46.24200 30.83900
O  6.03400 45.23300 30.29800
O  4.80800 46.28700 31.98300
C  4.58900 44.96200 32.56000
H  12.41800 48.96600 29.43500
H  11.59000 48.40600 23.15300
H  5.30800 47.66800 23.92700
H  8.01800 49.03100 31.70600
H  10.80100 47.98100 31.58500
H  10.65400 50.79400 30.84500
H  11.56700 50.08200 32.19700
H  9.87700 50.46700 32.40200
H  8.54800 46.11200 31.53500
H  7.42600 47.04800 32.53200
H  9.71800 47.60500 33.66400
H  10.13300 46.02200 32.96500
H  14.65900 50.76600 27.19800
H  14.94600 49.09500 27.98000
H  13.86600 50.25600 28.61600
H  16.24400 48.32300 24.30900
H  15.55400 48.00500 25.86400
H  15.82200 49.71400 25.37800
H  9.37800 46.74800 22.28500
H  7.25100 48.91000 22.16800
H  10.58100 49.20900 21.27500
H  8.85200 49.13800 20.65300
H  10.12100 47.82900 20.37100
H  6.13100 46.12900 22.27100
H  7.43800 46.17500 21.24100
H  4.83200 47.20000 20.88100
H  5.99900 46.77500 19.62300
H  5.86100 48.43900 20.27400
H  3.01800 46.78500 25.68400
H  3.19900 48.37100 24.94900
H  2.32400 48.08100 26.45700
H  5.39000 48.36800 31.05300
H  4.97200 44.90900 33.57900
H  5.05200 44.11100 32.06100
H  3.52600 44.73500 32.63800
Mg -1.57200 34.56000 25.56300
C  -3.45000 33.10800 28.19300
C  -0.55900 36.83500 27.93500
C  -0.17500 36.26500 23.15100
C  -3.27200 32.41900 23.24000
N  -1.96100 34.89700 27.93800
C  -2.65200 34.10200 28.74300
C  -2.52300 34.61200 30.19400
C  -1.61100 35.88800 30.05000
C  -1.39400 35.96800 28.58100
C  -2.01300 37.16800 30.90500
C  -1.99800 33.54100 31.18900
C  -2.71000 33.47900 32.58300
H  -2.12300 32.60800 33.65500
N  -0.49900 36.28000 25.52400
C  -0.22200 37.10200 26.57700
C  0.58600 38.18600 26.11700
C  0.62800 38.14400 24.74700
C  0.01300 36.88800 24.39700
C  1.02700 39.21000 27.07500
C  1.17300 39.10500 23.73400
O  1.13600 38.88000 22.50600
C  1.60300 40.49700 24.24400
N  -1.84000 34.48500 23.49300
C  -0.97000 35.17800 22.70300
C  -1.15600 34.76200 21.24200
C  -2.06100 33.42400 21.35600
C  -2.40400 33.41300 22.77900
C  -1.72800 35.85900 20.29000
C  -1.32200 32.09100 20.85800
C  -0.03400 31.59300 21.48800
N  -3.03900 33.09400 25.66600
C  -3.64600 32.24800 24.62100
C  -4.39600 31.21900 25.28700
C  -4.48000 31.62200 26.61700
C  -3.60900 32.70900 26.83400
C  -5.11700 30.06800 24.60100
C  -4.96100 31.17800 27.91500
O  -5.75000 30.19200 28.19500
C  -4.45600 32.14900 28.96400
C  -5.53800 32.87800 29.49500
O  -6.13000 33.80200 28.95000
O  -5.77100 32.48700 30.79500
C  -6.88800 33.05400 31.55000
H  -0.13000 37.41800 28.75200
H  0.32700 36.65100 22.26100
H  -3.67500 31.70100 22.52300
H  -3.50700 34.97700 30.48600
H  -0.65500 35.57300 30.46900
H  -2.86400 37.06400 31.57800
H  -2.35500 37.90200 30.17500
H  -1.21000 37.56500 31.52600
H  -0.93600 33.67600 31.39100
H  -2.07800 32.64200 30.57800
H  -3.69000 33.03100 32.42000
H  -2.94400 34.49200 32.90900
H  0.27800 39.99900 27.14200
H  2.03700 39.52700 26.81300
H  1.18900 38.75000 28.05000
H  0.96000 40.86700 25.04200
H  1.67700 41.19800 23.41200
H  2.62800 40.54900 24.61000
H  -0.13000 34.60700 20.90900
H  -2.95300 33.38300 20.73100
H  -1.28900 35.85100 19.29200
H  -1.32000 36.79000 20.68400
H  -2.81700 35.87200 20.32500
H  -1.10500 32.27300 19.80600
H  -2.01000 31.25000 20.94600
H  -0.12600 30.82300 22.25400
H  0.50000 32.42600 21.94600
H  0.62700 31.22800 20.70200
H  -4.44700 29.92900 23.75200
H  -6.07300 30.41600 24.20900
H  -5.15700 29.29300 25.36600
H  -4.02900 31.57800 29.78900
H  -6.46800 33.66000 32.35300
H  -7.47900 32.19400 31.86500
H  -7.45800 33.74300 30.92700

