158

Mg 40.67800 8.40100 29.07200
C  42.55600 9.55300 31.76100
C  38.61500 6.84500 31.28300
C  38.96200 7.19900 26.46400
C  42.97800 9.66400 26.89500
N  40.57900 8.29800 31.26800
C  41.31700 9.02900 32.10400
C  40.66800 9.08000 33.52300
C  39.43100 8.06700 33.36800
C  39.53500 7.64500 31.92100
C  39.40900 6.90600 34.40500
C  40.33300 10.56600 34.03200
C  39.32800 10.72300 35.20300
H  40.07500 10.93800 36.49900
N  39.01900 7.18600 28.89500
C  38.33900 6.63500 29.91200
C  37.14900 6.02300 29.41100
C  37.27100 6.12700 27.95700
C  38.42700 6.91100 27.72600
C  35.94600 5.29100 30.17600
C  36.33000 5.55000 26.85000
O  36.56400 5.62600 25.65300
C  35.01100 4.93000 27.26500
N  41.03300 8.38300 26.94900
C  40.08500 7.91300 26.10500
C  40.33900 8.32000 24.68900
C  41.67200 9.16900 24.80700
C  41.85100 9.21700 26.33600
C  40.21500 7.24900 23.60300
C  41.66900 10.51100 23.99700
C  40.48800 11.47600 24.11700
N  42.57300 9.28700 29.24100
C  43.37400 9.73500 28.28400
C  44.60700 10.24700 28.92500
C  44.29000 10.24200 30.31600
C  43.04800 9.64300 30.43100
C  45.80800 10.82600 28.14700
C  44.69500 10.72300 31.61200
O  45.67000 11.39200 32.00700
C  43.56300 10.34700 32.66000
C  44.11100 9.56300 33.87900
O  44.93300 8.64400 33.74700
O  43.61200 10.07900 35.06700
C  44.12200 9.40500 36.26600
H  37.91400 6.32700 31.94000
H  38.37100 7.11400 25.55000
H  43.68500 10.16800 26.23400
H  41.40200 8.60200 34.17200
H  38.47300 8.58800 33.37600
H  38.41000 6.85400 34.83700
H  40.09200 7.08600 35.23600
H  39.64300 5.95700 33.92200
H  39.94800 11.13800 33.18800
H  41.30800 10.99600 34.26200
H  38.63900 9.88300 35.29000
H  38.76900 11.64100 35.02100
H  35.03500 5.77900 29.82900
H  36.08200 5.56500 31.22200
H  35.87400 4.21400 30.02700
H  34.62100 4.50000 26.34200
H  34.30700 5.63100 27.71200
H  35.09600 4.02800 27.87100
H  39.56700 9.09000 24.67900
H  42.50600 8.50900 24.56900
H  39.96100 6.28900 24.05300
H  41.22100 7.11200 23.20700
H  39.56800 7.51400 22.76600
H  41.83600 10.13400 22.98800
H  42.54700 11.04400 24.36200
H  40.00700 11.73300 23.17300
H  40.92700 12.40400 24.48400
H  39.70300 11.12000 24.78400
H  45.77100 10.48300 27.11300
H  46.58400 10.33900 28.73700
H  45.89900 11.91200 28.16500
H  43.14700 11.27400 33.05500
H  45.21000 9.33400 36.29600
H  43.66800 8.46600 36.58300
H  43.85900 10.20700 36.95700
Mg 49.05500 44.83300 43.23800
C  45.55500 44.96700 42.55800
C  48.81600 41.36900 42.57300
C  52.27100 44.71600 43.36000
C  49.03200 48.39100 43.00100
N  47.36700 43.33200 42.59700
C  46.05600 43.61500 42.39900
C  45.19600 42.53800 41.77600
C  46.19000 41.36700 42.12100
C  47.62300 42.02200 42.41300
C  45.70400 40.43800 43.29900
C  44.96200 42.66600 40.24000
C  44.25100 41.44100 39.61200
H  43.67300 41.69800 38.20400
N  50.39900 43.23900 43.19700
C  50.12700 41.92200 42.89500
C  51.36900 41.17300 42.78900
C  52.47600 42.13800 43.05600
C  51.74000 43.44700 43.22800
C  51.43500 39.63200 42.45000
C  53.97400 41.79200 43.12400
O  54.38000 40.61800 42.92200
C  54.98200 42.98100 43.17200
N  50.45400 46.37100 42.91100
C  51.75900 46.04000 43.25200
C  52.60000 47.32000 43.52600
C  51.68000 48.50500 43.08800
C  50.32600 47.77600 42.90300
C  53.04000 47.38200 45.12400
C  52.13500 49.13700 41.70000
C  51.71600 50.62200 41.53800
N  47.66700 46.39600 43.02500
C  47.82200 47.77200 43.01900
C  46.53400 48.43900 42.95700
C  45.60600 47.38100 42.79100
C  46.31900 46.12400 42.80400
C  46.39400 49.95400 42.96200
C  44.17800 47.07700 42.60400
O  43.21700 47.86200 42.53000
C  44.11600 45.51600 42.39200
C  43.10900 44.85600 43.26300
O  43.32300 44.08800 44.21000
O  41.88600 45.30800 42.87900
C  40.75500 44.89500 43.73500
H  48.89800 40.28900 42.43400
H  53.35000 44.74400 43.52400
H  48.95700 49.48000 42.99300
H  44.21800 42.30600 42.19800
H  46.47200 40.74400 41.27200
H  44.86100 40.95300 43.75800
H  46.55300 40.32000 43.97200
H  45.32000 39.48100 42.94500
H  45.94400 42.80800 39.78900
H  44.35000 43.55600 40.09300
H  43.48300 41.12600 40.31900
H  44.83000 40.51800 39.59500
H  51.62900 39.51500 41.38400
H  50.49800 39.16000 42.74300
H  52.27900 39.20000 42.98700
H  54.66000 43.69900 42.41900
H  55.99800 42.65600 42.94900
H  55.08600 43.39200 44.17600
H  53.49100 47.33600 42.89900
H  51.53600 49.17300 43.93700
H  53.24900 46.33800 45.35600
H  52.32800 47.92600 45.74500
H  53.99000 47.91500 45.10100
H  51.83500 48.57100 40.81800
H  53.22400 49.16900 41.73500
H  51.69000 50.85000 40.47300
H  52.37300 51.27500 42.11200
H  50.70100 50.61400 41.93700
H  46.69700 50.50300 42.07000
H  46.87200 50.36800 43.85000
H  45.31500 50.01300 43.10800
H  43.62100 45.37300 41.43100
H  41.08800 45.05600 44.76000
H  40.55800 43.84900 43.49900
H  39.84600 45.46700 43.54600

