158

Mg 7.12400 53.31500 40.40700
C  6.46900 49.80100 40.15600
C  10.48200 52.65100 39.93000
C  7.57500 56.60200 40.21200
C  3.62800 53.73200 40.65900
N  8.36700 51.40500 40.13500
C  7.84400 50.11800 40.05200
C  8.94800 49.20100 39.65200
C  10.21300 49.98300 40.12500
C  9.68700 51.48900 40.02300
C  10.62900 49.65700 41.58200
C  8.96700 48.82300 38.11700
C  8.38500 49.80800 37.08500
H  7.55700 49.22200 35.91500
N  8.79500 54.46900 40.05900
C  10.09800 54.00000 39.86900
C  10.96100 55.15900 39.48400
C  10.19600 56.33400 39.65200
C  8.78800 55.81100 40.05300
C  12.37100 55.11300 39.10300
C  10.70800 57.76700 39.50800
O  11.90400 58.04500 39.28100
C  9.75500 58.96500 39.68300
N  5.78800 54.91500 40.45000
C  6.23600 56.20900 40.48100
C  5.05800 57.21200 40.62800
C  3.81500 56.24600 40.53600
C  4.45500 54.87600 40.56000
C  5.13300 58.13000 41.86000
C  3.00500 56.44300 39.19800
C  1.51400 56.23800 39.33600
N  5.36000 52.11400 40.49500
C  4.06500 52.37900 40.68900
C  3.27800 51.15200 40.82200
C  4.25900 50.08700 40.62100
C  5.43300 50.71000 40.47700
C  1.78000 51.04700 41.07900
C  4.41400 48.68500 40.56200
O  3.54400 47.85800 40.75000
C  5.85700 48.38200 40.16500
C  5.73300 47.69200 38.89200
O  5.25900 48.12600 37.86100
O  6.05800 46.37300 39.08500
C  5.95700 45.57300 37.82900
H  11.52500 52.40800 39.71900
H  7.70300 57.68300 40.29600
H  2.56700 53.85500 40.88200
H  8.81100 48.23500 40.13800
H  11.01300 49.71400 39.43600
H  10.17800 48.78200 42.05000
H  10.32100 50.45100 42.26200
H  11.71600 49.60100 41.62100
H  8.39000 47.91100 37.96200
H  9.99000 48.58200 37.82800
H  9.14100 50.34000 36.50800
H  7.77300 50.60400 37.51000
H  12.98300 55.68000 39.80500
H  12.58000 55.36000 38.06200
H  12.69500 54.07600 39.18600
H  10.38800 59.82100 39.44900
H  9.42400 59.09300 40.71400
H  8.93700 58.98000 38.96200
H  5.05600 57.85100 39.74500
H  3.24000 56.49500 41.42800
H  5.25300 59.20100 41.69600
H  6.01600 57.75400 42.37600
H  4.29100 57.87200 42.50200
H  3.46100 55.92200 38.35600
H  3.18100 57.48900 38.94800
H  1.10900 55.67600 38.49400
H  0.90300 57.10300 39.59500
H  1.45400 55.59000 40.20900
H  1.27500 51.97600 40.81600
H  1.61000 50.80500 42.12800
H  1.41900 50.25800 40.41900
H  6.28300 47.69400 40.89600
H  6.71000 46.01700 37.17900
H  4.94800 45.57700 37.41600
H  6.34800 44.57000 38.00000
Mg -12.90200 16.41700 42.63100
C  -10.17900 14.06300 42.33000
C  -10.92500 18.73900 41.08500
C  -15.54500 18.16000 42.11800
C  -14.64300 13.76900 44.00900
N  -10.85800 16.33400 41.69100
C  -9.89100 15.29700 41.80300
C  -8.58800 15.85900 41.19300
C  -8.79900 17.40900 41.08900
C  -10.30700 17.47300 41.33800
C  -7.87100 18.31200 42.07700
C  -8.12000 15.22300 39.83100
C  -6.56600 15.11900 39.61400
H  -6.04500 15.74900 38.29300
N  -13.14100 18.32200 41.87600
C  -12.22800 19.15200 41.29100
C  -12.83200 20.40100 41.07900
C  -14.27300 20.16000 41.15100
C  -14.38000 18.85700 41.77300
C  -12.00400 21.52400 40.63600
C  -15.30500 21.12700 40.58300
O  -14.95200 22.22500 40.07500
C  -16.79900 20.79400 40.63800
N  -14.88500 16.01300 42.99100
C  -15.82400 16.86100 42.65100
C  -17.19800 16.30100 42.95700
C  -16.90200 15.02300 43.77000
C  -15.37800 14.91100 43.58200
C  -18.09300 17.38500 43.69700
C  -17.56800 13.76600 43.28800
C  -17.92100 12.71700 44.26700
N  -12.50200 14.37300 43.09300
C  -13.30600 13.43200 43.72900
C  -12.61000 12.24300 44.01800
C  -11.36300 12.46300 43.42400
C  -11.37600 13.77100 42.89800
C  -13.14500 10.99600 44.63800
C  -10.11100 11.76300 43.11700
O  -9.74700 10.64400 43.39200
C  -9.30400 12.83700 42.28900
C  -7.96400 12.99900 43.00600
O  -7.76900 13.29000 44.19400
O  -6.96100 12.78500 42.15400
C  -5.67400 13.17800 42.70800
H  -10.17500 19.45100 40.73300
H  -16.45500 18.76300 42.11600
H  -15.24700 13.03400 44.54500
H  -7.92200 15.65300 42.03100
H  -8.66000 17.74600 40.06200
H  -8.46700 19.08200 42.56700
H  -7.13400 18.77100 41.41800
H  -7.33300 17.83100 42.89500
H  -8.56000 15.88000 39.08100
H  -8.50600 14.21700 39.66400
H  -6.47700 14.05200 39.81800
H  -5.97700 15.69600 40.32800
H  -12.39700 22.53800 40.55700
H  -11.66400 21.27800 39.63000
H  -11.04700 21.58800 41.15400
H  -17.12200 20.79700 41.67900
H  -17.03900 19.79200 40.28000
H  -17.30400 21.54900 40.03600
H  -17.67800 16.05800 42.00900
H  -17.14000 15.12400 44.82900
H  -17.52600 18.24100 44.06200
H  -18.49500 16.98500 44.62800
H  -18.89600 17.70600 43.03300
H  -16.90400 13.43100 42.49100
H  -18.49600 14.07200 42.80500
H  -17.54100 12.83300 45.28200
H  -17.63700 11.74000 43.87700
H  -19.00300 12.60300 44.32400
H  -12.43100 10.49200 45.28900
H  -13.47000 10.25000 43.91200
H  -14.08400 11.17600 45.16200
H  -9.13400 12.52300 41.25900
H  -5.05200 12.29800 42.87100
H  -5.51000 13.84400 43.55600
H  -5.24900 13.71300 41.85900

