158

Mg 25.45200 1.03100 29.24300
C  27.39600 0.94600 32.23600
C  22.67600 1.16500 31.28900
C  23.59100 0.65800 26.57100
C  28.43100 0.19000 27.47700
N  25.08600 1.04600 31.47100
C  26.03200 1.18100 32.51700
C  25.40600 1.50100 33.85600
C  23.93900 1.35300 33.46400
C  23.86200 1.08600 31.96500
C  23.18700 0.33800 34.33600
C  25.80100 2.93600 34.37500
C  26.50700 2.91900 35.77100
H  25.77900 3.82700 36.80100
N  23.42900 0.97900 28.99500
C  22.42700 1.07600 29.93100
C  21.13500 1.11200 29.23900
C  21.42600 1.00100 27.87600
C  22.83700 0.83900 27.75400
C  19.84800 1.33600 29.93600
C  20.49100 0.97600 26.63200
O  20.83400 0.93000 25.47300
C  18.90600 0.87600 26.83800
N  25.99700 0.42000 27.32300
C  24.95800 0.42400 26.36200
C  25.50600 0.18500 25.01000
C  27.03300 0.39800 25.23600
C  27.25100 0.35800 26.78500
C  25.01100 -1.19500 24.41100
C  27.81000 1.65200 24.71400
C  27.31700 3.00600 25.28400
N  27.53600 0.61900 29.72300
C  28.59300 0.29100 28.91400
C  29.72300 0.18200 29.67000
C  29.34300 0.52100 30.96300
C  27.97200 0.70500 31.00400
C  31.07000 -0.13300 29.15000
C  29.92100 0.87500 32.26800
O  31.05100 0.87000 32.69700
C  28.55700 1.07100 33.15700
C  28.62700 0.10700 34.26800
O  28.10700 -1.03600 34.25300
O  29.18600 0.68300 35.38800
C  29.34400 -0.21000 36.54600
H  21.80400 1.28700 31.93400
H  23.10800 0.52100 25.60100
H  29.33900 0.13500 26.87200
H  25.74700 0.65300 34.45000
H  23.48100 2.33000 33.62100
H  23.83100 -0.37000 34.85900
H  22.63600 -0.36600 33.71200
H  22.60000 0.79800 35.13100
H  24.89600 3.53500 34.47300
H  26.46300 3.45800 33.68400
H  27.44400 3.41200 35.51200
H  26.52100 1.88200 36.10400
H  19.45700 2.34000 29.77200
H  19.99100 1.26900 31.01500
H  19.01500 0.73000 29.58000
H  18.59000 -0.02700 27.36100
H  18.46600 0.93000 25.84300
H  18.68900 1.79300 27.38700
H  25.10000 1.01000 24.42500
H  27.51200 -0.49200 24.82500
H  24.46700 -1.66200 25.23100
H  25.84100 -1.88800 24.27300
H  24.39200 -1.14900 23.51400
H  27.87700 1.73600 23.63000
H  28.87600 1.55800 24.92100
H  26.77000 2.98200 26.22600
H  26.75000 3.47700 24.48100
H  28.19900 3.59900 25.52700
H  31.07900 -0.45900 28.11000
H  31.49800 -0.93900 29.74700
H  31.80000 0.67200 29.23600
H  28.66400 2.04200 33.63900
H  28.61100 0.06300 37.30500
H  30.26000 0.08400 37.05800
H  29.49800 -1.28300 36.43100
Mg 5.48000 53.50400 41.47200
C  5.06100 50.19200 40.80700
C  8.70500 53.32100 40.02500
C  5.67900 56.84600 41.35900
C  2.14900 53.77500 42.26400
N  6.78000 51.88000 40.43300
C  6.40400 50.61600 40.32500
C  7.52300 49.72900 39.71400
C  8.76300 50.73500 39.80500
C  8.08600 52.09000 40.07500
C  9.65100 50.39200 41.04900
C  7.29500 49.11700 38.29400
C  6.49900 50.02700 37.31000
H  5.76300 49.29300 36.16100
N  7.07000 54.90500 41.03800
C  8.26900 54.56100 40.48000
C  9.06600 55.80500 40.43500
C  8.18700 56.88500 40.77000
C  6.88200 56.27100 40.98100
C  10.50100 55.82000 40.06400
C  8.55700 58.31300 40.66400
O  9.70200 58.68900 40.31000
C  7.71900 59.33200 41.18700
N  4.13300 55.11500 41.76000
C  4.40100 56.43300 41.71900
C  3.33000 57.37200 42.27200
C  2.18200 56.39300 42.51900
C  2.85500 55.00400 42.12800
C  3.90200 58.19800 43.54100
C  0.95100 56.89100 41.60500
C  1.11300 56.63200 40.15200
N  3.85000 52.26500 41.59300
C  2.58500 52.44700 41.99100
C  1.85100 51.18300 42.02700
C  2.81400 50.26700 41.64300
C  4.00400 51.01000 41.30100
C  0.42100 51.00600 42.53800
C  3.06100 48.93400 41.48900
O  2.42500 47.92600 41.76600
C  4.52700 48.76300 40.91700
C  4.41200 47.97300 39.65100
O  3.65700 48.23200 38.67500
O  5.06000 46.82600 39.76400
C  4.67800 45.78900 38.76300
H  9.73200 53.35800 39.65500
H  5.67000 57.92500 41.19300
H  1.07900 53.85500 42.46600
H  7.72200 48.88200 40.37100
H  9.45500 50.74000 38.96200
H  9.80000 51.28400 41.65700
H  10.59600 49.95200 40.73100
H  9.07000 49.71700 41.67700
H  6.73400 48.18300 38.25600
H  8.20800 48.90100 37.73900
H  7.04600 50.84900 36.85000
H  5.77600 50.55600 37.93200
H  10.63200 56.07700 39.01300
H  11.05700 54.88800 40.16500
H  10.98600 56.62600 40.61400
H  8.17400 60.27700 41.48300
H  7.33500 58.82100 42.07000
H  6.91300 59.37900 40.45600
H  3.09600 58.00900 41.41900
H  1.94300 56.37500 43.58200
H  4.89100 57.82800 43.80900
H  3.27600 58.02200 44.41600
H  3.94600 59.26700 43.32900
H  0.79100 57.95200 41.79900
H  0.03700 56.38300 41.91400
H  0.88400 57.53500 39.58700
H  0.43800 55.80200 39.94300
H  2.11900 56.32700 39.86600
H  0.44200 51.02900 43.62700
H  0.17700 49.96700 42.31600
H  -0.36400 51.61900 42.09600
H  5.03700 48.09700 41.61300
H  5.53700 45.68700 38.10100
H  3.80000 46.11500 38.20400
H  4.38900 44.86400 39.26300

