158

Mg -1.20100 17.48000 25.76900
C  -1.97400 15.34500 28.57200
C  -2.36200 20.14300 27.69500
C  -0.95300 19.44100 23.12700
C  -0.99500 14.55200 23.86300
N  -1.88200 17.71900 28.03100
C  -2.18900 16.68500 28.91500
C  -2.79900 17.31500 30.24200
C  -3.21500 18.66800 29.66700
C  -2.46300 18.92600 28.34900
C  -4.78500 18.70400 29.33900
C  -1.75200 17.49500 31.39300
C  -2.30800 17.38300 32.74900
H  -1.32600 16.95500 33.80800
N  -1.28600 19.48100 25.54200
C  -1.78800 20.45500 26.41600
C  -1.52200 21.73000 25.88700
C  -1.13000 21.58400 24.51700
C  -1.23700 20.11400 24.30000
C  -1.69300 23.06500 26.65100
C  -0.82500 22.66000 23.49500
O  -0.59100 22.35700 22.31300
C  -0.67600 24.16400 23.84000
N  -0.97900 17.03800 23.83800
C  -0.85000 18.07600 22.99000
C  -0.47000 17.50800 21.58400
C  -0.07500 15.99100 21.95000
C  -0.66000 15.78900 23.32900
C  -1.53800 17.62300 20.41700
C  1.48700 15.68500 21.79500
C  2.44600 16.26000 22.81900
N  -1.47800 15.31600 26.06400
C  -1.35300 14.26300 25.24000
C  -1.29000 12.99800 25.97300
C  -1.56100 13.39000 27.30700
C  -1.69600 14.81500 27.28000
C  -0.86400 11.71200 25.33100
C  -1.72400 12.91200 28.60500
O  -1.68800 11.80200 29.07300
C  -1.88400 14.16400 29.54100
C  -0.71400 14.20100 30.43300
O  0.44800 14.49200 30.15400
O  -1.03000 13.61900 31.57600
C  0.06500 13.45500 32.57600
H  -2.68500 21.02400 28.25400
H  -0.70300 19.94000 22.18800
H  -0.85600 13.67000 23.23400
H  -3.68000 16.76800 30.57800
H  -2.94200 19.55600 30.23600
H  -5.43900 17.90300 29.68300
H  -4.99900 18.79500 28.27400
H  -5.14800 19.65800 29.72200
H  -1.28300 18.47800 31.35100
H  -0.95200 16.76700 31.25500
H  -3.09100 16.62600 32.79900
H  -2.73000 18.33200 33.08000
H  -0.85100 23.71900 26.42200
H  -1.83000 22.97200 27.72800
H  -2.51900 23.61500 26.20200
H  0.23500 24.36200 24.40500
H  -1.59000 24.52700 24.30900
H  -0.47600 24.66400 22.89300
H  0.47800 17.95400 21.28300
H  -0.67800 15.31100 21.34800
H  -1.99800 18.60200 20.55500
H  -2.26700 16.81400 20.45600
H  -0.97200 17.52500 19.49100
H  1.83800 16.11500 20.85800
H  1.56400 14.59900 21.83100
H  1.99000 16.37000 23.80300
H  2.92100 17.18000 22.47900
H  3.24000 15.54600 23.03800
H  -1.77000 11.20600 24.99600
H  -0.30100 11.08600 26.02300
H  -0.21800 11.96800 24.49200
H  -2.78000 14.11500 30.15900
H  0.96000 14.03800 32.36200
H  0.36200 12.41300 32.45000
H  -0.28200 13.59700 33.59900
Mg 1.68300 7.83400 25.83400
C  2.39300 9.73400 28.68900
C  1.71600 4.97200 27.74200
C  1.10700 6.10800 23.04600
C  2.44700 10.72500 23.94100
N  2.14300 7.47600 27.96700
C  2.26700 8.38600 29.00300
C  2.36900 7.72300 30.38900
C  2.45800 6.14200 29.94100
C  2.02200 6.18100 28.48200
C  3.80400 5.32500 30.16100
C  1.24300 7.89900 31.47300
C  1.90100 8.05200 32.89200
H  2.95100 7.08200 33.35300
N  1.36000 5.78600 25.42000
C  1.30800 4.82400 26.35400
C  0.93900 3.57100 25.76200
C  0.80100 3.84100 24.38600
C  1.03200 5.30700 24.20100
C  0.79700 2.34300 26.58300
C  0.42700 2.93600 23.23800
O  0.04900 3.34100 22.13900
C  0.44800 1.51100 23.44300
N  1.79700 8.38600 23.80500
C  1.40800 7.50500 22.84500
C  1.43600 8.16500 21.46200
C  1.94400 9.59700 21.72400
C  2.04000 9.57700 23.28000
C  2.13700 7.39500 20.38900
C  1.12800 10.77200 21.08400
C  1.82700 11.66300 20.08100
N  2.28000 9.82300 26.18000
C  2.57300 10.88900 25.31300
C  2.74300 12.10300 26.12000
C  2.72000 11.64400 27.40300
C  2.50000 10.29000 27.42000
C  2.83600 13.53800 25.76900
C  2.78000 12.15700 28.75700
O  2.98000 13.31500 29.11000
C  2.56700 10.90600 29.64700
C  3.87600 10.83000 30.45600
O  4.97500 10.32500 30.12400
O  3.57700 11.39500 31.68100
C  4.67100 11.26100 32.64500
H  1.58700 4.09700 28.38400
H  0.82400 5.66800 22.08800
H  2.82200 11.61200 23.42500
H  3.26900 8.07500 30.89200
H  1.71200 5.51700 30.43200
H  4.35800 5.26400 29.22500
H  3.58900 4.35700 30.61300
H  4.39700 5.82800 30.92600
H  0.59000 7.03500 31.59400
H  0.67200 8.79100 31.21400
H  0.93300 8.03800 33.39300
H  2.25700 9.07900 32.96500
H  -0.08700 1.89400 26.12900
H  0.65100 2.53500 27.64600
H  1.71300 1.79900 26.35300
H  -0.46500 1.25100 23.98000
H  1.26500 1.32200 24.13900
H  0.59200 1.00200 22.49000
H  0.36700 8.17200 21.24700
H  2.99200 9.76300 21.47100
H  1.47300 6.58500 20.08600
H  3.09100 6.99700 20.73300
H  2.09000 8.11800 19.57400
H  0.76600 11.29800 21.96800
H  0.23000 10.35900 20.62500
H  2.83400 11.32900 19.83100
H  1.95700 12.68500 20.43600
H  1.12500 11.69800 19.24700
H  1.92900 13.95000 26.21100
H  2.70100 13.76100 24.71000
H  3.67000 13.99800 26.29800
H  1.74500 11.10000 30.33600
H  4.97900 10.21700 32.58300
H  4.33500 11.56600 33.63500
H  5.51100 11.94200 32.50400

