158

Mg 47.80500 25.58500 29.76500
C  48.38500 28.03500 32.32400
C  46.79200 23.42700 32.33100
C  47.44800 23.20000 27.44200
C  49.27100 27.72200 27.45200
N  47.59100 25.67800 31.98200
C  47.84200 26.81400 32.79600
C  47.47600 26.54200 34.32700
C  47.36000 24.93500 34.30200
C  47.25400 24.64200 32.75700
C  48.45100 24.13400 35.00400
C  46.13400 27.17500 34.78900
C  46.08100 28.15000 35.90300
H  46.74700 27.78100 37.29700
N  47.06000 23.63000 29.86000
C  46.61100 22.99000 30.95900
C  46.03500 21.72900 30.57400
C  46.19600 21.61700 29.12700
C  46.92000 22.86300 28.74600
C  45.35100 20.78300 31.51100
C  45.71900 20.52400 28.22600
O  45.78800 20.67800 27.03600
C  44.99000 19.32700 28.78800
N  48.41200 25.38300 27.78900
C  48.15000 24.27600 27.00100
C  48.74300 24.44900 25.60100
C  49.21900 26.00200 25.61700
C  48.95700 26.44100 27.00300
C  49.90600 23.45400 25.29700
C  48.53400 26.92300 24.56500
C  48.76000 26.49000 23.10300
N  48.61400 27.51000 29.80400
C  49.19300 28.21300 28.79500
C  49.70900 29.43300 29.30000
C  49.42000 29.47200 30.64800
C  48.81000 28.18800 30.95900
C  50.50900 30.46400 28.54000
C  49.49600 30.32700 31.93800
O  49.89300 31.48900 32.09200
C  48.92600 29.30800 33.13900
C  50.00600 28.88800 34.12000
O  51.16500 28.56200 33.77100
O  49.58600 28.83400 35.45100
C  50.64800 28.57300 36.52000
H  46.40200 22.68400 33.03000
H  47.32200 22.53200 26.58700
H  49.61700 28.50300 26.77200
H  48.36400 26.67800 34.94500
H  46.44600 24.57200 34.77200
H  48.99700 24.56100 35.84600
H  49.21700 23.93300 34.25500
H  47.98200 23.25500 35.44700
H  45.40200 26.37700 34.91800
H  45.84200 27.72300 33.89400
H  45.00700 28.22400 36.07500
H  46.32400 29.15300 35.55100
H  44.36300 20.52500 31.12700
H  45.35900 21.18600 32.52300
H  45.92300 19.86800 31.66200
H  45.40900 18.89600 29.69800
H  44.73100 18.58000 28.03700
H  44.06200 19.83800 29.04200
H  47.95900 24.29200 24.86100
H  50.27700 26.13500 25.38900
H  50.04600 22.83700 26.18500
H  50.86900 23.94300 25.14900
H  49.69600 22.70500 24.53300
H  48.92200 27.94000 24.63000
H  47.46500 26.97500 24.77200
H  47.77200 26.22800 22.72400
H  49.41500 25.62000 23.08000
H  49.21300 27.37200 22.64900
H  50.05000 30.68800 27.57700
H  51.45200 29.95800 28.33500
H  50.54300 31.37200 29.14200
H  48.17100 29.67300 33.83500
H  51.27400 27.76500 36.14000
H  50.04700 28.34100 37.39900
H  51.20600 29.45400 36.83700
Mg 27.11200 50.68900 26.85900
C  24.92400 51.74400 29.18300
C  29.51500 50.33800 29.41100
C  29.31800 49.53700 24.58400
C  24.80700 51.46800 24.36300
N  27.17300 51.08500 28.98500
C  26.07600 51.36200 29.80300
C  26.32300 51.11700 31.33100
C  27.87800 50.93100 31.32100
C  28.17900 50.71400 29.72600
C  28.66700 52.07500 31.94900
C  25.56600 49.99400 31.95400
C  24.42600 50.25900 32.92800
H  24.27800 49.39000 34.15100
N  29.15800 50.19500 26.99500
C  29.96500 50.05300 28.12000
C  31.18500 49.37300 27.76400
C  31.19000 49.15900 26.35700
C  29.85500 49.65600 25.93300
C  32.21200 49.05500 28.79800
C  32.24200 48.50100 25.50400
O  32.15000 48.39900 24.32200
C  33.52400 48.04100 26.07300
N  26.95800 50.51200 24.79900
C  28.03100 49.92700 24.03900
C  27.76800 49.80600 22.53500
C  26.22300 50.32400 22.53700
C  25.99100 50.85100 23.97300
C  28.65800 50.64800 21.54800
C  25.19400 49.11200 22.08200
C  24.04200 49.62000 21.28000
N  25.27300 51.45300 26.75900
C  24.41300 51.76100 25.67700
C  23.23600 52.40800 26.16200
C  23.37200 52.39200 27.59000
C  24.60000 51.80400 27.84000
C  22.16500 52.98100 25.31600
C  22.70400 52.69100 28.77100
O  21.64700 53.26700 28.95300
C  23.68200 52.34600 29.90900
C  23.97700 53.48700 30.84400
O  24.92600 54.23700 30.74200
O  23.10500 53.45500 31.92900
C  23.64400 54.22000 33.06100
H  30.19400 50.12000 30.23800
H  30.04600 49.14600 23.87000
H  24.11300 51.71500 23.55700
H  25.97700 52.03300 31.81100
H  28.21000 50.01300 31.80600
H  28.84100 51.66800 32.94500
H  28.07300 52.98600 32.01300
H  29.60800 52.25600 31.43000
H  26.25200 49.34600 32.50100
H  25.16900 49.38300 31.14400
H  23.53900 50.16400 32.30100
H  24.44700 51.29900 33.25300
H  32.28100 47.96800 28.83600
H  32.02100 49.46900 29.78800
H  33.12800 49.48600 28.39200
H  34.22900 48.80800 26.39400
H  33.94300 47.41800 25.28200
H  33.48400 47.33900 26.90600
H  27.84600 48.74000 22.32400
H  26.03100 51.20100 21.91900
H  29.37300 51.15400 22.19700
H  28.12500 51.44500 21.02800
H  28.99000 50.03600 20.71000
H  24.88100 48.65300 23.02000
H  25.64700 48.31900 21.48700
H  23.94200 50.70400 21.22800
H  23.05400 49.33400 21.64200
H  24.24800 49.21900 20.28800
H  22.24900 52.53400 24.32500
H  22.34300 54.05200 25.22400
H  21.25200 52.75800 25.86800
H  23.11300 51.59400 30.45700
H  24.52500 53.77100 33.52100
H  22.76800 54.38900 33.68700
H  23.87100 55.21600 32.68000

