158

Mg 26.19300 0.02700 29.34200
C  28.09900 -0.33600 32.22200
C  23.39400 0.65800 31.36900
C  24.24000 0.20800 26.66200
C  28.86000 -1.28100 27.45800
N  25.80100 0.10300 31.54500
C  26.72900 -0.01600 32.57300
C  26.15900 0.12100 33.95200
C  24.59400 0.12000 33.58200
C  24.57100 0.29700 32.10000
C  23.79200 -1.14800 34.12600
C  26.78900 1.35700 34.59300
C  26.01000 1.85900 35.88900
H  26.79700 2.06800 37.15400
N  24.19900 0.46300 29.05600
C  23.20300 0.69400 29.96400
C  21.92000 0.90200 29.31800
C  22.10200 0.86300 27.96100
C  23.56100 0.53900 27.83300
C  20.65300 1.19700 30.07100
C  21.20000 1.11200 26.75900
O  21.54100 1.02000 25.59800
C  19.86000 1.61100 27.01800
N  26.56700 -0.41200 27.36400
C  25.56400 -0.22200 26.44300
C  26.14000 -0.69300 25.07900
C  27.69200 -0.73400 25.28700
C  27.72800 -0.87300 26.80400
C  25.53300 -2.02300 24.47100
C  28.55900 0.49300 24.82800
C  30.03000 0.19900 24.50700
N  28.06600 -0.62900 29.68300
C  29.10000 -1.11400 28.85300
C  30.26900 -1.35500 29.53900
C  30.00000 -1.06200 30.85800
C  28.61400 -0.59900 30.91300
C  31.44800 -2.05600 28.86500
C  30.48900 -1.04500 32.24000
O  31.57800 -1.26700 32.69700
C  29.28300 -0.63200 33.14000
C  29.03000 -1.84200 34.04300
O  28.54800 -2.88600 33.68800
O  29.29900 -1.52800 35.35500
C  29.17200 -2.60800 36.33000
H  22.46300 0.80300 31.92100
H  23.79700 0.29300 25.66800
H  29.66400 -1.60300 26.79300
H  26.34000 -0.78200 34.53400
H  24.19800 1.03500 34.02100
H  24.46500 -1.84000 34.63300
H  23.38700 -1.73300 33.30100
H  23.02600 -0.81000 34.82300
H  26.79100 2.26200 33.98500
H  27.80800 1.15100 34.92000
H  25.07700 1.32000 36.05600
H  25.60500 2.85700 35.72500
H  20.08800 1.99900 29.59700
H  20.69800 1.48900 31.12100
H  19.93300 0.39400 29.91000
H  19.96600 2.56000 27.54500
H  19.29700 0.84300 27.54900
H  19.31800 1.81800 26.09600
H  25.94700 0.11300 24.37100
H  28.07900 -1.63200 24.80500
H  26.22200 -2.86300 24.55700
H  25.17200 -1.80900 23.46500
H  24.66600 -2.30000 25.07100
H  28.58000 1.10700 25.72800
H  28.22400 1.06300 23.96200
H  30.27100 0.72100 23.58100
H  30.17400 -0.88100 24.47700
H  30.68500 0.60600 25.27700
H  32.24000 -2.33600 29.55900
H  31.90100 -1.38600 28.13400
H  31.07100 -2.97800 28.42200
H  29.47000 0.19300 33.82700
H  29.95800 -3.36300 36.34300
H  28.19400 -3.02400 36.08800
H  29.00000 -2.15700 37.30700
Mg 35.88500 1.10700 29.78400
C  33.61100 2.00500 32.37000
C  38.39300 0.90500 32.07600
C  37.99500 0.45300 27.20200
C  33.21700 1.57300 27.53000
N  35.99300 1.48000 31.92600
C  34.91400 1.75600 32.87700
C  35.36000 1.72100 34.31600
C  36.90400 1.66300 34.09800
C  37.09400 1.39200 32.60200
C  37.60400 2.96400 34.47900
C  34.84100 0.46900 35.03300
C  34.04400 0.74200 36.28200
H  34.47900 1.84400 37.18900
N  37.83300 0.58700 29.66400
C  38.72600 0.52500 30.73800
C  40.00300 0.09100 30.27500
C  39.94400 0.01400 28.87400
C  38.57500 0.35200 28.46600
C  41.14700 -0.17200 31.23900
C  41.03700 -0.24100 27.86500
O  40.87200 -0.12000 26.65600
C  42.39000 -0.74700 28.36900
N  35.69600 1.21100 27.73600
C  36.72800 0.85300 26.85800
C  36.29700 0.75900 25.38700
C  34.74700 0.92000 25.49000
C  34.53200 1.29800 26.95900
C  36.96000 1.78600 24.40200
C  33.91100 -0.28900 24.93800
C  33.67400 -1.43600 25.97400
N  33.82100 1.74600 29.83300
C  32.87600 1.84300 28.87300
C  31.62400 2.27700 29.46000
C  31.86900 2.38100 30.80200
C  33.20200 2.03500 31.02800
C  30.32900 2.49300 28.82500
C  31.23600 2.66500 32.10100
O  30.05900 2.94400 32.33200
C  32.37800 2.39400 33.12900
C  32.51300 3.68000 33.79200
O  32.89300 4.67900 33.23200
O  31.90200 3.64400 35.02400
C  31.79600 4.94400 35.70600
H  39.19500 0.75000 32.80100
H  38.64600 0.12100 26.39000
H  32.38600 1.55300 26.82200
H  35.01100 2.64900 34.76900
H  37.44900 0.93400 34.69800
H  38.67900 2.90300 34.30700
H  37.29200 3.32700 35.45800
H  37.29300 3.58400 33.63800
H  35.64500 -0.14200 35.44300
H  34.35200 -0.23100 34.35500
H  33.94800 -0.14000 36.91500
H  33.02100 0.90900 35.94500
H  40.81100 -0.62800 32.17000
H  41.54100 0.79700 31.54600
H  41.93200 -0.78200 30.79200
H  42.25600 -1.64800 28.96800
H  42.89100 0.00500 28.97800
H  43.05000 -0.82900 27.50600
H  36.55800 -0.27900 25.18100
H  34.31700 1.80100 25.01300
H  36.22300 2.44700 23.94400
H  37.47300 1.15700 23.67600
H  37.69300 2.38800 24.93900
H  34.58500 -0.54400 24.12100
H  33.00300 0.11700 24.49100
H  34.06500 -1.27100 26.97700
H  34.19600 -2.30700 25.57800
H  32.62200 -1.71500 26.03800
H  30.09700 3.55600 28.76300
H  29.59200 1.99600 29.45500
H  30.43800 2.06400 27.82900
H  32.13300 1.58800 33.82100
H  32.83200 5.25100 35.84900
H  31.28400 4.85100 36.66400
H  31.25200 5.71800 35.16400

