158

Mg 35.55500 49.65700 25.65200
C  35.41100 47.95700 28.80500
C  34.31400 52.52700 27.34900
C  35.20700 51.04500 22.72500
C  36.27000 46.56200 24.20200
N  34.94600 50.16100 27.85800
C  34.99100 49.32700 28.94700
C  34.85900 50.12500 30.25600
C  34.34000 51.61000 29.81900
C  34.48500 51.45500 28.27800
C  32.88600 52.05500 30.28000
C  36.24400 50.19800 31.02300
C  36.21800 49.66600 32.48600
H  35.78600 50.68400 33.53900
N  34.82100 51.49300 25.06900
C  34.38100 52.54000 25.88500
C  34.07500 53.64100 24.99800
C  34.39300 53.27100 23.68600
C  34.87100 51.87200 23.81300
C  33.51700 55.01500 25.45500
C  34.30700 54.06000 22.34000
O  34.56300 53.54000 21.23400
C  34.10800 55.45400 22.49400
N  35.57900 48.81500 23.70400
C  35.51500 49.67200 22.66100
C  35.94300 48.96100 21.35600
C  36.27800 47.57500 21.94800
C  36.07800 47.67400 23.37500
C  34.81300 49.12600 20.29600
C  37.49300 46.85400 21.43800
C  38.81800 46.99700 22.18700
N  36.00600 47.75400 26.39500
C  36.17600 46.60900 25.64400
C  36.33200 45.50800 26.53600
C  36.09500 46.02400 27.84100
C  35.81200 47.34400 27.62200
C  36.58100 44.15300 26.16500
C  35.83500 45.56500 29.13100
O  35.80700 44.42000 29.59100
C  35.38400 46.92400 29.89400
C  34.15500 46.84600 30.64800
O  32.99000 46.99900 30.17300
O  34.43900 46.57800 32.00500
C  33.28200 46.51100 32.91600
H  34.03800 53.46300 27.83900
H  35.34000 51.60100 21.79500
H  36.37100 45.65400 23.60300
H  34.06100 49.81200 30.92800
H  35.06300 52.36800 30.12100
H  32.27200 52.29100 29.41100
H  32.85600 52.96600 30.87700
H  32.39500 51.28900 30.87900
H  36.73400 51.17200 31.04000
H  37.05800 49.64900 30.55000
H  37.16200 49.24300 32.82800
H  35.45900 48.88800 32.56800
H  32.54900 55.35000 25.08200
H  34.29100 55.77700 25.37100
H  33.43800 55.02600 26.54200
H  33.10000 55.68500 22.84000
H  34.14900 55.93500 21.51700
H  34.93800 55.85000 23.07900
H  36.77700 49.55700 20.98500
H  35.44400 46.92800 21.67800
H  33.80800 49.34000 20.65900
H  34.77500 48.22600 19.68200
H  35.04300 49.92900 19.59700
H  37.73300 47.29300 20.47000
H  37.15400 45.85600 21.16200
H  38.58800 47.55700 23.09300
H  39.50600 47.57300 21.56800
H  39.21600 46.01900 22.45600
H  35.83800 43.84500 25.43000
H  36.64000 43.48500 27.02500
H  37.50200 44.19600 25.58400
H  36.29500 47.09100 30.47000
H  32.23900 46.54100 32.60200
H  33.34600 47.34200 33.61900
H  33.46600 45.56700 33.42900
Mg -1.61900 34.77000 26.33400
C  -3.02000 33.00200 29.04400
C  -0.55700 37.17500 28.56100
C  -0.97200 36.75700 23.76100
C  -2.92400 32.33700 24.10500
N  -1.76900 35.04000 28.56500
C  -2.29200 34.15100 29.48900
C  -2.04900 34.64700 30.86000
C  -1.28800 36.00200 30.71900
C  -1.10500 36.08000 29.15900
C  -2.14200 37.28600 31.32400
C  -1.30000 33.52000 31.60200
C  -2.19900 32.96600 32.78500
H  -1.56100 32.82400 34.18800
N  -0.74000 36.59400 26.17100
C  -0.35300 37.41300 27.20200
C  0.24300 38.63500 26.66300
C  0.17600 38.49000 25.25200
C  -0.56400 37.29500 24.96100
C  0.85100 39.65800 27.58700
C  0.79300 39.41500 24.15300
O  0.66100 39.14000 23.00800
C  1.63300 40.53500 24.39500
N  -2.04300 34.58600 24.21600
C  -1.50600 35.52200 23.38400
C  -1.32900 34.96400 21.88800
C  -1.93600 33.56900 22.00600
C  -2.37100 33.48900 23.52700
C  -1.95100 35.88000 20.84400
C  -1.02600 32.32200 21.78100
C  0.04600 31.88500 22.87000
N  -2.77900 33.09300 26.54400
C  -3.11500 32.13800 25.52500
C  -3.81400 31.01300 26.10900
C  -3.84600 31.31700 27.51900
C  -3.18400 32.58600 27.71900
C  -4.43600 29.85000 25.38200
C  -4.32400 30.91500 28.80500
O  -5.13700 30.03700 29.10000
C  -3.73400 31.89800 29.84300
C  -4.78600 32.43900 30.74300
O  -5.46500 33.45800 30.61900
O  -4.97500 31.49400 31.81400
C  -6.05000 31.85000 32.77400
H  -0.25300 37.97300 29.24200
H  -0.53700 37.32600 22.93700
H  -3.19900 31.52600 23.42900
H  -3.07100 34.84700 31.18300
H  -0.31400 36.07800 31.20100
H  -2.83200 37.77300 30.63500
H  -1.39400 38.02000 31.62400
H  -2.58000 36.82400 32.20900
H  -0.31800 33.82500 31.96300
H  -1.06800 32.72000 30.89900
H  -2.53200 31.95700 32.54000
H  -3.12700 33.50900 32.96500
H  1.80200 39.39300 28.05000
H  0.17500 39.80900 28.42900
H  0.68400 40.62600 27.11400
H  2.65600 40.21700 24.59200
H  1.30400 41.19300 25.20000
H  1.64700 41.23400 23.55900
H  -0.28000 34.86100 21.61100
H  -2.80100 33.45800 21.35200
H  -1.94500 36.92200 21.16400
H  -2.97200 35.53600 20.67700
H  -1.47500 35.80300 19.86700
H  -0.40700 32.31300 20.88400
H  -1.63000 31.42700 21.63400
H  -0.31900 30.96400 23.32400
H  0.12200 32.70500 23.58300
H  1.02500 31.67200 22.44100
H  -4.53000 28.98900 26.04500
H  -3.89000 29.54600 24.49000
H  -5.43100 30.15000 25.05200
H  -3.09700 31.19900 30.38600
H  -6.91200 32.36400 32.34900
H  -5.65500 32.42100 33.61400
H  -6.51300 30.91500 33.09000

