158

Mg -2.11600 17.36400 25.73300
C  -2.48900 14.90000 28.35400
C  -2.98000 19.73500 27.90000
C  -2.10900 19.35700 23.14400
C  -2.54900 14.57700 23.50700
N  -2.32500 17.35400 27.96100
C  -2.41100 16.24100 28.79600
C  -2.44900 16.73400 30.29300
C  -2.86400 18.28100 30.12600
C  -2.74800 18.49800 28.57800
C  -4.06700 18.81100 30.83200
C  -1.14300 16.43500 31.13200
C  -0.72000 17.29100 32.31100
H  -0.35800 16.68000 33.66900
N  -2.24500 19.30100 25.57700
C  -2.60500 20.14100 26.63800
C  -2.68000 21.47800 26.14600
C  -2.50600 21.46300 24.73100
C  -2.25800 19.96500 24.39300
C  -2.91400 22.65200 27.13200
C  -2.68700 22.59300 23.73500
O  -2.61100 22.39900 22.50400
C  -3.03600 23.95500 24.28100
N  -2.10300 16.95100 23.60300
C  -2.14300 18.02600 22.76300
C  -2.07600 17.59200 21.29300
C  -2.43000 16.10700 21.41200
C  -2.26300 15.83700 22.96800
C  -2.81400 18.50100 20.30100
C  -1.58100 15.15300 20.47900
C  -2.48900 14.12000 19.73600
N  -2.36200 15.16500 25.79100
C  -2.51500 14.16600 24.83100
C  -2.69700 12.86600 25.43600
C  -2.65100 13.12100 26.80900
C  -2.42400 14.51900 26.98300
C  -2.83200 11.59900 24.73000
C  -2.78200 12.57400 28.10400
O  -3.05700 11.42100 28.45100
C  -2.63600 13.68600 29.16000
C  -1.41600 13.33900 30.05400
O  -0.28400 13.75600 29.91900
O  -1.68000 12.49500 31.11900
C  -0.56700 12.11000 32.00200
H  -3.20900 20.45700 28.68700
H  -1.91800 20.11500 22.38200
H  -2.75800 13.81300 22.75500
H  -3.23900 16.09400 30.68600
H  -2.08300 18.87400 30.60300
H  -4.74700 19.12600 30.04100
H  -3.67600 19.57200 31.50700
H  -4.38200 17.97100 31.45100
H  -0.31800 16.59100 30.43700
H  -1.26200 15.41700 31.50400
H  -1.63000 17.85200 32.52600
H  0.11700 17.90500 31.97900
H  -2.97900 22.50300 28.21000
H  -3.70200 23.34600 26.83900
H  -2.03900 23.29900 27.06600
H  -4.06900 23.99300 24.62600
H  -2.83200 24.66200 23.47700
H  -2.38400 24.21600 25.11500
H  -1.01800 17.51500 21.04300
H  -3.49800 15.91300 21.30800
H  -3.36400 19.28200 20.82500
H  -3.49700 17.82200 19.79100
H  -2.01100 18.84500 19.64800
H  -0.74800 14.74400 21.05200
H  -1.13300 15.75700 19.69100
H  -2.19500 13.92100 18.70600
H  -3.55200 14.32800 19.62000
H  -2.49200 13.13100 20.19500
H  -2.93900 10.82500 25.49000
H  -1.96200 11.34600 24.12300
H  -3.80900 11.59400 24.24600
H  -3.54000 13.63300 29.76600
H  -0.33000 13.01300 32.56300
H  0.32400 11.84400 31.43300
H  -0.91800 11.45000 32.79600
Mg 47.48000 25.29900 29.16000
C  48.09200 27.55600 31.60500
C  46.20900 23.12400 31.52000
C  46.99800 22.91700 26.68300
C  49.12600 27.31600 26.87700
N  47.23200 25.35400 31.30900
C  47.51300 26.43900 32.16000
C  47.24600 26.17200 33.67300
C  46.79800 24.66500 33.54600
C  46.73000 24.34100 32.02500
C  47.73000 23.66000 34.27600
C  46.10400 27.10400 34.25700
C  46.53000 27.91600 35.45400
H  47.01100 27.00600 36.66700
N  46.64900 23.26600 29.03700
C  46.15000 22.64000 30.13400
C  45.62100 21.36600 29.73100
C  45.75800 21.27900 28.30600
C  46.44600 22.47600 27.91300
C  44.94800 20.47000 30.66200
C  45.26900 20.20300 27.32300
O  45.58600 20.19300 26.14800
C  44.27300 19.20600 27.78400
N  47.81600 25.24600 27.00800
C  47.74500 24.05000 26.33100
C  48.36300 24.18000 24.88800
C  49.01000 25.62000 24.94800
C  48.60700 26.13900 26.37600
C  49.30300 23.00200 24.41800
C  48.59100 26.46100 23.76600
C  49.71400 27.11700 23.00600
N  48.39700 27.13200 29.18600
C  49.02100 27.79200 28.15700
C  49.36500 29.11100 28.58000
C  49.09200 29.10500 29.98600
C  48.49900 27.81600 30.31700
C  50.04800 30.16100 27.73100
C  49.13600 29.84400 31.19700
O  49.51800 30.98200 31.43500
C  48.54900 28.82100 32.33200
C  49.72900 28.47700 33.20600
O  50.52100 27.57100 33.04100
O  49.77500 29.46300 34.16600
C  50.70300 29.13500 35.28200
H  45.82400 22.43900 32.27800
H  46.89100 22.11300 25.95200
H  49.64400 27.95400 26.15700
H  48.19800 26.34300 34.17600
H  45.75200 24.63100 33.85100
H  47.18600 23.17500 35.08700
H  48.65500 24.12000 34.62300
H  48.10400 22.88900 33.60200
H  45.20100 26.51100 34.39800
H  45.93500 27.92800 33.56300
H  45.69100 28.54400 35.75400
H  47.33300 28.60000 35.17700
H  44.88300 20.72200 31.72100
H  45.42800 19.49900 30.54400
H  43.92500 20.46900 30.28800
H  43.41600 19.69100 28.25100
H  44.85100 18.70600 28.56000
H  43.88000 18.49100 27.06000
H  47.55500 24.13300 24.15900
H  50.08400 25.44400 25.00200
H  50.33300 23.35600 24.36500
H  49.03800 22.62200 23.43100
H  49.31700 22.08600 25.00900
H  47.98400 27.33500 24.00400
H  48.01600 25.90800 23.02300
H  50.66500 26.96100 23.51600
H  49.54100 28.15600 22.72500
H  49.89500 26.66600 22.03100
H  49.49600 30.20600 26.79200
H  51.06300 29.88700 27.44400
H  50.05600 31.06100 28.34600
H  47.82400 29.36700 32.93600
H  50.69300 28.04500 35.25800
H  50.26900 29.50700 36.21000
H  51.73100 29.36600 35.00100

