158

Mg 25.61000 0.73300 29.69400
C  27.44200 0.47100 32.56700
C  22.75200 1.40300 31.68000
C  23.69800 0.80600 26.89100
C  28.43400 -0.24300 27.82400
N  25.14900 0.79200 31.77700
C  26.16700 0.94000 32.74900
C  25.59600 1.28400 34.11200
C  24.03700 1.37700 33.93400
C  23.97700 1.16800 32.37200
C  23.20700 0.25000 34.73000
C  26.35500 2.56300 34.70500
C  27.12100 2.29800 35.95700
H  26.94300 3.35600 37.09200
N  23.56700 1.01300 29.30000
C  22.62500 1.21700 30.30100
C  21.35100 1.38300 29.61200
C  21.53500 1.25000 28.23200
C  23.01400 1.11100 28.05900
C  20.12700 1.77600 30.30500
C  20.48400 1.40000 27.07700
O  20.76100 1.16200 25.89100
C  19.07700 1.71200 27.44000
N  25.98000 0.51200 27.65600
C  25.08900 0.61800 26.65700
C  25.79100 0.37000 25.23400
C  27.26600 0.12700 25.57700
C  27.26000 0.13900 27.12100
C  25.11700 -0.86300 24.50800
C  28.21700 1.21900 24.97600
C  28.15900 1.62900 23.47900
N  27.48000 0.12100 30.08500
C  28.53800 -0.23100 29.23600
C  29.74600 -0.45500 30.02200
C  29.34500 -0.25200 31.30700
C  27.98700 0.10100 31.31400
C  31.09300 -0.95400 29.40300
C  29.80400 -0.29900 32.66800
O  30.86200 -0.57000 33.19400
C  28.58600 0.16100 33.56200
C  28.26600 -0.91300 34.58000
O  27.48500 -1.85700 34.40900
O  28.96400 -0.55900 35.68500
C  28.63900 -1.33200 36.89500
H  21.98500 1.76900 32.36600
H  23.06800 0.85300 26.00100
H  29.25700 -0.56200 27.18100
H  25.71300 0.37000 34.69300
H  23.67200 2.38000 34.15800
H  22.89700 -0.48800 33.99000
H  22.30700 0.69300 35.15800
H  23.88300 -0.09200 35.51400
H  25.62100 3.32100 34.97800
H  27.01600 2.89200 33.90300
H  28.17000 2.36400 35.67000
H  26.94700 1.28400 36.31900
H  19.45700 0.95300 30.55400
H  19.38800 2.46600 29.89800
H  20.33000 2.21600 31.28200
H  18.26800 1.62700 26.71400
H  19.19300 2.75500 27.73700
H  18.79600 1.04200 28.25200
H  25.63100 1.19500 24.53900
H  27.75000 -0.78500 25.22700
H  24.70300 -1.63700 25.15400
H  26.00300 -1.36400 24.11800
H  24.32800 -0.47800 23.86100
H  29.26800 0.96400 25.11300
H  28.10100 2.13500 25.55400
H  29.18200 1.64100 23.10200
H  27.76200 2.64300 23.51600
H  27.60500 0.96200 22.81900
H  31.35800 -0.48900 28.45400
H  30.86400 -1.98500 29.13300
H  31.99900 -0.91100 30.00800
H  28.88800 1.12000 33.98400
H  28.74100 -2.38800 36.64300
H  27.63800 -1.17200 37.29500
H  29.34500 -1.07500 37.68500
Mg 46.20600 16.15200 28.24000
C  44.15400 15.64000 31.01700
C  48.43800 17.96000 30.13500
C  48.08100 16.73500 25.42600
C  43.84000 14.44400 26.15100
N  46.22300 16.65600 30.30700
C  45.31300 16.33300 31.32700
C  45.82200 16.98500 32.65200
C  47.10400 17.77300 32.26300
C  47.28600 17.40400 30.77900
C  47.04300 19.34600 32.37600
C  45.97800 15.98700 33.79500
C  45.59100 16.43200 35.21100
H  45.45800 18.02400 35.47900
N  47.98400 17.24300 27.85000
C  48.82600 17.81200 28.78900
C  50.10500 18.18300 28.16800
C  49.90200 17.94200 26.73900
C  48.57300 17.25100 26.58900
C  51.32900 18.73000 28.99200
C  50.82200 18.29700 25.61000
O  50.60300 18.01800 24.44000
C  52.08800 18.92800 25.85100
N  46.04600 15.59600 26.16500
C  47.01600 15.95000 25.28800
C  46.66300 15.34700 23.88400
C  45.27300 14.64400 24.07600
C  45.04200 14.82600 25.64000
C  46.81100 16.30300 22.71600
C  45.20500 13.15200 23.62500
C  45.95300 12.19800 24.57300
N  44.42700 15.12500 28.48900
C  43.51800 14.54100 27.58800
C  42.31300 14.06500 28.29400
C  42.50300 14.57200 29.66200
C  43.80100 15.11800 29.75900
C  41.13300 13.43400 27.68900
C  41.90600 14.61500 31.00800
O  40.84100 14.11400 31.41900
C  43.02800 15.36300 31.91800
C  42.48200 16.45300 32.71100
O  42.33200 17.62900 32.35500
O  42.16700 15.96300 33.97900
C  41.35600 16.78900 34.90600
H  49.15700 18.54300 30.71400
H  48.67400 16.81600 24.51200
H  43.18100 13.97700 25.41600
H  45.04000 17.67700 32.96200
H  47.91400 17.43100 32.90700
H  46.24300 19.81100 32.95200
H  47.05900 19.81500 31.39300
H  47.99500 19.60100 32.84300
H  47.00200 15.64200 33.93600
H  45.34900 15.16000 33.46800
H  46.38600 16.15800 35.90400
H  44.70300 15.88400 35.52700
H  51.21700 18.60600 30.06900
H  51.32300 19.76500 28.65200
H  52.21700 18.16200 28.71200
H  52.07100 19.82300 26.47300
H  52.61100 19.14200 24.91900
H  52.68200 18.18300 26.38100
H  47.39600 14.57600 23.64700
H  44.46600 15.19700 23.59500
H  45.85100 16.41000 22.21100
H  47.55600 16.07300 21.95400
H  46.99900 17.31400 23.07600
H  45.56300 13.02000 22.60400
H  44.16100 12.86300 23.50800
H  45.25400 11.66800 25.22000
H  46.78700 12.60500 25.14500
H  46.29000 11.39900 23.91200
H  40.79300 12.70100 28.42000
H  41.41700 13.10800 26.68800
H  40.34300 14.16500 27.51900
H  43.22900 14.56700 32.63400
H  40.41500 17.12200 34.46900
H  41.88200 17.64000 35.34000
H  40.91100 16.20700 35.71300

