158

Mg 40.96800 8.31000 29.69400
C  42.68700 9.87600 32.33300
C  38.85800 7.20400 32.04200
C  39.21800 6.81000 27.22600
C  43.51300 9.12800 27.54700
N  40.82800 8.42900 31.90500
C  41.59400 9.16500 32.76200
C  40.99800 9.15200 34.15600
C  39.95500 8.09600 34.10500
C  39.90100 7.89600 32.54400
C  40.15600 6.64800 34.84000
C  40.44100 10.57400 34.64800
C  39.76600 10.61500 36.04700
H  40.11900 11.65400 37.13600
N  39.26400 7.22600 29.60400
C  38.50900 6.89500 30.72300
C  37.37200 6.12600 30.30100
C  37.31600 6.20300 28.88100
C  38.64500 6.74100 28.48700
C  36.44100 5.42000 31.30600
C  36.33500 5.80000 27.89000
O  36.47100 6.05200 26.67300
C  35.14100 5.21100 28.31900
N  41.41700 7.79300 27.69800
C  40.48300 7.21000 26.88200
C  41.03500 7.20500 25.43500
C  42.43100 8.03200 25.53400
C  42.49700 8.27800 27.03600
C  41.07500 5.86300 24.68500
C  42.61600 9.24000 24.64400
C  42.04500 10.63200 25.12100
N  42.79700 9.24500 29.86500
C  43.68000 9.56400 28.91700
C  44.67000 10.41400 29.41600
C  44.29600 10.65700 30.77200
C  43.17700 9.87000 31.01100
C  45.79800 11.03300 28.66100
C  44.63200 11.33200 32.00500
O  45.59700 12.10600 32.24600
C  43.58800 10.87900 33.09500
C  44.29400 10.26200 34.21600
O  44.50500 9.03600 34.45200
O  44.57400 11.23000 35.15600
C  44.97200 10.72000 36.46900
H  38.18400 6.90300 32.84700
H  38.65100 6.28900 26.45200
H  44.16200 9.54600 26.77400
H  41.84900 8.81900 34.74900
H  38.99300 8.33200 34.55900
H  39.29800 6.44300 35.48000
H  41.01000 6.78900 35.50200
H  40.30300 5.82500 34.14000
H  39.82500 10.88500 33.80500
H  41.35200 11.15000 34.81300
H  39.85300 9.61700 36.47700
H  38.70700 10.81300 35.88000
H  35.57800 4.87400 30.92500
H  36.09600 6.08600 32.09700
H  37.08900 4.69300 31.79700
H  34.72600 6.01400 28.92900
H  35.30800 4.22700 28.75800
H  34.55600 5.01500 27.42100
H  40.37200 7.91700 24.94300
H  43.26600 7.36800 25.31200
H  41.09100 5.04900 25.40900
H  42.00300 5.80200 24.11500
H  40.19100 5.72300 24.06200
H  42.14900 8.88000 23.72800
H  43.69400 9.36400 24.53600
H  41.71100 10.65800 26.15800
H  41.13900 10.91400 24.58500
H  42.82100 11.39700 25.10100
H  45.47100 11.99000 28.25400
H  46.21200 10.43100 27.85200
H  46.55200 11.31000 29.39700
H  43.08500 11.81800 33.32300
H  44.56400 11.32500 37.27800
H  46.04500 10.60100 36.61800
H  44.73200 9.68000 36.69000
Mg 42.00400 41.26800 27.17000
C  41.40100 43.80500 29.39200
C  42.82400 39.29400 29.76200
C  42.83700 38.83200 24.94100
C  41.55800 43.48000 24.57100
N  42.31900 41.58200 29.33200
C  41.74400 42.63200 30.05900
C  41.68700 42.36600 31.61600
C  42.48400 41.02700 31.72500
C  42.52700 40.56100 30.24300
C  43.85400 40.84300 32.47900
C  40.24700 42.37400 32.21300
C  39.94400 43.36500 33.36100
H  39.31500 42.76900 34.58500
N  42.75700 39.30300 27.31000
C  42.92600 38.62600 28.50500
C  43.18600 37.23800 28.20100
C  43.23300 37.05700 26.79000
C  42.90900 38.41300 26.28200
C  43.42600 36.21700 29.35900
C  43.58000 35.78900 25.95500
O  43.78400 35.82100 24.75700
C  43.91400 34.46500 26.57100
N  42.33100 41.25400 25.06100
C  42.50300 40.08600 24.41500
C  42.33200 40.23000 22.90100
C  41.85800 41.69900 22.72000
C  41.92000 42.18000 24.18300
C  43.50700 39.68800 22.04000
C  40.52100 41.91900 21.91600
C  39.24700 42.18300 22.70000
N  41.72600 43.28400 26.95900
C  41.53300 44.03500 25.85100
C  41.11200 45.41500 26.27900
C  41.01200 45.34300 27.64100
C  41.42800 44.02400 27.99400
C  40.61300 46.52500 25.29800
C  40.70000 46.08400 28.75400
O  40.16400 47.18500 28.90000
C  40.83900 45.11400 29.96300
C  41.51900 45.87500 31.05400
O  42.70300 46.24900 31.08500
O  40.54300 46.22100 31.96300
C  40.98100 46.72400 33.26900
H  42.94500 38.73300 30.69200
H  42.98100 38.04900 24.19300
H  41.21200 44.04000 23.70100
H  42.20200 43.11000 32.22500
H  41.78100 40.31800 32.16300
H  44.71600 40.97400 31.82400
H  43.75900 39.91100 33.03500
H  43.88700 41.64700 33.21400
H  39.97300 41.35800 32.49700
H  39.57600 42.46000 31.35900
H  39.22600 44.13300 33.07500
H  40.86400 43.82200 33.72600
H  43.74700 36.64300 30.31000
H  44.23100 35.49700 29.21400
H  42.50200 35.63900 29.38200
H  43.02000 34.33200 27.18100
H  44.79500 34.36100 27.20500
H  43.95100 33.63300 25.86800
H  41.45100 39.60200 22.76900
H  42.53500 42.21700 22.04100
H  43.70300 40.44400 21.28000
H  43.25500 38.72500 21.59500
H  44.42700 39.55600 22.61100
H  40.49600 41.09100 21.20700
H  40.88400 42.79300 21.37500
H  39.40000 41.79000 23.70500
H  38.36500 41.64000 22.36000
H  38.99000 43.23000 22.53800
H  39.82000 46.22100 24.61500
H  41.38400 47.10300 24.78900
H  40.14000 47.26700 25.94100
H  39.94600 44.81900 30.51400
H  41.88100 47.32700 33.14600
H  40.99900 45.96700 34.05300
H  40.11700 47.37500 33.40300

