158

Mg 35.03800 2.86900 29.11700
C  33.08400 3.93700 31.82700
C  37.86400 3.20100 31.09100
C  36.91400 1.90400 26.52600
C  32.19500 2.84100 27.18700
N  35.41800 3.28200 31.25700
C  34.45800 3.69400 32.17700
C  35.06800 3.63900 33.53500
C  36.57700 3.77300 33.26800
C  36.66000 3.43600 31.74800
C  37.27500 5.16700 33.65900
C  34.55500 2.52600 34.47900
C  34.35100 2.92400 35.93800
H  35.22700 3.98100 36.65900
N  37.14400 2.53500 28.84500
C  38.10500 2.80700 29.79200
C  39.39700 2.59100 29.15800
C  39.18500 2.13400 27.78300
C  37.68900 2.16900 27.64000
C  40.67100 2.97000 29.90500
C  40.11100 1.65000 26.68400
O  39.70200 1.33400 25.58800
C  41.53400 1.42300 26.93200
N  34.59200 2.40900 27.14800
C  35.52500 1.98500 26.29300
C  34.89500 1.49600 24.95400
C  33.37500 1.82200 25.18300
C  33.36500 2.49100 26.59100
C  35.61800 1.90400 23.67100
C  32.54400 0.50800 24.87000
C  32.37600 -0.56100 25.96000
N  33.07200 3.32900 29.32700
C  32.05100 3.27200 28.48000
C  30.85800 3.75800 29.01600
C  31.24100 4.02300 30.37400
C  32.57800 3.75100 30.50400
C  29.52600 3.68500 28.40300
C  30.69600 4.54900 31.66900
O  29.64000 5.02700 31.95600
C  31.87300 4.23300 32.69200
C  32.04700 5.40600 33.52900
O  32.38700 6.54500 33.11400
O  31.67800 5.13800 34.85700
C  31.50900 6.30600 35.75000
H  38.76300 3.27200 31.70700
H  37.47100 1.41600 25.72400
H  31.30600 2.90400 26.55500
H  34.78500 4.56300 34.03900
H  37.04100 2.92900 33.78000
H  37.86200 4.98000 34.55900
H  36.48300 5.83100 34.00600
H  37.84900 5.52200 32.80300
H  35.30100 1.73200 34.45000
H  33.60600 2.15000 34.09500
H  34.35400 2.03900 36.57500
H  33.33400 3.31600 35.95800
H  41.00500 2.18100 30.58000
H  40.65600 3.89100 30.48700
H  41.44400 2.97600 29.13600
H  42.08100 2.36500 26.90300
H  41.89600 0.76600 26.14100
H  41.54700 0.87800 27.87600
H  35.03400 0.43800 25.17900
H  33.14700 2.53900 24.39400
H  36.18000 2.82100 23.84300
H  34.78900 1.97800 22.96800
H  36.25300 1.16300 23.18500
H  32.97600 -0.00600 24.01200
H  31.53100 0.82300 24.62000
H  32.92000 -1.48500 25.76500
H  31.30600 -0.71200 26.10900
H  32.83900 -0.26600 26.90100
H  28.81500 4.21600 29.03600
H  29.17400 2.66500 28.25000
H  29.49000 4.22900 27.46000
H  31.58000 3.45600 33.39900
H  30.48700 6.64600 35.92100
H  31.99700 7.24900 35.50100
H  31.89200 6.02000 36.72900
Mg 43.00000 41.81700 26.51400
C  42.07300 44.21000 28.84200
C  44.16000 39.91800 28.95700
C  43.95700 39.66900 24.14300
C  42.95400 44.43700 24.13300
N  42.87100 41.99200 28.66300
C  42.46200 43.05800 29.43600
C  42.51500 42.67500 30.91600
C  43.47700 41.43900 30.85500
C  43.49700 41.10200 29.40500
C  44.91700 41.71300 31.47500
C  41.12000 42.35700 31.48300
C  40.59600 43.02200 32.76300
H  41.51400 43.03300 33.94500
N  43.85900 40.05100 26.56500
C  44.27800 39.38600 27.64800
C  44.66100 38.03000 27.36800
C  44.58400 37.93700 25.90300
C  44.07000 39.27200 25.47100
C  45.09700 36.94500 28.36200
C  44.80100 36.70500 24.96700
O  44.83700 36.68900 23.76300
C  44.88400 35.39100 25.61400
N  43.37900 42.02000 24.42700
C  43.80900 41.00700 23.68700
C  43.82700 41.40100 22.16700
C  43.35000 42.93200 22.21900
C  43.17800 43.16700 23.71200
C  45.22800 41.29500 21.52000
C  41.96100 43.21400 21.51500
C  40.67300 42.86700 22.32500
N  42.44100 43.90500 26.38600
C  42.49900 44.85300 25.40900
C  41.91200 46.11900 25.81200
C  41.69600 45.88300 27.19600
C  42.10300 44.55500 27.47200
C  41.66900 47.32000 25.02200
C  41.26200 46.50300 28.46100
O  40.93400 47.65800 28.63100
C  41.51600 45.37400 29.58800
C  42.29100 45.92500 30.68900
O  43.51700 46.08700 30.67100
O  41.50700 46.10300 31.77200
C  42.22900 46.39500 32.98400
H  44.60400 39.35500 29.78100
H  44.09800 38.96100 23.32400
H  42.90400 45.17400 23.32900
H  42.84100 43.41700 31.64400
H  43.14600 40.56600 31.41800
H  45.10700 40.92700 32.20600
H  44.92000 42.65500 32.02300
H  45.66300 41.58600 30.69000
H  41.06800 41.28700 31.68700
H  40.40700 42.54700 30.68100
H  39.65200 42.57000 33.06900
H  40.33400 44.05300 32.52500
H  46.17200 36.90000 28.18700
H  44.66600 35.95200 28.23300
H  44.87000 37.23200 29.38900
H  44.76800 34.66300 24.81100
H  43.97600 35.26400 26.20400
H  45.75500 35.37700 26.27000
H  43.12700 40.75100 21.64300
H  44.08500 43.60100 21.77000
H  46.03500 40.91100 22.14500
H  45.58700 42.25800 21.15800
H  45.17900 40.71100 20.60100
H  41.88700 42.57900 20.63200
H  41.98900 44.27100 21.25100
H  40.46100 41.80400 22.21200
H  39.90200 43.45700 21.82900
H  40.69700 42.97900 23.40900
H  42.02900 48.22800 25.50700
H  40.59500 47.35500 24.84000
H  42.15600 47.19500 24.05500
H  40.56400 45.06500 30.02100
H  42.92700 45.58300 33.18800
H  41.69000 46.40600 33.93100
H  42.65200 47.39900 32.96300

