158

Mg 47.67000 34.79400 26.81200
C  45.97800 33.15000 29.22100
C  47.93000 37.64000 28.71600
C  49.22300 36.52600 24.12400
C  47.07000 32.12300 24.59700
N  46.89900 35.36400 28.69900
C  46.51300 34.43000 29.63500
C  46.63500 35.02500 31.00300
C  46.74000 36.62200 30.69500
C  47.29300 36.51100 29.30900
C  45.36000 37.34500 30.68300
C  47.74400 34.49100 31.85500
C  47.77900 34.85000 33.37100
H  46.66700 35.57900 34.07200
N  48.21400 36.86700 26.41700
C  48.44800 37.79100 27.36100
C  49.01300 39.02400 26.89300
C  49.48200 38.66500 25.56800
C  48.97600 37.31800 25.25700
C  49.15700 40.31500 27.61900
C  50.29900 39.56300 24.56800
O  50.54900 39.24100 23.39200
C  50.84500 40.95300 25.04500
N  48.02400 34.36600 24.61400
C  48.68200 35.21100 23.77800
C  48.97000 34.50200 22.41900
C  48.42300 33.01500 22.63700
C  47.84600 33.11300 24.07400
C  48.35800 35.21900 21.14400
C  49.57000 31.95300 22.60600
C  49.82800 31.14100 21.28500
N  46.79100 32.89300 26.82600
C  46.47000 31.98200 25.89300
C  45.58400 30.96900 26.45100
C  45.38100 31.32300 27.76200
C  46.14000 32.51000 27.96700
C  45.05200 29.76800 25.85500
C  44.75100 31.01300 29.07100
O  44.10900 30.04200 29.50300
C  44.91500 32.31100 29.90100
C  45.36200 31.96300 31.30300
O  46.45500 31.48700 31.56300
O  44.27100 32.18400 32.17200
C  44.53900 31.53500 33.50500
H  48.14400 38.38000 29.49100
H  50.01000 36.90700 23.46900
H  46.86800 31.28700 23.92400
H  45.72000 34.88400 31.57800
H  47.38900 37.21400 31.34100
H  44.88300 37.25800 29.70700
H  45.56000 38.40600 30.83200
H  44.61700 36.99700 31.40100
H  48.58700 34.96900 31.35600
H  47.98600 33.45200 31.63400
H  48.66400 35.46900 33.52000
H  47.86900 33.95300 33.98300
H  48.43100 40.24500 28.42900
H  48.90700 41.13300 26.94400
H  50.12800 40.46700 28.09100
H  49.95200 41.57500 25.10200
H  51.52000 41.44100 24.34100
H  51.41400 40.76700 25.95600
H  50.05200 34.41900 22.31100
H  47.54400 32.81700 22.02400
H  47.42700 34.70900 20.89800
H  48.94600 34.99100 20.25500
H  48.05000 36.21100 21.47600
H  49.31600 31.17900 23.33000
H  50.45600 32.45900 22.98900
H  49.27400 31.44700 20.39700
H  49.57400 30.10700 21.51900
H  50.89100 31.30900 21.11200
H  44.70200 30.06300 24.86600
H  44.17700 29.42800 26.40700
H  45.77900 28.96100 25.94100
H  43.96300 32.82800 30.02800
H  43.56000 31.35600 33.95000
H  45.17600 32.24500 34.03200
H  45.01900 30.57600 33.31200
Mg -11.39300 37.99200 42.38400
C  -9.04500 35.44000 41.16900
C  -9.42800 40.30800 40.80200
C  -13.91700 39.95100 42.65700
C  -13.22000 35.26500 43.67300
N  -9.52700 37.81700 40.96900
C  -8.78100 36.70800 40.63100
C  -7.58800 37.09900 39.79000
C  -7.67500 38.68300 39.75000
C  -8.93500 38.98500 40.64300
C  -6.37500 39.40600 40.04500
C  -7.61500 36.42000 38.36800
C  -6.26800 35.81100 37.87600
H  -5.55300 36.53000 36.72000
N  -11.58000 39.97100 41.95100
C  -10.69400 40.76600 41.37200
C  -11.20800 42.14100 41.46100
C  -12.52500 42.06900 42.00300
C  -12.75800 40.62000 42.18500
C  -10.56900 43.41600 40.94400
C  -13.45600 43.22800 42.41400
O  -13.19800 44.40400 42.15500
C  -14.75400 42.90200 43.15400
N  -13.27200 37.71000 43.13400
C  -14.14400 38.65100 43.12500
C  -15.52800 38.19200 43.61100
C  -15.35500 36.61100 43.88200
C  -13.87700 36.50500 43.57100
C  -15.96300 39.00000 44.80300
C  -16.18600 35.70800 42.81800
C  -17.27200 34.89800 43.60400
N  -11.21100 35.77700 42.64300
C  -11.94300 34.91200 43.32500
C  -11.19600 33.60900 43.31100
C  -10.15200 33.79100 42.53600
C  -10.14700 35.11400 42.07200
C  -11.69200 32.33200 43.87200
C  -9.02100 33.14800 41.80200
O  -8.61700 32.01700 41.80000
C  -8.17100 34.24200 41.06000
C  -6.87600 34.27100 41.84200
O  -6.01900 33.40000 41.70600
O  -6.77100 35.35300 42.63500
C  -5.56900 35.39500 43.41900
H  -8.81300 41.11600 40.39900
H  -14.83900 40.50800 42.48000
H  -13.88300 34.54300 44.15300
H  -6.66000 36.79400 40.27200
H  -8.02100 39.19900 38.85400
H  -5.65000 38.89900 40.68100
H  -6.59500 40.39700 40.44300
H  -5.85600 39.61700 39.11000
H  -7.92900 37.16900 37.64200
H  -8.45200 35.72200 38.35400
H  -6.56700 34.77800 37.70000
H  -5.47900 35.71800 38.62200
H  -11.23100 43.89800 40.22500
H  -9.65700 43.18200 40.39500
H  -10.30300 44.08300 41.76400
H  -15.19600 43.79600 43.59400
H  -14.50400 42.21300 43.96000
H  -15.48100 42.42500 42.49700
H  -16.29200 38.36000 42.85200
H  -15.55800 36.34100 44.91900
H  -15.13200 38.83000 45.48800
H  -16.87500 38.67300 45.30200
H  -16.12000 40.06900 44.65500
H  -15.42800 35.05000 42.39300
H  -16.72400 36.16500 41.98800
H  -18.18000 34.75800 43.01900
H  -17.59600 35.43700 44.49400
H  -16.84100 33.91500 43.79600
H  -12.61800 32.49100 44.42400
H  -10.96000 31.96100 44.59000
H  -11.79900 31.62300 43.05100
H  -7.94200 33.91400 40.04600
H  -5.63600 36.24300 44.10100
H  -4.71900 35.51100 42.74600
H  -5.39400 34.51400 44.03500

