158

Mg 30.09400 56.45500 41.11400
C  27.01300 55.28400 39.81900
C  31.60500 53.73300 39.61500
C  33.02600 57.96100 41.44600
C  28.45300 59.40300 41.94300
N  29.33300 54.67100 39.99600
C  28.13100 54.46100 39.48900
C  27.99700 53.24600 38.56800
C  29.29500 52.53300 38.98400
C  30.18800 53.69000 39.69000
C  29.19000 51.25400 39.88700
C  27.92600 53.51100 37.00800
C  27.85500 54.87500 36.49400
H  27.08600 55.22600 35.23500
N  32.10000 55.93000 40.59500
C  32.50000 54.77300 40.02600
C  33.83300 54.86700 39.63500
C  34.36100 56.06600 40.22700
C  33.19200 56.71900 40.82800
C  34.43100 53.82600 38.69300
C  35.82300 56.59500 40.03400
O  36.66900 55.96600 39.35100
C  36.23900 57.94200 40.54200
N  30.65100 58.38300 41.64800
C  31.98800 58.71900 41.85800
C  32.11500 60.24400 42.26600
C  30.62900 60.60500 42.68800
C  29.87500 59.40300 42.03600
C  33.13700 60.48600 43.46600
C  30.20800 61.96300 42.20300
C  29.16000 62.83100 43.04500
N  28.08800 57.19900 41.04100
C  27.57300 58.38000 41.49400
C  26.16900 58.33700 41.29700
C  25.92000 57.13400 40.64400
C  27.12600 56.44900 40.51700
C  25.27500 59.50400 41.56800
C  24.84800 56.34000 40.19400
O  23.66300 56.48400 40.21300
C  25.46400 55.09800 39.53100
C  24.87700 53.93600 40.12200
O  25.25200 53.30600 41.08900
O  23.90600 53.49100 39.27300
C  23.26400 52.18700 39.59300
H  32.09600 52.79800 39.33900
H  33.96300 58.50600 41.57700
H  28.08200 60.38300 42.25000
H  27.13200 52.62300 38.79600
H  30.00000 52.26800 38.19700
H  29.77800 51.43400 40.78800
H  29.69400 50.44300 39.36200
H  28.15300 51.00400 40.11500
H  27.03200 52.99100 36.66300
H  28.71900 53.13900 36.36000
H  28.89600 55.15800 36.33700
H  27.66900 55.70500 37.17500
H  33.97300 54.04700 37.72900
H  34.26000 52.77700 38.93800
H  35.51600 53.85500 38.58800
H  35.70200 58.69800 39.96800
H  37.27900 58.05100 40.23500
H  36.19400 57.99800 41.63000
H  32.21800 60.71300 41.28700
H  30.32900 60.46400 43.72600
H  33.69300 59.57200 43.67000
H  32.70400 60.88900 44.38200
H  33.73400 61.32700 43.11500
H  29.84600 61.76200 41.19500
H  31.11600 62.54900 42.06500
H  29.69100 63.69000 43.45600
H  28.68300 62.22900 43.81800
H  28.35400 63.13500 42.37700
H  24.74500 59.67500 40.63100
H  25.74700 60.41900 41.92500
H  24.58000 59.27100 42.37600
H  25.30400 55.12200 38.45300
H  23.93100 51.50500 40.12000
H  22.81600 51.76700 38.69300
H  22.41000 52.46900 40.20900
Mg 7.21200 55.59300 40.57100
C  6.05600 52.25500 40.27400
C  10.39000 54.46800 39.78000
C  8.28600 58.86400 40.25100
C  3.95300 56.59600 40.96200
N  8.01700 53.58800 39.83200
C  7.38000 52.34800 39.96300
C  8.43100 51.27700 39.67900
C  9.80000 52.03100 39.81600
C  9.40500 53.47400 39.77200
C  10.66100 51.64000 41.02400
C  8.32200 50.62500 38.26500
C  7.89500 51.55900 37.07200
H  6.43400 51.44000 36.52100
N  9.05500 56.53400 40.07500
C  10.25000 55.89300 39.80100
C  11.27200 56.87600 39.50600
C  10.72000 58.12900 39.69400
C  9.32800 57.87000 40.13200
C  12.70500 56.54800 39.19200
C  11.46100 59.43500 39.50000
O  12.65700 59.49800 39.36000
C  10.76800 60.72500 39.64700
N  6.17600 57.43900 40.46700
C  6.88400 58.61700 40.48100
C  5.83000 59.76800 40.53600
C  4.44700 59.06500 40.94900
C  4.87200 57.59400 40.84300
C  6.17300 60.93200 41.52000
C  3.29200 59.54600 40.03900
C  2.08300 60.15700 40.80000
N  5.41600 54.63000 40.62300
C  4.19900 55.22500 40.90700
C  3.19200 54.20800 41.12400
C  3.91400 52.99300 40.92200
C  5.22800 53.33700 40.63600
C  1.67200 54.33700 41.35200
C  3.91200 51.54000 40.92100
O  2.96000 50.86100 41.18200
C  5.30000 51.00400 40.45300
C  5.11300 50.09100 39.33000
O  4.41900 50.42400 38.38500
O  5.59500 48.79400 39.54500
C  5.33000 47.81500 38.53700
H  11.40300 54.06000 39.75400
H  8.53000 59.91800 40.10300
H  2.90400 56.82300 41.16100
H  8.40900 50.48800 40.43100
H  10.46300 51.69600 39.01800
H  11.55300 51.12000 40.67500
H  10.11500 51.02100 41.73600
H  11.03900 52.49900 41.57800
H  7.64100 49.77500 38.31500
H  9.30900 50.27200 37.96600
H  8.49900 51.29600 36.20300
H  8.05700 52.62400 37.24200
H  12.83100 55.48800 38.97000
H  13.33900 56.91900 39.99800
H  12.94600 57.08200 38.27300
H  11.50000 61.51200 39.46400
H  10.34700 60.74100 40.65200
H  10.02500 60.61700 38.85700
H  5.82100 60.01800 39.47500
H  4.27000 59.19500 42.01700
H  6.44600 61.87000 41.03500
H  7.05500 60.61200 42.07400
H  5.32300 61.13800 42.17000
H  3.10600 58.71700 39.35600
H  3.60300 60.36300 39.38700
H  1.38900 59.32300 40.69800
H  1.73500 61.08700 40.35000
H  2.18500 60.23200 41.88200
H  1.15100 53.49700 41.81100
H  1.10400 54.44200 40.42800
H  1.40000 55.22600 41.92100
H  5.60300 50.45200 41.34200
H  6.05100 46.99800 38.49900
H  5.12600 48.16000 37.52300
H  4.37400 47.41500 38.87600

