158

Mg 17.50100 -1.97700 28.44300
C  16.35200 0.06900 31.07000
C  19.06300 -4.03300 30.80600
C  19.01800 -3.50200 25.90200
C  16.17000 0.34900 26.23100
N  17.67800 -2.02100 30.66800
C  17.23600 -0.98200 31.53300
C  17.50900 -1.31000 32.93100
C  18.40900 -2.57100 32.86600
C  18.49000 -2.87300 31.36200
C  19.73000 -2.43500 33.69100
C  16.26800 -1.55200 33.86700
C  16.27500 -0.80000 35.22000
H  17.69100 -0.55200 35.78700
N  18.81700 -3.59300 28.34600
C  19.32700 -4.31500 29.42100
C  20.20500 -5.32000 28.93000
C  20.13500 -5.19600 27.48800
C  19.29400 -4.08100 27.15500
C  20.97300 -6.29300 29.80200
C  20.87500 -6.06300 26.37200
O  20.60300 -5.95800 25.15300
C  22.02700 -7.09200 26.87200
N  17.23800 -1.85700 26.32400
C  18.14800 -2.48600 25.53700
C  18.29100 -1.85700 24.15500
C  17.14600 -0.79400 24.13200
C  16.74300 -0.77200 25.64700
C  19.69300 -1.42900 23.84900
C  15.88400 -0.94900 23.33400
C  15.65600 -0.04600 22.10700
N  16.32400 -0.27500 28.56200
C  15.82300 0.61200 27.54200
C  14.99500 1.67300 28.17300
C  15.27300 1.54400 29.54900
C  16.05300 0.37800 29.73500
C  14.15300 2.66500 27.54800
C  14.96600 2.09200 30.83400
O  14.24600 3.08400 31.10900
C  15.67000 1.16900 31.86700
C  16.54700 2.03700 32.66300
O  17.77300 2.07100 32.60200
O  15.69000 2.73700 33.54600
C  16.39500 3.77300 34.34400
H  19.52300 -4.70900 31.53000
H  19.66300 -3.84700 25.09100
H  16.02100 1.16900 25.52500
H  17.99400 -0.39300 33.26600
H  17.87700 -3.37200 33.38000
H  20.63200 -2.51800 33.08300
H  19.84000 -3.13700 34.51700
H  19.75200 -1.46200 34.18200
H  15.98500 -2.57900 34.09900
H  15.43500 -1.26500 33.22500
H  15.80700 -1.33600 36.04500
H  15.78900 0.14700 34.98500
H  22.02200 -6.09900 29.57700
H  20.66400 -7.33700 29.74600
H  20.88300 -5.96200 30.83700
H  22.65900 -7.39400 26.03600
H  21.42000 -7.94900 27.16400
H  22.60400 -6.50900 27.59000
H  18.01200 -2.60200 23.41000
H  17.53700 0.18500 23.85500
H  19.83500 -0.35100 23.92100
H  19.99400 -1.90000 22.91300
H  20.39000 -1.88700 24.55100
H  14.98300 -0.82500 23.93500
H  15.73400 -2.01300 23.15000
H  16.41100 0.73800 22.04400
H  14.67800 0.42200 22.22000
H  15.45200 -0.52400 21.14900
H  14.11600 2.53600 26.46600
H  14.42100 3.68100 27.83900
H  13.18700 2.43700 27.99800
H  14.80200 0.78500 32.40300
H  17.24700 3.40600 34.91600
H  15.77700 4.18300 35.14300
H  16.67400 4.63700 33.74000
Mg 35.48100 2.28200 30.17000
C  33.18500 3.09900 32.58900
C  38.01600 2.41400 32.73900
C  37.89200 2.03000 27.86800
C  33.02900 2.71700 27.71300
N  35.56000 2.76000 32.45600
C  34.44900 3.01400 33.14500
C  34.79200 3.11500 34.58600
C  36.37500 3.13700 34.64600
C  36.74500 2.79400 33.20200
C  36.95400 4.50100 35.10100
C  34.18800 1.87000 35.42200
C  34.03500 2.00600 36.98500
H  34.49300 3.32600 37.56100
N  37.59500 1.94900 30.29600
C  38.44900 2.10900 31.39200
C  39.76000 1.67400 31.08000
C  39.81700 1.69600 29.66900
C  38.41700 1.92900 29.20800
C  40.75500 1.35700 32.15200
C  40.93000 1.46000 28.75000
O  40.79300 1.36000 27.54800
C  42.30300 1.32400 29.25500
N  35.49300 2.24300 28.06600
C  36.61500 2.17700 27.37500
C  36.25000 2.22600 25.87100
C  34.72500 2.34100 25.80900
C  34.36800 2.47000 27.27600
C  36.96800 3.43100 25.13900
C  33.96400 1.11000 25.20800
C  33.74600 -0.18700 26.00300
N  33.50300 2.78500 30.09100
C  32.64400 2.85200 29.04700
C  31.32600 3.13900 29.55200
C  31.52000 3.31600 30.91700
C  32.85800 3.04200 31.23400
C  30.12500 3.31300 28.66600
C  30.82900 3.65300 32.13800
O  29.68400 3.91200 32.34600
C  31.83200 3.50400 33.29300
C  31.78900 4.84500 34.07300
O  32.44300 5.82400 33.78800
O  31.00400 4.81700 35.18100
C  31.22700 5.96100 36.12600
H  38.76500 2.52600 33.52500
H  38.62500 1.93600 27.06400
H  32.29300 2.92800 26.93400
H  34.41000 4.08700 34.89900
H  36.87600 2.41700 35.29400
H  36.26400 5.31600 35.32100
H  37.57600 4.81200 34.26200
H  37.53300 4.43100 36.02200
H  34.84900 1.01100 35.31400
H  33.31100 1.44400 34.93400
H  34.54500 1.21000 37.52700
H  32.96600 1.90500 37.17500
H  41.16800 2.32000 32.45100
H  41.62800 0.85000 31.74200
H  40.33600 0.90500 33.05200
H  42.85500 1.10300 28.34200
H  42.40400 0.43300 29.87600
H  42.59600 2.18300 29.85900
H  36.53100 1.27700 25.41500
H  34.28100 3.20300 25.31300
H  36.40500 4.24400 24.68200
H  37.58000 3.04200 24.32400
H  37.63100 3.85900 25.89000
H  34.45500 0.83800 24.27400
H  32.93700 1.33100 24.91700
H  32.71700 -0.54300 26.03200
H  33.97900 0.06900 27.03600
H  34.30300 -1.00200 25.54000
H  30.21500 2.59600 27.85000
H  30.03700 4.35900 28.37300
H  29.20600 2.96000 29.13500
H  31.53500 2.70900 33.97700
H  30.60300 5.71000 36.98300
H  30.86900 6.83500 35.58100
H  32.30400 5.94800 36.29200

