158

Mg 2.63300 -2.31300 44.35800
C  6.00700 -1.26500 43.98200
C  1.76800 0.32100 42.29300
C  -0.32400 -3.79600 44.00200
C  3.98000 -5.16700 45.97700
N  3.74900 -0.66100 43.25000
C  5.12400 -0.51400 43.17100
C  5.60200 0.51200 42.12300
C  4.20400 1.27700 41.87800
C  3.15400 0.28800 42.53600
C  4.05600 2.67300 42.50500
C  6.27400 -0.11600 40.83800
C  7.71700 0.28800 40.50100
H  8.17200 0.44700 39.05900
N  0.92600 -1.73700 43.36000
C  0.74900 -0.64700 42.63400
C  -0.60000 -0.54400 42.17500
C  -1.30400 -1.71400 42.59600
C  -0.24400 -2.48600 43.35600
C  -1.20500 0.62100 41.47300
C  -2.75900 -1.99000 42.38000
O  -3.47500 -1.15000 41.88200
C  -3.37200 -3.28800 42.83000
N  1.93100 -4.16300 45.00400
C  0.61500 -4.50900 44.81000
C  0.27000 -5.89400 45.36600
C  1.68800 -6.46100 45.73700
C  2.61500 -5.20700 45.58100
C  -0.62000 -5.87500 46.57500
C  2.07500 -7.60700 44.74100
C  2.12100 -9.04200 45.34200
N  4.52700 -2.98400 45.09900
C  4.93700 -4.13900 45.77200
C  6.39300 -4.07300 46.00200
C  6.85500 -2.90800 45.39000
C  5.70400 -2.28100 44.89400
C  7.21600 -5.11700 46.80400
C  8.04100 -2.20300 45.09900
O  9.26000 -2.30100 45.41300
C  7.45800 -0.99900 44.20000
C  7.56600 0.23500 44.90900
O  6.96600 0.49000 45.94000
O  8.68600 0.98100 44.40100
C  9.01300 2.14400 45.23900
H  1.52600 1.11400 41.58200
H  -1.31500 -4.25500 43.96800
H  4.44400 -6.00500 46.50200
H  6.30100 1.18100 42.62600
H  3.89900 1.38000 40.83700
H  5.00100 3.14300 42.78100
H  3.46900 2.74100 43.42000
H  3.71000 3.41200 41.78200
H  5.66100 -0.17600 39.93900
H  6.35300 -1.18200 41.05300
H  8.43900 -0.28300 41.08500
H  7.64900 1.30000 40.90100
H  -1.79000 0.36300 40.59100
H  -0.36500 1.22700 41.13400
H  -1.86100 1.09600 42.20300
H  -2.85300 -4.17700 42.47100
H  -4.43400 -3.31000 42.58600
H  -3.29300 -3.38200 43.91300
H  -0.15100 -6.59300 44.64300
H  1.90500 -6.79100 46.75200
H  -0.23700 -6.41000 47.44400
H  -1.48500 -6.48300 46.31100
H  -0.94600 -4.85300 46.77000
H  3.07500 -7.47400 44.32800
H  1.34300 -7.58200 43.93400
H  1.92800 -9.13900 46.41000
H  3.09300 -9.48200 45.11800
H  1.33600 -9.68100 44.93700
H  6.98300 -6.12400 46.45700
H  7.08200 -5.09800 47.88600
H  8.25200 -4.88300 46.56100
H  8.07000 -0.95600 43.29900
H  9.52700 2.88700 44.62900
H  9.44100 1.92000 46.21600
H  8.04900 2.63500 45.37500
Mg 25.08500 1.02700 29.18300
C  27.32100 0.41400 31.79700
C  22.55400 1.50100 31.53700
C  22.90100 0.92000 26.73600
C  27.63700 0.04300 26.92400
N  25.02800 1.19900 31.43000
C  26.07000 0.87500 32.30700
C  25.64300 1.21800 33.75400
C  24.08600 1.37500 33.67200
C  23.85100 1.41600 32.09000
C  23.30000 0.22100 34.29300
C  26.36400 2.46200 34.15200
C  27.28600 2.40100 35.35100
H  26.99900 3.47000 36.57100
N  23.04000 1.33500 29.13200
C  22.18700 1.53900 30.17500
C  20.86200 1.63000 29.62100
C  20.91200 1.35800 28.19600
C  22.29900 1.21400 27.94600
C  19.63800 1.72400 30.50200
C  19.73900 1.15600 27.20500
O  19.95800 0.78700 26.01300
C  18.32100 1.43000 27.62600
N  25.23400 0.56900 27.10900
C  24.20500 0.77800 26.29400
C  24.52700 0.52100 24.73000
C  26.08300 0.34000 24.83900
C  26.33800 0.37400 26.37200
C  23.74200 -0.61000 24.00400
C  26.92400 1.44700 24.11300
C  27.80900 1.00500 22.93300
N  27.08300 0.39500 29.31100
C  27.99000 0.02100 28.30500
C  29.27200 -0.42800 28.89500
C  29.07700 -0.16400 30.29800
C  27.75000 0.28900 30.45300
C  30.47700 -0.91800 28.23500
C  29.70000 -0.20700 31.56400
O  30.82800 -0.44400 31.90900
C  28.64100 0.27800 32.57900
C  28.49800 -0.75900 33.60600
O  28.03000 -1.88800 33.41000
O  29.00700 -0.31000 34.83900
C  29.03500 -1.38300 35.76800
H  21.74800 1.69200 32.24800
H  22.22600 1.01100 25.88200
H  28.49900 -0.10500 26.27100
H  25.86400 0.54600 34.58400
H  23.69200 2.27300 34.14700
H  22.65300 -0.30000 33.58800
H  22.76500 0.57500 35.17500
H  23.97800 -0.58400 34.57500
H  25.61400 3.23800 34.30500
H  26.94100 2.82200 33.30100
H  28.33800 2.54400 35.10100
H  27.16700 1.54200 36.01100
H  19.88800 1.56500 31.55100
H  18.88200 0.99900 30.20100
H  19.25800 2.74600 30.49400
H  17.73800 1.53700 26.71100
H  18.34700 2.39800 28.12700
H  18.04500 0.58600 28.25800
H  24.29200 1.48600 24.28200
H  26.47500 -0.60700 24.46600
H  23.01300 -1.04000 24.69100
H  24.43400 -1.34300 23.58900
H  23.14900 -0.22300 23.17600
H  27.53600 2.06900 24.76600
H  26.35800 2.17100 23.52700
H  27.54100 1.35000 21.93400
H  27.81000 -0.08200 22.84100
H  28.85500 1.26500 23.09500
H  30.58000 -0.63700 27.18700
H  30.49500 -2.00400 28.33200
H  31.32700 -0.50700 28.78000
H  28.91100 1.22000 33.05600
H  28.01500 -1.33500 36.15000
H  29.67300 -1.12700 36.61400
H  29.36300 -2.30300 35.28400

