158

Mg 49.41300 45.42300 42.54800
C  46.18600 46.62100 41.75700
C  48.47500 42.35900 41.54000
C  52.65500 44.60400 42.40400
C  50.32500 48.75300 43.21500
N  47.50900 44.64400 41.67200
C  46.32400 45.27100 41.45800
C  45.28000 44.20600 40.97200
C  45.91000 42.86100 41.35600
C  47.39100 43.29400 41.59800
C  45.22600 42.12500 42.52600
C  45.08400 44.42000 39.40200
C  43.68000 44.59300 38.88100
H  43.35400 44.18700 37.45900
N  50.44500 43.73000 42.03300
C  49.86400 42.55900 41.70300
C  50.89100 41.58700 41.56400
C  52.09700 42.14500 41.90200
C  51.80100 43.53900 42.12300
C  50.55700 40.10900 41.19200
C  53.48600 41.51700 41.86900
O  53.53000 40.35500 41.39200
C  54.66800 42.07100 42.57800
N  51.17000 46.48000 42.99300
C  52.37600 45.90700 42.79900
C  53.54800 46.93900 43.12000
C  52.77200 48.22800 43.44900
C  51.29100 47.76700 43.19700
C  54.59800 46.46700 44.17100
C  53.40700 49.47300 42.67000
C  53.56400 50.70600 43.62100
N  48.43300 47.26200 42.66600
C  48.97100 48.51100 42.98000
C  47.92800 49.42300 42.96700
C  46.76800 48.75600 42.50100
C  47.18900 47.45800 42.29000
C  48.06300 50.90500 43.11800
C  45.35300 48.90300 42.20500
O  44.53800 49.78900 42.38100
C  44.94600 47.47300 41.55300
C  43.70900 46.93400 42.26300
O  42.67700 46.68600 41.64600
O  43.71100 46.94200 43.68900
C  42.27500 46.98800 44.19400
H  48.07100 41.35600 41.38900
H  53.70900 44.35700 42.26500
H  50.65200 49.75100 43.51500
H  44.30300 44.39500 41.41600
H  45.95700 42.08200 40.59600
H  45.86500 42.12200 43.40900
H  45.12700 41.07700 42.24400
H  44.23300 42.55800 42.64900
H  45.59500 43.58800 38.91900
H  45.53900 45.33100 39.01100
H  43.42900 45.65300 38.89800
H  42.99800 43.96300 39.45400
H  50.90900 39.82900 40.19900
H  49.50300 39.86400 41.32600
H  50.94300 39.48800 42.00000
H  55.07500 42.74400 41.82300
H  55.30500 41.22700 42.84400
H  54.48400 42.68500 43.45900
H  54.04100 47.02400 42.15200
H  52.83000 48.45300 44.51400
H  55.27000 45.67800 43.83400
H  53.94000 46.01500 44.91400
H  55.12300 47.32600 44.58900
H  52.82700 49.64600 41.76400
H  54.39300 49.07300 42.43400
H  54.59900 51.03900 43.70900
H  53.33600 50.51000 44.66900
H  52.99300 51.51900 43.17200
H  48.06900 51.02300 42.03400
H  48.90600 51.32000 43.66900
H  47.07300 51.24800 43.41900
H  44.86200 47.57100 40.47000
H  42.40400 47.01100 45.27600
H  41.68400 46.11200 43.92500
H  41.79100 47.90500 43.85800
Mg 16.93900 52.21500 26.33500
C  18.53500 50.72300 28.99500
C  14.41100 53.04900 28.34600
C  15.19900 53.24200 23.56600
C  19.40700 51.03800 24.20700
N  16.49400 51.81000 28.37200
C  17.38200 51.40100 29.33100
C  16.85900 51.70400 30.77000
C  15.40100 52.03600 30.43300
C  15.41200 52.32400 28.96000
C  14.49000 50.78700 30.83800
C  17.69200 52.83600 31.36200
C  17.68600 53.01000 32.95000
H  16.72400 52.08400 33.76400
N  15.11200 53.08400 25.99000
C  14.20400 53.41000 26.96400
C  13.04200 54.09700 26.46700
C  13.32400 54.18200 25.04600
C  14.61800 53.37000 24.84100
C  11.84700 54.60600 27.30500
C  12.58300 54.90300 23.94000
O  12.76500 54.77800 22.75000
C  11.36100 55.61000 24.25700
N  17.17500 51.89900 24.08500
C  16.41500 52.58100 23.22900
C  17.07900 52.73700 21.82400
C  18.51600 52.26900 22.16100
C  18.38100 51.73300 23.56700
C  16.35000 51.73000 20.75100
C  19.52200 53.43300 22.00500
C  20.66700 53.09500 21.06100
N  18.64000 51.04700 26.46100
C  19.59300 50.67200 25.56500
C  20.67800 49.96900 26.26800
C  20.29200 49.94200 27.59500
C  18.96200 50.50200 27.66800
C  21.83600 49.26900 25.54800
C  20.72700 49.49800 28.92200
O  21.66500 48.84900 29.27800
C  19.56400 50.01500 29.92000
C  19.09400 48.87900 30.83100
O  18.35200 48.01600 30.40700
O  19.50500 49.11000 32.14600
C  18.92400 48.25300 33.20400
H  13.56600 53.32300 28.98100
H  14.62700 53.58100 22.70000
H  20.24400 50.71200 23.58600
H  16.80500 50.83500 31.42600
H  15.04900 52.85400 31.06100
H  13.77500 50.68600 30.02200
H  13.78300 50.87300 31.66300
H  15.08200 49.88000 30.71000
H  17.39300 53.73600 30.82600
H  18.69100 52.56900 31.01500
H  17.30000 54.01900 33.09400
H  18.72900 52.80200 33.19200
H  12.09100 55.61000 27.65200
H  11.75300 53.94800 28.16900
H  10.89500 54.58900 26.77400
H  11.62100 56.50000 24.83100
H  10.73400 54.85200 24.72600
H  10.82400 55.93800 23.36700
H  17.05400 53.78000 21.51000
H  18.81500 51.47600 21.47600
H  15.32500 51.54800 21.07200
H  16.82400 50.74900 20.70300
H  16.41300 52.14000 19.74300
H  19.86900 53.71800 22.99700
H  19.00400 54.30600 21.60800
H  21.19500 54.02400 20.84600
H  20.19400 52.55200 20.24300
H  21.44300 52.47800 21.51300
H  22.55800 48.91200 26.28200
H  22.30900 49.98800 24.87800
H  21.32000 48.42500 25.08900
H  20.10000 50.76400 30.50300
H  17.86500 48.11600 32.98500
H  18.93900 48.73400 34.18100
H  19.49200 47.33500 33.05200

