158

Mg 8.30000 4.37800 27.41500
C  9.62200 2.57300 30.21700
C  6.44200 6.15100 29.54300
C  7.23900 5.84400 24.74700
C  9.84500 1.72500 25.40600
N  7.82100 4.08100 29.64400
C  8.64100 3.54000 30.56400
C  8.22100 3.91800 32.00100
C  7.04800 4.96100 31.72900
C  7.05200 5.06200 30.16700
C  5.66900 4.69000 32.29400
C  9.38200 4.53100 32.80500
C  8.94300 5.29200 34.12900
H  9.87100 5.20100 35.37500
N  7.08500 5.89800 27.20000
C  6.38100 6.60200 28.21500
C  5.70700 7.74000 27.59700
C  5.91000 7.58500 26.19100
C  6.74800 6.38800 25.97900
C  4.77400 8.64500 28.41600
C  5.25600 8.44900 25.11600
O  5.34100 8.16700 23.91600
C  4.55200 9.71000 25.42200
N  8.50200 3.78900 25.38000
C  7.86000 4.59600 24.52500
C  8.05800 4.04900 23.05900
C  9.10600 2.84900 23.26100
C  9.16200 2.75200 24.79500
C  6.62800 3.72100 22.47400
C  10.54300 2.95300 22.60100
C  11.10700 1.63100 21.98800
N  9.50300 2.56700 27.71700
C  9.94700 1.60700 26.81800
C  10.74800 0.59800 27.53400
C  10.66700 0.99700 28.80600
C  9.84000 2.12100 28.91300
C  11.70500 -0.43500 26.94700
C  11.16500 0.66900 30.17100
O  11.84000 -0.21200 30.62500
C  10.56600 1.80600 31.09800
C  9.70600 1.02000 32.10500
O  8.52000 0.66500 32.00400
O  10.54100 0.65500 33.17400
C  9.83400 0.21300 34.39800
H  5.90200 6.69100 30.32400
H  6.75000 6.23700 23.85300
H  10.42600 0.99200 24.84200
H  7.74500 3.04800 32.45500
H  7.40700 5.93000 32.07700
H  5.63500 3.68200 32.70700
H  5.03500 4.56100 31.41600
H  5.21100 5.46300 32.91100
H  10.13000 5.05600 32.21300
H  9.92000 3.64500 33.14100
H  7.95000 5.06100 34.51300
H  8.95100 6.32900 33.79300
H  3.74500 8.71600 28.06200
H  5.17400 9.65800 28.37500
H  4.69800 8.34600 29.46100
H  4.37600 10.43600 24.62900
H  5.25600 10.16300 26.12000
H  3.62100 9.49400 25.94500
H  8.56000 4.79900 22.44800
H  8.76000 1.88600 22.88600
H  5.86000 3.95400 23.21200
H  6.46000 2.67300 22.22700
H  6.29100 4.29400 21.61000
H  11.13700 3.26700 23.45900
H  10.60500 3.63500 21.75300
H  11.51000 1.89300 21.01000
H  10.33700 0.86100 22.03400
H  11.98600 1.34500 22.56600
H  11.75800 -1.31200 27.59200
H  12.66000 0.07200 26.81000
H  11.37600 -0.88400 26.00900
H  11.27800 2.43800 31.63000
H  9.13200 -0.60200 34.22300
H  9.34100 1.05100 34.89000
H  10.58200 -0.24700 35.04400
Mg 0.08000 43.63700 25.60800
C  2.00900 43.92600 28.33500
C  -2.78500 43.43000 27.54000
C  -1.66200 42.78000 22.83400
C  3.03100 43.98100 23.65600
N  -0.38700 43.79800 27.68800
C  0.58800 43.88300 28.65800
C  0.01800 43.94700 30.07800
C  -1.48800 43.62000 29.79700
C  -1.59200 43.66400 28.23700
C  -2.12000 42.39200 30.44200
C  0.28400 45.34500 30.76300
C  0.84000 45.31400 32.20300
H  0.44000 44.15600 33.17600
N  -1.94400 43.18600 25.21100
C  -2.99900 43.14100 26.16400
C  -4.23100 42.64900 25.52100
C  -3.88600 42.48900 24.14100
C  -2.44100 42.70300 24.01600
C  -5.49100 42.46600 26.35100
C  -4.83300 42.02500 22.96100
O  -4.43600 41.88700 21.76400
C  -6.21000 41.84200 23.15700
N  0.62100 43.43300 23.52800
C  -0.29900 43.18200 22.58500
C  0.41500 43.11000 21.20000
C  1.68900 44.00200 21.40300
C  1.80500 43.83000 22.92600
C  0.56500 41.67900 20.71600
C  1.60400 45.47600 20.80300
C  1.47000 46.77700 21.69700
N  2.11300 43.93800 25.88000
C  3.15300 44.01000 25.01800
C  4.43300 44.12600 25.77300
C  4.03600 44.08500 27.13200
C  2.63800 44.03500 27.07800
C  5.87700 44.18200 25.28400
C  4.46900 44.04000 28.51800
O  5.55600 43.99300 29.07200
C  3.11100 43.93600 29.40700
C  3.11000 42.65300 30.29300
O  3.12900 41.45100 29.96500
O  3.50500 43.11400 31.52400
C  3.83800 42.12800 32.50600
H  -3.70200 43.37700 28.13100
H  -2.16500 42.52900 21.89800
H  3.95300 44.16100 23.09800
H  0.42100 43.09300 30.62400
H  -2.02600 44.48700 30.18100
H  -2.19900 41.67700 29.62300
H  -3.10500 42.76300 30.72400
H  -1.56700 41.90500 31.24400
H  -0.59000 45.98700 30.66000
H  0.90500 45.96600 30.11800
H  0.60200 46.26500 32.68000
H  1.90900 45.17400 32.04300
H  -5.36200 41.54500 26.92100
H  -6.39000 42.41800 25.73600
H  -5.70300 43.14800 27.17400
H  -6.68300 41.56900 22.21300
H  -6.65800 42.78600 23.46700
H  -6.29800 41.00300 23.84700
H  -0.20100 43.56700 20.42500
H  2.55200 43.48100 20.98800
H  0.26700 40.93500 21.45500
H  1.54700 41.41300 20.32500
H  -0.19700 41.47400 19.96400
H  0.80200 45.49600 20.06600
H  2.54300 45.55500 20.25500
H  1.80900 46.55700 22.70900
H  0.42500 47.08300 21.74600
H  2.16300 47.49000 21.25200
H  6.06500 43.27300 24.71300
H  6.60300 44.34200 26.08100
H  6.11000 45.01400 24.61900
H  3.04100 44.82300 30.03600
H  3.44000 41.12400 32.35600
H  3.54100 42.57000 33.45700
H  4.92400 42.17400 32.57600

