158

Mg 30.05400 57.99300 39.48300
C  27.43000 56.09400 38.55100
C  32.27500 55.39600 38.64200
C  32.67300 60.10200 39.30800
C  27.95300 60.80300 39.39200
N  29.80000 56.04300 38.67400
C  28.63600 55.41900 38.36100
C  28.92100 54.04100 37.79200
C  30.35200 53.69000 38.28400
C  30.88300 55.12200 38.51300
C  30.34500 52.75900 39.47600
C  28.67700 54.03300 36.21100
C  27.48000 53.22800 35.71200
H  26.77200 54.03000 34.63300
N  32.16800 57.83000 39.25100
C  32.86100 56.65600 38.88900
C  34.28300 57.00700 38.69500
C  34.45800 58.38500 39.02800
C  33.08000 58.80900 39.24200
C  35.24600 55.96400 38.26400
C  35.75600 59.10500 39.10100
O  36.75100 58.47900 38.74100
C  35.92300 60.51300 39.57600
N  30.24300 60.15700 39.05700
C  31.45300 60.75700 39.26100
C  31.40000 62.31200 39.26500
C  29.86900 62.52700 39.17700
C  29.31700 61.08700 39.18000
C  31.99300 62.89400 40.58800
C  29.39600 63.31700 37.91000
C  28.40900 64.48300 38.22100
N  28.04100 58.36100 39.30800
C  27.28800 59.52900 39.37600
C  25.95200 59.15700 39.40700
C  25.90500 57.81000 39.07500
C  27.20900 57.39700 38.96100
C  24.82000 60.04900 39.62700
C  25.07200 56.66700 38.82700
O  23.83300 56.63600 38.86200
C  26.03400 55.48000 38.36500
C  25.84200 54.30200 39.27700
O  26.28200 54.21200 40.43900
O  25.16200 53.30200 38.70100
C  24.80000 52.14400 39.61000
H  32.91000 54.51400 38.53700
H  33.53900 60.76700 39.31300
H  27.32800 61.69700 39.39300
H  28.26300 53.28900 38.22800
H  30.94200 53.22700 37.49200
H  30.57800 53.23700 40.42700
H  31.01900 51.90700 39.39000
H  29.39700 52.24700 39.63800
H  29.55800 53.56100 35.77700
H  28.76400 55.03000 35.77900
H  26.74400 53.04300 36.49500
H  27.87400 52.23900 35.47700
H  36.17400 56.01100 38.83400
H  35.27400 56.03500 37.17700
H  34.82300 54.98600 38.49400
H  35.30400 60.63300 40.46600
H  35.65300 61.17900 38.75600
H  36.97200 60.61000 39.85700
H  31.95700 62.65200 38.39200
H  29.47100 63.04600 40.04800
H  32.82200 63.57600 40.39900
H  32.39200 62.03600 41.12900
H  31.29100 63.39100 41.25700
H  28.90500 62.62900 37.22100
H  30.23200 63.84700 37.45500
H  28.29900 64.68700 39.28600
H  27.45600 64.37900 37.70400
H  28.90900 65.35600 37.80100
H  24.98000 61.12300 39.72000
H  24.37400 59.83000 40.59700
H  23.98800 59.82800 38.95800
H  25.80400 55.22900 37.32900
H  25.66300 51.82500 40.19300
H  24.26400 51.33700 39.11100
H  24.20700 52.38200 40.49300
Mg 16.58700 51.20200 26.21600
C  18.49300 49.83800 29.01400
C  14.21900 52.02400 28.63500
C  14.97800 52.66000 23.81500
C  19.01400 49.83300 24.07800
N  16.39300 50.95300 28.58700
C  17.34400 50.49800 29.42800
C  17.10300 50.93800 30.89300
C  15.54800 51.31800 30.75900
C  15.33400 51.36200 29.22400
C  14.53800 50.37600 31.43000
C  18.04800 52.03700 31.31200
C  18.49200 52.05400 32.78300
H  17.74300 51.15300 33.82400
N  14.81300 52.18200 26.20900
C  13.99100 52.47300 27.27100
C  12.98700 53.39200 26.79300
C  13.26100 53.68200 25.41900
C  14.36200 52.82600 25.06300
C  11.95400 53.88900 27.68000
C  12.48900 54.52700 24.45700
O  12.82300 54.73200 23.29700
C  11.26300 55.23400 24.90000
N  16.91900 51.16300 24.17100
C  16.09400 51.85900 23.39200
C  16.46800 51.55800 21.89900
C  17.82500 50.78000 21.99700
C  17.97500 50.59500 23.49100
C  15.36000 50.72700 21.19200
C  19.12600 51.24700 21.27100
C  19.55900 50.38700 20.05900
N  18.31800 50.00000 26.46500
C  19.25800 49.61600 25.48100
C  20.38400 48.93400 26.12300
C  20.13100 49.04700 27.52100
C  18.88200 49.64300 27.66200
C  21.60300 48.41600 25.49200
C  20.68800 48.68600 28.90500
O  21.78000 48.13200 29.12400
C  19.63300 49.23500 29.90500
C  19.08600 48.00700 30.51200
O  18.10800 47.35300 30.17600
O  19.74300 47.88300 31.72000
C  19.18400 46.91000 32.62800
H  13.52100 52.34900 29.40900
H  14.44500 53.13400 22.98900
H  19.61000 49.21200 23.40500
H  17.03500 50.13500 31.62700
H  15.31500 52.24300 31.28600
H  13.84500 49.99300 30.68200
H  13.88000 50.90400 32.12000
H  14.88400 49.50800 31.99100
H  17.54200 52.98000 31.11100
H  18.97500 51.97100 30.74200
H  18.11600 53.02900 33.09300
H  19.58000 52.09800 32.73300
H  11.72600 53.23700 28.52400
H  11.02200 53.96300 27.11900
H  12.18400 54.90500 28.00000
H  11.45000 55.85300 25.77700
H  10.53600 54.44300 25.08200
H  10.91800 55.75600 24.00700
H  16.51900 52.50700 21.36500
H  17.77200 49.72100 21.74700
H  14.55200 50.48400 21.88200
H  15.63800 49.73200 20.84500
H  14.94000 51.31400 20.37500
H  19.96300 51.21000 21.96800
H  18.97000 52.23500 20.83800
H  20.47600 49.87200 20.34700
H  19.90100 51.01600 19.23700
H  18.88500 49.65200 19.61800
H  22.49500 48.61900 26.08500
H  21.89600 48.77700 24.50600
H  21.66000 47.32800 25.52200
H  19.91400 49.82400 30.77900
H  18.18200 46.50000 32.50500
H  19.10000 47.36700 33.61500
H  19.85300 46.05300 32.55600

