158

Mg 41.06500 9.19600 29.50200
C  42.76900 10.19700 32.35200
C  38.62500 8.07900 31.52000
C  39.47400 8.09700 26.73600
C  43.63500 10.42700 27.48000
N  40.91000 8.90300 31.70500
C  41.54900 9.63300 32.69800
C  40.90100 9.63400 34.06900
C  39.69700 8.62800 33.81900
C  39.75800 8.49600 32.25900
C  39.82300 7.25400 34.61300
C  40.44400 11.03000 34.47700
C  40.34800 11.11400 35.96800
H  41.16500 12.21000 36.65500
N  39.37600 8.09000 29.18800
C  38.36500 7.84000 30.11000
C  37.18400 7.31700 29.43600
C  37.43600 7.40400 28.08400
C  38.81300 7.82700 27.92900
C  35.83500 6.89100 30.10500
C  36.48000 7.22400 26.93100
O  36.75900 7.48900 25.76300
C  35.09000 6.72900 27.16300
N  41.54700 9.09900 27.35300
C  40.76100 8.55100 26.48900
C  41.29200 8.75700 25.05000
C  42.44700 9.76200 25.31600
C  42.57100 9.74600 26.81200
C  41.58900 7.38400 24.31600
C  42.18600 11.20000 24.77500
C  41.03300 12.03000 25.34500
N  42.89900 9.95200 29.79200
C  43.82800 10.46900 28.87100
C  44.96700 11.00800 29.57100
C  44.61700 10.98800 30.92500
C  43.31800 10.37500 31.03600
C  46.25400 11.64100 29.12500
C  45.05600 11.34700 32.25900
O  46.12500 11.85000 32.65500
C  43.80200 10.94100 33.25600
C  44.33300 9.99000 34.27500
O  44.75700 8.85800 34.09400
O  44.47600 10.75300 35.41900
C  45.17200 10.14800 36.56200
H  37.68800 7.95000 32.06400
H  39.01700 7.83000 25.78100
H  44.38400 10.89900 26.84000
H  41.65000 9.22500 34.74700
H  38.75500 9.07700 34.13400
H  40.81200 7.15600 35.06200
H  39.68600 6.38100 33.97500
H  39.03000 7.23700 35.36000
H  39.49100 11.26400 34.00300
H  41.16300 11.75600 34.09600
H  40.48600 10.12600 36.40800
H  39.31200 11.38200 36.17700
H  35.93700 6.74700 31.18000
H  35.65400 5.89600 29.69800
H  35.06800 7.63000 29.87700
H  35.00700 5.87500 27.83400
H  34.58200 6.71200 26.19800
H  34.77200 7.60300 27.73200
H  40.51800 9.15800 24.39600
H  43.36400 9.44700 24.81700
H  42.50100 7.48400 23.72700
H  40.72900 7.13200 23.69600
H  41.75700 6.67100 25.12300
H  41.95900 11.13100 23.71100
H  43.15700 11.68900 24.84700
H  40.48600 12.52600 24.54300
H  41.40300 12.78500 26.03900
H  40.24500 11.49900 25.87900
H  46.39200 12.53000 29.74000
H  46.08700 11.92300 28.08500
H  47.08600 11.03600 29.48400
H  43.42800 11.85700 33.71200
H  44.58500 10.08600 37.47800
H  46.07400 10.75100 36.66600
H  45.49100 9.12400 36.36900
Mg -6.10800 25.09600 25.64500
C  -4.41900 26.16900 28.60200
C  -7.91600 22.94000 27.47300
C  -6.85700 23.55700 22.92800
C  -3.64900 27.07100 23.90800
N  -6.03700 24.51800 27.71600
C  -5.35200 25.08100 28.78800
C  -5.80800 24.50500 30.17400
C  -6.67200 23.36400 29.71900
C  -6.96200 23.65600 28.21400
C  -6.04300 21.91400 30.06300
C  -6.67600 25.60900 30.90300
C  -6.55400 25.60500 32.46600
H  -5.88700 24.45100 33.16400
N  -7.41200 23.64600 25.25500
C  -8.21100 22.98100 26.13900
C  -9.19800 22.16700 25.47500
C  -8.77100 22.23900 24.10900
C  -7.62800 23.14300 24.03800
C  -10.24600 21.31700 26.09900
C  -9.37700 21.55300 22.85400
O  -8.89500 21.64400 21.71900
C  -10.56500 20.70100 22.97800
N  -5.32100 25.25600 23.70400
C  -5.82700 24.51000 22.71400
C  -5.23700 24.84200 21.33800
C  -4.19000 25.98800 21.67700
C  -4.37100 26.13100 23.18900
C  -4.60300 23.64700 20.59100
C  -4.37400 27.30300 20.82500
C  -3.16200 28.16500 20.43300
N  -4.45900 26.51800 26.09700
C  -3.57000 27.16600 25.29700
C  -2.75400 28.01600 26.11700
C  -3.01000 27.67300 27.45900
C  -4.02000 26.68500 27.36200
C  -1.84000 29.08900 25.57800
C  -2.67500 27.91900 28.85800
O  -1.89300 28.73800 29.38100
C  -3.62900 26.92200 29.67100
C  -2.77600 26.04700 30.53200
O  -2.35500 24.94400 30.29700
O  -2.35100 26.69500 31.69900
C  -1.33700 26.09200 32.65000
H  -8.53900 22.19200 27.96800
H  -7.12900 23.15500 21.95000
H  -2.86000 27.61700 23.38700
H  -4.86500 24.31700 30.68600
H  -7.54100 23.50000 30.36300
H  -5.58300 21.52500 29.15400
H  -6.80500 21.23300 30.44300
H  -5.39100 22.02600 30.93000
H  -7.72400 25.68600 30.61200
H  -6.16600 26.47300 30.47800
H  -7.55800 25.69200 32.88000
H  -5.97400 26.51800 32.60400
H  -9.98800 20.25900 26.06200
H  -11.21300 21.36100 25.59800
H  -10.45700 21.64200 27.11800
H  -11.37600 21.27700 23.42600
H  -10.23700 19.82700 23.54000
H  -10.81900 20.34700 21.97900
H  -5.92300 25.32600 20.64200
H  -3.12400 25.78200 21.58400
H  -3.62400 23.89000 20.17700
H  -5.30100 23.31600 19.82200
H  -4.57700 22.89000 21.37500
H  -5.05700 27.86800 21.45900
H  -4.90300 27.00500 19.92000
H  -3.48700 29.16500 20.14700
H  -2.79800 27.83700 19.45900
H  -2.24600 28.17300 21.02400
H  -2.41500 29.64600 24.83900
H  -0.94200 28.59100 25.21200
H  -1.45300 29.77700 26.33000
H  -4.23000 27.45100 30.41000
H  -0.42400 26.67700 32.54000
H  -1.08600 25.03300 32.58500
H  -1.85600 26.30800 33.58300

