158

Mg -8.35300 40.50200 42.54100
C  -7.42900 37.36100 41.35300
C  -5.79200 41.89300 40.87300
C  -9.99400 43.51600 42.73000
C  -11.27200 38.99000 43.71700
N  -6.90600 39.70400 41.24600
C  -6.56900 38.40300 40.92100
C  -5.22100 38.17800 40.27600
C  -4.57400 39.62100 40.44300
C  -5.84300 40.49700 40.88700
C  -3.47400 39.66400 41.57000
C  -5.29500 37.67000 38.77500
C  -4.48500 36.35100 38.61300
H  -3.23100 36.45500 37.68800
N  -7.83600 42.51500 42.14400
C  -6.71800 42.86700 41.41800
C  -6.55100 44.32300 41.46700
C  -7.77900 44.88600 42.02600
C  -8.62600 43.65000 42.27900
C  -5.25100 44.84100 40.97300
C  -8.10300 46.30100 42.29500
O  -7.32400 47.16200 41.89200
C  -9.33200 46.69300 42.98400
N  -10.44100 41.17200 43.00600
C  -10.76900 42.49200 43.14000
C  -12.20500 42.62000 43.68900
C  -12.48000 41.18100 44.17900
C  -11.40900 40.38900 43.49600
C  -12.40200 43.70400 44.79800
C  -13.91800 40.71400 44.08200
C  -14.25900 39.80100 42.86900
N  -9.24000 38.57500 42.61000
C  -10.40100 38.13000 43.12400
C  -10.40600 36.68200 43.05600
C  -9.26100 36.33100 42.40900
C  -8.60900 37.55600 42.09600
C  -11.45900 35.78400 43.68800
C  -8.41800 35.19900 41.89000
O  -8.57600 34.00700 41.96500
C  -7.22100 35.85700 41.12500
C  -5.96900 35.38500 41.83800
O  -5.56500 35.75200 42.89600
O  -5.40500 34.38600 41.09800
C  -4.10200 33.94800 41.56200
H  -4.85200 42.16600 40.38900
H  -10.54600 44.45600 42.80100
H  -12.03000 38.50600 44.33700
H  -4.69100 37.50200 40.94700
H  -4.16400 40.01400 39.51200
H  -3.85900 39.98900 42.53700
H  -2.74200 40.38400 41.20500
H  -3.07400 38.66800 41.75700
H  -4.85600 38.37300 38.06700
H  -6.32600 37.56200 38.43900
H  -5.23000 35.63500 38.26600
H  -4.12300 36.02100 39.58700
H  -5.22700 44.51900 39.93200
H  -4.35400 44.40600 41.41200
H  -5.16900 45.92800 40.98600
H  -9.09100 47.67400 43.39300
H  -9.51500 46.08600 43.87100
H  -10.13600 46.68100 42.24800
H  -12.88600 42.84400 42.86800
H  -12.35900 41.20300 45.26200
H  -12.67800 43.33700 45.78600
H  -13.28300 44.26100 44.48000
H  -11.48500 44.29200 44.82300
H  -14.57000 41.58600 44.03500
H  -14.27000 40.13600 44.93700
H  -14.43000 38.78300 43.22100
H  -13.41700 39.93000 42.18900
H  -15.16800 40.18700 42.40700
H  -12.29600 35.68400 42.99700
H  -11.65600 36.15300 44.69500
H  -11.08400 34.76500 43.78700
H  -7.30200 35.62400 40.06300
H  -3.44200 34.72800 41.94200
H  -3.53800 33.33500 40.85900
H  -4.24700 33.31200 42.43500
Mg -1.38200 34.68100 26.40500
C  -2.69500 33.06100 29.22000
C  0.25400 36.84600 28.47900
C  -0.34500 36.17900 23.68800
C  -3.33000 32.38900 24.39300
N  -1.03000 34.77300 28.66700
C  -1.70700 34.01200 29.61800
C  -1.21300 34.36100 31.00600
C  -0.21900 35.61000 30.73500
C  -0.30000 35.75100 29.20400
C  -0.52000 36.89400 31.47400
C  -0.52900 33.23100 31.80300
C  -1.16300 32.87700 33.14900
H  -0.31100 32.27800 34.37400
N  -0.21800 36.37800 26.10000
C  0.38900 37.00300 27.04300
C  1.16200 38.10800 26.41100
C  1.05100 37.95800 25.01400
C  0.08300 36.83800 24.85000
C  2.10700 38.94700 27.20800
C  1.84100 38.75700 23.90600
O  1.80200 38.49600 22.73000
C  2.76500 39.72300 24.33200
N  -1.91000 34.42700 24.36900
C  -1.20000 35.13800 23.46500
C  -1.60500 34.80100 22.02900
C  -2.32000 33.41800 22.20300
C  -2.51400 33.34500 23.76600
C  -2.27500 35.85600 21.30000
C  -1.41900 32.26200 21.59300
C  0.03500 32.08200 22.17800
N  -2.77300 33.15600 26.70500
C  -3.40700 32.31100 25.83100
C  -4.14500 31.34700 26.51200
C  -3.95700 31.66600 27.90600
C  -3.10100 32.76000 27.96000
C  -4.94500 30.30700 25.93200
C  -4.38600 31.27900 29.26700
O  -5.22800 30.52800 29.70000
C  -3.48000 32.19600 30.20500
C  -4.47400 32.94700 31.00000
O  -5.35200 33.63500 30.56000
O  -4.38300 32.55500 32.34900
C  -5.43100 33.01200 33.20900
H  0.75400 37.51000 29.18800
H  0.15900 36.68100 22.86000
H  -3.77200 31.68000 23.69100
H  -2.07700 34.73600 31.55500
H  0.82500 35.42500 30.98700
H  0.36200 37.43000 31.82700
H  -1.10500 36.76400 32.38500
H  -1.21800 37.52200 30.92000
H  0.48900 33.48900 32.09300
H  -0.45000 32.31100 31.22300
H  -1.88900 32.11300 32.87000
H  -1.65000 33.80100 33.46200
H  3.11100 38.62200 26.93400
H  1.97500 38.82700 28.28300
H  1.95800 40.00000 26.97000
H  3.14700 40.15000 23.40500
H  3.57100 39.27800 24.91500
H  2.21100 40.52400 24.82100
H  -0.66400 34.63000 21.50700
H  -3.30700 33.41400 21.74000
H  -2.32400 36.76500 21.89900
H  -3.26800 35.52500 20.99500
H  -1.77000 36.06500 20.35600
H  -1.29600 32.48600 20.53400
H  -2.00000 31.36800 21.81800
H  0.16000 31.01300 22.35000
H  0.12700 32.57200 23.14700
H  0.76000 32.62300 21.56900
H  -5.85200 30.83200 25.63000
H  -5.20100 29.62600 26.74300
H  -4.50800 29.76300 25.09400
H  -2.78100 31.55100 30.73800
H  -5.06200 33.21100 34.21600
H  -6.31800 32.38000 33.24300
H  -5.88600 33.91600 32.80500

