158

Mg 48.96800 44.80100 43.01200
C  45.75700 45.69000 41.96300
C  48.58900 41.82700 41.53700
C  52.33900 44.55600 43.19800
C  49.39600 48.19700 44.02700
N  47.31100 43.91500 41.98200
C  46.12800 44.38500 41.59500
C  45.24300 43.35500 40.80000
C  46.12500 42.09400 40.93500
C  47.41000 42.60900 41.55800
C  45.42500 40.91900 41.66500
C  44.91300 43.75200 39.34700
C  43.51900 43.33800 38.81700
H  43.43100 42.09500 37.88900
N  50.23700 43.30500 42.65900
C  49.87300 42.07300 42.06200
C  51.04900 41.30000 41.81800
C  52.18100 42.13600 42.13600
C  51.61900 43.36900 42.76800
C  50.97200 39.84600 41.28400
C  53.63400 41.79500 41.77200
O  54.00400 40.68700 41.35700
C  54.73300 42.83400 42.03000
N  50.71700 46.30700 43.46800
C  51.99800 45.86600 43.51900
C  52.90500 46.91600 44.03600
C  51.91400 48.05700 44.39600
C  50.58000 47.51200 43.96900
C  54.01000 46.54200 45.11000
C  52.21400 49.49700 43.99300
C  52.78000 50.44200 45.08300
N  47.78100 46.60100 43.21100
C  48.06600 47.80000 43.72000
C  46.85100 48.58000 43.79200
C  45.89800 47.77900 43.11500
C  46.58200 46.58400 42.75000
C  46.78600 50.00200 44.14600
C  44.49400 47.74700 42.55800
O  43.55300 48.54400 42.59500
C  44.53100 46.45300 41.65900
C  43.29500 45.65300 41.93100
O  42.48200 45.28300 41.13500
O  43.14000 45.46300 43.26500
C  41.85500 44.89000 43.76900
H  48.36900 40.81700 41.18300
H  53.41800 44.42700 43.30200
H  49.48700 49.19200 44.46700
H  44.31500 43.12500 41.32400
H  46.38700 41.68300 39.96000
H  44.37900 40.96400 41.96800
H  45.90000 40.74200 42.63000
H  45.59100 40.03300 41.05200
H  45.59300 43.25800 38.65300
H  44.96000 44.83900 39.28000
H  42.97800 44.10500 38.26400
H  42.93600 43.03800 39.68800
H  51.12000 39.78300 40.20600
H  50.02800 39.34700 41.50500
H  51.64200 39.12400 41.74900
H  54.47400 43.78100 41.55500
H  55.60800 42.48400 41.48200
H  54.82400 42.82600 43.11600
H  53.49400 47.16800 43.15400
H  51.84200 48.06400 45.48400
H  53.81200 45.56300 45.54500
H  53.92100 47.10400 46.04000
H  55.06000 46.50300 44.82100
H  51.33900 49.95400 43.52900
H  52.86400 49.39200 43.12400
H  52.10300 51.28400 45.23200
H  53.75900 50.75200 44.71700
H  53.02100 50.03300 46.06400
H  45.73300 50.28300 44.13700
H  47.15200 50.61300 43.32100
H  47.25500 50.20100 45.11000
H  44.42000 46.79000 40.62800
H  41.74600 45.24100 44.79500
H  41.76200 43.81400 43.62700
H  41.05100 45.30900 43.16300
Mg -6.89700 25.75500 26.13900
C  -5.17900 27.73400 28.50900
C  -7.56400 23.65800 28.68100
C  -7.98800 23.57900 23.84600
C  -5.47400 27.74800 23.55800
N  -6.48900 25.78800 28.43200
C  -5.87400 26.68300 29.17000
C  -6.11200 26.48500 30.60400
C  -6.71700 25.03800 30.65100
C  -6.97800 24.79300 29.15200
C  -5.75600 24.00500 31.30800
C  -7.16600 27.39000 31.22000
C  -7.35500 27.71100 32.72000
H  -6.93400 26.79200 33.87800
N  -7.84300 23.95200 26.27500
C  -8.08600 23.24700 27.45600
C  -8.91400 22.19300 27.17100
C  -9.04200 22.09400 25.78300
C  -8.25200 23.17200 25.20900
C  -9.64300 21.35600 28.31800
C  -9.88500 21.08700 25.01300
O  -9.87500 21.14300 23.78800
C  -10.75700 19.89200 25.74900
N  -6.69500 25.68900 23.91000
C  -7.35500 24.66000 23.22900
C  -7.12000 24.91800 21.69000
C  -6.54500 26.39700 21.62500
C  -6.29400 26.72300 23.12500
C  -6.13800 23.90700 21.08600
C  -7.44400 27.44900 21.03100
C  -6.85200 28.31600 19.91200
N  -5.56200 27.33500 26.03800
C  -5.01500 28.03100 24.89300
C  -4.10800 29.09100 25.31800
C  -4.15300 28.96800 26.70900
C  -5.02000 27.93200 27.07400
C  -3.29900 30.06500 24.52600
C  -3.63700 29.53900 27.91100
O  -2.83400 30.46600 27.98900
C  -4.33900 28.76700 29.11500
C  -3.26400 28.25300 30.00900
O  -2.29000 27.54300 29.68600
O  -3.44200 28.66900 31.33200
C  -2.67800 27.98900 32.38900
H  -7.68800 23.12800 29.62700
H  -8.28600 22.92300 23.02600
H  -5.15600 28.39600 22.73900
H  -5.13400 26.44700 31.08400
H  -7.70300 24.93100 31.10500
H  -5.13200 24.51300 32.04400
H  -5.25400 23.39600 30.55700
H  -6.51500 23.40900 31.81400
H  -8.13800 27.04300 30.87100
H  -6.94900 28.42100 30.93900
H  -8.44200 27.78700 32.69800
H  -6.96800 28.70400 32.94800
H  -9.60300 20.28800 28.10400
H  -10.66400 21.72300 28.42000
H  -9.11800 21.44400 29.26900
H  -11.51500 20.32600 26.40000
H  -10.09100 19.20600 26.27100
H  -11.38200 19.24100 25.13700
H  -8.06100 24.78000 21.15700
H  -5.55200 26.34600 21.17800
H  -5.80300 23.24400 21.88500
H  -5.23500 24.25800 20.58700
H  -6.69900 23.23800 20.43400
H  -7.71500 28.15400 21.81700
H  -8.36200 27.03500 20.61200
H  -6.15400 27.74900 19.29600
H  -6.29400 29.15900 20.32000
H  -7.54000 28.83900 19.24900
H  -3.79400 31.02500 24.67800
H  -3.26000 29.98400 23.44000
H  -2.28800 30.16500 24.92200
H  -4.92200 29.46500 29.71500
H  -1.88700 28.59700 32.82800
H  -2.42600 26.97800 32.06600
H  -3.36500 27.84300 33.22300

