158

Mg 49.61900 45.98600 42.14400
C  46.31300 46.79300 41.50100
C  49.15100 42.81700 40.66700
C  53.03200 45.53700 41.96800
C  50.15700 49.16200 43.37500
N  47.93500 44.97400 41.21700
C  46.75400 45.53400 40.96200
C  45.80400 44.67300 40.12100
C  46.69700 43.36200 39.99000
C  48.03100 43.74700 40.65000
C  46.05500 42.15700 40.59000
C  45.41700 45.39700 38.71500
C  43.95600 45.17300 38.42400
H  43.58300 44.77500 36.98400
N  50.87200 44.32600 41.55500
C  50.49200 43.10300 41.04100
C  51.63600 42.23600 40.86200
C  52.77000 43.03300 41.18400
C  52.30900 44.38600 41.55300
C  51.52700 40.85900 40.20400
C  54.19600 42.49200 41.18600
O  54.40100 41.27500 40.92700
C  55.42800 43.37700 41.60800
N  51.30200 47.17100 42.55500
C  52.65800 46.74700 42.45100
C  53.68600 47.84300 42.95500
C  52.73000 49.01500 43.39100
C  51.25600 48.40700 43.14500
C  54.73800 47.42500 44.03100
C  52.99800 50.40000 42.64900
C  53.69100 51.45300 43.50600
N  48.49100 47.69000 42.34700
C  48.80900 48.86500 43.04200
C  47.66200 49.71800 43.17100
C  46.59700 48.86400 42.65600
C  47.18600 47.67200 42.08800
C  47.64600 51.08500 43.65300
C  45.10400 48.77000 42.38900
O  44.18600 49.48100 42.77400
C  44.86400 47.35400 41.63000
C  43.90300 46.52600 42.43100
O  43.99900 46.19500 43.59700
O  42.85500 46.09000 41.60500
C  41.90500 45.14900 42.28600
H  48.84100 41.83700 40.29800
H  54.10600 45.35500 42.04000
H  50.29500 50.14400 43.83200
H  44.96000 44.43000 40.76700
H  46.73300 43.17800 38.91600
H  46.24200 41.31900 39.91900
H  44.97100 42.23500 40.50800
H  46.33100 41.88500 41.60800
H  46.04500 44.92000 37.96300
H  45.63000 46.46500 38.77500
H  43.56800 46.18100 38.57200
H  43.59000 44.33300 39.01400
H  52.30500 40.09900 40.13100
H  51.19200 40.97100 39.17300
H  50.73100 40.27900 40.67000
H  55.11800 43.66300 42.61300
H  55.46800 44.20900 40.90600
H  56.35800 42.80800 41.62600
H  54.23900 48.04700 42.03800
H  52.87400 49.09800 44.46900
H  55.72700 47.66000 43.63800
H  54.64600 46.37600 44.31300
H  54.56200 48.08500 44.88100
H  52.08300 50.92700 42.38200
H  53.60100 50.25900 41.75100
H  54.71600 51.43600 43.13400
H  53.51500 51.23900 44.56000
H  53.30800 52.46500 43.36900
H  47.94200 51.78800 42.87400
H  48.20200 51.12800 44.59000
H  46.61900 51.36700 43.88600
H  44.38000 47.47600 40.66100
H  41.20200 44.64500 41.62300
H  41.46600 45.79100 43.05000
H  42.59100 44.44300 42.75300
Mg 6.57200 54.24300 41.36800
C  5.89000 50.89100 40.60200
C  9.58100 53.89800 39.79500
C  6.68700 57.65500 41.33900
C  3.24100 54.50200 42.67600
N  7.59200 52.59600 40.29300
C  7.10400 51.35800 40.04200
C  8.19900 50.61300 39.25200
C  9.50500 51.37000 39.48500
C  8.87600 52.72300 39.93000
C  10.40400 50.86300 40.68500
C  7.79900 50.59900 37.73700
C  8.09300 49.25700 37.02700
H  7.36400 49.20100 35.68900
N  8.02400 55.61100 40.83600
C  9.20600 55.22200 40.18600
C  9.95600 56.47400 40.09900
C  9.04500 57.56200 40.36200
C  7.87100 56.95400 40.87000
C  11.40600 56.49000 39.55700
C  9.40700 59.03800 40.11700
O  10.54600 59.37200 39.78900
C  8.41000 60.10900 40.17200
N  5.12000 55.85400 42.12100
C  5.46900 57.12400 41.89400
C  4.34600 58.05500 42.26400
C  3.28400 57.10500 42.81200
C  3.84700 55.73100 42.46700
C  4.83600 59.13400 43.26900
C  1.87800 57.31900 42.27300
C  0.73700 56.97600 43.18300
N  4.93500 53.01300 41.57100
C  3.69700 53.23100 42.20200
C  3.02500 51.97500 42.43200
C  3.85900 51.02800 41.74800
C  4.97100 51.65800 41.27900
C  1.84900 51.72800 43.25600
C  4.05600 49.60100 41.47200
O  3.30700 48.68100 41.78400
C  5.37800 49.43300 40.52900
C  4.90900 48.93400 39.13600
O  4.25700 49.65100 38.36800
O  5.20800 47.58800 39.03800
C  4.55600 46.98500 37.86700
H  10.60900 53.84300 39.43000
H  6.53900 58.72600 41.18700
H  2.25500 54.49700 43.14600
H  8.34000 49.57200 39.54000
H  10.10400 51.38100 38.57500
H  10.12500 49.86800 41.03200
H  10.37000 51.40300 41.63100
H  11.42700 50.89200 40.31100
H  8.42400 51.31700 37.20700
H  6.76700 50.92000 37.60000
H  7.71500 48.57000 37.78400
H  9.14000 49.07400 36.78500
H  12.05500 57.14700 40.13700
H  11.58900 56.99800 38.61000
H  11.81500 55.48000 39.56900
H  8.88000 61.05500 39.90300
H  7.98800 60.23500 41.16900
H  7.53400 59.99300 39.53400
H  3.98100 58.60800 41.39800
H  3.33200 57.22100 43.89500
H  4.25800 59.21900 44.18900
H  4.70200 60.12100 42.82700
H  5.88600 59.14000 43.55900
H  1.60600 56.72800 41.39800
H  1.81900 58.36600 41.97400
H  1.05700 56.58700 44.15000
H  0.18600 56.16900 42.70000
H  0.00500 57.77200 43.04500
H  0.95500 52.20700 42.85700
H  2.01200 52.04000 44.28800
H  1.50600 50.69500 43.31500
H  6.10600 48.71100 40.89700
H  3.60800 47.44900 37.59400
H  4.49100 45.90600 38.01200
H  5.26900 47.19300 37.06900

