158

Mg -2.20300 16.96300 27.12200
C  -2.67500 14.64400 29.74000
C  -2.62400 19.43700 29.28600
C  -1.81800 19.04800 24.50900
C  -2.16400 14.27300 24.82100
N  -2.77000 17.03400 29.34900
C  -2.75300 16.00400 30.26000
C  -2.83900 16.50600 31.78500
C  -2.74300 18.08700 31.49300
C  -2.69900 18.21900 29.93400
C  -3.85700 19.02500 32.18200
C  -1.84000 15.85800 32.66700
C  -1.49100 16.71600 33.90600
H  -1.21200 16.00400 35.25100
N  -2.27700 18.90100 26.96500
C  -2.45100 19.81200 27.93800
C  -2.30300 21.15700 27.43200
C  -2.10800 21.03400 26.03500
C  -2.07500 19.57500 25.80500
C  -2.41400 22.44800 28.35600
C  -1.95200 22.14200 24.99200
O  -2.10100 21.96000 23.77900
C  -1.66100 23.58400 25.35600
N  -2.20200 16.73300 24.93600
C  -1.88300 17.71100 24.09300
C  -1.90300 17.31100 22.60600
C  -2.10200 15.84100 22.78800
C  -2.15200 15.58100 24.30300
C  -3.02200 17.98000 21.77300
C  -1.04400 15.00300 21.96400
C  0.23200 14.46300 22.62400
N  -2.38000 14.93900 27.19200
C  -2.34600 14.01900 26.14300
C  -2.47700 12.76900 26.70400
C  -2.64100 12.94300 28.04000
C  -2.55000 14.27600 28.36800
C  -2.61000 11.48900 25.87200
C  -2.86300 12.31300 29.31200
O  -3.08600 11.15100 29.48200
C  -2.91800 13.34700 30.48600
C  -1.73800 13.07900 31.39600
O  -0.49900 13.11900 31.26200
O  -2.19800 12.75500 32.63800
C  -1.25300 12.43500 33.76900
H  -2.59900 20.24000 30.02600
H  -1.64000 19.82600 23.76400
H  -2.24400 13.50300 24.05100
H  -3.86900 16.23100 32.00900
H  -1.80100 18.47100 31.88600
H  -3.37700 19.89300 32.63300
H  -4.34700 18.50700 33.00700
H  -4.61000 19.23800 31.42300
H  -0.91700 15.58300 32.15500
H  -2.42700 15.04400 33.09300
H  -2.37400 17.33500 34.06500
H  -0.60100 17.31700 33.72100
H  -1.45900 22.97100 28.38900
H  -2.53700 22.19000 29.40800
H  -3.17300 23.15900 28.02700
H  -0.69500 23.41200 25.83000
H  -2.44600 24.00800 25.98300
H  -1.33400 24.25400 24.56100
H  -0.92400 17.52800 22.17800
H  -3.08900 15.48300 22.49800
H  -3.92100 17.38000 21.91200
H  -2.80100 18.04600 20.70700
H  -3.34600 18.96800 22.09900
H  -0.68900 15.64800 21.15900
H  -1.63700 14.17300 21.58000
H  0.32500 14.94700 23.59700
H  1.08700 14.81600 22.04800
H  0.20900 13.37500 22.55700
H  -3.55000 11.52600 25.32100
H  -2.65300 10.75400 26.67500
H  -1.79300 11.47200 25.15000
H  -3.89200 13.23300 30.96200
H  -1.62800 12.98500 34.63300
H  -0.23200 12.81100 33.69900
H  -1.20100 11.36400 33.96300
Mg 7.44000 2.29300 28.06400
C  9.05100 0.93400 30.78600
C  5.91800 4.59600 30.13900
C  5.93700 3.53500 25.38700
C  9.02100 -0.16300 26.01700
N  7.42300 2.74000 30.30300
C  8.18600 2.02800 31.13800
C  7.89300 2.51600 32.61800
C  6.68900 3.58200 32.34000
C  6.66700 3.68100 30.83600
C  5.31700 3.18200 32.94000
C  9.12300 2.91600 33.39400
C  9.03700 4.03000 34.50200
H  9.96900 3.78100 35.67400
N  6.05500 3.72400 27.85400
C  5.59300 4.60800 28.80700
C  4.72400 5.66800 28.17800
C  4.78600 5.40900 26.81800
C  5.61800 4.15600 26.65100
C  3.98300 6.70200 28.95100
C  4.17000 6.25500 25.68500
O  4.28500 5.96100 24.49600
C  3.55600 7.52900 25.90100
N  7.59800 1.79200 25.99500
C  6.85600 2.49200 25.14000
C  6.95300 1.80100 23.74800
C  8.06800 0.81800 23.90200
C  8.23500 0.72700 25.41400
C  5.60200 1.06900 23.30400
C  9.45500 1.18500 23.29300
C  10.52800 1.88000 24.18600
N  8.65000 0.60200 28.31700
C  9.17200 -0.23900 27.34600
C  10.11100 -1.12700 28.14900
C  10.10700 -0.64600 29.43200
C  9.17200 0.34500 29.49800
C  11.17200 -2.20500 27.54800
C  10.77900 -0.81700 30.74300
O  11.64400 -1.53500 31.17100
C  9.92600 0.11700 31.71000
C  9.06600 -0.79000 32.46600
O  7.99100 -1.31000 32.15000
O  9.49600 -0.75100 33.82500
C  8.50700 -1.18100 34.76200
H  5.61800 5.45400 30.74500
H  5.43000 3.94600 24.51200
H  9.77800 -0.81500 25.57700
H  7.43400 1.66800 33.12500
H  6.90100 4.60900 32.63600
H  4.73700 2.71000 32.14600
H  4.85000 4.10300 33.28600
H  5.31700 2.49100 33.78300
H  9.99500 3.05800 32.75600
H  9.22300 2.09200 34.10000
H  8.02600 4.17000 34.88500
H  9.22500 4.96500 33.97500
H  3.94500 6.48500 30.01900
H  3.03300 6.61300 28.42400
H  4.45200 7.67000 28.77700
H  3.31400 7.98200 24.93900
H  4.17400 8.17200 26.52700
H  2.60600 7.37500 26.41400
H  7.22000 2.49400 22.95000
H  7.85400 -0.23800 23.73400
H  4.84300 1.42600 23.99900
H  5.63900 -0.02000 23.26800
H  5.27200 1.49500 22.35700
H  9.24700 1.82100 22.43300
H  9.72300 0.18900 22.93900
H  9.99700 2.55100 24.86100
H  11.23400 2.53300 23.67200
H  11.09600 1.14400 24.75400
H  11.83300 -2.50800 28.36000
H  11.75400 -1.76000 26.74100
H  10.70400 -3.12900 27.20700
H  10.48500 0.77300 32.37800
H  7.56000 -0.65600 34.63300
H  8.92000 -1.00200 35.75500
H  8.41100 -2.25900 34.63500

