158

Mg 54.75500 22.56600 44.53600
C  52.07200 24.73800 43.69700
C  52.64600 19.97300 43.49200
C  57.24500 20.41600 44.88800
C  56.70600 25.24600 45.32800
N  52.65500 22.38800 43.45100
C  51.75300 23.41100 43.21400
C  50.41700 22.92000 42.83700
C  50.47500 21.36500 43.17600
C  52.04000 21.21000 43.37400
C  49.70300 20.99800 44.59000
C  50.02100 23.22700 41.36300
C  48.54000 23.34200 41.21000
H  47.81000 23.23000 39.80700
N  54.94000 20.45000 44.31500
C  53.99100 19.63400 43.82800
C  54.53500 18.31600 43.85700
C  55.84000 18.31300 44.39100
C  56.12800 19.74100 44.48800
C  53.62900 17.20400 43.36800
C  56.79400 17.17500 44.68500
O  56.45500 16.05500 44.35100
C  58.13300 17.39000 45.29000
N  56.73400 22.81900 44.89600
C  57.48900 21.79000 45.23700
C  58.78100 22.25500 45.80400
C  58.61700 23.76400 45.90900
C  57.22000 23.94600 45.39100
C  59.13600 21.51000 47.16200
C  59.78200 24.66000 45.24600
C  60.04900 26.04600 45.81100
N  54.44900 24.63300 44.58500
C  55.36400 25.59400 45.03900
C  54.62300 26.85400 45.05600
C  53.37200 26.53700 44.61500
C  53.29200 25.15400 44.28100
C  55.16000 28.13500 45.64500
C  52.01600 27.07000 44.37300
O  51.52000 28.16500 44.55700
C  51.17400 25.93600 43.71700
C  50.81500 26.34700 42.31900
O  51.62100 26.50000 41.42400
O  49.43900 26.63700 42.14100
C  48.97500 27.02000 40.83000
H  51.88400 19.24200 43.21100
H  58.05700 19.70400 45.04900
H  57.23900 26.12400 45.69900
H  49.59500 23.34200 43.41500
H  50.01400 20.73500 42.41500
H  49.33200 21.86800 45.13200
H  50.33600 20.67300 45.41600
H  48.86200 20.31300 44.48800
H  50.28200 22.34000 40.78600
H  50.46500 24.16500 41.02700
H  48.25200 24.33300 41.56200
H  47.99900 22.64100 41.84600
H  53.29000 17.40100 42.35100
H  52.81200 16.93300 44.03800
H  54.30000 16.35100 43.27100
H  58.03000 17.93900 46.22600
H  58.87900 17.74400 44.57700
H  58.40600 16.40200 45.66100
H  59.63300 21.93500 45.20500
H  58.60400 24.06000 46.95800
H  60.18000 21.34200 47.42700
H  58.58100 20.57200 47.13700
H  58.76000 21.98200 48.07000
H  59.43700 24.70300 44.21300
H  60.69900 24.07200 45.21300
H  59.84100 26.83800 45.09200
H  61.05900 26.04300 46.22000
H  59.40600 26.33700 46.64200
H  54.87600 28.12400 46.69700
H  54.65400 28.98500 45.18700
H  56.23500 28.21600 45.48100
H  50.25000 25.71500 44.25100
H  49.67500 26.90000 40.00300
H  48.74400 28.08000 40.93400
H  48.01700 26.55200 40.60100
Mg 47.30000 34.52000 26.60700
C  45.45700 33.35300 29.38800
C  47.61900 37.57000 28.28400
C  48.63700 35.71600 23.78600
C  46.34700 31.60500 24.90000
N  46.74200 35.25800 28.65800
C  46.05200 34.58800 29.69500
C  46.22100 35.42200 31.00600
C  46.48800 36.87000 30.45300
C  47.04000 36.58300 29.06100
C  45.23500 37.82300 30.35000
C  47.35700 34.82200 31.90700
C  46.97400 34.52500 33.30900
H  47.91000 34.98300 34.42900
N  48.13000 36.38800 26.17100
C  48.14100 37.51600 26.96600
C  48.70700 38.56800 26.19300
C  49.01400 38.02600 24.86000
C  48.60200 36.64700 24.92600
C  48.75900 39.98700 26.73500
C  49.76500 38.73500 23.68200
O  49.92400 38.20000 22.57800
C  50.41100 40.07400 23.83900
N  47.44500 33.78000 24.70300
C  48.12200 34.42700 23.70200
C  48.30300 33.56900 22.41600
C  47.79200 32.14800 22.85600
C  47.20400 32.52700 24.27400
C  47.47900 34.13900 21.27000
C  48.79100 31.06800 23.24200
C  49.85400 30.59400 22.14700
N  46.08300 32.77500 26.96500
C  45.86000 31.63200 26.22400
C  45.02400 30.74700 27.03300
C  44.74700 31.42400 28.26600
C  45.54700 32.61000 28.19400
C  44.56800 29.41600 26.54200
C  44.12900 31.25100 29.56400
O  43.44500 30.37500 30.12200
C  44.44500 32.58700 30.24900
C  44.82000 32.30500 31.71800
O  45.71000 31.55100 32.13600
O  43.89700 32.83500 32.54200
C  43.84400 32.43700 33.93400
H  47.64500 38.57600 28.70800
H  49.10600 35.95000 22.82800
H  46.18900 30.69500 24.31700
H  45.25600 35.44900 31.51300
H  47.20600 37.50100 30.97700
H  45.42200 38.65900 31.02400
H  44.29100 37.33200 30.58700
H  45.11300 38.24000 29.35000
H  48.22500 35.47900 31.94100
H  47.62900 33.87800 31.43600
H  47.03300 33.43800 33.36700
H  46.01200 34.96700 33.56900
H  48.23800 40.19900 27.66900
H  48.16900 40.57400 26.03100
H  49.73100 40.47900 26.77100
H  49.70600 40.80900 24.22700
H  50.76000 40.56800 22.93200
H  51.20900 39.80200 24.53000
H  49.37100 33.59300 22.20100
H  47.01000 31.68200 22.25700
H  47.99000 34.15700 20.30800
H  47.04400 35.13200 21.38600
H  46.68000 33.45300 20.98700
H  48.20000 30.22100 23.59000
H  49.26600 31.37200 24.17500
H  50.84600 30.61000 22.59800
H  49.89000 31.24200 21.27100
H  49.70200 29.56200 21.83300
H  45.03300 29.27500 25.56600
H  43.47900 29.45200 26.57600
H  44.95000 28.63500 27.19900
H  43.54600 33.20300 30.23200
H  44.58500 32.94400 34.55100
H  43.93400 31.36500 34.11300
H  42.86100 32.73100 34.30300

