158

Mg 1.67100 -2.28400 43.79100
C  5.10500 -1.32600 43.27600
C  0.81000 0.54000 41.96900
C  -1.29200 -3.48500 43.72200
C  2.88300 -5.30600 45.04400
N  2.88200 -0.50900 42.83200
C  4.24600 -0.34800 42.80300
C  4.57200 0.97100 42.02600
C  3.21200 1.72100 42.10200
C  2.21500 0.53100 42.27500
C  3.10200 2.97800 43.13000
C  5.31300 0.60500 40.65400
C  6.59200 1.42200 40.28600
H  6.73000 2.00900 38.88600
N  -0.04000 -1.54600 42.99500
C  -0.23300 -0.39200 42.26700
C  -1.62200 -0.25300 41.94100
C  -2.27300 -1.34000 42.52200
C  -1.17700 -2.19400 43.15000
C  -2.33900 1.05300 41.29000
C  -3.76500 -1.57800 42.46700
O  -4.57900 -0.80500 41.89500
C  -4.38500 -2.79900 42.98100
N  0.92700 -4.34300 43.95800
C  -0.38800 -4.44600 44.14200
C  -0.75900 -5.79100 44.81100
C  0.61200 -6.41200 45.12300
C  1.52300 -5.27000 44.68700
C  -1.60100 -5.57000 45.98200
C  1.06100 -7.61500 44.26800
C  1.50100 -8.86900 44.94400
N  3.55700 -3.18600 44.20300
C  3.83400 -4.37500 44.74300
C  5.29600 -4.41300 44.93900
C  5.89700 -3.29000 44.34800
C  4.72100 -2.51000 43.92200
C  5.97300 -5.42000 45.74000
C  7.08900 -2.63600 43.87600
O  8.22200 -2.99500 44.09600
C  6.68000 -1.28700 43.21400
C  7.19400 -0.18600 43.99800
O  6.73100 0.19700 45.06200
O  8.25400 0.45100 43.42200
C  8.96300 1.57600 44.10200
H  0.49800 1.23900 41.19100
H  -2.33500 -3.81000 43.72800
H  3.29200 -6.10900 45.66000
H  5.36500 1.45700 42.59400
H  2.98500 2.16300 41.13200
H  4.10300 3.38900 43.25900
H  2.69000 2.76800 44.11700
H  2.52000 3.81900 42.75100
H  4.50700 0.72300 39.93000
H  5.62500 -0.43900 40.68600
H  7.45500 0.80700 40.53900
H  6.71400 2.27300 40.95600
H  -2.87600 0.91800 40.35100
H  -1.56900 1.80500 41.11600
H  -2.96000 1.61300 41.98800
H  -5.40800 -2.74500 42.60800
H  -4.15900 -2.83000 44.04700
H  -3.90300 -3.63900 42.48100
H  -1.23500 -6.42000 44.05900
H  0.81000 -6.71400 46.15100
H  -1.10700 -5.80300 46.92500
H  -2.48400 -6.18800 45.82100
H  -1.98100 -4.55600 46.10000
H  2.01600 -7.45800 43.76600
H  0.30200 -7.82000 43.51200
H  0.90100 -8.96900 45.84800
H  2.53000 -8.80700 45.30000
H  1.39800 -9.76800 44.33600
H  5.40600 -5.90800 46.53300
H  6.92200 -5.09300 46.16500
H  6.28700 -6.21700 45.06700
H  7.06000 -1.22500 42.19400
H  8.19300 2.16300 44.60300
H  9.37900 2.15000 43.27500
H  9.79400 1.19300 44.69500
Mg 34.61900 49.09500 26.50400
C  35.07400 47.26600 29.26100
C  33.96500 51.84400 28.48500
C  33.79400 50.84600 23.64000
C  35.52700 46.50000 24.53800
N  34.52200 49.50500 28.63000
C  34.75200 48.52500 29.57000
C  34.65900 49.15100 31.02900
C  33.99400 50.53600 30.77700
C  34.15200 50.68900 29.21500
C  32.56900 50.65300 31.19500
C  36.11500 49.14700 31.62900
C  36.33000 48.79100 33.05800
H  36.30200 49.77700 34.27100
N  34.00500 51.07200 26.13800
C  33.89500 52.07200 27.06800
C  33.46600 53.31400 26.45900
C  33.36100 53.04700 25.04500
C  33.76500 51.58500 24.89900
C  33.31300 54.63300 27.13800
C  32.96800 54.00400 23.86600
O  32.76200 53.61100 22.73700
C  32.74900 55.52400 24.02400
N  34.84300 48.79000 24.34400
C  34.35000 49.55400 23.33800
C  34.52800 48.88700 21.90200
C  35.04100 47.51300 22.24100
C  35.20400 47.63800 23.76000
C  33.16000 48.91000 21.12500
C  36.27700 47.01600 21.47900
C  36.17200 45.92100 20.36700
N  35.16500 47.26300 26.76400
C  35.47500 46.23900 25.90600
C  35.79600 44.99600 26.66900
C  35.68500 45.41500 27.98900
C  35.25100 46.76100 27.97900
C  36.16200 43.66300 26.07200
C  35.79800 44.94600 29.29300
O  35.99600 43.82200 29.71900
C  35.35300 46.10500 30.17700
C  34.27800 45.60300 31.10200
O  33.14200 45.30700 30.73000
O  34.73700 45.55100 32.35700
C  33.78100 45.11700 33.41100
H  33.73900 52.75500 29.04500
H  33.52600 51.39800 22.73700
H  35.81400 45.58200 24.01900
H  33.97000 48.54100 31.61200
H  34.63300 51.22200 31.33300
H  32.40300 51.64400 31.62000
H  32.18200 49.86700 31.84300
H  31.95300 50.60400 30.29700
H  36.36500 50.20700 31.64900
H  36.75500 48.46200 31.07200
H  37.21500 48.15400 33.06800
H  35.54600 48.08500 33.33200
H  34.01700 55.39600 26.80800
H  33.39000 54.57800 28.22400
H  32.29000 54.96900 26.96800
H  31.78800 55.75200 24.48400
H  32.73600 55.91200 23.00600
H  33.59100 56.05700 24.46600
H  35.22100 49.55800 21.39300
H  34.28800 46.73000 22.15500
H  32.32700 48.98800 21.82300
H  33.05800 47.96200 20.59700
H  33.22400 49.75500 20.43900
H  37.02200 46.56600 22.13400
H  36.72500 47.90500 21.03600
H  35.60500 46.21400 19.48300
H  35.62500 45.10500 20.84100
H  37.13000 45.62800 19.93900
H  37.07900 43.71800 25.48500
H  35.32700 43.22200 25.52700
H  36.34000 42.91300 26.84300
H  36.28400 46.40900 30.65500
H  32.73600 45.12700 33.10100
H  33.93200 45.80200 34.24500
H  34.11300 44.13100 33.73800

