158

Mg 31.01700 58.67200 38.97800
C  28.20000 56.76900 38.15700
C  33.10000 56.05400 38.44900
C  33.65300 60.72300 39.35100
C  28.90700 61.46500 39.03600
N  30.64700 56.65500 38.16400
C  29.39500 56.08500 38.07500
C  29.60500 54.54200 37.72000
C  31.19400 54.36600 37.82700
C  31.70800 55.76400 38.20500
C  31.66300 53.10100 38.70700
C  29.02900 54.04000 36.35400
C  29.45300 54.71800 35.04600
H  28.33300 55.33900 34.14900
N  33.06200 58.43300 39.00700
C  33.77100 57.29700 38.76900
C  35.21400 57.56200 38.92300
C  35.35700 58.93200 39.23000
C  33.97100 59.44600 39.15000
C  36.22500 56.48700 38.66100
C  36.68900 59.53500 39.59600
O  37.72400 58.82000 39.56000
C  36.91200 61.06200 39.90800
N  31.32000 60.84400 39.01400
C  32.45600 61.40400 39.25100
C  32.37400 62.94300 39.23100
C  30.89800 63.13600 39.60800
C  30.29200 61.73000 39.29900
C  33.32900 63.72000 40.14000
C  30.21200 64.33100 38.81700
C  29.11300 65.09500 39.45000
N  28.98300 59.12900 38.67300
C  28.26500 60.27600 38.78200
C  26.81900 60.05300 38.52500
C  26.74500 58.65200 38.30200
C  28.13500 58.15000 38.34700
C  25.69600 61.08500 38.62500
C  25.82000 57.56400 38.13700
O  24.59900 57.53600 38.09800
C  26.74500 56.24000 38.00000
C  26.35600 55.19800 39.08900
O  26.90800 55.09500 40.18600
O  25.34700 54.40200 38.60300
C  24.73800 53.33100 39.39900
H  33.75900 55.19800 38.28800
H  34.48000 61.38900 39.09400
H  28.30600 62.37100 39.13200
H  29.22900 54.02500 38.60300
H  31.55400 54.09300 36.83500
H  32.35900 52.43800 38.19300
H  30.89000 52.46300 39.13600
H  32.17200 53.44700 39.60700
H  27.98800 54.35800 36.40900
H  29.03600 52.95100 36.31500
H  29.93500 53.99800 34.38500
H  30.22200 55.45000 35.29200
H  37.11600 56.87200 38.16500
H  35.81100 55.71300 38.01500
H  36.53700 55.98800 39.57900
H  36.11100 61.36700 40.58000
H  36.90700 61.59700 38.95800
H  37.90800 61.03900 40.35100
H  32.65700 63.10100 38.19000
H  30.81000 63.24200 40.68900
H  34.37400 63.56800 39.86900
H  33.08600 63.50000 41.18000
H  33.13000 64.77900 39.97700
H  29.89900 64.00300 37.82600
H  31.00000 65.04400 38.57100
H  29.13000 65.15200 40.53900
H  28.19600 64.59700 39.13400
H  29.50300 66.07000 39.15900
H  25.05700 61.11000 37.74300
H  26.19800 62.03500 38.81000
H  25.03500 60.81800 39.44900
H  26.58600 55.73200 37.04900
H  24.90000 52.30200 39.07700
H  23.68400 53.49500 39.62100
H  25.19400 53.39200 40.38800
Mg 6.32400 53.83100 40.83600
C  6.23200 50.29300 40.57700
C  9.52800 53.79600 39.48900
C  6.30500 57.16100 40.87100
C  2.91200 53.68000 41.71900
N  7.60500 52.14500 39.97000
C  7.41800 50.83000 40.02900
C  8.67700 50.08200 39.63600
C  9.76500 51.20400 39.65700
C  8.88800 52.52200 39.65400
C  10.74800 51.18100 40.87500
C  8.52600 49.23500 38.32700
C  7.64900 49.80800 37.21000
H  8.23000 50.81800 36.19900
N  7.76700 55.25000 40.37400
C  8.98900 55.11800 39.80900
C  9.67900 56.37000 39.66600
C  8.79500 57.37100 40.12800
C  7.56100 56.59400 40.53300
C  11.08200 56.50200 39.21500
C  9.10100 58.83500 40.24900
O  10.15800 59.25800 39.85100
C  8.14100 59.86800 40.93500
N  4.80900 55.23900 41.19100
C  5.00800 56.59500 41.01300
C  3.70500 57.39400 41.29000
C  2.60500 56.21300 41.36600
C  3.45000 54.95600 41.51800
C  3.67700 58.35700 42.43000
C  1.63900 55.98300 40.15100
C  2.23700 55.45400 38.79800
N  4.79800 52.38800 41.16600
C  3.54500 52.44800 41.63800
C  3.01100 51.14000 41.82600
C  4.10100 50.26300 41.58800
C  5.10900 51.06100 40.98700
C  1.64200 50.81800 42.43600
C  4.62900 48.90800 41.70500
O  4.24900 47.96300 42.38700
C  5.96400 48.85100 40.84800
C  5.57700 47.93100 39.69600
O  4.87500 48.20200 38.71800
O  6.13400 46.70600 39.91500
C  5.73000 45.74300 38.92300
H  10.57900 53.71000 39.20500
H  6.37100 58.22100 41.12500
H  1.88900 53.45900 42.03100
H  8.90500 49.29900 40.35800
H  10.28400 51.08500 38.70600
H  10.67800 50.22700 41.39700
H  10.57100 52.05500 41.50100
H  11.74600 51.17400 40.43600
H  8.18000 48.23000 38.56800
H  9.53200 48.99400 37.98300
H  6.79700 50.32600 37.65000
H  7.26400 48.96000 36.64400
H  11.63700 55.60700 39.49300
H  11.67200 57.22900 39.77300
H  11.11900 56.82200 38.17300
H  7.25800 59.87200 40.29600
H  8.53400 60.88300 40.87900
H  7.76300 59.58900 41.91900
H  3.46000 57.96800 40.39600
H  2.09700 56.32200 42.32400
H  3.12000 59.20700 42.03700
H  4.64900 58.69000 42.79400
H  3.06800 57.98700 43.25500
H  1.28100 56.97700 39.88200
H  0.75900 55.36600 40.33200
H  1.81000 54.50600 38.47100
H  3.32500 55.49100 38.73200
H  2.02600 56.19000 38.02300
H  1.68300 51.24200 43.44000
H  1.74500 49.75600 42.65800
H  0.80000 51.21500 41.86900
H  6.65200 48.35200 41.53100
H  6.29300 46.01500 38.03000
H  4.64600 45.79500 38.81700
H  5.96000 44.69100 39.09500

