158

Mg 25.61700 0.79300 29.60200
C  27.64200 0.71500 32.49800
C  22.98100 1.44900 31.75900
C  23.72500 1.10800 26.92600
C  28.32500 -0.13500 27.75800
N  25.37500 0.91300 31.96500
C  26.34500 0.98900 32.92400
C  25.75700 1.43100 34.30600
C  24.19600 1.24000 34.07200
C  24.18900 1.25800 32.47300
C  23.60500 -0.02900 34.52800
C  26.23600 2.76800 34.80400
C  26.96300 2.82400 36.15400
H  26.50700 3.79400 37.15100
N  23.59300 1.20700 29.36500
C  22.69400 1.44500 30.33200
C  21.42500 1.67100 29.73000
C  21.54400 1.42500 28.37000
C  22.97500 1.28000 28.13800
C  20.17300 1.87100 30.62600
C  20.47500 1.36800 27.18400
O  20.86500 1.46400 26.02800
C  18.99400 1.21200 27.49800
N  25.89600 0.32500 27.64800
C  25.00200 0.74800 26.67100
C  25.65000 0.71500 25.28300
C  27.16100 0.24300 25.55100
C  27.16200 0.23000 27.08200
C  24.89800 -0.08900 24.13000
C  28.18600 1.27800 25.03800
C  28.30100 1.51300 23.56600
N  27.56600 0.22200 29.95100
C  28.54300 -0.18400 29.13200
C  29.76300 -0.47700 29.87700
C  29.50700 -0.01100 31.12800
C  28.11000 0.32400 31.16800
C  31.06500 -0.84100 29.26400
C  30.08600 0.32200 32.44000
O  31.21800 0.09500 32.85900
C  28.93700 0.80000 33.31900
C  28.80000 -0.05900 34.45500
O  28.41900 -1.19200 34.37800
O  29.37400 0.43900 35.53600
C  29.56000 -0.38700 36.74400
H  22.07200 1.67500 32.32000
H  23.19900 1.18400 25.97300
H  29.11600 -0.49700 27.09800
H  26.08300 0.63600 34.97800
H  23.54900 2.07900 34.32700
H  23.18800 0.22200 35.50300
H  24.40000 -0.77400 34.48900
H  22.89600 -0.55500 33.88800
H  25.45200 3.52500 34.80000
H  26.96700 3.05800 34.04800
H  28.03200 2.91000 35.96100
H  26.72400 1.83000 36.53400
H  19.91900 0.93600 31.12600
H  19.37300 2.13000 29.93200
H  20.39400 2.66700 31.33800
H  18.66300 0.75500 26.56500
H  18.48400 2.16200 27.66100
H  18.90600 0.50300 28.32100
H  25.73400 1.77400 25.03800
H  27.47500 -0.78000 25.34600
H  24.44700 0.59800 23.41400
H  24.04400 -0.59300 24.58400
H  25.44100 -0.87600 23.60700
H  29.20500 1.03500 25.34200
H  27.88500 2.21500 25.50600
H  27.61500 0.86900 23.01600
H  29.27600 1.26900 23.14500
H  28.17800 2.56800 23.32500
H  31.56900 0.10200 29.05400
H  30.85100 -1.34800 28.32300
H  31.64700 -1.58200 29.81200
H  29.21500 1.79200 33.67600
H  29.81800 -1.44000 36.62900
H  28.73400 -0.30300 37.45000
H  30.43700 0.03400 37.23700
Mg 42.66500 41.61500 26.45000
C  41.91300 43.86500 29.18500
C  43.63000 39.35200 28.84700
C  44.01500 39.70400 24.06800
C  42.02300 44.07400 24.13900
N  42.76800 41.66700 28.71700
C  42.40500 42.61800 29.60200
C  42.42100 42.06500 31.05700
C  43.16500 40.70500 30.92500
C  43.16700 40.53900 29.39000
C  44.52800 40.66000 31.60300
C  41.08200 41.98800 31.75000
C  41.16300 41.78700 33.27300
H  40.53000 42.84900 34.14000
N  43.75100 39.72700 26.44600
C  43.81700 38.97800 27.52900
C  44.35300 37.66900 27.11400
C  44.55900 37.74800 25.70700
C  44.15300 39.09700 25.32300
C  44.56600 36.49500 28.05100
C  45.13000 36.80100 24.81500
O  45.42300 37.06900 23.65700
C  45.33700 35.35700 25.27400
N  43.15100 41.88900 24.45000
C  43.59500 40.91900 23.64800
C  43.53900 41.30400 22.18700
C  42.85700 42.63900 22.19900
C  42.66500 42.90600 23.66300
C  44.95900 41.24500 21.49900
C  41.39700 42.54700 21.49200
C  40.32100 41.72900 22.18700
N  41.98900 43.58700 26.51200
C  41.74900 44.45600 25.51400
C  41.35900 45.67500 26.05500
C  41.44200 45.55900 27.52400
C  41.74600 44.22300 27.73600
C  41.08800 46.89100 25.23200
C  41.31700 46.20200 28.80400
O  40.97500 47.33700 28.99400
C  41.50900 45.07800 29.92700
C  42.55100 45.62300 30.89700
O  43.78000 45.73500 30.60000
O  42.03700 46.02700 32.07100
C  43.03300 46.62800 32.98200
H  44.01200 38.65700 29.59700
H  44.49700 39.13600 23.27000
H  41.88300 44.84500 23.37800
H  42.99100 42.88700 31.49000
H  42.58500 39.97100 31.48300
H  44.56400 39.66200 32.03900
H  44.67500 41.27800 32.48900
H  45.36700 40.83400 30.92900
H  40.61200 41.07700 31.38100
H  40.49700 42.89700 31.60700
H  42.14600 41.58600 33.69900
H  40.64500 40.89100 33.61800
H  44.21600 35.57100 27.59200
H  44.08500 36.62000 29.02100
H  45.64600 36.43100 28.18000
H  45.87800 35.39300 26.21900
H  46.00200 34.96500 24.50400
H  44.39200 34.82500 25.17000
H  42.88600 40.49300 21.86500
H  43.53700 43.29800 21.65900
H  45.73300 40.94800 22.20600
H  45.28300 42.19000 21.06200
H  44.84900 40.45700 20.75300
H  41.55200 42.16300 20.48400
H  41.04600 43.55100 21.25400
H  39.50500 42.37900 22.50300
H  40.69900 41.13600 23.02000
H  39.89300 41.02400 21.47400
H  40.29800 47.48000 25.69700
H  40.78200 46.56500 24.23800
H  41.97400 47.52500 25.18300
H  40.59200 44.92300 30.49600
H  42.83300 46.24400 33.98200
H  43.01400 47.71300 33.08100
H  44.04700 46.24800 32.85700

