158

Mg 2.96200 -1.80100 45.76100
C  6.26100 -0.72200 44.94900
C  1.69900 0.61000 43.47000
C  0.11700 -3.32100 45.96300
C  4.55700 -4.25400 47.64000
N  3.94400 -0.34000 44.27500
C  5.25700 -0.00600 44.25100
C  5.42700 1.07500 43.24800
C  4.02800 1.72600 43.14300
C  3.16700 0.61000 43.59600
C  3.80400 3.04300 43.97500
C  6.15600 0.58500 41.94800
C  7.55400 1.26900 41.67700
H  7.73000 2.05900 40.42200
N  1.11300 -1.42800 44.84700
C  0.80700 -0.39500 44.01400
C  -0.61900 -0.43900 43.76600
C  -1.16500 -1.51700 44.43700
C  0.01100 -2.18200 45.06800
C  -1.38100 0.54500 42.85800
C  -2.56200 -2.03200 44.27000
O  -3.40800 -1.40200 43.68800
C  -2.98500 -3.32300 44.81300
N  2.43900 -3.60500 46.59300
C  1.13700 -4.01200 46.57500
C  0.90100 -5.31800 47.39300
C  2.31600 -5.57100 48.03400
C  3.16300 -4.44200 47.41800
C  -0.29700 -5.18400 48.43800
C  2.92100 -6.97800 47.91800
C  2.95300 -7.87500 49.20900
N  4.99200 -2.33600 46.32100
C  5.41900 -3.33400 47.08300
C  6.90300 -3.36900 47.23600
C  7.27100 -2.30800 46.44700
C  6.09600 -1.80000 45.81800
C  7.80700 -4.34300 47.93800
C  8.36400 -1.35100 46.10800
O  9.50800 -1.18400 46.55700
C  7.78300 -0.39800 45.05100
C  7.95600 0.99300 45.63500
O  7.22800 1.48800 46.47100
O  9.16200 1.57000 45.10200
C  9.26100 2.98000 45.49900
H  1.29700 1.43300 42.87500
H  -0.83500 -3.83100 46.12300
H  4.97500 -4.88900 48.42300
H  6.05300 1.83900 43.70900
H  3.77100 1.96100 42.11000
H  3.13100 2.85500 44.81200
H  3.33800 3.75400 43.29300
H  4.73600 3.41200 44.40400
H  5.53100 0.48800 41.06100
H  6.32200 -0.48700 42.05900
H  8.19300 0.38600 41.69100
H  7.73500 1.89700 42.54900
H  -0.86900 1.47700 42.61600
H  -2.24400 0.97800 43.36300
H  -1.56900 0.06000 41.90000
H  -2.98100 -3.21700 45.89800
H  -2.21200 -4.01900 44.48800
H  -4.00000 -3.53400 44.47600
H  0.61500 -6.00200 46.59400
H  2.17700 -5.30300 49.08100
H  -0.62500 -4.14500 48.41300
H  0.02200 -5.54300 49.41700
H  -1.08900 -5.75700 47.95600
H  3.90900 -6.90300 47.46400
H  2.23700 -7.51800 47.26300
H  2.45300 -8.78300 48.87200
H  2.34100 -7.63700 50.07900
H  3.97000 -8.13000 49.50800
H  8.27500 -3.81400 48.76800
H  8.49700 -4.71200 47.17900
H  7.19600 -5.11500 48.40600
H  8.24500 -0.54900 44.07500
H  8.97700 3.03400 46.55000
H  8.60000 3.56300 44.85700
H  10.26600 3.39600 45.42700
Mg 46.55000 25.39000 28.89500
C  47.49300 27.66300 31.50700
C  45.91900 23.07400 31.31300
C  46.28200 22.99000 26.38000
C  47.92700 27.61000 26.64900
N  46.53800 25.42400 31.15600
C  46.76200 26.52600 31.99000
C  46.39300 26.25300 33.41900
C  45.95600 24.70800 33.36500
C  46.09500 24.36900 31.87900
C  46.93300 23.80100 34.18600
C  45.19900 27.19800 33.90200
C  45.40400 27.87800 35.20900
H  46.23100 27.16400 36.31000
N  46.02700 23.31000 28.81300
C  45.87800 22.52800 30.00900
C  45.48200 21.17900 29.53800
C  45.52600 21.14500 28.09100
C  45.96400 22.51300 27.70100
C  45.07600 20.09200 30.54700
C  45.12200 20.00800 27.20500
O  45.26400 19.98200 25.97800
C  44.56400 18.77600 27.92600
N  46.86000 25.36700 26.83200
C  46.61400 24.29900 25.95600
C  46.97100 24.66800 24.51300
C  47.31200 26.15100 24.64500
C  47.41500 26.41500 26.13000
C  48.19300 23.90800 23.94700
C  46.30300 27.13800 23.96700
C  46.91100 28.41000 23.32000
N  47.50700 27.24500 28.94300
C  47.94900 28.01800 27.97100
C  48.56400 29.20700 28.53700
C  48.35100 29.12900 29.87900
C  47.74400 27.91600 30.11600
C  49.16700 30.22700 27.78800
C  48.59800 29.82900 31.16700
O  49.01300 30.95400 31.47500
C  48.02400 28.82100 32.26900
C  49.00300 28.49500 33.24400
O  49.56800 27.38500 33.26900
O  49.26600 29.46400 34.12300
C  50.17400 29.13500 35.25100
H  45.78100 22.35600 32.12400
H  45.92200 22.40800 25.52900
H  48.29000 28.27300 25.86000
H  47.24000 26.30700 34.10400
H  44.94600 24.39500 33.63000
H  47.41200 24.37700 34.97800
H  47.74400 23.51700 33.51500
H  46.34300 23.00900 34.64700
H  44.20300 26.76000 33.84100
H  45.13000 27.99300 33.15900
H  44.43400 28.04300 35.67700
H  45.78000 28.88700 35.04100
H  43.99400 19.97700 30.47100
H  45.29300 20.45500 31.55100
H  45.66000 19.18100 30.41400
H  43.80300 19.05600 28.65400
H  45.38500 18.13300 28.24200
H  44.13900 18.25400 27.06800
H  46.09000 24.39300 23.93300
H  48.30200 26.45500 24.30500
H  47.92300 23.25800 23.11400
H  48.51000 23.28600 24.78400
H  49.03300 24.57500 23.75300
H  45.68900 27.46100 24.80700
H  45.61600 26.56700 23.34200
H  46.60400 28.55200 22.28400
H  47.99500 28.36600 23.20900
H  46.68000 29.33100 23.85600
H  49.58200 29.98000 26.81100
H  50.05200 30.54900 28.33600
H  48.48100 31.06300 27.65300
H  47.22600 29.38000 32.75800
H  51.01900 28.53200 34.91900
H  49.55300 28.66400 36.01300
H  50.44500 30.08700 35.70700

