158

Mg 26.04100 0.57900 29.18700
C  27.94900 0.18900 32.17100
C  23.25700 1.15200 31.15400
C  24.29700 0.52600 26.43100
C  28.97800 -0.14200 27.30000
N  25.63500 0.66500 31.39100
C  26.56600 0.51800 32.38900
C  25.85600 0.73900 33.82000
C  24.36800 1.08500 33.49700
C  24.40300 0.96900 31.94700
C  23.31600 0.14000 34.09800
C  26.60100 1.69800 34.71800
C  25.89200 2.44800 35.91700
H  26.42600 2.20700 37.34800
N  24.03200 0.78700 28.77700
C  23.06900 1.11100 29.67600
C  21.74600 1.34900 29.00400
C  22.06800 0.93700 27.59400
C  23.49200 0.76000 27.54000
C  20.41700 1.67200 29.69600
C  21.09100 0.70700 26.43700
O  21.35300 0.30200 25.34000
C  19.60200 0.69500 26.86000
N  26.54800 -0.07200 27.18000
C  25.64800 0.20300 26.22700
C  26.24100 -0.03100 24.87000
C  27.73500 -0.27700 25.09800
C  27.72900 -0.09600 26.57900
C  25.50600 -1.01900 23.86200
C  28.65200 0.90700 24.46200
C  29.90600 0.43300 23.65000
N  28.10500 0.11500 29.60800
C  29.14500 -0.14300 28.71900
C  30.30000 -0.36300 29.52300
C  29.95000 -0.19500 30.86300
C  28.52500 0.07700 30.85800
C  31.72500 -0.62300 29.01800
C  30.39900 -0.11900 32.25300
O  31.54000 -0.19800 32.69600
C  29.07400 0.01700 33.15500
C  28.77900 -1.14500 33.95100
O  28.49000 -2.22400 33.51400
O  28.88800 -0.83900 35.36000
C  28.46200 -1.93000 36.28600
H  22.42000 1.37900 31.81800
H  23.73000 0.55500 25.49800
H  29.86200 -0.40100 26.71300
H  25.94600 -0.23700 34.29700
H  24.07400 2.10900 33.72500
H  23.51100 0.04700 35.16600
H  23.37900 -0.85900 33.66600
H  22.32600 0.58700 34.00500
H  27.08400 2.44400 34.08700
H  27.46800 1.29100 35.23700
H  24.82700 2.22500 35.97500
H  26.03000 3.51500 35.74000
H  20.69200 1.89500 30.72700
H  19.85000 0.74600 29.60000
H  19.85300 2.46400 29.20300
H  19.50700 -0.04500 27.65500
H  19.03800 0.42900 25.96700
H  19.25900 1.69400 27.12900
H  26.02800 0.90100 24.34600
H  28.04400 -1.32100 25.05300
H  24.99100 -0.59800 22.99800
H  24.70300 -1.45700 24.45500
H  26.17100 -1.81900 23.53800
H  29.04600 1.67300 25.13000
H  28.01900 1.41000 23.73000
H  29.74900 -0.56700 23.24600
H  30.72600 0.44800 24.36700
H  29.98200 1.20500 22.88400
H  32.38100 0.20300 29.29200
H  31.78900 -0.78000 27.94100
H  32.08000 -1.46500 29.61200
H  29.21800 0.84200 33.85300
H  28.77200 -1.59600 37.27700
H  28.96600 -2.89600 36.27800
H  27.38300 -2.08400 36.30200
Mg 30.18800 58.33700 39.93700
C  27.10600 56.87600 38.95400
C  31.73100 55.52300 38.93900
C  33.12100 59.97100 40.29900
C  28.54500 61.22900 40.71100
N  29.42100 56.30800 39.22800
C  28.17000 55.93000 38.86300
C  28.17200 54.55400 38.11900
C  29.62200 54.05200 38.44700
C  30.33300 55.35800 38.89900
C  29.83900 53.03000 39.63700
C  27.80600 54.50000 36.57100
C  28.69600 55.40900 35.63600
H  27.86400 56.32900 34.78800
N  32.15300 57.86400 39.57000
C  32.56300 56.61100 39.26400
C  33.98400 56.66400 39.16400
C  34.49100 57.92100 39.54300
C  33.24000 58.61600 39.86800
C  34.73100 55.38000 38.72800
C  35.91100 58.38600 39.44100
O  36.72500 57.52200 39.01800
C  36.34700 59.78500 39.69100
N  30.76900 60.38300 40.25900
C  32.06000 60.74200 40.57000
C  32.10900 62.20800 40.75000
C  30.66300 62.59300 41.08600
C  29.89800 61.30800 40.69100
C  33.10300 62.77400 41.81800
C  30.01400 63.84100 40.43800
C  29.42700 64.83400 41.48700
N  28.25500 58.93900 39.95900
C  27.70800 60.19400 40.28300
C  26.28700 60.17000 40.08600
C  25.98400 58.85900 39.56500
C  27.22800 58.14800 39.47600
C  25.29000 61.23400 40.39900
C  24.88600 57.98100 39.15500
O  23.69700 58.07300 39.17500
C  25.67400 56.73700 38.64000
C  24.99800 55.59800 39.30700
O  24.93000 55.37600 40.49200
O  24.63700 54.79600 38.31000
C  23.95900 53.51000 38.74900
H  32.26300 54.64300 38.57100
H  34.08900 60.47400 40.35800
H  27.92300 62.05100 41.07400
H  27.45300 53.93300 38.65300
H  30.14100 53.70400 37.55300
H  28.93000 53.15700 40.22500
H  30.72000 53.23200 40.24700
H  29.92000 51.99900 39.29100
H  26.74000 54.72600 36.55400
H  27.85000 53.45600 36.26000
H  29.20300 54.74300 34.93700
H  29.40600 56.00700 36.20800
H  34.75800 55.29500 37.64200
H  34.21300 54.46400 39.01500
H  35.75700 55.34800 39.09500
H  35.75600 60.36700 38.98300
H  37.39900 59.94300 39.45700
H  36.32400 60.09800 40.73400
H  32.25300 62.64000 39.76000
H  30.70700 62.51600 42.17300
H  33.87000 62.10800 42.21400
H  32.57800 63.11600 42.71000
H  33.64700 63.55900 41.29300
H  29.18100 63.55900 39.79300
H  30.66000 64.49800 39.85600
H  28.54000 65.34100 41.10800
H  30.18800 65.61200 41.54100
H  29.25300 64.34800 42.44700
H  25.60100 61.62000 41.37000
H  24.25600 60.88800 40.39300
H  25.39400 62.02400 39.65400
H  25.45800 56.62500 37.57800
H  24.07200 52.71600 38.01100
H  22.90100 53.76700 38.79300
H  24.34700 53.05500 39.66000

