158

Mg 8.48800 3.10700 27.12100
C  10.10800 1.49700 29.75600
C  7.07600 5.23200 29.32200
C  6.92400 4.47400 24.46400
C  9.83000 0.59500 24.95300
N  8.55300 3.31800 29.34200
C  9.40300 2.62900 30.17400
C  9.22800 3.10300 31.68900
C  8.25900 4.33300 31.55100
C  7.92900 4.32300 30.01400
C  7.09400 4.31100 32.47000
C  10.52300 3.30100 32.59000
C  10.44800 4.19400 33.83800
H  10.95600 3.51800 35.15400
N  7.17100 4.52200 26.95700
C  6.79300 5.38500 27.93400
C  5.83700 6.32000 27.39800
C  5.64800 6.02900 25.99000
C  6.65200 4.98300 25.74500
C  5.03300 7.27500 28.31100
C  4.71400 6.65500 24.99500
O  4.62400 6.29400 23.86700
C  3.62800 7.55800 25.45100
N  8.58800 2.69400 25.00600
C  7.72000 3.36700 24.19300
C  7.53900 2.47700 22.94100
C  8.57500 1.38700 23.00800
C  9.13000 1.60300 24.37900
C  6.03000 2.00200 22.74800
C  9.66800 1.37800 21.89200
C  9.69300 0.20800 20.92800
N  9.68300 1.37700 27.28900
C  10.27700 0.56800 26.30200
C  11.20500 -0.29500 26.97600
C  11.21100 0.00400 28.30800
C  10.25700 1.07300 28.46400
C  12.08100 -1.41000 26.42200
C  11.76100 -0.36400 29.68000
O  12.57600 -1.22400 30.04000
C  11.13000 0.71100 30.57300
C  10.57500 0.05100 31.82000
O  9.42900 -0.40100 31.99400
O  11.62600 0.02300 32.71100
C  11.36600 -0.31500 34.11400
H  6.72500 6.01800 29.99300
H  6.39200 4.84700 23.58600
H  10.09100 -0.28400 24.35900
H  8.70100 2.27900 32.16900
H  8.87400 5.20900 31.75900
H  6.68500 5.31900 32.54600
H  7.45500 3.94600 33.43100
H  6.35100 3.56400 32.19100
H  11.37900 3.61900 31.99500
H  10.69200 2.32300 33.04100
H  9.48300 4.62400 34.10400
H  11.11800 5.02700 33.62200
H  4.00000 7.05300 28.04400
H  5.33500 8.30900 28.14500
H  5.09300 7.11700 29.38700
H  3.14300 8.01300 24.58800
H  4.21200 8.38500 25.85600
H  2.97900 7.13100 26.21700
H  7.65700 3.16400 22.10300
H  7.96400 0.48800 22.93200
H  5.51600 2.15700 23.69700
H  5.98800 0.92300 22.60100
H  5.48700 2.49000 21.93800
H  10.63900 1.43300 22.38500
H  9.65100 2.25400 21.24400
H  8.87200 -0.48600 21.11200
H  10.61500 -0.36600 21.02100
H  9.60900 0.50000 19.88100
H  12.34700 -0.98100 25.45600
H  11.45000 -2.27900 26.23700
H  12.95700 -1.60700 27.04100
H  11.93800 1.37900 30.87000
H  11.46700 0.55200 34.76600
H  12.16500 -0.90200 34.56700
H  10.52400 -1.00000 34.21200
Mg -2.37700 34.33000 26.90500
C  -3.15900 32.52100 29.68700
C  -0.67700 36.63600 28.82600
C  -1.78200 36.11500 24.06200
C  -4.06800 32.00600 24.97200
N  -2.01300 34.56900 29.00700
C  -2.32800 33.61400 29.96000
C  -1.87800 34.05000 31.35700
C  -1.30600 35.53300 31.12200
C  -1.21700 35.55000 29.59000
C  -2.19900 36.69100 31.67100
C  -0.98000 33.10100 32.17200
C  -1.42100 32.56800 33.57000
H  -0.34000 32.42400 34.68300
N  -1.45200 36.09200 26.47900
C  -0.79800 36.85000 27.37500
C  -0.21600 37.96800 26.66700
C  -0.63400 37.96400 25.33800
C  -1.33600 36.65400 25.24000
C  0.65300 38.90700 27.36300
C  -0.59000 39.03300 24.20200
O  -1.01300 38.90200 23.08100
C  -0.09100 40.33900 24.55100
N  -3.04300 34.19700 24.83700
C  -2.55400 35.02400 23.85100
C  -2.99400 34.61200 22.45700
C  -3.67800 33.24400 22.73000
C  -3.62600 33.10600 24.28300
C  -3.94000 35.67300 21.78000
C  -3.13500 32.16400 21.76900
C  -1.82200 31.58500 22.27900
N  -3.57600 32.75300 27.24900
C  -4.14100 31.79200 26.37200
C  -4.78600 30.69900 27.07500
C  -4.52900 31.05300 28.42500
C  -3.63300 32.13900 28.45200
C  -5.74000 29.65800 26.59000
C  -4.75300 30.57800 29.73300
O  -5.40500 29.63200 30.19800
C  -3.84500 31.53700 30.66700
C  -4.69900 32.25900 31.63100
O  -5.27900 33.31600 31.35400
O  -4.63900 31.67700 32.85900
C  -5.29500 32.43400 33.99300
H  -0.21300 37.39800 29.45600
H  -1.28000 36.37600 23.12900
H  -4.49700 31.26100 24.29900
H  -2.78400 34.18900 31.94700
H  -0.31800 35.53100 31.58100
H  -2.48500 37.44000 30.93200
H  -1.57100 37.08200 32.47100
H  -3.05100 36.32900 32.24500
H  0.00400 33.48900 32.43600
H  -0.88500 32.30200 31.43700
H  -1.73500 31.57400 33.25000
H  -2.36800 33.00700 33.88300
H  0.22500 39.89800 27.21000
H  1.62800 39.04200 26.89500
H  0.78900 38.79900 28.43900
H  0.98900 40.26200 24.67400
H  -0.55500 40.68700 25.47300
H  -0.27100 41.05600 23.75000
H  -2.05000 34.44100 21.93800
H  -4.72500 33.40900 22.47500
H  -4.22900 36.42900 22.51000
H  -4.82200 35.19200 21.35700
H  -3.33600 36.13300 20.99800
H  -3.03400 32.50700 20.74000
H  -3.87600 31.36500 21.74500
H  -1.73900 30.51500 22.08700
H  -1.51600 31.74600 23.31300
H  -1.00200 31.96600 21.67100
H  -5.43900 28.75300 27.11900
H  -5.66700 29.53800 25.50900
H  -6.70400 30.04500 26.92000
H  -3.18700 30.80500 31.13500
H  -4.65000 33.29300 34.17900
H  -5.51100 31.75500 34.81800
H  -6.24200 32.87700 33.68500

