158

Mg 43.39200 41.93200 27.00500
C  42.23000 44.45000 29.30200
C  44.67300 40.33100 29.71600
C  44.89600 39.88500 24.84900
C  42.58800 44.21400 24.33700
N  43.40000 42.37900 29.19000
C  42.78000 43.32300 29.87700
C  42.88100 43.09200 31.37000
C  43.64600 41.77900 31.46500
C  43.96800 41.50900 30.04800
C  44.85600 41.91500 32.38700
C  41.46200 43.17400 32.02400
C  41.04100 42.13200 33.15400
H  40.23700 42.70600 34.36300
N  44.40900 40.20300 27.23000
C  44.91700 39.72000 28.40500
C  45.51200 38.39100 28.19400
C  45.64600 38.20900 26.77000
C  44.99900 39.47400 26.19800
C  45.92900 37.42600 29.34600
C  46.20900 37.05000 26.01400
O  46.09900 36.91300 24.76900
C  46.99900 35.96700 26.79500
N  43.75800 42.05200 24.89400
C  44.28400 40.97700 24.23000
C  44.18000 41.20300 22.71800
C  43.47700 42.57900 22.57100
C  43.30300 43.00900 24.02100
C  45.59600 41.15700 21.93700
C  42.17300 42.49700 21.70500
C  40.95500 41.79500 22.36300
N  42.63800 43.93300 26.80000
C  42.36500 44.72900 25.69000
C  41.79600 46.01800 26.11300
C  41.71400 45.82700 27.52100
C  42.24500 44.65000 27.91000
C  41.22300 47.20200 25.26200
C  41.18500 46.57500 28.72000
O  40.52900 47.61700 28.80300
C  41.51600 45.61200 29.91500
C  42.46800 46.34700 30.81700
O  43.58900 46.78500 30.55800
O  41.79300 46.59300 32.00000
C  42.58900 47.41800 32.96700
H  44.96300 39.82100 30.63700
H  45.31100 39.18000 24.12500
H  42.13600 44.87500 23.59500
H  43.49800 43.87400 31.81300
H  43.06000 40.88500 31.68000
H  44.76200 42.68100 33.15600
H  45.76500 42.14900 31.83200
H  45.16500 40.95700 32.80400
H  40.67700 43.22000 31.27000
H  41.36700 44.16500 32.46900
H  41.92800 41.57200 33.44900
H  40.29400 41.48200 32.69600
H  45.30000 36.53900 29.27000
H  45.60500 37.87000 30.28800
H  46.99100 37.18400 29.39300
H  47.97300 36.41700 26.98800
H  47.10400 35.11800 26.11800
H  46.42000 35.60300 27.64400
H  43.48400 40.47300 22.30500
H  44.10800 43.36200 22.14900
H  46.09400 42.12600 21.98700
H  45.46100 40.86700 20.89500
H  46.20200 40.43200 22.47900
H  42.19600 42.10400 20.68900
H  41.95700 43.55700 21.57100
H  40.56500 40.91900 21.84500
H  40.07300 42.43500 22.37300
H  41.32500 41.51400 23.34900
H  41.21500 46.92200 24.20800
H  41.92900 48.03300 25.27100
H  40.30000 47.64100 25.63800
H  40.59100 45.37200 30.43800
H  43.26900 48.16000 32.54800
H  43.24700 46.86400 33.63600
H  41.91900 47.80100 33.73600
Mg 5.21700 53.90800 42.41400
C  4.58500 50.33600 41.63000
C  8.30500 53.42700 41.33200
C  5.57300 57.19500 42.74800
C  1.84400 54.06800 43.44600
N  6.24100 52.08900 41.40300
C  5.88700 50.77500 41.32900
C  7.05000 49.98000 40.77200
C  8.30100 50.96700 40.90300
C  7.56100 52.25300 41.16300
C  9.39900 50.64700 41.97900
C  6.88600 49.56200 39.30900
C  6.16000 50.37700 38.17800
H  7.02200 50.62500 36.90700
N  6.81300 55.13600 42.15800
C  8.01800 54.77400 41.76600
C  8.89400 55.83800 41.77100
C  8.08800 56.95400 42.13600
C  6.73300 56.45800 42.33100
C  10.33500 55.79900 41.26800
C  8.62000 58.38400 42.34200
O  9.78200 58.63000 41.94900
C  7.90700 59.49400 43.03100
N  3.81600 55.40400 42.88800
C  4.29200 56.67200 43.07700
C  3.15700 57.58300 43.51500
C  1.95100 56.63300 43.47700
C  2.54200 55.23800 43.29100
C  3.41000 58.34400 44.85900
C  0.76400 56.98800 42.40900
C  -0.06700 58.26500 42.78300
N  3.55800 52.50300 42.48500
C  2.32400 52.78500 43.02500
C  1.53700 51.56700 43.11800
C  2.40600 50.56900 42.56200
C  3.62300 51.20200 42.20800
C  -0.00600 51.57100 43.51000
C  2.53300 49.16700 42.22000
O  1.71800 48.28100 42.31800
C  3.88700 48.98600 41.60300
C  3.89300 48.33100 40.26700
O  3.34300 48.79700 39.29200
O  4.52900 47.12500 40.33600
C  4.62400 46.34000 39.12700
H  9.37800 53.28600 41.19100
H  5.81300 58.21600 43.05100
H  0.81400 54.22900 43.77100
H  7.20500 49.06600 41.34600
H  8.78300 51.16000 39.94500
H  9.05600 49.78400 42.55100
H  9.62500 51.47200 42.65400
H  10.28700 50.38300 41.40500
H  6.28900 48.65700 39.42200
H  7.82200 49.16700 38.91300
H  5.89600 51.35700 38.57500
H  5.24500 49.98200 37.73700
H  11.00400 56.47900 41.79600
H  10.41800 56.00800 40.20200
H  10.82700 54.84800 41.47300
H  8.62600 60.31000 43.09800
H  7.63300 59.23600 44.05400
H  7.03100 59.75100 42.43500
H  3.08200 58.37900 42.77500
H  1.45100 56.55000 44.44300
H  3.96900 59.27100 44.73100
H  3.90400 57.63600 45.52400
H  2.51200 58.60800 45.41700
H  0.18800 56.12600 42.07400
H  1.34500 57.45400 41.61300
H  0.05200 58.48600 43.84400
H  -1.12500 58.06700 42.61100
H  0.28400 59.09700 42.17300
H  -0.35500 50.69400 42.96500
H  -0.58000 52.48000 43.33100
H  -0.12200 51.24400 44.54300
H  4.29800 48.28200 42.32700
H  4.32300 46.84800 38.21100
H  4.00500 45.44300 39.14700
H  5.64400 46.04400 38.88300

