158

Mg -2.16200 17.26000 27.08500
C  -2.67900 15.18300 29.79800
C  -2.97800 20.00300 29.08000
C  -2.26500 19.22300 24.32900
C  -1.93300 14.59500 24.99700
N  -2.99900 17.44800 29.15300
C  -2.75300 16.52500 30.12200
C  -2.89500 17.14600 31.58500
C  -3.08700 18.61900 31.23900
C  -3.01400 18.69200 29.77200
C  -4.41200 19.32600 31.84900
C  -1.73700 16.72600 32.49400
C  -1.26200 17.71100 33.59500
H  -0.91300 17.02600 34.97600
N  -2.36700 19.32100 26.80400
C  -2.71300 20.31900 27.72800
C  -2.65300 21.67200 27.18300
C  -2.33400 21.40500 25.79400
C  -2.33200 19.91100 25.58900
C  -2.97000 22.81000 27.94100
C  -2.16500 22.41400 24.69900
O  -1.72800 22.08600 23.56700
C  -2.27000 23.87700 25.04800
N  -2.04100 17.01300 24.89000
C  -2.11000 17.89000 23.96800
C  -2.06300 17.47400 22.54000
C  -1.74400 15.91300 22.80600
C  -1.96700 15.84600 24.31300
C  -3.45600 17.66300 21.79100
C  -0.28500 15.57300 22.31700
C  0.93600 15.85100 23.26100
N  -2.37600 15.32100 27.23200
C  -2.22200 14.32500 26.33100
C  -2.34800 13.09500 26.91900
C  -2.43000 13.34100 28.32000
C  -2.52600 14.73700 28.46800
C  -2.32300 11.77400 26.19000
C  -2.59800 12.68900 29.58600
O  -2.70000 11.55200 29.93700
C  -2.75100 13.92100 30.61700
C  -1.56900 13.74600 31.54700
O  -0.40700 13.96700 31.23200
O  -1.98100 13.25300 32.72600
C  -0.93400 13.13200 33.75200
H  -3.12400 20.85300 29.75000
H  -2.32100 19.93000 23.49900
H  -1.80900 13.75500 24.31000
H  -3.79000 16.71100 32.03000
H  -2.26700 19.21100 31.64400
H  -4.13800 20.12200 32.54100
H  -4.93900 18.71300 32.58000
H  -5.12400 19.49100 31.04000
H  -0.87800 16.50400 31.86100
H  -2.13100 15.81900 32.95200
H  -2.06300 18.43700 33.73300
H  -0.29100 18.08400 33.26800
H  -2.67700 22.73600 28.98900
H  -4.05700 22.83600 27.86800
H  -2.59600 23.77900 27.60800
H  -2.12200 24.40200 24.10400
H  -1.38600 23.98800 25.67700
H  -3.20500 24.24900 25.46600
H  -1.22500 17.96600 22.04700
H  -2.40800 15.33200 22.16600
H  -3.86300 16.72600 21.40900
H  -3.28500 18.14900 20.83100
H  -4.07100 18.33400 22.39100
H  -0.18100 16.11700 21.37800
H  -0.14200 14.53500 22.01900
H  0.50000 16.07300 24.23500
H  1.55000 16.67200 22.89000
H  1.57600 14.97300 23.34800
H  -3.29100 11.63200 25.70800
H  -2.08200 10.90900 26.80800
H  -1.64100 11.71400 25.34100
H  -3.69600 13.88100 31.15700
H  -1.16700 13.69200 34.65900
H  0.08700 13.38900 33.47200
H  -0.94500 12.07500 34.01700
Mg -12.19000 38.52100 42.18400
C  -9.94600 36.13300 41.23300
C  -10.27600 40.85300 40.46200
C  -14.62900 40.68500 42.80000
C  -14.30000 35.96800 43.44800
N  -10.35600 38.45200 40.98700
C  -9.53000 37.37700 40.80700
C  -8.19600 37.77900 40.04400
C  -8.27600 39.33500 39.90300
C  -9.73300 39.54900 40.45800
C  -7.20600 40.24800 40.62000
C  -7.81200 36.98900 38.71800
C  -6.60900 35.91900 38.63700
H  -5.69800 36.28300 37.50500
N  -12.41400 40.56800 41.71500
C  -11.54300 41.33600 41.07200
C  -12.09200 42.68700 41.10700
C  -13.33200 42.67300 41.73200
C  -13.50100 41.25100 42.14300
C  -11.40200 43.84400 40.40000
C  -14.18700 43.88700 41.98300
O  -13.93100 44.97800 41.54300
C  -15.29800 43.71700 42.86300
N  -14.23800 38.26200 42.85000
C  -15.01700 39.35800 43.06400
C  -16.36300 38.99200 43.61500
C  -16.28500 37.42500 43.74700
C  -14.85100 37.19300 43.40300
C  -16.75900 39.73600 44.97800
C  -17.27800 36.75000 42.77000
C  -18.70500 36.89200 43.32000
N  -12.17100 36.47800 42.26900
C  -13.03000 35.57800 42.94600
C  -12.41700 34.27400 42.97700
C  -11.22700 34.40700 42.28000
C  -11.15700 35.76700 41.86800
C  -12.91800 32.98600 43.70000
C  -10.02200 33.69500 41.82500
O  -9.65700 32.55000 42.03200
C  -9.18500 34.84900 41.08100
C  -7.82200 34.79600 41.72000
O  -7.04900 33.91500 41.44200
O  -7.64200 35.83000 42.65700
C  -6.28600 35.98300 43.24700
H  -9.61400 41.59300 40.00700
H  -15.43500 41.29900 43.20800
H  -14.92900 35.16900 43.84500
H  -7.34400 37.47000 40.64900
H  -8.21600 39.57800 38.84200
H  -7.50800 40.55700 41.62100
H  -7.30800 41.11100 39.96200
H  -6.17500 39.91900 40.49400
H  -7.59300 37.78400 38.00500
H  -8.57700 36.45100 38.15800
H  -7.18100 35.02400 38.39500
H  -6.01400 35.77400 39.53900
H  -11.84600 44.21900 39.47800
H  -10.42200 43.46900 40.10600
H  -11.31800 44.71500 41.05100
H  -15.62200 44.67300 43.27500
H  -15.02900 43.18300 43.77400
H  -16.12600 43.22700 42.35000
H  -17.04700 39.43000 42.88800
H  -16.43800 37.15200 44.79100
H  -15.87500 40.11700 45.49000
H  -17.48100 39.08400 45.47000
H  -17.27300 40.63800 44.64500
H  -17.06700 35.69600 42.58600
H  -17.26500 37.10300 41.73900
H  -19.41000 37.14500 42.52800
H  -18.63300 37.54900 44.18600
H  -18.86800 35.85600 43.61800
H  -13.12300 32.24700 42.92500
H  -13.83800 33.30400 44.19200
H  -12.12100 32.65900 44.36700
H  -9.07800 34.54200 40.04100
H  -5.63500 36.58900 42.61700
H  -5.83300 35.00600 43.41600
H  -6.42400 36.63300 44.11100

