158

Mg 47.50200 35.53300 27.63200
C  45.79000 33.79800 30.11900
C  47.52900 38.38900 29.57100
C  48.72500 37.38100 24.88400
C  46.87700 32.96500 25.40600
N  46.67500 36.00600 29.49700
C  46.23500 35.06500 30.45000
C  46.57500 35.54700 31.84400
C  46.47600 37.12600 31.57100
C  46.99800 37.23100 30.12800
C  45.06300 37.73600 31.72800
C  47.95700 34.99700 32.36300
C  48.15900 34.91900 33.87600
H  47.06800 35.54800 34.70500
N  48.11900 37.53400 27.33100
C  48.07200 38.55000 28.33800
C  48.84200 39.70500 27.76900
C  49.09200 39.49000 26.40200
C  48.61000 38.09300 26.14000
C  49.19100 40.91600 28.65100
C  49.81400 40.33100 25.37900
O  50.10700 39.89300 24.30100
C  50.31500 41.72200 25.71100
N  47.75200 35.22800 25.44100
C  48.30600 36.07300 24.54900
C  48.45200 35.47000 23.19200
C  48.05800 33.94700 23.53200
C  47.58400 33.99300 24.90600
C  47.59500 36.15800 22.09900
C  49.25300 32.89800 23.31200
C  49.10200 31.82500 22.20900
N  46.59000 33.78200 27.69200
C  46.39600 32.81000 26.73700
C  45.60600 31.69700 27.25000
C  45.33100 32.01300 28.62600
C  45.97600 33.28000 28.82600
C  45.10300 30.51900 26.47000
C  44.73400 31.60100 29.80500
O  44.03800 30.65200 30.02900
C  44.92600 32.79200 30.83200
C  45.40200 32.27800 32.14900
O  46.55400 32.14600 32.52200
O  44.32500 32.12300 32.97600
C  44.59500 31.74200 34.36300
H  47.59000 39.17000 30.33100
H  49.11200 37.94400 24.03200
H  46.75400 32.07000 24.79300
H  45.79800 35.14500 32.49400
H  47.22000 37.65000 32.17300
H  45.03900 38.49300 32.51300
H  44.42900 36.96900 32.17200
H  44.71200 38.10800 30.76600
H  48.71100 35.68800 31.98700
H  48.10100 33.97400 32.01300
H  49.10100 35.37500 34.18000
H  48.31400 33.87000 34.13100
H  49.39700 40.59300 29.67200
H  48.43300 41.70000 28.64800
H  50.06100 41.49200 28.33600
H  50.31900 42.31000 24.79300
H  51.28900 41.57400 26.17900
H  49.72400 42.26800 26.44600
H  49.48600 35.56100 22.85800
H  47.14800 33.65400 23.00900
H  47.13900 35.38500 21.48100
H  48.13500 36.74700 21.35700
H  46.76700 36.69600 22.56100
H  49.49400 32.31700 24.20200
H  50.09700 33.48500 22.95100
H  48.05900 31.64300 21.95200
H  49.46500 30.91000 22.67600
H  49.69100 32.01500 21.31100
H  44.37500 30.70200 25.67900
H  44.72400 29.71700 27.10300
H  45.99600 30.10400 26.00300
H  43.90600 33.14500 30.98300
H  43.67700 31.22800 34.64600
H  44.74700 32.63600 34.96800
H  45.48700 31.11600 34.40200
Mg -11.04000 38.62900 41.86300
C  -9.15400 35.74800 40.99300
C  -8.85600 40.48100 39.98200
C  -13.29500 41.24800 41.74100
C  -13.61900 36.44800 43.01700
N  -9.43900 38.02800 40.30000
C  -8.75900 36.83500 40.24600
C  -7.46200 37.02300 39.35900
C  -7.37600 38.60500 39.22700
C  -8.64000 39.12600 39.91600
C  -6.08900 39.20900 39.72900
C  -7.70000 36.26600 37.95700
C  -6.62900 35.28400 37.55300
H  -5.68600 35.92100 36.47700
N  -10.96600 40.61200 41.15600
C  -9.97700 41.15500 40.49500
C  -10.20600 42.60200 40.30500
C  -11.46200 42.85500 40.89000
C  -11.99400 41.51600 41.16300
C  -9.28400 43.50100 39.50700
C  -12.17200 44.20500 40.94300
O  -11.59200 45.24000 40.70800
C  -13.55200 44.35700 41.50300
N  -13.12100 38.75200 42.11000
C  -13.81700 39.96800 42.08800
C  -15.28200 39.78500 42.46800
C  -15.40500 38.32100 42.79300
C  -13.92700 37.81200 42.68900
C  -15.67400 40.77700 43.61200
C  -16.17900 37.44500 41.80600
C  -17.19900 36.44200 42.45600
N  -11.36100 36.48300 42.03900
C  -12.33800 35.78500 42.70400
C  -11.87000 34.45600 42.94900
C  -10.66700 34.39900 42.36700
C  -10.37900 35.62300 41.73400
C  -12.64800 33.44200 43.72200
C  -9.59800 33.59800 41.97300
O  -9.41000 32.38900 42.14700
C  -8.55000 34.38100 41.07200
C  -7.16000 34.34000 41.75000
O  -6.37300 33.41800 41.59200
O  -6.86900 35.58000 42.34400
C  -5.52400 35.75700 42.83900
H  -8.24700 41.03600 39.26600
H  -14.07600 42.00800 41.81700
H  -14.40600 35.85600 43.48900
H  -6.62400 36.54200 39.86500
H  -7.45300 38.95000 38.19600
H  -6.25300 39.89700 40.55800
H  -5.59700 39.77900 38.94000
H  -5.30000 38.47700 39.90600
H  -7.89800 37.05800 37.23500
H  -8.56600 35.61900 38.10100
H  -6.96500 34.32900 37.14900
H  -5.98500 34.90800 38.34900
H  -9.90600 44.21400 38.96600
H  -8.77200 42.85100 38.79700
H  -8.62400 44.08200 40.15200
H  -13.82700 45.41100 41.45400
H  -13.68200 44.06700 42.54600
H  -14.11300 43.77700 40.77100
H  -16.01900 40.06100 41.71400
H  -15.84200 38.15900 43.77800
H  -15.94300 41.74600 43.19200
H  -14.85600 40.97700 44.30400
H  -16.52000 40.46300 44.22400
H  -15.49400 36.82000 41.23300
H  -16.73400 38.07300 41.10900
H  -18.23400 36.73400 42.28000
H  -17.06900 36.51000 43.53600
H  -17.05300 35.44300 42.04600
H  -13.64400 33.25100 43.32200
H  -12.76000 34.02400 44.63600
H  -11.99500 32.58000 43.85800
H  -8.39200 33.86700 40.12400
H  -5.55900 36.44400 43.68400
H  -4.79500 36.06500 42.08900
H  -5.22000 34.80600 43.27800

