158

Mg 7.80900 3.34500 27.79400
C  8.93300 1.73400 30.80300
C  6.21300 5.58900 29.70300
C  6.76900 4.61900 24.94800
C  9.69300 0.93500 25.98300
N  7.55000 3.50900 30.04700
C  8.17000 2.81000 31.04200
C  7.94000 3.49200 32.42700
C  6.77100 4.53600 32.07700
C  6.87100 4.64700 30.52700
C  5.38700 4.17700 32.51800
C  9.23600 4.17000 33.06500
C  8.98200 4.85900 34.39700
H  9.87100 4.63400 35.60100
N  6.60000 4.94500 27.36200
C  5.98600 5.70200 28.29200
C  5.17800 6.67400 27.59700
C  5.44300 6.48500 26.16500
C  6.30400 5.35500 26.10800
C  4.41300 7.74100 28.31500
C  4.93900 7.35500 25.01300
O  5.22400 7.12400 23.82400
C  3.97900 8.45100 25.31600
N  8.03700 2.71200 25.74600
C  7.44900 3.41100 24.81200
C  7.64300 2.75400 23.41300
C  8.81100 1.78800 23.70400
C  8.93700 1.82400 25.23900
C  6.35500 1.97000 22.90900
C  10.15400 1.96000 22.94800
C  10.88700 0.66100 22.59400
N  8.94500 1.70000 28.23500
C  9.74800 0.91800 27.39000
C  10.44500 -0.06200 28.21000
C  10.18100 0.22500 29.50500
C  9.20400 1.28900 29.49000
C  11.31800 -1.16500 27.70000
C  10.46800 -0.17200 30.75500
O  11.18500 -1.09000 31.12600
C  9.76500 0.85000 31.69900
C  9.02700 0.10400 32.67400
O  7.96300 -0.57800 32.50400
O  9.67800 0.27800 33.82000
C  9.16100 -0.34500 35.02300
H  5.77200 6.31500 30.38800
H  6.30800 5.02900 24.04700
H  10.24100 0.17400 25.42200
H  7.68300 2.69300 33.12300
H  7.14000 5.38000 32.66000
H  5.44400 3.27400 33.12600
H  4.70100 4.04900 31.68000
H  5.13700 5.01700 33.16500
H  9.59800 4.97400 32.42500
H  9.96100 3.37200 33.22400
H  7.94400 4.79100 34.72400
H  9.09200 5.90900 34.12800
H  4.74200 8.76200 28.12200
H  4.56700 7.58500 29.38300
H  3.35400 7.60100 28.09700
H  3.88600 9.04000 24.40300
H  4.43700 9.09200 26.07000
H  3.00400 8.15900 25.70600
H  7.93900 3.53200 22.71000
H  8.46900 0.76600 23.54100
H  5.42700 2.27000 23.39600
H  6.44700 0.89600 22.74400
H  6.15800 2.29400 21.88700
H  10.82300 2.40900 23.68200
H  10.02500 2.54400 22.03700
H  11.75400 0.50700 23.23600
H  11.09400 0.52100 21.53300
H  10.16800 -0.14400 22.74100
H  12.07200 -1.45500 28.43100
H  11.85300 -0.83100 26.81000
H  10.70100 -1.95900 27.28000
H  10.56800 1.38200 32.21000
H  9.74700 -1.20100 35.35800
H  8.20500 -0.81800 34.80000
H  9.11900 0.46400 35.75400
Mg 35.58100 2.37200 30.29300
C  33.31300 3.59900 32.75000
C  37.95700 2.54000 32.72800
C  37.62800 1.30100 28.02700
C  32.99100 2.65200 28.03600
N  35.54400 3.01400 32.50300
C  34.49700 3.37800 33.30100
C  34.89400 3.47500 34.80200
C  36.50500 3.35200 34.73500
C  36.70700 3.01600 33.25000
C  37.30200 4.59600 35.22500
C  34.13200 2.42400 35.57500
C  33.58500 2.75400 36.92800
H  34.38500 3.86200 37.62600
N  37.50600 2.03100 30.32300
C  38.27200 2.01000 31.47100
C  39.64100 1.54300 31.06500
C  39.59600 1.12900 29.68400
C  38.16700 1.39700 29.31000
C  40.82800 1.50500 32.00000
C  40.63200 0.54400 28.82600
O  40.29000 -0.03800 27.78900
C  42.07200 0.63200 29.18400
N  35.35000 2.21500 28.15800
C  36.40300 1.74000 27.46700
C  35.94400 1.29200 25.98100
C  34.42700 1.80500 26.07500
C  34.19400 2.24600 27.46400
C  36.80500 1.88600 24.90200
C  33.35400 0.85100 25.34900
C  32.56900 1.44500 24.15300
N  33.56500 2.97500 30.29100
C  32.61800 3.04900 29.30800
C  31.38200 3.43300 29.75600
C  31.63300 3.73100 31.07700
C  32.92200 3.40300 31.39600
C  30.19300 3.64300 28.99800
C  30.98400 4.20000 32.32600
O  29.88300 4.71100 32.43700
C  32.03700 4.16800 33.43300
C  32.18300 5.52900 34.18100
O  32.40500 6.63800 33.72200
O  31.89100 5.29100 35.51200
C  31.82500 6.58500 36.28700
H  38.77900 2.32100 33.41200
H  38.32800 0.97100 27.25600
H  32.13000 2.68500 27.36600
H  34.61900 4.46400 35.16800
H  36.80800 2.51200 35.36100
H  36.61800 5.43000 35.38800
H  37.96700 4.93300 34.43000
H  37.92700 4.35700 36.08600
H  34.71600 1.50700 35.64700
H  33.24400 2.11800 35.02400
H  33.44000 1.86600 37.54400
H  32.58300 3.14900 36.76400
H  41.41900 2.38200 31.73500
H  41.38300 0.58200 31.83300
H  40.65500 1.69500 33.06000
H  42.71800 0.42300 28.33100
H  42.19400 -0.16900 29.91300
H  42.32600 1.63300 29.53200
H  35.88800 0.20700 25.89000
H  34.30600 2.78100 25.60600
H  37.65700 2.49600 25.20100
H  36.22900 2.30700 24.07800
H  37.37200 1.08100 24.43400
H  32.69600 0.53700 26.16000
H  33.74500 -0.08700 24.95600
H  33.03700 2.33700 23.73800
H  31.52000 1.62000 24.39100
H  32.48200 0.63200 23.43200
H  29.78300 2.68700 28.67400
H  30.54300 4.20100 28.12900
H  29.38800 4.14800 29.53200
H  31.80500 3.40900 34.18000
H  30.93500 7.16300 36.03600
H  32.75300 7.15500 36.25300
H  31.70300 6.32900 37.34000

