158

Mg 41.06500 9.19500 29.91500
C  43.03800 10.60000 32.33200
C  38.92100 7.96900 32.28800
C  39.18000 7.69100 27.48400
C  43.59400 9.91600 27.46000
N  40.96900 9.29200 32.04600
C  41.89600 9.95000 32.86500
C  41.38600 9.98700 34.27000
C  40.24200 8.94700 34.23300
C  40.01300 8.65300 32.73200
C  40.57400 7.61400 35.07000
C  41.00300 11.41200 34.73400
C  40.48400 11.60200 36.21800
H  41.33500 12.37200 37.31300
N  39.15500 8.14200 29.84200
C  38.43200 7.76800 30.99300
C  37.14800 7.22100 30.48000
C  37.22600 7.14000 29.06200
C  38.55500 7.64700 28.74100
C  36.11800 6.73000 31.51100
C  36.17800 6.69700 28.02500
O  36.33600 6.61500 26.84200
C  34.88100 6.39200 28.50100
N  41.35200 8.80300 27.77700
C  40.39900 8.20000 27.04600
C  40.70300 8.26100 25.52700
C  42.08100 8.98400 25.52400
C  42.38900 9.29100 26.99500
C  40.68500 6.92600 24.74300
C  42.10700 10.22100 24.59600
C  41.80800 11.59600 25.12700
N  42.96100 10.10000 29.84800
C  43.85400 10.27800 28.79000
C  45.04000 10.86400 29.31100
C  44.72200 11.11100 30.70300
C  43.51900 10.52600 30.95000
C  46.33500 11.21300 28.60000
C  45.17600 11.71100 31.91800
O  46.24100 12.20400 32.18100
C  44.16600 11.27900 33.11000
C  44.90100 10.42800 34.04200
O  45.25000 9.24600 33.84000
O  45.14800 11.17500 35.10600
C  45.99000 10.58700 36.10600
H  38.21900 7.63200 33.05300
H  38.55500 7.37400 26.64500
H  44.35500 10.19600 26.72900
H  42.21200 9.58800 34.85800
H  39.38600 9.37200 34.75600
H  41.62300 7.32000 35.03500
H  40.04300 6.75700 34.65500
H  40.29500 7.82200 36.10300
H  40.26800 11.91800 34.10800
H  41.95500 11.91300 34.56200
H  40.23600 10.70000 36.77800
H  39.47900 12.00200 36.35200
H  36.42300 6.67200 32.55600
H  35.83000 5.75800 31.11100
H  35.22800 7.35700 31.45200
H  34.40900 7.25100 28.97800
H  35.06200 5.56600 29.18900
H  34.22100 5.97000 27.74300
H  39.89700 8.90000 25.16500
H  42.90200 8.34600 25.19800
H  40.07800 6.94100 23.83800
H  40.17800 6.16700 25.33900
H  41.70700 6.60500 24.54100
H  41.37300 10.08400 23.80200
H  43.04600 10.37200 24.06500
H  42.79700 11.98700 25.36400
H  41.22500 11.42200 26.03100
H  41.17200 12.22700 24.50700
H  46.14700 11.02800 27.54200
H  47.16600 10.59200 28.93700
H  46.56300 12.21400 28.96600
H  43.76500 12.16700 33.59900
H  45.82900 9.56600 36.45400
H  45.76600 11.24100 36.94900
H  46.96600 10.64200 35.62300
Mg 26.82000 50.48200 26.43200
C  24.76800 51.87200 28.87000
C  28.83800 49.37400 28.99700
C  28.72100 49.22600 24.08900
C  24.77300 52.17100 24.00000
N  26.84700 50.72600 28.67400
C  25.83500 51.24300 29.45300
C  26.01900 50.87400 30.96200
C  27.52300 50.26200 30.97800
C  27.74800 50.05900 29.44500
C  28.74500 50.95700 31.63500
C  24.95400 49.81200 31.53300
C  24.12900 50.26400 32.73900
H  23.99100 49.24000 33.87300
N  28.59700 49.50900 26.55000
C  29.26000 49.11500 27.65600
C  30.44900 48.40500 27.30100
C  30.50200 48.43800 25.89100
C  29.25200 49.09800 25.43500
C  31.43700 47.83800 28.38100
C  31.63200 48.01600 25.02100
O  31.69500 48.11200 23.79200
C  32.81500 47.20300 25.68300
N  26.71800 50.65200 24.33400
C  27.59700 49.96400 23.57500
C  27.34400 50.09100 22.06800
C  25.97800 50.92500 22.08300
C  25.83400 51.25300 23.54000
C  28.52500 50.70100 21.38500
C  24.77300 50.18200 21.40500
C  24.17000 48.86700 22.12500
N  25.08300 51.69200 26.42000
C  24.49600 52.32000 25.38300
C  23.30000 53.05600 25.88600
C  23.39200 52.82800 27.22900
C  24.52600 52.14100 27.53400
C  22.23000 53.75800 25.07000
C  22.62900 53.09200 28.44300
O  21.64700 53.80200 28.71100
C  23.42800 52.41800 29.56500
C  23.64900 53.30500 30.73400
O  24.45000 54.20800 30.79000
O  22.76000 53.05600 31.70600
C  22.75100 53.79800 32.95300
H  29.36900 48.86300 29.80300
H  29.31000 48.73700 23.31000
H  24.22400 52.57400 23.14600
H  25.86600 51.74500 31.59800
H  27.39000 49.24800 31.35700
H  29.47300 51.09400 30.83500
H  29.03400 50.26800 32.42800
H  28.54300 51.90000 32.14300
H  25.38700 48.82600 31.70000
H  24.16400 49.76300 30.78400
H  23.09200 50.54600 32.55500
H  24.54200 51.21500 33.07600
H  31.57100 46.76100 28.28000
H  31.16500 47.94800 29.43100
H  32.42500 48.28000 28.25500
H  33.42100 47.65800 26.46700
H  33.54400 46.89400 24.93300
H  32.48100 46.25700 26.10900
H  27.21600 49.09600 21.64100
H  26.11300 51.84200 21.50800
H  29.29300 50.97600 22.10700
H  28.34600 51.53300 20.70400
H  28.93600 49.94000 20.72100
H  25.12800 49.96700 20.39800
H  23.90900 50.79000 21.13700
H  23.13700 49.15600 22.32000
H  24.65300 48.67400 23.08300
H  24.11600 47.92200 21.58500
H  22.25700 53.36500 24.05400
H  22.33200 54.84400 25.07100
H  21.24400 53.55100 25.48400
H  22.89200 51.52700 29.89300
H  21.87100 53.52800 33.53800
H  22.67700 54.88400 32.89400
H  23.62500 53.63400 33.58400

