158

Mg 29.62200 57.54600 41.48800
C  27.17900 55.66300 40.07800
C  31.98500 55.64000 39.78000
C  32.03900 59.96900 42.08200
C  27.14700 60.06800 42.07400
N  29.55700 55.89800 39.95700
C  28.44100 55.22100 39.67700
C  28.74700 53.87100 38.86400
C  30.32800 53.96300 38.68900
C  30.67300 55.20100 39.60200
C  31.05100 52.63000 38.90500
C  28.03500 53.71800 37.50100
C  28.07800 54.98600 36.59400
H  27.11900 55.21700 35.48800
N  31.67500 57.66700 41.11100
C  32.47800 56.75500 40.47100
C  33.79000 57.18200 40.49300
C  33.83600 58.43200 41.16200
C  32.46300 58.71600 41.48200
C  34.84300 56.34900 39.82300
C  35.17900 59.21700 41.48800
O  36.23500 58.71800 41.08600
C  35.20900 60.49400 42.29100
N  29.64000 59.69300 42.01800
C  30.67800 60.52700 42.19700
C  30.33700 61.99100 42.47800
C  28.77100 61.88700 42.47900
C  28.45600 60.45400 42.25700
C  30.97900 62.43800 43.85900
C  28.12100 62.92700 41.49900
C  28.61500 64.30300 41.76800
N  27.51600 57.74900 41.43500
C  26.68700 58.87700 41.57700
C  25.32900 58.36000 41.38700
C  25.42600 57.05100 40.89300
C  26.88300 56.83900 40.76300
C  24.05600 59.08200 41.64500
C  24.68800 55.92700 40.41700
O  23.49800 55.61300 40.41300
C  25.81500 55.03300 39.80000
C  25.56800 53.69200 40.37800
O  25.84900 53.37300 41.51200
O  24.74500 52.97300 39.47900
C  24.13100 51.65800 39.81900
H  32.69100 55.06300 39.17900
H  32.79800 60.75100 42.15800
H  26.40300 60.84700 42.25000
H  28.36700 53.06500 39.49200
H  30.62300 54.25300 37.68100
H  31.53700 52.31100 37.98300
H  30.35500 51.85600 39.22600
H  31.82500 52.94100 39.60700
H  27.03700 53.28400 37.56400
H  28.60100 52.92100 37.01900
H  28.97600 54.96500 35.97700
H  28.10800 55.92100 37.15300
H  34.98500 56.54800 38.76000
H  34.64300 55.28600 39.95200
H  35.73200 56.52400 40.42900
H  34.94100 61.36200 41.68900
H  36.25700 60.69600 42.51100
H  34.66100 60.40100 43.22900
H  30.68900 62.58600 41.63500
H  28.21400 62.22500 43.35200
H  31.41300 63.43200 43.74400
H  31.78500 61.77700 44.17800
H  30.12300 62.42700 44.53400
H  27.04000 63.02400 41.60000
H  28.33800 62.59400 40.48400
H  27.71600 64.90000 41.92300
H  29.24200 64.71300 40.97600
H  29.14600 64.41600 42.71300
H  23.17700 58.48200 41.40900
H  24.01100 59.99200 41.04600
H  23.98900 59.44400 42.67000
H  25.59900 55.06700 38.73200
H  24.18500 51.69700 40.90700
H  24.64800 50.78900 39.41200
H  23.06800 51.63700 39.57800
Mg -12.69500 36.92200 42.86800
C  -9.92400 34.95100 42.04700
C  -10.94600 39.70400 41.47500
C  -15.43000 38.75400 43.23500
C  -14.42300 34.04800 43.99700
N  -10.70500 37.24500 41.74200
C  -9.81700 36.19800 41.47000
C  -8.59200 36.81000 40.69600
C  -8.84200 38.34800 40.65300
C  -10.23500 38.48000 41.37600
C  -7.77700 39.41600 41.11900
C  -8.37700 36.09600 39.31700
C  -6.98600 35.48400 38.99100
H  -6.13000 36.34500 37.99900
N  -13.07700 38.88200 42.53800
C  -12.27400 39.83700 41.99300
C  -13.04000 41.09800 41.83800
C  -14.37200 40.78900 42.10000
C  -14.34600 39.41000 42.58400
C  -12.43500 42.42600 41.36400
C  -15.52200 41.72000 41.98200
O  -15.37400 42.86100 41.62500
C  -16.93400 41.37500 42.25400
N  -14.81400 36.37400 43.24800
C  -15.64200 37.44300 43.63500
C  -16.92500 36.92900 44.17100
C  -16.58900 35.35200 44.38500
C  -15.18100 35.25900 43.84100
C  -17.45000 37.68500 45.47500
C  -17.54200 34.54000 43.56200
C  -18.88300 34.19100 44.17400
N  -12.33700 34.94600 43.03500
C  -13.06500 33.93100 43.66000
C  -12.19700 32.75900 43.74200
C  -10.99400 33.09300 43.09900
C  -11.12700 34.43500 42.76700
C  -12.52700 31.36000 44.37800
C  -9.65400 32.66600 42.66000
O  -9.14500 31.55100 42.70200
C  -8.90800 33.90800 42.11400
C  -7.84200 34.09100 43.22000
O  -6.65500 33.91000 43.02500
O  -8.31700 34.57400 44.37300
C  -7.45800 34.48700 45.57500
H  -10.38500 40.55800 41.08800
H  -16.18800 39.44900 43.60500
H  -14.99700 33.19300 44.36100
H  -7.70600 36.68200 41.31800
H  -9.18800 38.67600 39.67200
H  -6.92500 38.79200 41.38800
H  -8.19900 39.94400 41.97400
H  -7.43400 40.19100 40.43400
H  -8.57000 36.79700 38.50500
H  -9.01000 35.24300 39.07300
H  -7.12300 34.50700 38.52800
H  -6.26600 35.45600 39.80800
H  -12.73500 43.24300 42.02100
H  -12.87200 42.77700 40.42900
H  -11.36000 42.36400 41.19600
H  -17.57300 42.01700 41.64800
H  -17.14000 41.53000 43.31300
H  -17.12300 40.35400 41.92000
H  -17.72700 37.00600 43.43600
H  -16.60200 35.06600 45.43600
H  -18.28400 38.34500 45.23700
H  -16.69600 38.37300 45.85800
H  -17.70300 36.94200 46.23100
H  -17.09600 33.58000 43.29900
H  -17.74200 34.99200 42.59000
H  -18.94900 33.16700 44.54200
H  -19.69900 34.38200 43.47700
H  -19.04700 34.88200 45.00200
H  -13.29300 30.84600 43.79700
H  -12.89700 31.38700 45.40300
H  -11.63300 30.74500 44.27400
H  -8.48600 33.68800 41.13300
H  -6.44700 34.67500 45.21400
H  -7.51000 33.56000 46.14600
H  -7.71400 35.37200 46.15800

