158

Mg 36.27700 1.98600 30.72100
C  33.91700 2.83300 33.20100
C  38.73900 2.17300 33.11000
C  38.60200 1.44200 28.32000
C  33.92600 2.37200 28.28500
N  36.26800 2.46400 32.95400
C  35.14400 2.66600 33.75200
C  35.56400 2.78500 35.22400
C  37.14200 2.67400 35.12100
C  37.42400 2.41200 33.66500
C  37.94200 3.89000 35.73300
C  34.98200 1.60500 36.08700
C  34.41400 2.13500 37.44200
H  35.30600 3.17800 38.17300
N  38.40200 1.86000 30.69900
C  39.22700 1.95400 31.76000
C  40.58300 1.74300 31.33600
C  40.62000 1.45700 29.95100
C  39.18200 1.51900 29.64300
C  41.71100 1.90700 32.36100
C  41.74700 1.08900 28.94200
O  41.63300 0.87600 27.74800
C  43.21900 0.93500 29.44100
N  36.30800 1.94600 28.54200
C  37.36800 1.68300 27.81200
C  37.05700 1.78000 26.32300
C  35.47500 1.92000 26.31800
C  35.18900 2.02400 27.81300
C  37.87600 2.87300 25.66100
C  34.66200 0.78000 25.54100
C  33.35300 1.11600 24.85200
N  34.27600 2.50700 30.63500
C  33.44600 2.66900 29.58200
C  32.10200 3.04100 30.07300
C  32.21300 3.17700 31.48900
C  33.59000 2.82000 31.80000
C  30.85500 3.18300 29.24200
C  31.54600 3.35800 32.69400
O  30.37700 3.64200 32.93600
C  32.60900 3.15300 33.82400
C  32.62100 4.41900 34.65600
O  33.03200 5.49800 34.28300
O  32.03600 4.25200 35.90000
C  31.97700 5.43100 36.82300
H  39.51900 2.13600 33.87200
H  39.34800 1.30900 27.53400
H  33.13800 2.31800 27.53100
H  35.26200 3.78000 35.54900
H  37.46500 1.79300 35.67500
H  37.32000 4.45000 36.43100
H  38.33200 4.49400 34.91400
H  38.84200 3.59600 36.27400
H  35.71100 0.81400 36.26300
H  34.06300 1.20700 35.65600
H  34.30300 1.32400 38.16200
H  33.36700 2.41700 37.32800
H  41.30600 2.71100 32.97500
H  42.57600 2.22000 31.77700
H  42.03500 1.00700 32.88400
H  43.14000 0.29700 30.32100
H  43.56600 1.95800 29.58200
H  43.98800 0.63100 28.73100
H  37.34400 0.78000 25.99700
H  35.13700 2.82300 25.80900
H  37.32300 3.62400 25.09700
H  38.64100 2.42000 25.03100
H  38.39200 3.52300 26.36800
H  34.39900 0.14200 26.38500
H  35.42800 0.31000 24.92400
H  32.81800 0.18500 24.66100
H  33.49800 1.58800 23.88100
H  32.66600 1.75800 25.40400
H  30.34600 2.22700 29.37000
H  31.10700 3.57800 28.25800
H  30.16700 3.90300 29.68600
H  32.23700 2.38400 34.50100
H  30.92800 5.72600 36.84900
H  32.65500 6.25700 36.60700
H  32.26900 5.12800 37.82800
Mg 0.44200 44.39900 24.09400
C  2.30800 44.02400 27.01100
C  -2.53200 43.97400 25.77200
C  -1.22400 43.82900 21.11700
C  3.55100 44.61400 22.40700
N  -0.01300 44.09000 26.09700
C  0.90400 43.97200 27.17400
C  0.10000 44.05900 28.53200
C  -1.34900 43.93200 28.06400
C  -1.34300 43.97900 26.55000
C  -2.03900 42.67400 28.63300
C  0.46800 45.25000 29.41100
C  0.67700 45.14600 30.94900
H  0.81700 43.75200 31.53600
N  -1.62900 44.09500 23.54000
C  -2.76300 44.01100 24.37100
C  -3.96100 44.20900 23.59000
C  -3.55000 44.10000 22.21700
C  -2.06200 43.92400 22.25000
C  -5.21300 44.57800 24.29800
C  -4.46800 44.19300 21.01700
O  -3.95900 44.11500 19.87700
C  -6.03600 44.27100 21.22000
N  1.02600 44.07800 22.16400
C  0.12800 43.89300 21.12800
C  0.89300 43.84600 19.85900
C  2.30100 44.38800 20.18900
C  2.27600 44.41700 21.70800
C  0.94200 42.32000 19.31000
C  2.73600 45.73000 19.56400
C  3.93900 45.77300 18.57200
N  2.47800 44.37900 24.50600
C  3.61800 44.41300 23.75000
C  4.79100 44.36700 24.49500
C  4.29400 44.25800 25.79800
C  2.91800 44.21600 25.75800
C  6.19000 44.40100 24.03700
C  4.75100 44.27200 27.14700
O  5.90700 44.43100 27.50800
C  3.50100 44.11600 28.07500
C  3.68700 42.89500 28.88600
O  3.07100 41.82100 28.82700
O  4.72700 43.17800 29.74600
C  5.13300 42.03200 30.58100
H  -3.46400 44.00800 26.34000
H  -1.72500 43.70500 20.15400
H  4.41100 44.83300 21.77000
H  0.37700 43.16700 29.09400
H  -1.99900 44.75600 28.35900
H  -1.56900 42.11200 29.44000
H  -2.24300 42.00700 27.79600
H  -2.98300 43.08400 28.99200
H  -0.28100 46.03700 29.32500
H  1.25100 45.80100 28.88900
H  -0.12300 45.63300 31.50700
H  1.60500 45.68000 31.15400
H  -5.88700 44.95100 23.52800
H  -5.02700 45.31000 25.08400
H  -5.61100 43.63100 24.66500
H  -6.48000 43.59700 21.95300
H  -6.39500 43.93000 20.24900
H  -6.26900 45.32700 21.36300
H  0.45500 44.62100 19.23000
H  3.03700 43.61500 19.96800
H  1.95700 41.92200 19.30200
H  0.56200 42.50400 18.30500
H  0.22600 41.67500 19.81900
H  3.01300 46.51200 20.27100
H  1.83900 46.10900 19.07400
H  4.16900 44.75300 18.26400
H  4.69700 46.42800 19.00200
H  3.60900 46.36900 17.72200
H  6.82400 44.68700 24.87700
H  6.22900 45.07300 23.18000
H  6.34800 43.38000 23.69000
H  3.53700 44.94100 28.78600
H  6.04400 42.26000 31.13300
H  5.28000 41.11900 30.00400
H  4.31700 41.82300 31.27300

