158

Mg 6.64500 53.57700 40.76500
C  6.24900 50.03200 40.53600
C  9.95700 53.13300 39.98600
C  6.83800 56.79500 40.38800
C  3.06900 53.78000 40.85500
N  7.89900 51.86700 40.26800
C  7.56100 50.53500 40.21000
C  8.70000 49.64100 39.82200
C  9.90100 50.57100 40.19000
C  9.24800 52.00000 40.13200
C  10.59400 50.32100 41.57900
C  8.76500 49.00800 38.39800
C  8.41200 49.88600 37.12700
H  7.65000 51.20700 37.24900
N  8.26900 54.85300 40.33800
C  9.54500 54.44700 40.10600
C  10.26900 55.61500 40.13500
C  9.47300 56.72200 40.19700
C  8.11900 56.18900 40.23600
C  11.77900 55.62900 39.92600
C  9.80900 58.23400 40.06400
O  11.00000 58.50400 40.02400
C  8.82600 59.35600 40.03800
N  5.23700 54.95700 40.53500
C  5.61200 56.24300 40.58400
C  4.37500 57.17400 40.47400
C  3.21900 56.21200 40.23900
C  3.83900 54.91700 40.65400
C  4.16100 58.08600 41.69600
C  2.68000 56.14000 38.87100
C  1.13400 56.23400 38.65300
N  4.98300 52.19200 40.85000
C  3.60700 52.40300 40.97600
C  2.94800 51.07500 41.15000
C  4.00500 50.13700 41.01300
C  5.17500 50.86000 40.77000
C  1.49900 50.88700 41.32400
C  4.27400 48.71700 41.12000
O  3.55400 47.69300 41.21900
C  5.76300 48.64600 40.67800
C  5.73300 47.81800 39.54700
O  5.52200 48.14600 38.40600
O  6.22500 46.54800 39.92100
C  6.04100 45.45400 39.04800
H  11.04600 53.10400 39.91300
H  6.80700 57.88600 40.41400
H  1.98400 53.75900 40.97600
H  8.70800 48.75300 40.45500
H  10.67600 50.50000 39.42700
H  11.59900 49.94400 41.38700
H  10.03500 49.49400 42.01700
H  10.55500 51.18500 42.24200
H  8.05300 48.18800 38.49500
H  9.72900 48.50200 38.34500
H  7.73400 49.14600 36.70100
H  9.26000 50.06100 36.46600
H  12.02700 56.44100 39.24200
H  12.16500 54.71900 39.46700
H  12.21300 55.62200 40.92500
H  9.36100 60.30600 40.00500
H  8.29200 59.23600 40.98000
H  8.06900 59.24200 39.26200
H  4.44500 57.81200 39.59300
H  2.38700 56.40300 40.91700
H  4.59800 59.05400 41.45200
H  4.38300 57.64700 42.66800
H  3.13100 58.44200 41.73700
H  2.93000 55.16300 38.45800
H  3.08600 56.89900 38.20200
H  0.85900 56.62500 37.67300
H  0.86000 57.01100 39.36700
H  0.76200 55.23100 38.86100
H  1.37400 50.24300 42.19500
H  1.14100 50.22400 40.53700
H  0.91500 51.80600 41.37100
H  6.40800 48.10900 41.37300
H  6.88100 45.51800 38.35600
H  5.10700 45.68900 38.53700
H  5.88000 44.49000 39.53000
Mg -4.74700 25.84100 25.77000
C  -3.97600 27.05100 29.02600
C  -6.93600 23.67500 27.28000
C  -5.07400 24.50700 22.74900
C  -2.59300 28.23100 24.46200
N  -5.38400 25.38600 27.94000
C  -4.96200 26.02500 29.07100
C  -5.63000 25.42200 30.30100
C  -6.39900 24.20700 29.72500
C  -6.21600 24.38600 28.24400
C  -6.06800 22.77700 30.28100
C  -6.51900 26.42200 31.02700
C  -6.68200 26.23800 32.55000
H  -5.83000 25.18000 33.28200
N  -5.84700 24.20900 25.08300
C  -6.77000 23.42900 25.84100
C  -7.29900 22.41500 24.97000
C  -6.79400 22.66800 23.65200
C  -5.82300 23.80900 23.73800
C  -8.21800 21.39300 25.53100
C  -7.05800 21.84700 22.39400
O  -6.46400 21.96300 21.30400
C  -8.07700 20.58800 22.41400
N  -3.98700 26.35300 23.87700
C  -4.24500 25.56300 22.76900
C  -3.55500 26.16200 21.51700
C  -2.87300 27.46800 22.05700
C  -3.20100 27.43700 23.57900
C  -2.63700 25.23000 20.64800
C  -3.32900 28.82700 21.37200
C  -2.42500 29.33100 20.27200
N  -3.56200 27.33700 26.52600
C  -2.72600 28.23900 25.85400
C  -2.02100 29.06400 26.81100
C  -2.42700 28.58800 28.07300
C  -3.41500 27.57600 27.83800
C  -1.07900 30.14300 26.49200
C  -2.36100 28.78200 29.47500
O  -1.82600 29.64800 30.08600
C  -3.24600 27.69000 30.17500
C  -2.43000 26.75500 31.03400
O  -1.72100 25.81700 30.66000
O  -2.39700 27.25400 32.33700
C  -1.32900 26.85600 33.22100
H  -7.69600 23.04700 27.74900
H  -5.16000 24.11800 21.73200
H  -1.85200 28.92500 24.06100
H  -4.78600 25.14400 30.93200
H  -7.46400 24.36100 29.89300
H  -5.36800 22.92400 31.10300
H  -5.63600 22.16900 29.48600
H  -6.95300 22.30500 30.70800
H  -7.55000 26.24200 30.72200
H  -6.39000 27.48000 30.79900
H  -7.70400 26.00800 32.85000
H  -6.45200 27.22900 32.94200
H  -8.86200 20.83800 24.84900
H  -8.84600 21.89600 26.26700
H  -7.72600 20.66500 26.17700
H  -7.66600 19.77400 23.01100
H  -8.26600 20.23300 21.40100
H  -9.00800 21.01900 22.78200
H  -4.31400 26.48800 20.80500
H  -1.78900 27.49500 21.94900
H  -2.54200 24.19800 20.98500
H  -1.60600 25.57300 20.73600
H  -3.01700 25.32200 19.63000
H  -3.43800 29.62900 22.10300
H  -4.27800 28.61700 20.87800
H  -1.78300 28.47200 20.08000
H  -1.77200 30.14800 20.57900
H  -3.07200 29.63100 19.44700
H  -1.58800 31.09300 26.32900
H  -0.59000 29.95800 25.53600
H  -0.27400 30.19500 27.22500
H  -4.03500 28.08400 30.81500
H  -0.40200 26.53500 32.74600
H  -1.76800 26.11800 33.89300
H  -1.04500 27.62200 33.94300

