158

Mg 8.57400 3.50100 27.62500
C  9.99700 1.98300 30.43500
C  6.36800 5.23400 29.75800
C  6.72600 4.46200 24.95300
C  10.25900 1.14900 25.59300
N  8.20100 3.52400 29.76800
C  9.01200 2.96500 30.75700
C  8.73000 3.48100 32.19000
C  7.42000 4.33200 31.91400
C  7.28200 4.38100 30.38900
C  6.18100 3.94100 32.88300
C  9.86800 4.31400 32.87500
C  9.57300 5.23700 34.06500
H  10.17900 4.67700 35.34200
N  6.90700 4.90900 27.35300
C  6.19000 5.47800 28.34700
C  5.28200 6.46900 27.74800
C  5.35500 6.23100 26.25700
C  6.29500 5.07100 26.15200
C  4.35100 7.38300 28.60500
C  4.57900 6.87800 25.18700
O  4.74400 6.61600 24.01500
C  3.63800 7.98700 25.45100
N  8.57400 3.04200 25.66300
C  7.84700 3.62400 24.64000
C  8.18200 3.15800 23.23500
C  9.40100 2.21500 23.50200
C  9.41600 2.09300 25.00300
C  6.98700 2.32900 22.55700
C  10.84500 2.68500 23.01500
C  11.45400 1.92600 21.85300
N  9.84900 1.84500 27.90800
C  10.50200 0.95000 26.99800
C  11.38600 0.06300 27.74500
C  11.14300 0.47300 29.06700
C  10.23100 1.53200 29.11800
C  12.19100 -1.08100 27.24000
C  11.55700 0.18100 30.36300
O  12.27000 -0.75700 30.75900
C  10.88100 1.16900 31.30900
C  10.15400 0.44000 32.36600
O  9.21300 -0.32500 32.20000
O  10.60500 0.89300 33.56200
C  10.03300 0.37300 34.83500
H  5.67100 5.90900 30.25800
H  6.26000 4.83200 24.03700
H  10.68300 0.39800 24.92300
H  8.45100 2.64800 32.83500
H  7.67800 5.37200 32.11400
H  6.39800 3.27600 33.71900
H  5.59300 3.27500 32.25000
H  5.71800 4.81900 33.33300
H  10.29800 4.94000 32.09300
H  10.61500 3.58700 33.19400
H  8.49800 5.28700 34.23900
H  9.92500 6.25700 33.91000
H  4.67100 8.42200 28.68100
H  4.22300 7.13600 29.65900
H  3.31200 7.37200 28.27400
H  3.19200 8.39800 24.54500
H  4.11200 8.81200 25.98200
H  2.85700 7.72900 26.16600
H  8.53400 4.02400 22.67600
H  9.18300 1.24800 23.05000
H  6.04000 2.46600 23.08100
H  7.08600 1.27700 22.28700
H  6.83700 2.82400 21.59700
H  11.56600 2.67000 23.83200
H  10.78700 3.72600 22.69900
H  10.69600 1.39600 21.27600
H  12.14400 1.14500 22.17300
H  11.92900 2.69100 21.23700
H  12.34000 -0.93700 26.17000
H  11.82000 -2.10200 27.32700
H  13.17800 -1.06500 27.70300
H  11.46700 1.93800 31.81200
H  9.13500 -0.23100 34.70500
H  9.66100 1.18200 35.46300
H  10.77500 -0.20600 35.38500
Mg 42.19900 41.12600 25.97000
C  41.35600 43.41400 28.39900
C  42.95900 38.89600 28.44600
C  42.82700 38.87800 23.52800
C  41.57000 43.55100 23.44700
N  42.21800 41.17100 28.05900
C  41.82500 42.20700 28.86400
C  41.78300 41.93200 30.37600
C  42.37900 40.45500 30.32000
C  42.54200 40.15800 28.83600
C  43.72700 40.39200 31.16600
C  40.35600 42.08600 31.11000
C  40.13000 41.05000 32.28400
H  39.19200 41.54000 33.42200
N  42.96500 39.11300 25.98900
C  43.20000 38.37100 27.13200
C  43.58800 37.01200 26.66100
C  43.42700 36.99300 25.27500
C  43.05100 38.34800 24.84100
C  43.83400 35.85100 27.65200
C  43.74000 35.94100 24.26000
O  43.46700 36.03800 23.06200
C  44.37000 34.67500 24.74000
N  42.54100 41.33100 23.71300
C  42.55100 40.14600 23.00900
C  42.45200 40.43000 21.46500
C  41.77800 41.86000 21.55000
C  41.98400 42.30800 22.93900
C  43.81500 40.24000 20.76100
C  40.35700 42.11500 20.97500
C  40.34400 43.21600 19.83800
N  41.51500 43.14800 25.87400
C  41.41600 44.01400 24.83100
C  40.90700 45.26300 25.38000
C  40.94100 45.10100 26.80500
C  41.27600 43.75300 27.00200
C  40.54700 46.48500 24.61800
C  40.69600 45.81800 27.99600
O  40.30100 47.01600 28.19100
C  40.89400 44.67300 29.11200
C  41.95700 45.22500 30.01600
O  43.14800 45.47500 29.82200
O  41.34400 45.45900 31.20900
C  42.10900 45.99300 32.37000
H  43.05900 38.10600 29.19400
H  42.95900 38.16600 22.71000
H  41.32600 44.21900 22.61800
H  42.35300 42.70100 30.89600
H  41.67800 39.67700 30.62300
H  43.66000 39.68100 31.98900
H  43.94700 41.32800 31.67900
H  44.59400 40.12400 30.56300
H  39.56900 41.94400 30.36900
H  40.30100 43.09600 31.51500
H  41.08200 40.70600 32.68800
H  39.57500 40.23000 31.82800
H  43.56200 36.25600 28.62700
H  44.89500 35.60200 27.68300
H  43.11100 35.05500 27.47800
H  44.68400 34.10900 23.86200
H  43.59900 34.16100 25.31300
H  45.25600 34.90000 25.33300
H  41.65700 39.81700 21.04100
H  42.46000 42.45300 20.94100
H  44.66400 39.94900 21.37900
H  44.10400 41.11300 20.17600
H  43.60700 39.36700 20.14300
H  39.72300 42.42100 21.80700
H  39.94300 41.21400 20.52200
H  39.55200 43.93400 20.05300
H  40.06600 42.87800 18.84000
H  41.28700 43.75200 19.73000
H  39.72400 46.98500 25.12900
H  40.35000 46.15100 23.59900
H  41.41600 47.13800 24.53400
H  39.99000 44.37900 29.64500
H  43.17000 46.19200 32.22500
H  42.03200 45.25200 33.16600
H  41.80200 46.95700 32.77400

