158

Mg 42.30600 41.69100 27.39600
C  41.51500 44.07300 29.87400
C  43.29400 39.55000 29.93600
C  42.92100 39.39100 25.13800
C  41.52900 43.98300 24.98800
N  42.47400 41.82900 29.64200
C  41.97000 42.86100 30.43800
C  42.03500 42.47600 31.93900
C  42.76200 41.05400 31.89700
C  42.93800 40.82500 30.41700
C  44.07200 40.95000 32.73600
C  40.56400 42.51000 32.55700
C  40.34100 43.03500 34.00200
H  39.59000 42.15600 35.01600
N  43.07800 39.70200 27.52500
C  43.41500 38.99600 28.66400
C  43.74800 37.70600 28.28200
C  43.58900 37.65400 26.82900
C  43.13300 39.01200 26.40700
C  44.25600 36.75400 29.34000
C  43.88100 36.47800 25.94300
O  43.70600 36.53500 24.70100
C  44.29200 35.11500 26.62100
N  42.45200 41.75000 25.34500
C  42.75800 40.62400 24.58200
C  42.76500 40.97200 23.09000
C  42.08200 42.38000 23.05500
C  42.05300 42.74400 24.61300
C  44.17000 40.95600 22.43600
C  40.74800 42.37700 22.23600
C  39.54500 41.83500 23.00000
N  41.82700 43.75900 27.34500
C  41.45700 44.52500 26.27900
C  40.92000 45.78200 26.79700
C  40.92500 45.63000 28.21700
C  41.47800 44.41100 28.54400
C  40.46700 46.93800 25.94400
C  40.56500 46.28600 29.46600
O  39.96200 47.35300 29.63900
C  40.80500 45.22400 30.59200
C  41.72600 45.86300 31.59100
O  42.94200 46.09800 31.40200
O  41.06600 46.13400 32.71700
C  41.85600 46.65900 33.85700
H  43.34300 38.86600 30.78700
H  43.02800 38.69100 24.30600
H  41.35300 44.58300 24.09200
H  42.63700 43.19300 32.49800
H  42.07200 40.31600 32.30800
H  44.85900 40.59200 32.07100
H  43.89400 40.29500 33.58900
H  44.34100 41.93300 33.12300
H  40.21900 41.47800 32.62600
H  39.88200 42.98200 31.85000
H  39.78400 43.97100 34.02800
H  41.27000 43.30800 34.50100
H  43.94700 37.01200 30.35300
H  45.33900 36.71100 29.45900
H  43.81100 35.75900 29.34100
H  43.50800 34.89200 27.34500
H  45.29300 35.30900 27.00400
H  44.41800 34.33200 25.87300
H  42.10000 40.36900 22.47200
H  42.73400 42.96700 22.40800
H  44.11800 41.39400 21.44000
H  44.53700 39.94000 22.28700
H  44.83400 41.58800 23.02600
H  40.98100 41.84200 21.31500
H  40.64900 43.38900 21.84400
H  38.70200 42.52000 22.90500
H  39.54500 41.75200 24.08700
H  39.35900 40.91000 22.45500
H  39.63700 47.48600 26.39100
H  40.06900 46.62300 24.98000
H  41.23700 47.70900 25.89600
H  39.85900 44.97900 31.07500
H  42.35600 45.84200 34.37700
H  41.23800 47.24900 34.53500
H  42.56700 47.42600 33.55200
Mg 6.26300 54.89400 39.56400
C  5.78000 51.38200 39.23600
C  9.63200 54.37900 39.34000
C  6.70000 58.28300 39.32200
C  2.76200 55.36700 39.29300
N  7.51500 53.07800 39.30100
C  7.13800 51.73800 39.25900
C  8.40500 50.88300 39.10400
C  9.59400 51.88100 39.43500
C  8.89300 53.22400 39.29300
C  10.34700 51.72600 40.75900
C  8.59300 50.26400 37.67100
C  8.40000 51.17900 36.51900
H  7.72400 50.53400 35.27000
N  7.97100 56.16100 39.34700
C  9.28500 55.71200 39.22000
C  10.15400 56.92200 39.09500
C  9.35000 58.03900 39.31100
C  7.90700 57.53400 39.35200
C  11.60300 56.78700 38.81000
C  9.84700 59.44500 39.45700
O  10.99500 59.69700 39.55200
C  8.92800 60.65300 39.47400
N  4.92100 56.58400 39.35100
C  5.34100 57.87300 39.36900
C  4.14800 58.89000 39.34900
C  2.90100 57.94800 39.24500
C  3.52700 56.53600 39.23300
C  3.87600 59.82100 40.55800
C  1.96000 58.19400 38.04600
C  0.36600 58.24300 38.31000
N  4.53400 53.69500 39.52600
C  3.22100 53.98000 39.41200
C  2.49700 52.73600 39.52200
C  3.41000 51.68500 39.49000
C  4.67600 52.32300 39.41700
C  1.04800 52.82600 39.61300
C  3.63500 50.20700 39.50300
O  2.91000 49.23400 39.61800
C  5.19800 50.01400 39.32000
C  5.56600 49.03900 38.24000
O  5.42700 49.27500 37.03100
O  6.10400 47.85200 38.71200
C  6.21800 46.78900 37.63900
H  10.72300 54.32000 39.33800
H  6.69000 59.36700 39.18700
H  1.71000 55.65900 39.33100
H  8.37200 50.10300 39.86400
H  10.32300 51.89000 38.62500
H  10.43000 52.56500 41.45000
H  11.36800 51.51800 40.44200
H  9.93200 50.85700 41.26900
H  8.16600 49.26200 37.65300
H  9.67500 50.13200 37.69700
H  9.40100 51.46500 36.19500
H  7.89800 52.13900 36.63500
H  11.73600 55.86200 38.24900
H  12.09500 56.69400 39.77900
H  11.94100 57.56500 38.12500
H  9.58900 61.49800 39.66800
H  8.13200 60.51400 40.20600
H  8.49700 60.68400 38.47300
H  4.07300 59.50300 38.45100
H  2.34500 57.86900 40.17900
H  4.63200 60.60600 40.54100
H  3.97900 59.27600 41.49600
H  2.89700 60.27800 40.41500
H  2.21200 57.37100 37.37700
H  2.24900 59.09500 37.50600
H  0.25700 58.23500 39.39500
H  -0.11600 57.35100 37.91000
H  -0.00000 59.17000 37.86900
H  0.62300 52.42000 38.69500
H  0.61500 53.82500 39.66200
H  0.79300 52.27200 40.51600
H  5.48900 49.66100 40.30900
H  6.95900 47.15400 36.92700
H  5.21900 46.72900 37.20800
H  6.43800 45.78900 38.01300

