158

Mg 8.27900 3.84200 28.45700
C  9.94000 2.38900 31.23900
C  6.30300 5.44300 30.71500
C  6.84800 5.29400 25.85000
C  9.86000 1.58500 26.40700
N  8.07200 3.84700 30.81400
C  8.92600 3.26200 31.65400
C  8.66100 3.77300 33.15900
C  7.28800 4.39100 32.97000
C  7.25500 4.66000 31.42500
C  6.19000 3.43700 33.54900
C  9.74800 4.77400 33.53800
C  10.08700 4.93200 35.09900
H  9.21800 4.41800 36.19400
N  6.90900 5.30400 28.28700
C  6.19800 5.82700 29.32300
C  5.23900 6.82200 28.84000
C  5.51900 6.96700 27.42300
C  6.52300 5.86900 27.09200
C  4.19900 7.50200 29.66500
C  4.91100 7.91500 26.45000
O  5.28700 7.97300 25.28000
C  3.90000 8.98000 26.91300
N  8.09400 3.31200 26.33000
C  7.59700 4.21200 25.52100
C  7.83400 3.69400 24.04300
C  9.06300 2.67400 24.23800
C  9.00900 2.51900 25.77500
C  6.55600 3.04000 23.34200
C  10.38900 3.13100 23.68400
C  11.19700 4.21000 24.55600
N  9.54900 2.28000 28.70700
C  10.15400 1.47100 27.74900
C  11.16500 0.55000 28.36300
C  11.13700 0.94700 29.72700
C  10.16400 1.93700 29.89600
C  11.88500 -0.52200 27.56600
C  11.75200 0.70600 31.01300
O  12.66100 -0.02800 31.39400
C  10.97700 1.57600 32.06200
C  10.33500 0.79200 33.10900
O  9.55600 -0.07000 32.77800
O  10.90900 1.08100 34.30300
C  10.43400 0.08800 35.35000
H  5.64100 5.99300 31.38700
H  6.35700 5.87800 25.06900
H  10.49200 1.03800 25.70400
H  8.68400 2.93800 33.85800
H  7.24600 5.36100 33.46500
H  5.21700 3.92000 33.45900
H  6.34000 3.17300 34.59600
H  6.15600 2.55400 32.91100
H  9.54100 5.73400 33.06500
H  10.64500 4.36300 33.07500
H  10.21200 6.01500 35.10200
H  11.08200 4.50400 35.22400
H  4.45400 8.55300 29.79800
H  4.06200 6.96800 30.60600
H  3.19500 7.43700 29.24600
H  2.96000 8.60700 27.31900
H  3.62600 9.56100 26.03200
H  4.29400 9.64000 27.68600
H  8.09700 4.56900 23.44800
H  8.78400 1.71500 23.80000
H  6.36000 3.66000 22.46800
H  5.68500 3.17100 23.98400
H  6.65700 1.99900 23.03500
H  10.23900 3.70800 22.77200
H  11.11200 2.33900 23.48700
H  12.02300 3.82300 25.15100
H  10.59300 4.74300 25.29000
H  11.60300 4.93500 23.85000
H  11.59400 -0.56900 26.51700
H  11.66500 -1.50100 27.99200
H  12.94900 -0.31800 27.68700
H  11.65800 2.33300 32.44900
H  10.03000 -0.80700 34.87800
H  9.70900 0.56600 36.00900
H  11.22300 -0.19300 36.04700
Mg 26.02300 1.49600 29.32900
C  27.91900 1.00600 32.25300
C  23.26300 1.91100 31.40300
C  24.07200 1.57200 26.62800
C  28.81100 0.66500 27.41000
N  25.63600 1.62300 31.57300
C  26.56600 1.43100 32.51200
C  26.04200 1.65300 33.88800
C  24.46700 1.71700 33.70300
C  24.46100 1.80300 32.14300
C  23.72500 0.51400 34.19600
C  26.70200 2.80800 34.78300
C  27.12600 2.48100 36.27900
H  27.03500 3.60200 37.40700
N  23.91800 1.63000 29.07000
C  22.97100 1.86500 30.01100
C  21.67300 1.90900 29.35100
C  21.80900 1.82900 27.93900
C  23.30000 1.65900 27.85600
C  20.37000 2.02700 30.13200
C  20.89000 1.89600 26.76700
O  21.29900 1.72900 25.61200
C  19.45400 2.36000 26.85900
N  26.32900 1.05100 27.26800
C  25.38900 1.27800 26.33900
C  25.95400 1.17000 24.94000
C  27.51000 0.95200 25.15700
C  27.57500 0.85600 26.69700
C  25.34900 0.19500 23.92400
C  28.46200 2.04300 24.52800
C  28.89900 3.34300 25.32700
N  27.99900 0.81500 29.71400
C  29.00200 0.51300 28.83400
C  30.20200 0.25800 29.60400
C  29.81800 0.33100 30.92600
C  28.45100 0.74800 30.94500
C  31.57200 -0.06800 29.06000
C  30.19300 0.35200 32.29300
O  31.30000 0.20400 32.78900
C  28.99700 0.70700 33.19000
C  28.69700 -0.45400 34.11900
O  28.01400 -1.47200 33.79600
O  29.18400 -0.22400 35.35400
C  28.58500 -1.11000 36.36900
H  22.45200 2.14400 32.09500
H  23.57300 1.86100 25.70000
H  29.68300 0.51800 26.77000
H  26.23100 0.70500 34.39200
H  24.05500 2.56800 34.24500
H  23.16400 -0.00300 33.41700
H  22.97500 0.85400 34.91000
H  24.23700 -0.28800 34.72700
H  25.94300 3.59000 34.82800
H  27.57200 3.17800 34.24000
H  28.18600 2.28700 36.11500
H  26.65800 1.58400 36.68400
H  20.39000 1.74500 31.18500
H  19.60700 1.34600 29.75600
H  19.99100 3.04700 30.18300
H  19.04600 1.58200 27.50300
H  18.95500 2.33700 25.89000
H  19.39800 3.34500 27.32400
H  25.92500 2.19000 24.55700
H  27.76600 -0.01300 24.72000
H  25.97100 -0.68800 23.77600
H  25.33000 0.67400 22.94400
H  24.35200 -0.11400 24.23400
H  28.09000 2.32000 23.54200
H  29.31300 1.38800 24.33700
H  28.40700 3.37100 26.30000
H  28.69300 4.29500 24.83800
H  29.97000 3.14300 25.33400
H  31.72800 0.65800 28.26200
H  31.65400 -1.13200 28.84000
H  32.39100 0.18700 29.73300
H  29.29300 1.59600 33.74600
H  28.74500 -2.18000 36.23200
H  27.50300 -0.97900 36.40300
H  29.14300 -0.85400 37.27000

