158

Mg 48.21600 16.46200 28.18900
C  46.57700 16.49300 31.18100
C  50.73500 18.41400 29.83200
C  50.04000 17.09800 25.22500
C  45.61100 15.39800 26.56700
N  48.48300 17.56400 30.36100
C  47.80300 17.15600 31.42500
C  48.48200 17.53400 32.75800
C  49.60000 18.58100 32.19600
C  49.67300 18.12300 30.72100
C  49.37400 20.09400 32.34900
C  48.93400 16.37000 33.69000
C  48.29500 16.50300 35.12000
H  48.70400 17.64400 36.06600
N  50.12700 17.46700 27.65100
C  51.00200 18.09600 28.45600
C  52.23300 18.54400 27.73100
C  52.08800 18.15400 26.40200
C  50.73100 17.57900 26.39300
C  53.44100 18.97100 28.46600
C  53.01000 18.16100 25.20600
O  52.60200 18.00600 24.05700
C  54.53500 18.49000 25.27800
N  47.95700 16.08400 26.19900
C  48.76600 16.41300 25.11400
C  48.12800 15.83700 23.76400
C  46.77700 15.18400 24.32500
C  46.79500 15.52900 25.78000
C  48.02700 16.92800 22.66600
C  46.43400 13.74200 23.99900
C  45.75800 13.51500 22.66600
N  46.47900 15.97300 28.67300
C  45.43200 15.54000 27.92600
C  44.33800 15.14300 28.77000
C  44.79500 15.46600 30.04500
C  46.04200 16.05700 29.94600
C  42.94400 14.69200 28.29300
C  44.37200 15.46300 31.45800
O  43.34300 15.17200 32.04600
C  45.46100 16.12500 32.29500
C  44.96500 17.34300 33.01500
O  45.00600 18.48500 32.55400
O  44.46900 16.91900 34.23700
C  43.74300 17.87100 35.11700
H  51.48100 19.00100 30.37200
H  50.45400 17.08500 24.21500
H  44.68900 15.18800 26.02100
H  47.76500 18.19000 33.25100
H  50.53800 18.27400 32.65900
H  50.05800 20.44000 33.12400
H  48.33900 20.32800 32.60000
H  49.71900 20.59600 31.44500
H  50.00000 16.46800 33.89500
H  48.85000 15.37400 33.25600
H  48.40400 15.54600 35.63100
H  47.21000 16.48600 35.01700
H  53.14400 19.85200 29.03400
H  54.31500 19.28300 27.89300
H  53.74100 18.20800 29.18400
H  55.06700 18.22100 24.36500
H  54.99500 17.90600 26.07500
H  54.72800 19.54300 25.48100
H  48.77400 15.02100 23.44200
H  46.06400 15.84600 23.83400
H  48.22900 16.52600 21.67300
H  48.76600 17.72200 22.78000
H  47.04400 17.39700 22.63100
H  45.67300 13.43800 24.71900
H  47.34200 13.15600 24.13600
H  46.02400 12.54300 22.25100
H  45.89500 14.33200 21.95700
H  44.69400 13.54400 22.90100
H  42.75200 15.26600 27.38700
H  42.19500 15.06400 28.99300
H  42.70800 13.65300 28.06300
H  45.92900 15.45300 33.01400
H  44.37300 18.15000 35.96200
H  42.76500 17.46100 35.36500
H  43.56300 18.82600 34.62300
Mg 8.90600 47.88100 26.43700
C  6.88500 47.73200 29.22700
C  11.52000 49.01200 28.39300
C  10.85100 48.02900 23.71600
C  6.06400 47.06300 24.50700
N  9.08200 48.34400 28.56000
C  8.14200 48.13100 29.52500
C  8.72300 48.49000 30.89300
C  10.11000 49.16300 30.55000
C  10.27200 48.83500 29.09500
C  10.26500 50.64900 30.84400
C  8.73600 47.14300 31.67500
C  9.79000 46.94700 32.80000
H  9.23200 46.42500 34.08400
N  10.93900 48.36000 26.08900
C  11.87300 48.71000 27.03300
C  13.17700 48.73500 26.44300
C  12.98700 48.60900 25.04700
C  11.51500 48.36600 24.89100
C  14.42500 49.17700 27.24400
C  13.97600 48.48500 23.93400
O  13.62400 48.48200 22.76400
C  15.42900 48.38700 24.31500
N  8.46000 47.63300 24.36100
C  9.49900 47.70700 23.47800
C  8.94700 47.24700 22.04100
C  7.50500 46.78000 22.33000
C  7.29600 47.11500 23.82700
C  8.97000 48.28300 20.82100
C  7.28400 45.27700 22.08100
C  7.92300 44.08500 22.92700
N  6.82100 47.59300 26.78200
C  5.76700 47.29800 25.89300
C  4.54700 47.03300 26.57700
C  4.92600 47.26200 27.94000
C  6.33700 47.47600 27.99000
C  3.22800 46.57100 25.94800
C  4.48900 47.30300 29.34100
O  3.37200 47.27200 29.88300
C  5.77200 47.39900 30.17900
C  5.89400 46.04300 30.74000
O  6.38300 45.04500 30.26100
O  5.50700 45.99100 32.03900
C  5.73800 44.75600 32.81900
H  12.35600 49.35900 29.00400
H  11.39500 48.00300 22.77000
H  5.18500 46.63600 24.02000
H  8.06300 49.15500 31.44800
H  11.00500 48.67800 30.93900
H  10.91500 50.95100 31.66500
H  9.29100 51.01200 31.17300
H  10.63500 51.27100 30.02900
H  8.88900 46.34000 30.95500
H  7.74200 47.00900 32.10100
H  10.20400 47.92500 33.04400
H  10.59200 46.31700 32.41500
H  14.98400 48.25600 27.41100
H  14.22000 49.67000 28.19400
H  15.08800 49.78800 26.63100
H  15.85000 49.33100 24.66300
H  16.03800 48.13900 23.44600
H  15.55800 47.55200 25.00400
H  9.51500 46.37800 21.71200
H  6.71800 47.40500 21.91000
H  8.01300 48.52800 20.36000
H  9.53200 47.89000 19.97500
H  9.51800 49.15900 21.16800
H  7.34600 44.96500 21.03800
H  6.23800 45.32300 22.38400
H  7.47200 44.07500 23.91900
H  8.98700 44.15400 23.15400
H  7.97000 43.26700 22.20800
H  2.94300 47.19000 25.09700
H  2.41300 46.76800 26.64500
H  3.26100 45.53500 25.60900
H  5.69100 48.05200 31.04800
H  6.79700 44.78000 33.07700
H  5.38700 43.78800 32.46300
H  5.28200 44.77700 33.81000

