158

Mg 47.81300 34.63300 27.59100
C  45.79300 33.10600 29.83800
C  48.16400 37.29700 29.50200
C  49.42800 36.32200 24.99200
C  47.13700 32.02000 25.19800
N  47.01200 35.13600 29.45900
C  46.29100 34.28600 30.28900
C  46.26300 34.89400 31.70700
C  46.65700 36.40100 31.51300
C  47.26800 36.33200 30.07000
C  45.50500 37.45400 31.63400
C  47.28900 34.08700 32.66000
C  46.77500 33.80900 34.07100
H  47.62800 34.57600 35.13600
N  48.83800 36.41700 27.32200
C  48.87000 37.34000 28.31100
C  49.78100 38.35600 27.97400
C  50.30800 38.03400 26.68200
C  49.50000 36.87800 26.26700
C  50.00500 39.60900 28.78500
C  51.29100 38.82800 25.78900
O  51.53700 38.43300 24.64200
C  52.11600 40.04800 26.29100
N  48.04400 34.32300 25.33200
C  48.90700 35.07700 24.61100
C  49.03800 34.54100 23.14800
C  48.33300 33.11200 23.23000
C  47.75100 33.17800 24.65200
C  48.44600 35.39600 22.03000
C  49.44500 31.96000 23.03400
C  50.26500 31.50500 24.32800
N  46.67000 33.01500 27.43500
C  46.62600 31.95200 26.53700
C  45.88000 30.88700 27.09200
C  45.50700 31.28900 28.34300
C  45.97900 32.56300 28.48600
C  45.43800 29.59700 26.42100
C  44.78400 30.97900 29.55600
O  44.27700 29.89900 29.92000
C  44.82100 32.22400 30.43900
C  44.91500 31.79400 31.84300
O  45.85900 31.16100 32.41900
O  43.69900 32.00600 32.51500
C  43.69700 31.56000 33.89100
H  48.24400 38.11400 30.22300
H  49.81800 36.85000 24.12000
H  47.22600 31.08300 24.64400
H  45.23400 34.77300 32.04600
H  47.43700 36.70600 32.21100
H  44.64300 37.16700 32.23600
H  45.17500 37.78200 30.64800
H  45.84200 38.32300 32.19900
H  48.21700 34.65400 32.58800
H  47.63400 33.17100 32.17900
H  46.87100 32.75700 34.34000
H  45.75000 34.11900 34.27300
H  49.71600 40.41200 28.10800
H  51.06900 39.67000 29.01600
H  49.46100 39.69300 29.72600
H  51.48800 40.93800 26.32500
H  52.93500 40.21600 25.59100
H  52.46200 39.90800 27.31500
H  50.11600 34.52800 22.98600
H  47.57300 32.90600 22.47600
H  49.14100 35.54900 21.20400
H  48.20000 36.33100 22.53300
H  47.48100 35.10000 21.62100
H  50.02800 32.25000 22.16000
H  48.99700 31.03000 22.68400
H  49.87900 31.91500 25.26100
H  51.31200 31.80100 24.26000
H  50.37200 30.42100 24.36000
H  45.32900 28.84900 27.20500
H  46.21900 29.36500 25.69700
H  44.47200 29.83200 25.97400
H  43.81400 32.63000 30.34300
H  42.86600 30.85400 33.89000
H  43.51100 32.39200 34.56900
H  44.60200 31.26800 34.42400
Mg 26.34200 51.69100 26.31700
C  23.94100 52.68400 28.79700
C  28.32000 50.43100 28.92000
C  28.60500 50.66200 24.04100
C  24.18200 52.82900 23.88600
N  26.15600 51.69500 28.62200
C  25.09400 52.13100 29.39200
C  25.29900 51.80200 30.87300
C  26.78600 51.21000 30.88900
C  27.13500 51.08000 29.39900
C  27.87100 52.03000 31.72500
C  24.29800 50.83200 31.55600
C  24.03800 51.04000 33.04400
H  24.22100 49.84300 33.93900
N  28.32000 50.77500 26.41700
C  28.91500 50.34700 27.61800
C  30.17700 49.73800 27.30500
C  30.28900 49.72900 25.83900
C  29.01700 50.44600 25.37200
C  31.08900 49.18100 28.31300
C  31.51000 49.27400 25.03400
O  31.63700 49.55900 23.85800
C  32.58200 48.43900 25.68400
N  26.47800 51.97000 24.14300
C  27.57900 51.41900 23.44500
C  27.26900 51.41900 21.99600
C  25.71900 51.83200 21.94500
C  25.38800 52.30800 23.32000
C  28.23500 52.26100 21.13000
C  24.75700 50.69600 21.35400
C  23.95300 50.92100 20.06400
N  24.51900 52.75600 26.30200
C  23.80300 53.15400 25.21500
C  22.66100 53.81400 25.65100
C  22.61900 53.66300 27.02300
C  23.78900 52.93100 27.38100
C  21.56900 54.20900 24.76900
C  21.86500 53.83000 28.29900
O  20.79500 54.38500 28.44900
C  22.68600 53.13000 29.47200
C  22.98700 54.15600 30.46200
O  23.46900 55.29800 30.30900
O  22.61200 53.67400 31.67600
C  22.54300 54.52700 32.85200
H  29.05700 50.11500 29.66200
H  29.27900 50.13200 23.36400
H  23.41300 52.98600 23.12600
H  25.25200 52.74900 31.41100
H  26.76400 50.16900 31.21000
H  28.75300 52.25000 31.12400
H  28.03300 51.45300 32.63500
H  27.37900 52.94700 32.04900
H  24.66100 49.80500 31.58200
H  23.32700 50.74800 31.06800
H  23.05400 51.50700 33.09500
H  24.65000 51.89900 33.32000
H  30.65700 49.30200 29.30700
H  32.00300 49.77300 28.34100
H  31.21300 48.12500 28.07400
H  33.33000 48.14600 24.94700
H  32.20800 47.55000 26.19200
H  32.91200 49.20600 26.38500
H  27.30400 50.38400 21.65600
H  25.66600 52.69800 21.28500
H  29.23500 51.91700 21.39600
H  28.15700 53.24900 21.58500
H  27.95700 52.33000 20.07800
H  24.20500 50.20500 22.15600
H  25.36900 49.84800 21.04800
H  24.06000 50.28400 19.18600
H  24.24900 51.87200 19.62100
H  22.94700 51.15200 20.41600
H  21.86400 55.18000 24.37200
H  20.60500 54.29700 25.27100
H  21.53000 53.41600 24.02200
H  22.05500 52.36900 29.93200
H  21.50600 54.79100 33.06200
H  23.05900 55.47800 32.72200
H  23.06500 54.10700 33.71200

