158

Mg 1.70300 -2.04400 44.11700
C  5.13600 -1.20300 44.03600
C  0.94100 0.83500 42.55300
C  -1.44000 -3.22300 43.80400
C  2.71200 -5.42300 45.00200
N  2.93200 -0.44200 43.23100
C  4.32100 -0.24200 43.41200
C  4.83500 1.13600 43.06600
C  3.46300 1.86800 42.74400
C  2.37500 0.69800 42.72000
C  3.06500 3.00100 43.77300
C  5.89800 1.21700 41.96900
C  5.82200 0.11200 40.94700
H  6.80300 0.16100 39.71600
N  -0.07200 -1.25700 43.30200
C  -0.16000 -0.03900 42.68500
C  -1.57500 0.20600 42.39400
C  -2.32100 -0.89900 42.84900
C  -1.30200 -1.83100 43.34500
C  -2.09400 1.49000 41.71700
C  -3.85300 -1.03200 42.85600
O  -4.54300 -0.09800 42.36000
C  -4.63700 -2.19500 43.35900
N  0.82000 -4.00400 44.28200
C  -0.50600 -4.16600 44.14500
C  -0.97100 -5.52900 44.52900
C  0.37000 -6.31500 44.95600
C  1.34700 -5.20200 44.73000
C  -2.06500 -5.62800 45.63000
C  0.53600 -7.57900 44.10500
C  0.34400 -8.84900 44.88900
N  3.52200 -3.10500 44.46300
C  3.75900 -4.48800 44.75500
C  5.19300 -4.64400 44.98000
C  5.77000 -3.35500 44.84800
C  4.70600 -2.49000 44.44400
C  5.88000 -5.89700 45.35600
C  7.00900 -2.64200 44.75200
O  8.14100 -2.95800 45.04200
C  6.58200 -1.19300 44.36200
C  6.91000 -0.20300 45.35800
O  6.42000 -0.17100 46.43600
O  7.74500 0.78700 44.85700
C  8.15400 1.71700 45.85100
H  0.66700 1.87600 42.36700
H  -2.48500 -3.49300 43.97200
H  3.06900 -6.41000 45.30600
H  5.25700 1.52200 43.99400
H  3.57600 2.31800 41.75800
H  2.16600 2.54700 44.18900
H  2.82500 3.88700 43.18500
H  3.79200 3.02200 44.58500
H  6.84600 1.14500 42.50300
H  5.91000 2.19100 41.47900
H  4.82200 0.12400 40.51100
H  5.91700 -0.89300 41.35900
H  -2.93200 1.43500 41.02300
H  -1.34000 1.94900 41.07700
H  -2.35400 2.19300 42.50900
H  -4.31600 -3.20400 43.10300
H  -5.68000 -2.18200 43.04200
H  -4.48200 -2.10400 44.43400
H  -1.42000 -5.85500 43.59000
H  0.37700 -6.46100 46.03700
H  -1.88900 -4.72000 46.20700
H  -1.91100 -6.49300 46.27500
H  -3.02500 -5.63500 45.11400
H  1.51600 -7.70200 43.64300
H  -0.15500 -7.63600 43.26400
H  -0.56200 -9.32700 44.51500
H  0.17500 -8.65700 45.94800
H  1.12800 -9.60500 44.92600
H  6.83200 -5.60200 45.79500
H  6.11100 -6.45300 44.44700
H  5.33300 -6.46000 46.11100
H  7.13400 -1.02100 43.43800
H  8.05600 2.70900 45.41100
H  9.19800 1.55500 46.11900
H  7.75500 1.62800 46.86100
Mg 25.00000 0.72600 29.05600
C  27.30800 0.90500 31.88400
C  22.47200 1.12800 31.17400
C  23.09100 1.15200 26.29700
C  27.84500 0.25300 27.04200
N  25.02300 0.87300 31.32300
C  26.00000 1.01400 32.26400
C  25.42900 1.18300 33.68100
C  23.84700 1.10400 33.40100
C  23.74800 0.96000 31.83900
C  23.26000 -0.18800 34.01500
C  25.84700 2.53600 34.31800
C  25.07100 3.00000 35.62100
H  25.91800 3.40600 36.88300
N  23.07600 0.99600 28.78700
C  22.19900 1.01300 29.80000
C  20.79700 1.14500 29.21600
C  20.98000 1.08000 27.79300
C  22.39800 1.06700 27.54100
C  19.54600 1.25000 29.93600
C  19.87400 1.23400 26.74800
O  20.12800 1.26000 25.55700
C  18.44900 1.44400 27.10100
N  25.39800 0.68400 27.09500
C  24.41000 0.96400 26.05900
C  24.87400 0.72500 24.65400
C  26.47100 0.64400 24.91900
C  26.60400 0.41400 26.45900
C  24.17700 -0.44200 23.83600
C  27.15800 1.88400 24.38500
C  27.01900 3.19700 25.15600
N  27.12500 0.54000 29.32900
C  28.12800 0.39700 28.42300
C  29.35300 0.51400 29.07100
C  29.10800 0.66500 30.45300
C  27.72200 0.64400 30.57400
C  30.63700 0.62800 28.31100
C  29.76500 0.80800 31.74500
O  30.95500 0.89900 32.10300
C  28.55100 1.00100 32.77300
C  28.68600 0.04300 33.87300
O  28.25400 -1.10400 33.86900
O  29.39100 0.64200 34.91500
C  29.19800 0.12500 36.25500
H  21.60000 1.24700 31.82100
H  22.43600 1.25600 25.43000
H  28.66300 0.02800 26.35600
H  25.80800 0.31600 34.22200
H  23.32600 2.00600 33.72100
H  23.43800 -1.00500 33.31600
H  22.19000 -0.08100 34.19400
H  23.77400 -0.51200 34.92000
H  26.03300 3.39900 33.67800
H  26.82100 2.35300 34.77100
H  24.40400 2.17900 35.88300
H  24.47000 3.84900 35.29600
H  19.12700 2.23000 29.70900
H  19.68200 1.18400 31.01500
H  18.91900 0.43700 29.57200
H  18.36100 2.32400 27.73800
H  18.10900 0.52400 27.57700
H  17.88000 1.67000 26.20000
H  24.69000 1.61800 24.05700
H  26.78800 -0.18300 24.28500
H  24.89800 -1.14600 23.42000
H  23.63500 -0.03700 22.98100
H  23.47900 -1.03700 24.42500
H  26.81800 2.05500 23.36300
H  28.22000 1.64400 24.32800
H  27.92700 3.51900 25.66600
H  26.20100 3.15700 25.87500
H  26.69300 3.95700 24.44600
H  30.85600 -0.31900 27.81800
H  31.49800 0.76900 28.96500
H  30.67100 1.37400 27.51800
H  28.70100 2.00800 33.16200
H  30.17900 -0.03300 36.70300
H  28.56900 -0.76000 36.35300
H  28.76600 0.94500 36.82900

