158

Mg 35.59800 2.61300 30.31900
C  33.44500 3.86700 32.80700
C  38.12000 2.65800 32.62300
C  37.72000 1.77100 27.88500
C  33.05400 3.19300 27.97800
N  35.77000 3.31500 32.45400
C  34.73700 3.63800 33.34600
C  35.20500 3.75500 34.79200
C  36.77700 3.56000 34.57100
C  36.87200 3.04900 33.11200
C  37.64200 4.87600 34.64800
C  34.59700 2.67500 35.72200
C  34.35100 3.19200 37.12100
H  35.34400 4.28400 37.64800
N  37.58100 2.14400 30.29400
C  38.45000 2.21000 31.36100
C  39.77700 1.78200 30.93800
C  39.74400 1.62200 29.50300
C  38.35800 1.87500 29.16100
C  41.01600 1.68500 31.78600
C  40.82700 1.34200 28.47600
O  40.61600 1.10800 27.31600
C  42.23300 1.15900 28.91500
N  35.50100 2.69300 28.31100
C  36.44300 2.18200 27.52100
C  36.00400 2.16500 26.04200
C  34.45400 2.19300 26.17100
C  34.32700 2.81000 27.59500
C  36.61800 3.37100 25.19200
C  33.75000 0.70600 26.02900
C  32.47500 0.69800 25.18800
N  33.64100 3.29200 30.33300
C  32.72000 3.51400 29.28900
C  31.44000 3.86400 29.89700
C  31.66400 4.10700 31.26000
C  33.04800 3.73100 31.45100
C  30.09800 4.05900 29.17800
C  31.04000 4.51300 32.45500
O  29.90300 4.90600 32.66100
C  32.24600 4.34300 33.56500
C  32.47400 5.65000 34.32400
O  32.91700 6.66000 33.80100
O  32.01100 5.67500 35.59700
C  32.09900 6.95900 36.25700
H  38.97400 2.54800 33.29400
H  38.31200 1.43100 27.03200
H  32.33400 3.19000 27.15700
H  35.10100 4.80100 35.07900
H  37.16000 2.83700 35.29100
H  37.79400 5.23100 33.62900
H  38.61200 4.84800 35.14400
H  37.01700 5.71500 34.95600
H  35.16100 1.74100 35.72600
H  33.64600 2.35700 35.29400
H  34.35100 2.35900 37.82400
H  33.32500 3.55600 37.07500
H  41.52900 0.80700 31.39500
H  40.73100 1.57800 32.83300
H  41.72300 2.51100 31.70500
H  42.30300 0.24800 29.50900
H  42.46800 2.05800 29.48500
H  42.89300 1.06600 28.05200
H  36.36000 1.19200 25.70200
H  34.17200 2.92800 25.41600
H  35.83700 3.98800 24.74900
H  37.21100 3.02000 24.34700
H  37.37900 3.90100 25.76400
H  33.54700 0.25300 27.00000
H  34.56800 0.10200 25.63700
H  32.68900 0.25200 24.21700
H  32.19300 1.74400 25.07200
H  31.75900 0.09200 25.74300
H  30.19200 4.99100 28.62100
H  29.23200 4.32700 29.78200
H  29.94300 3.16400 28.57400
H  31.99300 3.57400 34.29500
H  32.28900 6.73100 37.30600
H  31.15200 7.46800 36.07700
H  33.00100 7.54900 36.09200
Mg 48.13900 34.74200 27.26200
C  46.35900 33.19100 29.80200
C  48.40500 37.58100 29.21000
C  49.53700 36.40500 24.55600
C  47.52700 32.05900 25.08200
N  47.57800 35.23200 29.26400
C  46.92500 34.38400 30.16500
C  47.02500 34.95200 31.57100
C  47.24500 36.53100 31.33600
C  47.74100 36.48700 29.82100
C  45.98100 37.37800 31.50200
C  48.21400 34.24000 32.34200
C  48.07400 34.06800 33.91100
H  48.82000 35.09700 34.76300
N  48.75600 36.77500 26.87600
C  48.77400 37.76500 27.83200
C  49.39800 39.02700 27.24600
C  49.92600 38.57100 25.99300
C  49.41100 37.20000 25.73100
C  49.52000 40.26900 28.12000
C  50.81300 39.35700 25.01400
O  51.30500 38.91300 23.96700
C  51.06300 40.84300 25.30700
N  48.58800 34.19000 25.09900
C  49.11200 35.09400 24.23200
C  49.16900 34.51600 22.83600
C  48.58800 33.08400 23.13800
C  48.15000 33.09100 24.50500
C  48.28200 35.40200 21.85400
C  49.41500 31.91900 22.63300
C  49.68700 31.87300 21.10500
N  47.10000 32.91300 27.36500
C  46.98100 31.96500 26.39500
C  46.17800 30.91200 26.94200
C  45.85700 31.30800 28.27400
C  46.50800 32.52600 28.50500
C  45.73100 29.69900 26.22500
C  45.14400 31.01500 29.56500
O  44.61500 29.95900 29.92700
C  45.29800 32.28500 30.48100
C  45.43100 31.95900 31.90100
O  46.32100 31.29900 32.44400
O  44.35900 32.48900 32.53100
C  44.31600 32.32900 33.99800
H  48.51600 38.40500 29.91800
H  49.98700 36.88300 23.68400
H  47.27200 31.22300 24.42700
H  46.06300 34.79700 32.05900
H  48.00600 36.73600 32.08900
H  46.12700 37.99800 32.38700
H  45.08500 36.75900 31.51400
H  45.90000 38.02600 30.62900
H  49.09200 34.81100 32.04100
H  48.38300 33.23500 31.95700
H  48.49000 33.14500 34.31300
H  47.01100 34.15600 34.13600
H  49.52000 41.16700 27.50200
H  50.48000 40.23300 28.63500
H  48.66000 40.34900 28.78500
H  51.57900 41.23400 24.43000
H  51.64900 40.87600 26.22500
H  50.13700 41.37600 25.52100
H  50.18000 34.53300 22.42900
H  47.67100 33.09600 22.54800
H  47.38400 34.83200 21.61700
H  48.82400 35.55000 20.92000
H  48.06700 36.33100 22.38300
H  48.94500 30.99800 22.97800
H  50.35900 31.96200 23.17600
H  49.29100 32.75600 20.60300
H  49.38900 30.93400 20.63700
H  50.77100 31.94600 21.01700
H  45.38100 29.00500 26.98900
H  46.54500 29.16400 25.73600
H  44.95400 29.91000 25.49100
H  44.32000 32.76300 30.41700
H  43.38700 32.74600 34.38500
H  45.05000 32.91700 34.54900
H  44.42700 31.27400 34.25000

