158

Mg 8.76300 3.40500 27.42700
C  10.49000 2.14000 30.32400
C  7.64300 5.99100 29.14000
C  7.34200 4.39700 24.58600
C  10.16800 0.58900 25.65200
N  8.92800 3.99700 29.47600
C  9.71900 3.33400 30.50400
C  9.55000 4.09500 31.83900
C  8.47100 5.16500 31.54300
C  8.24700 5.01600 29.96900
C  7.07500 5.11200 32.20000
C  10.82600 4.47700 32.58300
C  10.65700 5.47300 33.71900
H  11.13700 4.92700 35.07100
N  7.70400 5.03200 26.84400
C  7.31400 5.99400 27.74300
C  6.58700 7.03700 26.95700
C  6.42300 6.53400 25.62600
C  7.18400 5.23700 25.67600
C  5.92000 8.17000 27.59800
C  5.80300 7.27600 24.42500
O  5.83500 6.74700 23.29800
C  5.07600 8.59600 24.64600
N  8.82600 2.65000 25.39500
C  7.99900 3.22200 24.45400
C  8.19100 2.57100 23.09900
C  8.93900 1.29100 23.42800
C  9.35100 1.49000 24.90600
C  6.91100 2.35200 22.18600
C  10.16600 1.05600 22.51900
C  9.94600 -0.03000 21.46400
N  10.03200 1.65700 27.88400
C  10.52900 0.65800 27.06000
C  11.36600 -0.27600 27.82900
C  11.37600 0.30800 29.11800
C  10.57400 1.46300 29.08400
C  12.17500 -1.35500 27.20700
C  11.95100 0.20300 30.49700
O  12.78000 -0.58800 30.98600
C  11.34500 1.39600 31.31000
C  10.61600 0.80000 32.50500
O  9.56000 0.19300 32.49700
O  11.46800 0.98200 33.56800
C  10.97200 0.47200 34.83600
H  7.22600 6.76300 29.79100
H  6.95400 4.67900 23.60500
H  10.61000 -0.20800 25.05000
H  9.06000 3.36300 32.48100
H  8.84700 6.13600 31.86600
H  6.34600 5.66300 31.60600
H  7.25900 5.45000 33.22000
H  6.86000 4.04700 32.12600
H  11.58900 4.78900 31.87000
H  11.21500 3.53300 32.96300
H  9.64900 5.83600 33.92300
H  11.36900 6.27500 33.52500
H  5.96500 8.15600 28.68700
H  4.83700 8.22400 27.47900
H  6.32400 9.12400 27.25900
H  4.27700 8.56400 25.38600
H  4.70000 8.98100 23.69800
H  5.84900 9.33100 24.87000
H  8.78600 3.24400 22.48100
H  8.31500 0.39700 23.43600
H  6.05100 2.69900 22.76000
H  6.85700 1.27700 22.01400
H  6.94400 2.96400 21.28500
H  10.98600 0.67800 23.13000
H  10.53400 1.97700 22.06700
H  8.90500 -0.30400 21.29500
H  10.40800 -0.98400 21.71900
H  10.41300 0.19300 20.50400
H  12.42300 -1.15800 26.16400
H  11.78300 -2.36000 27.35900
H  13.09600 -1.30500 27.78700
H  12.20400 1.97900 31.64300
H  11.60500 0.85100 35.63800
H  10.92700 -0.61100 34.94800
H  10.01200 0.98000 34.92700
Mg -9.92100 17.55800 42.03100
C  -6.49600 16.88100 41.63800
C  -9.36000 20.73900 40.86500
C  -13.22600 17.95100 41.77700
C  -10.44800 14.05300 42.35700
N  -8.13200 18.63200 41.21900
C  -6.83600 18.17200 41.19300
C  -5.90200 19.32900 40.88500
C  -6.80300 20.58000 40.81800
C  -8.18100 19.97600 41.05800
C  -6.30200 21.73300 41.77400
C  -4.91300 19.07100 39.67700
C  -5.33100 18.22900 38.39800
H  -4.92000 18.85800 37.07300
N  -11.13300 19.16400 41.43700
C  -10.73800 20.40500 41.02700
C  -11.86600 21.27200 40.92600
C  -13.01200 20.49700 41.12500
C  -12.48400 19.15600 41.47400
C  -11.71200 22.78500 40.62000
C  -14.52100 21.02500 41.07100
O  -14.80300 22.08000 40.52500
C  -15.62800 20.21400 41.71700
N  -11.59800 16.14900 42.02000
C  -12.88800 16.60700 42.10700
C  -13.89300 15.46900 42.15900
C  -12.90200 14.28000 42.49300
C  -11.57300 14.85800 42.24300
C  -14.99500 15.77500 43.25300
C  -13.40400 13.07800 41.59100
C  -13.39500 11.71200 42.28100
N  -8.76200 15.78300 41.99800
C  -9.10700 14.47000 42.22000
C  -7.88800 13.66100 42.21600
C  -6.85100 14.58800 42.12500
C  -7.42200 15.84900 41.97300
C  -7.76100 12.17000 42.34700
C  -5.45900 14.69300 42.02500
O  -4.55800 13.83900 42.05900
C  -5.16300 16.21900 41.86000
C  -4.35600 16.59400 43.09900
O  -3.19600 16.33600 43.29300
O  -5.17400 17.18800 44.06200
C  -4.65800 17.32000 45.45300
H  -9.19500 21.78100 40.58500
H  -14.31500 17.98500 41.70300
H  -10.58000 12.99000 42.56700
H  -5.28500 19.37300 41.78200
H  -6.77700 21.04000 39.83000
H  -6.06200 22.57900 41.12900
H  -5.53100 21.35300 42.44400
H  -7.14700 22.07700 42.36900
H  -4.06700 18.57000 40.14700
H  -4.46200 19.99000 39.30300
H  -6.35400 17.86200 38.31800
H  -4.68500 17.35300 38.44600
H  -12.66300 23.27700 40.41700
H  -11.15700 22.86100 39.68500
H  -11.05100 23.19500 41.38300
H  -15.85100 19.40900 41.01700
H  -16.53300 20.81000 41.84100
H  -15.33500 19.73200 42.65000
H  -14.36100 15.33400 41.18400
H  -13.01400 14.19100 43.57300
H  -15.05300 15.01600 44.03300
H  -15.95200 15.80400 42.73200
H  -14.70700 16.73700 43.67600
H  -12.73100 13.17300 40.73800
H  -14.36400 13.27800 41.11500
H  -14.26100 11.10000 42.02800
H  -13.33400 11.60500 43.36400
H  -12.55600 11.10700 41.93900
H  -8.68300 11.69500 42.68200
H  -6.93100 11.90600 43.00200
H  -7.51100 11.72800 41.38300
H  -4.39600 16.28500 41.08800
H  -5.45100 17.33600 46.20100
H  -4.05300 18.22300 45.53500
H  -4.14900 16.43500 45.83700

