158

Mg 17.49700 -1.33200 28.47300
C  16.59400 0.81800 31.24800
C  19.81700 -2.86200 30.52100
C  18.83800 -2.87400 25.81600
C  16.03800 1.11300 26.45300
N  18.16000 -1.01600 30.60100
C  17.44400 -0.27600 31.56600
C  18.00600 -0.60700 32.96900
C  19.13800 -1.62300 32.66500
C  19.04800 -1.93700 31.20600
C  20.54800 -1.15800 33.19600
C  16.94200 -1.19600 33.94000
C  16.82700 -0.55300 35.29200
H  17.94700 0.07100 36.00600
N  18.91900 -2.82400 28.23900
C  19.71400 -3.31800 29.21000
C  20.51000 -4.35200 28.61600
C  20.21200 -4.47200 27.25800
C  19.28700 -3.36600 27.06700
C  21.58600 -5.06900 29.42100
C  20.65000 -5.46000 26.26500
O  20.32900 -5.36300 25.12800
C  21.55900 -6.66300 26.59700
N  17.35900 -0.93900 26.39900
C  17.97200 -1.79400 25.48100
C  17.66600 -1.25200 24.02700
C  16.67300 -0.06100 24.32300
C  16.66300 0.06900 25.81300
C  18.99100 -0.70300 23.34000
C  15.26100 -0.16100 23.58000
C  14.16900 -1.05000 24.22200
N  16.43900 0.63600 28.73900
C  15.90200 1.42500 27.79500
C  15.16600 2.52800 28.46700
C  15.35800 2.22300 29.81500
C  16.22800 1.15800 29.88700
C  14.20400 3.43700 27.75900
C  14.92900 2.50200 31.22000
O  13.97800 3.18400 31.59600
C  15.85400 1.71900 32.16400
C  16.68000 2.70700 32.75500
O  17.48700 3.36600 32.17200
O  16.33700 2.82400 34.11000
C  16.99400 3.88900 34.88900
H  20.49500 -3.45300 31.14100
H  19.33000 -3.36000 24.97100
H  15.40400 1.65200 25.74600
H  18.52100 0.21600 33.46600
H  19.05500 -2.53400 33.25800
H  20.43000 -0.25800 33.80000
H  21.15400 -0.99700 32.30400
H  20.90900 -1.96800 33.82800
H  17.20200 -2.25100 34.03000
H  15.95300 -1.25000 33.48500
H  16.38000 -1.21900 36.03000
H  16.05900 0.21400 35.19800
H  22.32500 -5.60200 28.82200
H  21.22300 -5.82700 30.11600
H  22.10400 -4.31400 30.01200
H  21.16200 -7.46300 25.97200
H  21.33100 -7.00300 27.60700
H  22.63600 -6.50300 26.55100
H  17.23800 -1.95500 23.31200
H  17.17200 0.77700 23.83700
H  19.71400 -0.48600 24.12600
H  18.91900 0.35700 23.10000
H  19.27400 -1.36000 22.51700
H  15.48900 -0.51500 22.57400
H  14.86600 0.84700 23.45600
H  13.36500 -0.48800 24.69700
H  14.62100 -1.70700 24.96500
H  13.69600 -1.65300 23.44700
H  13.95000 3.19400 26.72800
H  14.68300 4.40700 27.62300
H  13.33300 3.58900 28.39700
H  15.32100 1.11200 32.89600
H  18.02400 3.65500 35.15900
H  16.35200 4.13200 35.73600
H  17.25100 4.75200 34.27400
Mg -10.39000 39.77300 38.92000
C  -9.07200 36.63600 38.29700
C  -7.05200 40.99100 38.33300
C  -11.56100 42.93500 38.57000
C  -13.54200 38.50300 39.17300
N  -8.40400 38.87100 38.40400
C  -8.08600 37.56900 38.22200
C  -6.58000 37.31900 37.80500
C  -6.03100 38.56500 38.53600
C  -7.18100 39.55800 38.40200
C  -5.69700 38.23600 40.06800
C  -6.34000 37.41800 36.28300
C  -6.17800 36.07800 35.54900
H  -7.29000 35.78300 34.49500
N  -9.44700 41.69000 38.51100
C  -8.06600 41.95500 38.25300
C  -7.89500 43.33200 38.09200
C  -9.16300 43.98400 38.10500
C  -10.13900 42.86800 38.47000
C  -6.55800 43.93500 37.75900
C  -9.45600 45.40800 37.86600
O  -8.54100 46.21700 37.63400
C  -10.83800 46.02400 37.94800
N  -12.26800 40.56600 38.85900
C  -12.49400 41.91300 38.90700
C  -13.99000 42.21700 39.15100
C  -14.66500 40.80500 39.27300
C  -13.41800 39.87500 39.10100
C  -14.21300 43.10000 40.39100
C  -15.82300 40.56400 38.22900
C  -17.17500 40.14400 38.90300
N  -11.16100 37.90900 38.89000
C  -12.49500 37.55800 39.06100
C  -12.56700 36.11900 39.01800
C  -11.30100 35.69500 38.63800
C  -10.46600 36.79700 38.64200
C  -13.83600 35.35900 39.18700
C  -10.41000 34.57200 38.27200
O  -10.65300 33.44200 38.11700
C  -8.96600 35.09200 38.04100
C  -8.10400 34.38800 38.99600
O  -8.41800 34.11800 40.16100
O  -6.93900 33.86600 38.46200
C  -6.16700 32.92500 39.23800
H  -6.01700 41.32900 38.25100
H  -11.89000 43.96300 38.73400
H  -14.49000 38.01500 39.40500
H  -6.05500 36.46300 38.22900
H  -5.08900 38.88100 38.09000
H  -6.49100 38.63300 40.70100
H  -4.71300 38.65500 40.28000
H  -5.47700 37.18700 40.26600
H  -5.42700 38.00100 36.16100
H  -7.17000 37.97500 35.84800
H  -6.04100 35.23400 36.22400
H  -5.20700 36.24400 35.08300
H  -6.54400 44.29500 36.73000
H  -5.71300 43.25300 37.85800
H  -6.45400 44.86700 38.31500
H  -11.54200 45.44800 37.34800
H  -10.94000 47.03300 37.54700
H  -11.26100 45.95700 38.95100
H  -14.33800 42.76100 38.27400
H  -15.04200 40.58000 40.27000
H  -15.06600 42.90300 41.04000
H  -14.33200 44.15600 40.15000
H  -13.23600 42.97800 40.85900
H  -15.55800 39.82900 37.46800
H  -16.16700 41.47600 37.74100
H  -17.32700 40.81500 39.74900
H  -17.05300 39.07100 39.05200
H  -17.88800 40.31900 38.09800
H  -14.76100 35.89700 38.98200
H  -13.91000 35.06900 40.23500
H  -13.75600 34.51400 38.50300
H  -8.65200 34.93500 37.00900
H  -5.84300 33.39200 40.16800
H  -5.32400 32.54800 38.65900
H  -6.75400 32.07300 39.57900

