158

Mg 24.34700 -5.89500 45.61500
C  26.34500 -3.43400 44.13000
C  21.79500 -4.95000 43.50200
C  22.55300 -8.59700 46.54700
C  27.19400 -7.11500 47.21500
N  24.20600 -4.47600 43.95400
C  25.07900 -3.48400 43.63300
C  24.53600 -2.59700 42.58300
C  22.99100 -2.80400 42.77800
C  22.98800 -4.20100 43.36500
C  22.36600 -1.76700 43.74900
C  25.04200 -3.08000 41.17100
C  25.37200 -2.01300 40.14400
H  26.03800 -2.52400 38.90100
N  22.41900 -6.70900 45.01200
C  21.53600 -6.08100 44.17800
C  20.36700 -6.89300 44.08200
C  20.55200 -8.03800 44.94700
C  21.88000 -7.82900 45.56200
C  19.16500 -6.62400 43.12000
C  19.53900 -9.13300 45.23500
O  18.50600 -9.17600 44.65400
C  19.74700 -10.10200 46.28000
N  24.79600 -7.64600 46.63700
C  23.86100 -8.56200 47.05800
C  24.51400 -9.58000 47.98200
C  25.95300 -9.15000 48.15300
C  25.98100 -7.87000 47.33700
C  23.81700 -10.02700 49.22600
C  27.05600 -10.25600 47.67500
C  28.19100 -10.47200 48.68000
N  26.42100 -5.27900 45.90700
C  27.40500 -5.91400 46.55300
C  28.64200 -5.10600 46.42100
C  28.26100 -4.12400 45.50900
C  26.87700 -4.26700 45.17800
C  29.92700 -5.38800 47.06000
C  28.74500 -3.07100 44.75400
O  29.85300 -2.63400 44.70900
C  27.53600 -2.61500 43.74600
C  27.41100 -1.16400 43.95900
O  27.44900 -0.65200 45.08200
O  27.22000 -0.46000 42.83100
C  27.06600 1.01600 42.97000
H  20.91900 -4.62900 42.93500
H  22.10300 -9.53300 46.88600
H  28.08200 -7.37100 47.79700
H  24.93800 -1.61700 42.83700
H  22.48900 -2.76700 41.81100
H  21.87600 -2.13300 44.65200
H  21.53800 -1.28600 43.22900
H  23.02300 -0.94200 44.02400
H  24.27300 -3.63900 40.63700
H  25.90700 -3.74300 41.18800
H  26.00100 -1.22000 40.54900
H  24.39900 -1.66000 39.80200
H  19.12200 -5.55100 42.93800
H  18.22800 -6.87000 43.62100
H  19.23100 -7.24400 42.22600
H  18.82100 -10.62200 46.52700
H  20.09800 -9.55400 47.15400
H  20.45800 -10.81500 45.86200
H  24.41100 -10.50400 47.41200
H  26.04500 -8.76200 49.16700
H  23.67600 -11.10600 49.15100
H  22.81500 -9.60000 49.18200
H  24.37000 -9.91800 50.15900
H  27.58200 -10.04100 46.74500
H  26.50600 -11.18900 47.54600
H  28.08600 -9.73700 49.47800
H  29.11200 -10.28300 48.12700
H  28.35200 -11.47100 49.08700
H  29.80500 -5.51600 48.13600
H  30.65000 -4.57400 47.00500
H  30.42700 -6.31200 46.77000
H  27.84500 -2.77400 42.71300
H  27.82400 1.30600 43.69800
H  26.15900 1.35200 43.47200
H  27.28600 1.56100 42.05200
Mg -1.91400 34.03000 27.13700
C  -3.38100 32.37900 29.79300
C  -0.63800 36.37900 29.34800
C  -1.03900 35.88800 24.47400
C  -3.61900 31.84200 24.92100
N  -2.08700 34.42600 29.31200
C  -2.62500 33.50100 30.18700
C  -2.36900 33.98200 31.66100
C  -1.56800 35.30500 31.51300
C  -1.44800 35.44400 29.94000
C  -2.26600 36.51200 32.27700
C  -1.74700 33.00200 32.66200
C  -2.60300 32.36600 33.78800
H  -1.86000 32.08900 35.10600
N  -0.89900 35.82600 26.95900
C  -0.41600 36.60100 27.97000
C  0.22000 37.76100 27.41700
C  0.24500 37.61500 25.98000
C  -0.57300 36.45500 25.69700
C  0.79900 38.83600 28.20800
C  0.89500 38.42100 24.93400
O  0.74600 38.17500 23.74300
C  1.79900 39.66400 25.16100
N  -2.34300 33.92500 24.97300
C  -1.84600 34.82000 24.06500
C  -2.25800 34.42400 22.67500
C  -2.79500 33.00700 22.83400
C  -2.95700 32.89900 24.32100
C  -3.28600 35.54800 22.14000
C  -1.83400 31.85400 22.23000
C  -0.78400 31.14100 23.11800
N  -3.14900 32.44200 27.29600
C  -3.80600 31.62400 26.31500
C  -4.70000 30.65200 26.88600
C  -4.52300 30.87600 28.30600
C  -3.62900 31.96400 28.42900
C  -5.67600 29.73800 26.21700
C  -4.82000 30.43300 29.65900
O  -5.49000 29.48700 30.07500
C  -4.20800 31.42000 30.65200
C  -5.31400 32.06200 31.39800
O  -5.91500 33.07000 31.03300
O  -5.56800 31.39400 32.55200
C  -6.50800 32.07200 33.41600
H  -0.22500 37.05100 30.10200
H  -0.62100 36.40700 23.60900
H  -4.05500 31.26700 24.10100
H  -3.38900 34.15100 32.00700
H  -0.61500 35.12200 32.00800
H  -1.37600 37.08800 32.53200
H  -2.74300 36.19900 33.20500
H  -2.87500 37.07900 31.57300
H  -0.88700 33.46000 33.14900
H  -1.40500 32.14700 32.07900
H  -3.07600 31.42500 33.50600
H  -3.31400 33.15700 34.02700
H  1.85300 38.77600 27.93500
H  0.76800 38.62900 29.27800
H  0.25100 39.76100 28.02700
H  2.32300 39.96500 24.25300
H  2.51100 39.40400 25.94400
H  1.15500 40.45300 25.54700
H  -1.42600 34.53400 21.98000
H  -3.74700 32.80900 22.34100
H  -3.24700 36.45800 22.73900
H  -4.30300 35.16700 22.23400
H  -3.04700 35.87000 21.12600
H  -1.35100 32.40300 21.42200
H  -2.57500 31.18000 21.80000
H  -0.70400 31.39500 24.17500
H  0.22800 31.40600 22.81200
H  -0.92300 30.06200 23.18400
H  -5.53300 28.75700 26.67000
H  -5.48500 29.58900 25.15500
H  -6.64700 30.15600 26.48500
H  -3.68700 30.68400 31.26400
H  -7.40700 32.35600 32.87000
H  -6.06400 33.01200 33.74400
H  -6.73800 31.43300 34.26900

