158

Mg 1.78000 -1.92900 44.12700
C  5.05300 -0.77500 43.74800
C  0.70600 0.91700 42.53000
C  -1.23400 -3.42500 43.80500
C  3.15400 -5.04200 45.28600
N  2.85800 -0.16000 43.20000
C  4.15500 0.10300 43.17000
C  4.44500 1.40400 42.46100
C  3.00000 2.12300 42.48700
C  2.10000 0.89100 42.78400
C  2.90300 3.24800 43.57500
C  5.03700 1.26800 40.99400
C  6.23500 2.18500 40.64500
H  7.01400 1.94900 39.35600
N  0.01300 -1.26500 43.40700
C  -0.21500 -0.08300 42.72700
C  -1.65300 0.01300 42.46100
C  -2.27400 -1.22700 42.97400
C  -1.11500 -2.06100 43.43300
C  -2.29200 1.27900 41.87000
C  -3.82000 -1.47000 42.93600
O  -4.55800 -0.68700 42.36700
C  -4.48900 -2.72400 43.51400
N  0.99500 -3.95100 44.44300
C  -0.33400 -4.23700 44.37100
C  -0.46500 -5.71300 44.81100
C  0.93000 -6.21500 45.16000
C  1.76900 -4.99900 45.02800
C  -1.54700 -5.98400 45.83000
C  1.29000 -7.43800 44.26300
C  1.41900 -8.83500 44.99500
N  3.69400 -2.77500 44.52400
C  4.06900 -4.00200 45.04400
C  5.51800 -3.96500 45.20200
C  5.93400 -2.73500 44.69400
C  4.77800 -2.04600 44.32900
C  6.31900 -5.06000 45.72200
C  7.09500 -1.91000 44.39900
O  8.25200 -2.09300 44.72700
C  6.54400 -0.57800 43.73900
C  6.88600 0.60500 44.60300
O  6.17900 0.97900 45.50200
O  8.14100 1.01800 44.36800
C  8.50300 2.34300 44.95900
H  0.28800 1.78400 42.01400
H  -2.24800 -3.81600 43.69900
H  3.59300 -5.96700 45.66500
H  5.12800 2.04400 43.02100
H  2.77600 2.47600 41.48100
H  3.88700 3.53400 43.94400
H  2.29600 2.87300 44.39900
H  2.42100 4.14800 43.19200
H  4.21700 1.34800 40.28100
H  5.44100 0.26800 40.84000
H  6.93400 2.24900 41.48000
H  5.76100 3.16700 40.65500
H  -3.34600 1.21300 41.60200
H  -1.65200 1.65700 41.07300
H  -2.24600 1.98300 42.70000
H  -4.44900 -3.41000 42.66700
H  -5.48700 -2.30100 43.63300
H  -3.89600 -3.01900 44.37900
H  -0.83800 -6.30900 43.97700
H  0.91400 -6.55300 46.19600
H  -2.02300 -6.87500 45.42200
H  -2.21400 -5.12300 45.88000
H  -1.31400 -6.13800 46.88300
H  2.23000 -7.26600 43.73900
H  0.69200 -7.53200 43.35600
H  2.46600 -9.09800 45.15000
H  0.97300 -9.56000 44.31400
H  1.01200 -8.73400 46.00100
H  5.92900 -5.61700 46.57400
H  7.24200 -4.65800 46.14000
H  6.69000 -5.69900 44.92100
H  6.98100 -0.45900 42.74800
H  7.78800 3.15500 44.82400
H  9.37500 2.86300 44.56200
H  8.79400 2.27000 46.00700
Mg 35.24700 2.53500 29.63300
C  32.94300 3.59000 32.10500
C  37.55800 2.42900 32.14000
C  37.52000 2.38400 27.26700
C  32.62900 2.62600 27.27100
N  35.24000 3.03800 31.90000
C  34.18800 3.35600 32.70400
C  34.61100 3.31800 34.24100
C  36.17700 3.07200 34.13700
C  36.31200 2.77000 32.63500
C  37.19500 4.24500 34.65100
C  33.84700 2.16300 34.96900
C  33.71400 2.38800 36.39300
H  34.51000 3.60500 37.00700
N  37.20900 2.28100 29.66600
C  38.04500 2.27500 30.81900
C  39.45500 2.03900 30.37400
C  39.37100 2.06300 28.96200
C  37.99300 2.23300 28.56900
C  40.65200 1.71900 31.30200
C  40.52600 1.84300 28.02800
O  40.39400 1.78600 26.81300
C  42.00200 1.84700 28.52900
N  35.06000 2.32700 27.55200
C  36.15300 2.25700 26.80000
C  35.69800 2.29100 25.31800
C  34.16500 1.91200 25.40700
C  33.92900 2.29300 26.82100
C  35.91400 3.71700 24.61100
C  33.85600 0.44900 25.03800
C  32.66800 -0.22000 25.73900
N  33.24600 2.97300 29.59300
C  32.31500 3.01500 28.59600
C  31.01900 3.52000 29.15800
C  31.24500 3.72600 30.48900
C  32.59600 3.34800 30.77700
C  29.72000 3.67600 28.43000
C  30.62100 4.13300 31.81700
O  29.47500 4.51800 32.09200
C  31.66100 3.98100 32.88600
C  31.85600 5.21700 33.65600
O  32.33000 6.24400 33.28000
O  31.24700 5.07100 34.88200
C  31.34100 6.20300 35.81400
H  38.31000 2.42600 32.93200
H  38.25700 2.31600 26.46400
H  31.71800 2.64200 26.67000
H  34.38400 4.32900 34.58100
H  36.50200 2.24600 34.76900
H  37.40400 4.78800 33.73000
H  38.14100 3.79700 34.95500
H  36.78400 4.87900 35.43600
H  34.40700 1.23000 34.91000
H  32.89200 1.96800 34.48000
H  34.06700 1.49200 36.90300
H  32.65700 2.49000 36.63800
H  40.43100 1.71000 32.37000
H  41.41700 2.45800 31.06400
H  41.11500 0.78300 30.99000
H  42.33500 2.71400 29.09900
H  42.67400 1.99400 27.68300
H  42.28900 0.89700 28.97900
H  36.17800 1.47400 24.77800
H  33.61100 2.64900 24.82600
H  36.40100 3.56900 23.64700
H  36.63600 4.34500 25.13200
H  34.98800 4.29000 24.55900
H  34.73100 -0.10800 25.37400
H  33.65400 0.41800 23.96800
H  32.07400 0.60300 26.13600
H  33.04500 -0.99000 26.41100
H  32.05000 -0.81100 25.06300
H  29.78300 3.57200 27.34700
H  29.38700 4.70200 28.58600
H  28.93200 3.01900 28.79700
H  31.34200 3.20900 33.58600
H  32.38000 6.53300 35.83900
H  31.01500 6.02400 36.83800
H  30.86100 7.09500 35.41100

