158

Mg 44.76600 4.34500 47.06500
C  43.27700 7.56000 46.32300
C  41.64200 2.99200 46.72000
C  46.24200 1.40900 46.84000
C  47.90700 5.93700 46.72700
N  42.78000 5.26500 46.59500
C  42.35600 6.48700 46.23900
C  40.93100 6.56100 45.81000
C  40.34000 5.13300 46.33900
C  41.63200 4.40800 46.74600
C  39.31300 5.05100 47.55900
C  40.98500 6.74500 44.24800
C  40.47800 8.05500 43.59400
H  39.29500 7.87600 42.65000
N  44.06200 2.44300 46.69800
C  42.75000 2.05200 46.68400
C  42.67200 0.60900 46.35300
C  44.01100 0.21000 46.21200
C  44.82100 1.31300 46.63200
C  41.47800 -0.19600 46.12200
C  44.57400 -1.13200 45.78100
O  43.77900 -1.97300 45.38100
C  46.04300 -1.55100 45.90900
N  46.77500 3.75500 46.68200
C  47.13800 2.49500 46.91400
C  48.63700 2.23800 46.89100
C  49.23200 3.73000 46.65400
C  47.87500 4.52700 46.64300
C  49.26000 1.47700 48.05200
C  49.93300 3.80500 45.32900
C  51.19800 4.74200 45.25500
N  45.48100 6.36500 46.93200
C  46.78300 6.79200 46.80700
C  46.75800 8.28900 46.71500
C  45.42900 8.62400 46.66200
C  44.65600 7.42700 46.70100
C  47.95700 9.13400 46.68900
C  44.43600 9.68800 46.46700
O  44.61200 10.86700 46.31700
C  42.95700 9.04700 46.26900
C  42.02800 9.57800 47.21700
O  41.66500 9.04300 48.29700
O  41.55700 10.84700 46.76500
C  40.83800 11.68300 47.76300
H  40.63700 2.57200 46.79700
H  46.80700 0.48600 46.98100
H  48.90600 6.37900 46.73400
H  40.49500 7.41400 46.33000
H  39.89700 4.61100 45.49000
H  39.71400 4.67800 48.50200
H  38.48900 4.39600 47.27500
H  38.82400 6.01400 47.70300
H  40.30300 6.01200 43.81700
H  41.96600 6.56600 43.80800
H  41.30500 8.41500 42.98300
H  40.21100 8.67800 44.44800
H  41.75700 -1.06000 46.72400
H  41.45100 -0.49900 45.07500
H  40.62100 0.37400 46.48000
H  46.70100 -0.81900 45.44100
H  46.17900 -2.56500 45.53300
H  46.16000 -1.58300 46.99200
H  48.81400 1.54400 46.06900
H  49.74500 4.16300 47.51200
H  48.60000 1.31400 48.90500
H  50.16400 1.99300 48.37400
H  49.42200 0.45300 47.71500
H  49.21400 4.19400 44.60800
H  50.20600 2.76900 45.13000
H  52.03400 4.23400 45.73600
H  51.01100 5.67900 45.78000
H  51.48000 4.82200 44.20500
H  47.64500 10.01900 47.24400
H  48.07800 9.46200 45.65700
H  48.89300 8.71000 47.05000
H  42.52400 9.30900 45.30400
H  39.78000 11.42300 47.77900
H  40.93900 12.76200 47.64300
H  41.36500 11.57600 48.71100
Mg 10.27400 48.78900 25.05900
C  8.24900 48.83000 27.84300
C  12.63600 50.29100 26.79900
C  12.27400 48.59000 22.26700
C  7.46600 48.01500 22.97000
N  10.39300 49.54000 27.09400
C  9.54100 49.28700 28.11300
C  10.11600 49.75700 29.42300
C  11.34900 50.56200 28.97800
C  11.48000 50.16500 27.50100
C  11.28900 52.11100 29.23100
C  10.31700 48.50500 30.43100
C  9.67600 48.58500 31.87400
H  10.37700 49.43500 32.93100
N  12.15600 49.43500 24.59200
C  12.98600 49.91200 25.53700
C  14.39900 49.85600 25.03400
C  14.35300 49.32600 23.72500
C  12.93700 49.15200 23.49300
C  15.54400 50.26000 25.95000
C  15.42000 49.01700 22.76500
O  15.16000 48.72000 21.60000
C  16.88200 49.11800 23.15500
N  9.87100 48.58100 22.86000
C  10.91500 48.39400 21.96500
C  10.40900 47.77900 20.63400
C  8.91000 47.40900 20.98800
C  8.68500 48.11400 22.33100
C  10.72700 48.61500 19.39800
C  8.65400 45.80900 21.06200
C  9.37100 45.03400 22.23300
N  8.23300 48.58600 25.26900
C  7.25500 48.20300 24.34800
C  5.99000 48.05400 25.10200
C  6.39100 48.32500 26.45700
C  7.72500 48.66600 26.53900
C  4.66600 47.64100 24.66200
C  5.82300 48.35800 27.81100
O  4.69700 48.15500 28.24000
C  7.10500 48.70000 28.80300
C  7.15800 47.51100 29.72800
O  7.38100 46.34300 29.40600
O  6.74000 47.81300 30.99800
C  6.62800 46.59700 31.87500
H  13.46600 50.62800 27.42400
H  12.97400 48.23900 21.50500
H  6.74500 47.50200 22.33000
H  9.31900 50.39500 29.80400
H  12.18500 50.09500 29.49700
H  10.25300 52.32500 29.49300
H  11.48400 52.60100 28.27700
H  11.96000 52.36600 30.05200
H  11.32400 48.48600 30.84900
H  10.22000 47.51900 29.97700
H  9.34700 47.60300 32.21400
H  8.84800 49.21900 31.55800
H  16.40200 49.59900 25.83200
H  15.39700 50.24100 27.03000
H  15.88100 51.27700 25.74700
H  17.05400 50.05000 23.69500
H  17.41400 48.94000 22.22100
H  17.09200 48.25300 23.78300
H  11.00100 46.86500 20.58500
H  8.25900 47.82000 20.21700
H  9.80000 48.82700 18.86600
H  11.40800 48.12000 18.70500
H  11.23000 49.50100 19.78400
H  9.08000 45.27800 20.21200
H  7.58100 45.64900 20.96000
H  8.56600 44.78800 22.92600
H  10.14200 45.62300 22.72900
H  9.86700 44.16000 21.81000
H  4.06000 47.20800 25.45800
H  4.93200 46.87800 23.93000
H  4.04100 48.40700 24.20300
H  7.02200 49.58100 29.44000
H  5.80800 45.96600 31.53400
H  6.38000 46.94700 32.87700
H  7.54500 46.02100 32.00100

