158

Mg 40.85300 9.48200 29.96700
C  42.65200 10.88900 32.60500
C  38.72500 8.03500 32.26200
C  39.45100 7.81200 27.45500
C  43.45200 10.50800 27.69000
N  40.77000 9.55100 32.20600
C  41.57600 10.12300 33.11500
C  41.24800 9.82700 34.56800
C  39.99400 8.81800 34.48000
C  39.80800 8.72600 32.88400
C  40.25800 7.39300 35.11000
C  40.92000 11.11700 35.31000
C  41.55500 11.38600 36.68800
H  40.73500 12.06200 37.66100
N  39.19200 8.35500 29.87000
C  38.42700 7.82900 30.88800
C  37.27300 7.30700 30.31500
C  37.37500 7.36200 28.88300
C  38.72800 7.87000 28.67600
C  36.20100 6.70700 31.20300
C  36.45500 7.02000 27.84900
O  36.63500 7.20600 26.63900
C  35.17200 6.49200 28.32200
N  41.44600 9.12900 27.87200
C  40.61600 8.38200 27.07300
C  41.21200 8.36400 25.63800
C  42.36500 9.47900 25.66900
C  42.43800 9.71700 27.12600
C  41.54400 6.93300 25.08600
C  42.09000 10.72100 24.78400
C  41.68300 12.08400 25.42400
N  42.69300 10.34200 30.06000
C  43.62200 10.75100 29.11500
C  44.69100 11.40100 29.77200
C  44.26000 11.58100 31.06200
C  43.12300 10.91500 31.28200
C  45.87700 11.98600 29.07800
C  44.62800 12.22600 32.28800
O  45.57300 12.97300 32.58700
C  43.58700 11.67300 33.38500
C  44.32300 10.97300 34.41900
O  44.75000 9.82300 34.54100
O  44.62000 11.97100 35.37100
C  45.34000 11.46300 36.60600
H  38.11600 7.49800 32.99200
H  38.92200 7.34700 26.62100
H  44.25300 10.76600 26.99400
H  42.16600 9.46700 35.03100
H  39.10600 9.26400 34.92800
H  41.13200 7.23700 35.74200
H  40.24800 6.76000 34.22300
H  39.34100 7.30100 35.69200
H  39.85500 11.27100 35.48100
H  41.33700 11.92100 34.70400
H  42.34700 12.11000 36.49900
H  41.97100 10.46600 37.09700
H  36.24600 7.23000 32.15800
H  36.40300 5.63900 31.28100
H  35.18200 6.92000 30.87900
H  34.73500 5.87800 27.53400
H  34.56700 7.37500 28.53000
H  35.21600 5.86100 29.21000
H  40.42900 8.84100 25.04800
H  43.26800 8.96100 25.34400
H  41.13800 6.23800 25.82000
H  42.60600 6.69700 25.03000
H  40.89100 6.85300 24.21700
H  41.40200 10.48600 23.97200
H  42.96100 11.07900 24.23500
H  41.44600 11.91400 26.47400
H  40.85400 12.69200 25.06200
H  42.43000 12.86500 25.28400
H  45.46700 12.91600 28.68600
H  46.28500 11.27300 28.36100
H  46.68800 12.17900 29.78000
H  43.15700 12.53600 33.89500
H  44.78900 10.76300 37.23500
H  45.57400 12.37700 37.15300
H  46.30200 11.05300 36.29800
Mg 9.62000 47.43100 25.74200
C  7.29700 47.29100 28.53600
C  11.96600 48.37100 27.92800
C  11.63100 47.32700 23.13900
C  6.82900 46.90100 23.58000
N  9.57700 47.85000 28.05400
C  8.57400 47.59400 28.98000
C  9.13400 47.75900 30.41000
C  10.53900 48.34800 30.13800
C  10.70900 48.26100 28.59600
C  10.58400 49.86000 30.64700
C  9.02700 46.53000 31.35000
C  9.91400 46.40400 32.55500
H  9.27600 45.80700 33.86800
N  11.50300 47.94700 25.54200
C  12.29200 48.33100 26.59200
C  13.65500 48.53500 26.05500
C  13.58000 48.13200 24.63800
C  12.18800 47.76600 24.37500
C  14.93900 48.74000 26.85900
C  14.70900 48.08900 23.57900
O  14.43800 47.73900 22.45800
C  16.13000 48.39600 23.89200
N  9.24300 47.48200 23.62600
C  10.31100 47.28500 22.79500
C  9.69200 47.05000 21.32800
C  8.20000 47.05200 21.50800
C  8.07200 46.98200 22.98000
C  10.20400 48.16300 20.36400
C  7.60500 45.83600 20.74600
C  7.84300 45.76300 19.25600
N  7.52200 47.14300 25.97000
C  6.48200 46.97900 24.99200
C  5.21400 46.90000 25.66600
C  5.52100 47.00800 27.02400
C  6.91900 47.10400 27.18200
C  3.78500 46.80300 25.06000
C  4.92900 47.13000 28.28400
O  3.74300 47.11300 28.56700
C  6.01400 47.16000 29.32800
C  5.99300 45.91900 30.05100
O  6.48600 44.78700 29.75700
O  5.24300 46.14800 31.22600
C  4.97500 45.10300 32.19300
H  12.80100 48.62100 28.58600
H  12.19500 47.07100 22.23900
H  5.92800 46.89100 22.96300
H  8.55400 48.57800 30.83400
H  11.30000 47.82900 30.72100
H  10.45300 50.63800 29.89500
H  11.52000 50.06100 31.16800
H  9.83300 49.98900 31.42600
H  9.13300 45.63300 30.74000
H  7.99800 46.58900 31.70200
H  10.43100 47.32100 32.83900
H  10.61900 45.63100 32.24900
H  14.71500 48.72200 27.92600
H  15.49900 49.66400 26.71600
H  15.81200 48.11900 26.65800
H  16.45500 48.84300 22.95300
H  16.62800 47.53000 24.32700
H  16.10000 49.21300 24.61200
H  10.05500 46.04300 21.12200
H  7.72700 47.91100 21.03300
H  11.06400 48.59400 20.87700
H  9.43200 48.92700 20.26500
H  10.53900 47.81000 19.38900
H  6.53400 45.69400 20.89300
H  8.08800 44.95700 21.17200
H  7.77700 46.63800 18.60900
H  7.04600 45.11100 18.90000
H  8.79800 45.29200 19.02600
H  3.89000 46.50300 24.01800
H  3.10800 47.63100 25.26800
H  3.31200 46.07900 25.72400
H  5.87400 47.99400 30.01600
H  3.94400 44.77800 32.33300
H  5.37600 45.51700 33.11800
H  5.49300 44.16500 31.99300

