158

Mg 1.45000 -1.86200 45.40800
C  4.87300 -0.86000 44.88400
C  0.50000 0.76200 43.45500
C  -1.55600 -3.16300 45.48500
C  2.76300 -4.84800 46.74200
N  2.63700 -0.11900 44.36800
C  3.99300 -0.00200 44.21800
C  4.30000 1.25700 43.36100
C  2.85300 1.92000 43.21800
C  1.93800 0.77600 43.59500
C  2.72900 3.21700 44.07700
C  4.96500 0.81500 41.97400
C  6.45200 1.17200 41.66400
H  6.60100 1.61400 40.21400
N  -0.27500 -1.29100 44.54500
C  -0.49300 -0.13100 43.89000
C  -1.88600 0.01000 43.57000
C  -2.54000 -1.02000 44.28800
C  -1.47200 -1.87800 44.87000
C  -2.36400 1.26100 42.90500
C  -3.99200 -1.17800 44.32600
O  -4.76800 -0.45300 43.67600
C  -4.67800 -2.06400 45.24400
N  0.78700 -3.89200 45.63200
C  -0.56300 -4.08800 45.83000
C  -0.90200 -5.43200 46.52900
C  0.48300 -6.05900 46.71000
C  1.43100 -4.84100 46.29900
C  -1.73300 -5.31000 47.84800
C  0.81200 -7.30000 45.82100
C  1.51600 -8.45200 46.59600
N  3.42400 -2.69300 45.94400
C  3.72300 -3.92000 46.48400
C  5.19800 -3.96700 46.77600
C  5.67200 -2.77800 46.09300
C  4.55000 -2.03400 45.60000
C  6.03300 -5.07500 47.44400
C  6.81300 -2.15100 45.61800
O  8.02400 -2.45600 45.64400
C  6.41200 -0.84100 44.88600
C  6.83600 0.38600 45.67300
O  6.86400 0.52100 46.83100
O  7.22400 1.35300 44.75000
C  7.70500 2.62100 45.23900
H  0.25200 1.64900 42.86700
H  -2.55900 -3.55300 45.67000
H  3.10100 -5.74400 47.26800
H  4.97200 1.88800 43.94200
H  2.67200 2.28700 42.20700
H  3.72700 3.57200 44.33400
H  2.03700 3.18200 44.91900
H  2.21100 3.90500 43.40800
H  4.42700 1.16500 41.09200
H  4.88600 -0.26900 41.90200
H  6.96500 0.22000 41.80000
H  6.97400 1.94500 42.22900
H  -2.56300 1.96100 43.71700
H  -3.28700 1.08600 42.35400
H  -1.61500 1.59200 42.18500
H  -3.99700 -1.99400 46.09300
H  -4.74700 -3.06400 44.81600
H  -5.64400 -1.61600 45.47300
H  -1.46300 -6.01400 45.79800
H  0.56700 -6.26100 47.77800
H  -2.79300 -5.23000 47.60500
H  -1.45200 -4.44800 48.45400
H  -1.70800 -6.23200 48.42900
H  1.47400 -6.90900 45.04800
H  -0.11500 -7.65700 45.37000
H  0.98500 -9.38800 46.41900
H  1.55600 -8.36900 47.68200
H  2.51600 -8.45900 46.16400
H  6.19400 -5.90400 46.75500
H  5.56200 -5.49400 48.33300
H  7.08000 -4.85900 47.65400
H  6.87100 -0.90800 43.89900
H  8.15200 2.61700 46.23300
H  6.80900 3.24200 45.23600
H  8.29800 3.00500 44.40900
Mg 43.10900 41.74300 27.94700
C  42.31000 44.11100 30.42300
C  43.95000 39.56700 30.54700
C  44.35600 39.73800 25.67100
C  42.51700 44.21700 25.49200
N  42.92700 41.76700 30.15800
C  42.66500 42.84600 30.96300
C  42.57300 42.44500 32.41200
C  43.49000 41.25400 32.43200
C  43.41100 40.79000 30.96100
C  44.98700 41.44000 33.04300
C  41.15500 42.31800 33.08200
C  40.80100 43.35300 34.17300
H  40.39400 42.83500 35.58600
N  43.89000 39.82000 28.04400
C  44.12800 39.05500 29.23400
C  44.64700 37.77100 28.90700
C  44.84600 37.82100 27.49800
C  44.31100 39.11600 26.97300
C  44.93000 36.62300 29.94800
C  45.40300 36.73700 26.56200
O  45.42800 36.88900 25.32800
C  45.80700 35.36100 27.04500
N  43.53800 42.08700 25.85900
C  44.07400 41.00100 25.17500
C  44.19300 41.39600 23.67000
C  43.35000 42.66600 23.63800
C  43.12200 43.03300 25.06300
C  45.67300 41.43700 23.12300
C  41.98700 42.44800 22.85300
C  41.04300 41.35800 23.51100
N  42.53500 43.75500 27.88700
C  42.27500 44.61000 26.81000
C  41.73400 45.85000 27.27500
C  41.73000 45.71200 28.69500
C  42.23200 44.43700 28.97600
C  41.21200 46.92500 26.36000
C  41.37900 46.34000 29.95000
O  40.92000 47.41700 30.23100
C  41.61800 45.30900 31.10200
C  42.49100 46.05100 32.05800
O  43.62200 46.49700 31.82200
O  41.80200 46.38000 33.20900
C  42.49900 47.11200 34.18600
H  44.34900 38.86500 31.28300
H  44.82200 39.11900 24.90100
H  42.10600 44.86500 24.71500
H  43.11200 43.24500 32.92000
H  42.99600 40.40400 32.90100
H  45.67500 41.27300 32.21500
H  45.16100 40.73200 33.85300
H  45.17300 42.41700 33.48900
H  41.01500 41.24800 33.23500
H  40.51100 42.67500 32.27800
H  39.98400 44.00400 33.86100
H  41.64200 44.03300 34.30900
H  46.00100 36.49100 30.10100
H  44.62800 35.62300 29.63700
H  44.36300 36.80200 30.86200
H  46.41000 35.43600 27.95000
H  46.50400 35.01400 26.28300
H  44.91200 34.73900 27.04400
H  43.66500 40.64100 23.08800
H  43.87400 43.51900 23.20700
H  46.09900 42.43400 23.23600
H  45.69000 41.10000 22.08600
H  46.26500 40.76100 23.74000
H  42.21200 42.26500 21.80200
H  41.50600 43.42500 22.81800
H  40.70700 40.58400 22.82000
H  40.10900 41.72600 23.93400
H  41.65400 40.80500 24.22400
H  42.02900 47.34300 25.77100
H  40.72500 47.64600 27.01700
H  40.50300 46.56300 25.61500
H  40.67800 45.02500 31.57500
H  42.47200 46.51800 35.10000
H  42.04600 48.10100 34.25100
H  43.54600 47.33700 33.98300

