158

Mg 8.96800 3.02500 28.38500
C  10.58300 1.48700 31.11400
C  7.21900 4.94500 30.46000
C  7.55800 4.31900 25.60400
C  10.71500 0.75700 26.27900
N  8.79000 3.10900 30.57700
C  9.67400 2.51700 31.44400
C  9.36200 2.99500 32.90400
C  8.22800 4.03100 32.64700
C  8.03000 4.03500 31.12100
C  6.88700 3.89700 33.49800
C  10.65400 3.74000 33.48400
C  10.39600 4.57300 34.78800
H  11.33000 4.32900 36.02000
N  7.53600 4.42400 28.10400
C  6.93100 5.11800 29.08300
C  6.07500 6.13200 28.54700
C  6.08300 5.97600 27.10200
C  7.07900 4.84900 26.86200
C  5.22400 7.15400 29.37100
C  5.38600 6.75500 26.00800
O  5.42500 6.46800 24.83200
C  4.35500 7.77400 26.27900
N  9.02800 2.53000 26.31500
C  8.42300 3.26300 25.33000
C  8.89300 2.94000 23.85700
C  10.06900 2.09700 24.21700
C  9.95300 1.74000 25.68500
C  7.79200 2.31700 23.01200
C  11.50400 2.65800 23.95700
C  11.70600 4.17700 24.10800
N  10.34900 1.44300 28.53700
C  10.95100 0.58100 27.63400
C  11.89200 -0.39300 28.33900
C  11.71600 -0.01100 29.69400
C  10.89300 1.06800 29.73900
C  12.77400 -1.41500 27.72500
C  12.25700 -0.23800 31.02800
O  13.01700 -1.15500 31.40600
C  11.50600 0.67000 32.00400
C  10.73700 -0.12000 32.99200
O  9.78500 -0.91300 32.75200
O  11.23000 0.04100 34.30000
C  10.58400 -0.59200 35.44500
H  6.67900 5.63000 31.11600
H  7.14600 4.81500 24.72300
H  11.23100 0.12800 25.55100
H  9.02100 2.20400 33.57200
H  8.55300 5.07200 32.65400
H  6.18400 3.29400 32.92400
H  6.63300 4.90900 33.81400
H  7.05200 3.30600 34.39900
H  11.19300 4.32100 32.73700
H  11.31600 2.92800 33.78400
H  9.38600 4.32400 35.11400
H  10.51700 5.63600 34.58100
H  4.21900 6.73400 29.38500
H  5.08200 8.05600 28.77600
H  5.58500 7.23200 30.39700
H  3.82100 8.18800 25.42400
H  4.91900 8.63800 26.63100
H  3.58600 7.37000 26.93700
H  9.17800 3.85800 23.34200
H  9.98900 1.20500 23.59600
H  6.85100 2.40600 23.55400
H  7.95300 1.28900 22.68700
H  7.70700 3.04600 22.20500
H  11.74300 2.42300 22.92000
H  12.19900 2.25200 24.69100
H  12.63600 4.47400 24.59300
H  10.93400 4.64100 24.72200
H  11.57600 4.56400 23.09700
H  12.23100 -2.00800 26.98900
H  13.04400 -2.19600 28.43500
H  13.53600 -0.86900 27.16800
H  12.14600 1.26900 32.65200
H  9.99400 0.17600 35.94600
H  11.29600 -1.01300 36.15500
H  9.78600 -1.23700 35.07700
Mg 26.77500 50.59900 26.65900
C  24.75200 51.58400 29.19500
C  29.17200 49.81000 28.93600
C  28.80900 49.98600 24.11500
C  24.33500 51.58300 24.38000
N  27.00800 50.72300 28.90500
C  25.94200 51.03600 29.66100
C  26.37600 50.68000 31.19300
C  27.87100 50.25100 31.07900
C  28.01300 50.22700 29.57600
C  28.87500 51.19800 31.89200
C  25.40900 49.59500 31.81600
C  24.78200 49.99900 33.18600
H  24.99900 49.28900 34.49500
N  28.65100 49.89300 26.56300
C  29.50700 49.68200 27.57100
C  30.89500 49.46500 27.12300
C  30.82100 49.53100 25.68300
C  29.36600 49.85300 25.39800
C  32.15300 49.02100 27.90500
C  31.88500 49.37500 24.62100
O  31.53000 49.46500 23.49900
C  33.31000 49.08000 24.98100
N  26.64100 50.82200 24.50300
C  27.56000 50.28200 23.68400
C  27.03500 50.11200 22.23000
C  25.53600 50.48500 22.36400
C  25.45900 51.00900 23.82600
C  27.78200 51.14100 21.18900
C  24.58300 49.25100 22.08900
C  23.28100 49.54300 21.31600
N  25.06100 51.48700 26.73300
C  24.23600 51.91500 25.71300
C  23.02800 52.57300 26.25100
C  23.28700 52.48500 27.60400
C  24.47300 51.83200 27.83900
C  21.84700 53.03000 25.47400
C  22.63000 52.71000 28.89900
O  21.55300 53.17800 29.21100
C  23.61600 52.17300 30.01400
C  24.04300 53.24300 30.95000
O  24.80900 54.12200 30.62900
O  23.46900 53.16300 32.16600
C  23.76100 54.25300 33.17400
H  30.00000 49.61200 29.62000
H  29.36400 49.52900 23.29200
H  23.53300 51.80000 23.67100
H  26.17400 51.59700 31.74900
H  27.90800 49.20300 31.37800
H  28.33200 51.78500 32.63200
H  29.47200 51.70900 31.13600
H  29.48700 50.52500 32.49300
H  25.99900 48.68500 31.92700
H  24.61700 49.31800 31.12100
H  23.72900 49.88500 32.93000
H  24.83700 51.07300 33.36200
H  32.41600 48.01100 27.59300
H  32.02400 48.99900 28.98700
H  32.99000 49.63500 27.57300
H  33.28000 48.17300 25.58500
H  33.74000 49.94500 25.48600
H  33.84300 48.77600 24.08000
H  27.14200 49.04900 22.01100
H  25.34400 51.28500 21.64900
H  28.41400 51.70900 21.87200
H  27.14700 51.80800 20.60500
H  28.40700 50.45500 20.61700
H  24.28300 48.83400 23.05000
H  25.18200 48.65300 21.40200
H  23.06400 48.94900 20.42800
H  23.34400 50.61600 21.13500
H  22.44100 49.34200 21.98000
H  21.60600 52.31400 24.68900
H  22.08800 54.02200 25.09300
H  20.97100 53.12300 26.11600
H  23.03500 51.44100 30.57500
H  24.26300 53.70500 33.97200
H  22.78600 54.57300 33.54300
H  24.39100 55.05200 32.78500

