158

Mg 17.16500 -0.78500 28.41000
C  16.25100 1.29900 31.12700
C  18.94700 -2.78700 30.51000
C  18.29200 -2.52200 25.69300
C  15.39800 1.36700 26.37900
N  17.69100 -0.55500 30.51600
C  17.17800 0.26200 31.44400
C  17.57100 -0.14900 32.85700
C  18.71500 -1.19000 32.55400
C  18.56300 -1.56400 31.07500
C  20.15500 -0.63500 32.73700
C  16.39100 -0.83300 33.72800
C  16.15000 -0.06100 35.04900
H  17.32900 0.19900 35.99600
N  18.38900 -2.47500 28.13300
C  18.93000 -3.20900 29.18800
C  19.60300 -4.37500 28.64000
C  19.33300 -4.38400 27.22100
C  18.62400 -3.13200 26.92800
C  20.48300 -5.35500 29.45900
C  19.79000 -5.47900 26.15800
O  19.68400 -5.29300 24.95300
C  20.43300 -6.76500 26.62500
N  16.92200 -0.61200 26.42600
C  17.50300 -1.41000 25.44600
C  17.16300 -0.94300 23.98900
C  16.13900 0.16400 24.31100
C  16.12700 0.33000 25.80200
C  18.47900 -0.44600 23.32100
C  14.65800 -0.09500 23.70300
C  13.62500 -0.89800 24.55900
N  16.12900 0.97800 28.62000
C  15.43800 1.76100 27.70100
C  14.84600 2.88800 28.36900
C  15.07500 2.73900 29.69200
C  15.85800 1.56800 29.79600
C  14.00400 3.99300 27.71500
C  14.83800 3.31900 31.02400
O  14.21700 4.27500 31.39900
C  15.57700 2.35100 32.03700
C  16.53800 3.23900 32.77200
O  17.68100 3.55600 32.45600
O  15.92200 3.65600 33.94000
C  16.58600 4.44100 34.93000
H  19.33700 -3.51900 31.22100
H  18.62200 -3.15100 24.86400
H  14.94000 2.12700 25.74200
H  17.96100 0.74300 33.34800
H  18.70700 -2.15400 33.06300
H  20.21000 0.29100 33.30900
H  20.68100 -0.42800 31.80500
H  20.70800 -1.39400 33.29000
H  16.61600 -1.89400 33.83100
H  15.50900 -0.70200 33.10200
H  15.43200 -0.62900 35.64100
H  15.75400 0.92200 34.79300
H  19.86500 -6.19700 29.77100
H  20.72900 -4.85600 30.39700
H  21.35600 -5.60200 28.85500
H  21.43000 -6.61300 27.03800
H  20.63100 -7.42100 25.77800
H  19.72600 -7.25300 27.29600
H  16.71900 -1.85600 23.59200
H  16.35000 1.13700 23.86700
H  19.31200 -0.59100 24.00900
H  18.43400 0.59600 23.00300
H  18.51600 -1.00700 22.38800
H  14.85700 -0.59100 22.75300
H  14.28800 0.89700 23.44600
H  13.88700 -1.13200 25.59100
H  13.38400 -1.82800 24.04500
H  12.72600 -0.28200 24.55100
H  13.16300 3.61200 27.13600
H  14.57900 4.59100 27.00700
H  13.71200 4.64900 28.53400
H  14.85200 1.86700 32.69300
H  16.03400 5.35500 35.14500
H  17.61100 4.64500 34.61800
H  16.61000 3.84200 35.84000
Mg 26.50400 1.04600 29.70300
C  28.44600 0.84700 32.44800
C  23.73900 1.77000 31.79600
C  24.42800 0.93500 27.09600
C  29.06800 -0.02600 27.73300
N  26.18700 1.41800 31.89000
C  27.14200 1.24700 32.83600
C  26.62600 1.56700 34.25100
C  25.11200 1.64500 34.01500
C  24.95100 1.55600 32.46000
C  24.26800 0.61800 34.83300
C  27.30300 2.90800 34.73400
C  28.08800 2.98900 36.08800
H  27.44100 3.85300 37.12800
N  24.43600 1.33400 29.45300
C  23.54300 1.80400 30.40800
C  22.21700 1.88100 29.74500
C  22.41900 1.65700 28.38900
C  23.84400 1.28800 28.25900
C  20.96200 2.12600 30.50200
C  21.41200 1.75700 27.29100
O  21.63100 1.73600 26.06700
C  19.89700 1.89600 27.61600
N  26.69800 0.50600 27.70900
C  25.74000 0.56100 26.81200
C  26.18600 0.16700 25.38700
C  27.69300 0.02500 25.57200
C  27.82100 0.15700 27.10400
C  25.40100 -1.04900 24.85800
C  28.44200 1.07200 24.92400
C  28.71300 2.45700 25.63500
N  28.43100 0.68900 29.96600
C  29.43900 0.23500 29.06500
C  30.68900 0.06700 29.73700
C  30.35200 0.18300 31.14100
C  28.97800 0.63100 31.16800
C  32.00200 -0.36600 29.06800
C  30.79300 0.06300 32.50300
O  31.90800 -0.15200 32.87300
C  29.56700 0.51200 33.39400
C  29.33900 -0.56800 34.39600
O  28.56400 -1.46700 34.31000
O  30.19400 -0.39200 35.44900
C  30.03800 -1.19400 36.73400
H  22.97000 2.12000 32.48700
H  23.95600 1.00400 26.11400
H  29.95200 -0.29600 27.15200
H  26.91200 0.66200 34.78600
H  24.75200 2.62600 34.32400
H  23.49100 1.20300 35.32500
H  24.79900 0.01100 35.56700
H  23.70300 -0.00500 34.14000
H  26.61800 3.74900 34.62000
H  28.05100 3.21900 34.00400
H  29.09800 3.32200 35.85100
H  27.97600 1.97300 36.46800
H  20.40900 3.01200 30.19100
H  21.18300 2.19000 31.56700
H  20.42000 1.19800 30.32300
H  19.32200 1.81100 26.69400
H  19.85300 2.86900 28.10500
H  19.63700 1.23500 28.44300
H  25.85900 1.05900 24.85300
H  28.07600 -0.94300 25.24900
H  26.08600 -1.74900 24.38000
H  24.65400 -0.80200 24.10300
H  25.08400 -1.58300 25.75400
H  28.16000 1.21100 23.88000
H  29.46300 0.71900 24.77900
H  28.17700 2.61200 26.57100
H  28.43600 3.26000 24.95200
H  29.78200 2.57400 25.81400
H  32.04200 0.03400 28.05500
H  32.03500 -1.45500 29.02800
H  32.85000 0.05400 29.60900
H  29.84300 1.40200 33.95900
H  30.42600 -2.20500 36.61500
H  29.00400 -1.11200 37.06900
H  30.68400 -0.82800 37.53200

