158

Mg -11.97100 37.83800 42.13500
C  -10.07400 35.17900 41.04100
C  -9.60800 40.01200 40.60600
C  -14.12100 40.59300 42.51500
C  -14.27700 35.74000 43.37200
N  -10.14900 37.59300 40.82100
C  -9.53700 36.33300 40.61000
C  -8.22000 36.55000 39.86200
C  -8.01700 38.10000 40.04100
C  -9.31300 38.63700 40.59300
C  -6.81500 38.62600 40.85000
C  -8.33800 35.92700 38.39000
C  -7.23200 34.90300 37.89800
H  -6.46400 35.32400 36.61200
N  -11.82200 40.05400 41.74900
C  -10.71400 40.67300 41.16900
C  -11.07400 42.08700 41.00500
C  -12.39900 42.29800 41.69400
C  -12.88400 40.93000 42.00300
C  -10.08400 43.16400 40.36400
C  -13.00300 43.65600 41.89600
O  -12.50800 44.67100 41.37300
C  -14.24700 43.77100 42.65000
N  -13.91600 38.16500 42.74100
C  -14.57500 39.30200 42.96400
C  -16.01200 39.01500 43.52400
C  -15.85800 37.60200 44.10300
C  -14.63500 37.07000 43.32100
C  -16.52900 40.00000 44.48000
C  -17.07600 36.70300 44.01500
C  -17.40100 36.02600 45.40600
N  -12.23500 35.82400 42.26300
C  -13.17100 35.07700 42.82200
C  -12.86000 33.64100 42.81200
C  -11.65700 33.66500 42.04500
C  -11.36600 34.94600 41.76000
C  -13.67200 32.53500 43.30700
C  -10.67200 32.82000 41.45200
O  -10.51800 31.60300 41.42800
C  -9.65000 33.77800 40.75600
C  -8.29400 33.52400 41.36500
O  -7.33300 33.03600 40.82300
O  -8.40300 33.80600 42.76800
C  -7.14400 33.79500 43.50000
H  -8.84400 40.66800 40.18400
H  -14.87400 41.38100 42.58000
H  -14.86700 35.10200 44.03400
H  -7.47400 35.98500 40.42000
H  -7.80600 38.58800 39.09000
H  -6.10300 37.80000 40.86300
H  -7.18300 38.86400 41.84800
H  -6.33300 39.46800 40.35200
H  -8.46400 36.71000 37.64200
H  -9.26800 35.37400 38.26300
H  -7.74000 33.96700 37.66700
H  -6.49000 34.71800 38.67500
H  -9.37300 42.67400 39.69800
H  -9.67300 43.72500 41.20300
H  -10.71800 43.85900 39.81400
H  -15.00200 43.25400 42.05800
H  -14.58400 44.80500 42.71600
H  -14.17000 43.25000 43.60500
H  -16.71500 39.05500 42.69200
H  -15.66900 37.78300 45.16100
H  -17.41300 40.42700 44.00700
H  -15.78600 40.73200 44.79900
H  -16.86400 39.55200 45.41600
H  -16.99400 35.89200 43.29000
H  -17.99300 37.24100 43.77500
H  -18.45600 36.22000 45.60000
H  -16.76700 36.42600 46.19700
H  -17.13200 34.98000 45.25400
H  -13.05200 31.64800 43.43500
H  -14.45000 32.22500 42.60900
H  -14.07500 32.84600 44.27100
H  -9.53600 33.48000 39.71400
H  -6.61200 34.70500 43.22200
H  -6.58200 32.92100 43.16900
H  -7.46900 33.61700 44.52500
Mg -12.02400 16.16200 42.52600
C  -8.86000 14.69700 41.86900
C  -10.63100 19.11300 41.50300
C  -15.14800 17.42600 42.42200
C  -13.22800 12.98700 43.37800
N  -9.94200 16.78100 41.57700
C  -8.83000 16.04300 41.53200
C  -7.61100 16.85100 41.24700
C  -8.20200 18.25100 41.54500
C  -9.66400 18.07900 41.51900
C  -7.63000 18.73600 42.97300
C  -7.08500 16.76300 39.79600
C  -5.60700 16.32100 39.60900
H  -5.31700 15.16700 38.60300
N  -12.76700 17.99100 41.98300
C  -12.00900 19.10500 41.58300
C  -12.86700 20.14600 41.27700
C  -14.22400 19.82400 41.66300
C  -14.09800 18.38300 42.05100
C  -12.42100 21.39000 40.54900
C  -15.47600 20.74800 41.62800
O  -15.40800 21.92700 41.26600
C  -16.76200 20.25300 42.11000
N  -13.98700 15.32500 42.93800
C  -15.11400 16.06100 42.76500
C  -16.29700 15.20700 42.94700
C  -15.75700 13.72100 43.24100
C  -14.21200 14.00400 43.20400
C  -17.26800 15.65300 44.11800
C  -16.27900 12.70900 42.18000
C  -17.59400 12.12900 42.54800
N  -11.23900 14.20000 42.66100
C  -11.81100 13.03000 43.07600
C  -10.79400 11.96300 43.18000
C  -9.64200 12.57100 42.64300
C  -9.91600 13.92000 42.40900
C  -10.96100 10.53700 43.66300
C  -8.25500 12.31500 42.26200
O  -7.62900 11.29400 42.34500
C  -7.72600 13.66800 41.78700
C  -6.69500 14.03100 42.83400
O  -6.99100 14.11700 44.06200
O  -5.47600 14.25200 42.26400
C  -4.38000 14.78800 43.14000
H  -10.20600 20.11500 41.41500
H  -16.20200 17.71300 42.43500
H  -13.68900 12.04100 43.67100
H  -6.82700 16.61300 41.96600
H  -7.96100 18.99700 40.78800
H  -8.44600 18.47700 43.64800
H  -7.48600 19.81600 42.95300
H  -6.73600 18.24000 43.35100
H  -7.12200 17.69100 39.22500
H  -7.71400 16.06200 39.24900
H  -5.09200 16.12200 40.54900
H  -5.00900 17.19600 39.35400
H  -12.93000 21.47700 39.58900
H  -11.34400 21.55400 40.50500
H  -12.62800 22.25300 41.18200
H  -17.23600 19.53300 41.44300
H  -17.47100 21.08000 42.11300
H  -16.46300 19.87800 43.08900
H  -16.87900 15.36000 42.03800
H  -15.99200 13.35100 44.24000
H  -18.03600 16.33100 43.74400
H  -16.72000 16.17800 44.90000
H  -17.72800 14.78400 44.58800
H  -15.48700 11.98200 42.00300
H  -16.43900 13.28700 41.26900
H  -17.52200 11.44600 43.39400
H  -18.01800 11.55900 41.72200
H  -18.31300 12.93000 42.72100
H  -11.26700 10.47600 44.70700
H  -10.01800 10.06200 43.39300
H  -11.68800 9.91400 43.14100
H  -7.23500 13.74000 40.81600
H  -3.55900 14.07100 43.15200
H  -4.73300 14.96200 44.15700
H  -3.93700 15.74500 42.86600

