158

Mg 42.87300 4.27100 47.52600
C  40.38400 6.67600 46.96600
C  40.44600 1.86900 47.44100
C  45.18500 1.91400 47.05900
C  45.17300 6.74300 46.32800
N  40.69100 4.30500 47.16300
C  39.84800 5.34600 47.00000
C  38.37700 4.97000 46.74800
C  38.43100 3.43900 47.36800
C  39.96900 3.11800 47.30900
C  37.92900 3.35900 48.80200
C  37.90000 5.10400 45.26600
C  36.91300 6.24200 44.83500
H  37.36700 6.97800 43.59600
N  42.83400 2.15300 47.47500
C  41.75000 1.33800 47.50600
C  42.18500 -0.05300 47.36300
C  43.57400 -0.08300 47.31100
C  43.90800 1.33600 47.22700
C  41.20400 -1.11500 47.28000
C  44.48000 -1.27300 47.24800
O  43.98000 -2.40600 47.37000
C  45.96600 -1.24400 47.12200
N  44.93000 4.36500 46.67000
C  45.67700 3.22900 46.84700
C  47.14200 3.49000 46.37000
C  47.13600 5.09000 46.20800
C  45.68300 5.40900 46.37100
C  48.42200 3.02700 47.08800
C  47.75400 5.67700 44.93100
C  46.98400 5.86300 43.54200
N  42.83400 6.36500 47.09300
C  43.88100 7.24300 46.70300
C  43.34500 8.61200 46.69000
C  41.94000 8.45000 46.73900
C  41.72300 7.06600 47.01200
C  44.13900 9.81700 46.47200
C  40.74200 9.17000 46.78500
O  40.55500 10.39600 46.69000
C  39.64300 8.06600 46.83700
C  38.60500 8.34700 47.86900
O  38.73800 8.28700 49.11800
O  37.48000 8.92200 47.27000
C  36.64200 9.64100 48.24000
H  39.61000 1.17700 47.56200
H  45.91300 1.13500 46.82100
H  45.89700 7.48300 45.98200
H  37.75100 5.62400 47.35600
H  37.90100 2.69500 46.77400
H  37.44500 4.30200 49.05500
H  38.73800 3.11400 49.49000
H  37.23100 2.52200 48.83500
H  37.46700 4.13200 45.03100
H  38.79300 5.19400 44.64600
H  36.68400 7.01000 45.57300
H  35.97600 5.71800 44.64600
H  41.45600 -1.71000 46.40300
H  40.17800 -0.77300 47.14000
H  41.34200 -1.70700 48.18500
H  46.38800 -0.53500 47.83500
H  46.10600 -0.86700 46.10900
H  46.37600 -2.22000 47.38200
H  47.21300 3.14500 45.33800
H  47.67300 5.63100 46.98800
H  49.26700 2.98200 46.40000
H  48.40100 1.98800 47.41700
H  48.71600 3.72000 47.87600
H  48.60100 5.04800 44.65700
H  48.10800 6.67300 45.19900
H  45.93200 5.72900 43.79200
H  47.26100 5.08100 42.83500
H  47.32400 6.79600 43.09200
H  44.90100 9.75800 47.24800
H  43.67700 10.78800 46.65200
H  44.51000 9.85500 45.44700
H  39.11200 7.99100 45.88700
H  36.24300 8.85800 48.88400
H  35.82200 10.17300 47.75600
H  37.09500 10.42400 48.84900
Mg 41.12400 8.44600 29.89100
C  42.23200 9.92700 32.82000
C  38.44600 7.13200 31.75100
C  40.20100 6.77000 27.25900
C  44.00600 9.72000 28.25700
N  40.45300 8.46000 32.10800
C  41.01500 9.24400 33.00900
C  40.16000 9.40800 34.27700
C  39.04400 8.29000 34.04400
C  39.30600 7.89400 32.53600
C  39.21600 7.07300 35.11100
C  39.64500 10.84800 34.58100
C  39.36900 11.08100 36.07000
H  40.34800 11.87300 36.84600
N  39.48900 7.18800 29.53800
C  38.52500 6.78000 30.36700
C  37.63600 5.83300 29.64300
C  38.09200 5.80900 28.28600
C  39.29800 6.56700 28.28200
C  36.42700 5.19100 30.34700
C  37.55600 5.02700 27.10400
O  38.05400 5.11200 26.01500
C  36.32100 4.17000 27.27200
N  42.04300 8.18800 28.06100
C  41.43200 7.44100 27.08600
C  42.39900 7.32900 25.87600
C  43.50400 8.37800 26.17000
C  43.11800 8.88900 27.54700
C  42.88500 5.85000 25.66300
C  43.62700 9.40100 25.08200
C  42.63500 10.54200 25.05600
N  42.77700 9.54200 30.39800
C  43.81500 10.03800 29.59300
C  44.67600 10.97900 30.37900
C  44.12100 10.85900 31.64300
C  42.94100 10.03500 31.63100
C  45.88300 11.78500 29.90600
C  44.29600 11.29800 33.05500
O  45.11400 12.01800 33.52700
C  43.07700 10.70300 33.85300
C  43.60400 9.85900 34.93100
O  43.83900 8.66400 34.72600
O  43.63800 10.44400 36.16100
C  43.76800 9.44200 37.23200
H  37.51100 6.78500 32.19300
H  39.97400 6.18400 26.36600
H  44.74000 10.29300 27.68700
H  40.80300 9.06100 35.08600
H  38.02700 8.67900 34.02000
H  38.24200 6.76700 35.49400
H  39.87500 7.19800 35.97000
H  39.49700 6.13700 34.62700
H  38.67800 10.97300 34.09400
H  40.24800 11.55800 34.01500
H  39.21600 10.10700 36.53500
H  38.39200 11.54600 36.20500
H  36.76400 4.99400 31.36500
H  36.09100 4.24500 29.92300
H  35.52400 5.78800 30.46700
H  36.01900 3.93600 26.25100
H  35.57000 4.70300 27.85500
H  36.65000 3.23800 27.73100
H  41.87500 7.64200 24.97300
H  44.49800 7.95800 26.32300
H  42.50100 5.26600 26.50000
H  43.95900 5.72700 25.53100
H  42.38100 5.48200 24.76900
H  43.69300 8.83600 24.15200
H  44.59300 9.90300 25.12600
H  42.22200 10.71700 26.04900
H  41.83300 10.50500 24.31900
H  43.06600 11.50400 24.77800
H  45.63600 12.49200 29.11400
H  46.66900 11.17400 29.46200
H  46.35400 12.23700 30.77900
H  42.46400 11.49300 34.28500
H  42.96000 8.71700 37.33000
H  43.80500 10.04500 38.14000
H  44.76700 9.02000 37.12500

