158

Mg 0.29600 8.08400 26.03200
C  1.00400 10.05900 28.96200
C  0.65600 5.27200 28.11100
C  -0.11800 6.18300 23.34200
C  0.74700 10.94100 24.02900
N  0.68600 7.67500 28.37600
C  0.71000 8.66400 29.26900
C  0.54400 8.10400 30.67600
C  0.81200 6.57700 30.37800
C  0.75700 6.46300 28.84500
C  2.18300 5.90700 30.88200
C  -0.85500 8.48000 31.33500
C  -1.09800 8.53300 32.83900
H  0.02400 8.30300 33.79800
N  0.22200 5.98400 25.76600
C  0.40800 4.99600 26.72200
C  0.35400 3.66400 26.09400
C  0.03600 3.91600 24.70700
C  0.08100 5.39200 24.50000
C  0.52700 2.35600 26.78900
C  -0.37600 2.98500 23.62500
O  -0.62600 3.35900 22.48900
C  -0.38000 1.49100 23.92200
N  0.14400 8.54700 24.02000
C  -0.10000 7.58100 23.09900
C  -0.05200 8.20600 21.65300
C  -0.12800 9.71600 21.92300
C  0.26600 9.76200 23.43200
C  1.11000 7.80700 20.72900
C  -1.51000 10.36100 21.59400
C  -1.41500 11.53500 20.71800
N  0.88500 10.12800 26.31100
C  1.04100 11.11000 25.42400
C  1.40900 12.31500 26.20300
C  1.33300 11.94700 27.56900
C  0.99500 10.61200 27.59300
C  1.59000 13.64800 25.57800
C  1.41100 12.44700 28.90200
O  1.65600 13.59500 29.29400
C  1.20100 11.27400 29.90100
C  2.36200 11.18800 30.79900
O  3.51100 10.91200 30.47500
O  1.94500 11.50900 32.08000
C  2.85200 11.62100 33.25200
H  0.92600 4.36500 28.65700
H  -0.35600 5.64800 22.42000
H  0.75900 11.89400 23.49600
H  1.36800 8.53000 31.24900
H  0.00200 5.97400 30.78800
H  2.86900 6.51200 31.47500
H  2.72700 5.54900 30.00800
H  1.93100 5.06200 31.52300
H  -1.57600 7.81000 30.86800
H  -1.04500 9.51600 31.05300
H  -1.93500 7.85800 33.02000
H  -1.47600 9.52500 33.08600
H  0.98600 2.45900 27.77300
H  1.23000 1.77200 26.19500
H  -0.39100 1.80200 26.98500
H  0.66400 1.17800 23.96200
H  -0.80100 0.99100 23.05000
H  -1.15500 1.24800 24.64800
H  -0.96600 7.85700 21.17300
H  0.62500 10.27400 21.36600
H  2.05000 7.85400 21.27900
H  1.17200 8.59300 19.97700
H  0.86900 6.80100 20.38700
H  -2.18100 10.47600 22.44500
H  -2.04900 9.58700 21.04700
H  -1.45600 11.35300 19.64400
H  -0.45500 11.98500 20.97200
H  -2.27100 12.15500 20.98100
H  0.65900 13.92900 25.08700
H  2.23900 13.57600 24.70500
H  1.87000 14.46300 26.24500
H  0.34400 11.40500 30.56100
H  3.18100 12.65700 33.32900
H  3.68700 10.94000 33.08900
H  2.31300 11.34100 34.15700
Mg 0.53400 42.45700 26.23900
C  1.83300 42.41800 29.51700
C  -2.28400 41.12700 27.37800
C  -0.21500 41.64800 23.11200
C  3.97800 43.09800 25.15500
N  -0.06300 41.77800 28.17100
C  0.48100 42.02600 29.40300
C  -0.45400 41.87200 30.58500
C  -1.72900 41.21800 29.89800
C  -1.38600 41.36300 28.37400
C  -1.97400 39.66400 30.15300
C  -0.80800 43.29800 31.21600
C  -0.50000 43.49400 32.75000
H  -0.71000 42.37500 33.74700
N  -1.14400 41.71900 25.34100
C  -2.26400 41.20600 26.00900
C  -3.28300 40.94100 25.00700
C  -2.61000 41.01200 23.70500
C  -1.27300 41.49500 23.97800
C  -4.69300 40.50300 25.46300
C  -3.22700 40.55800 22.34000
O  -2.59300 40.71300 21.33000
C  -4.71100 40.24300 22.30600
N  1.79700 42.27600 24.44700
C  1.13700 42.05700 23.27000
C  2.05700 42.37200 22.08800
C  3.22900 43.21100 22.71800
C  2.98300 42.87000 24.22300
C  2.32800 41.11200 21.17700
C  3.27200 44.81200 22.45700
C  4.11600 45.16700 21.21400
N  2.50700 42.76300 27.13200
C  3.76000 43.11100 26.56100
C  4.74400 43.17400 27.62500
C  4.07100 42.94200 28.84500
C  2.69700 42.68400 28.44400
C  6.19900 43.43300 27.54700
C  4.16900 42.88000 30.26800
O  5.13000 43.03600 31.03000
C  2.68500 42.68900 30.71900
C  2.83900 41.56600 31.64300
O  3.00200 40.39100 31.30300
O  3.01000 42.00700 32.95400
C  3.25000 40.94800 33.97400
H  -3.21000 40.80500 27.85800
H  -0.42300 41.33800 22.08600
H  4.95900 43.43400 24.81200
H  0.07300 41.28200 31.33500
H  -2.66900 41.74100 30.07600
H  -1.61900 39.35700 31.13700
H  -1.52600 39.04400 29.37700
H  -3.03800 39.44700 30.04800
H  -1.87600 43.44800 31.05200
H  -0.31800 44.09000 30.65000
H  -1.02300 44.37600 33.12000
H  0.57700 43.63700 32.82900
H  -4.88600 40.85900 26.47500
H  -4.66500 39.41300 25.47100
H  -5.54300 40.98700 24.98200
H  -4.93600 39.39900 22.95800
H  -4.97600 39.88000 21.31300
H  -5.32500 41.08000 22.63800
H  1.58000 43.13500 21.47400
H  4.15200 42.72100 22.40900
H  1.99700 40.27000 21.78500
H  3.37700 41.05700 20.88500
H  1.78800 41.21800 20.23600
H  3.55100 45.41400 23.32200
H  2.27200 45.09000 22.12200
H  3.53500 45.73300 20.48600
H  4.56400 44.26500 20.79700
H  4.88300 45.83900 21.59900
H  6.38100 44.48900 27.74500
H  6.65500 43.12300 26.60600
H  6.77400 42.87400 28.28600
H  2.33600 43.56400 31.26700
H  2.92700 39.96700 33.62500
H  2.66300 41.07300 34.88400
H  4.29600 40.79100 34.23700

