158

Mg 25.66400 0.13000 29.18700
C  27.77700 -0.64700 31.95600
C  23.06800 0.59300 31.24800
C  23.90500 0.45000 26.49900
C  28.50400 -0.87600 27.17200
N  25.51500 0.02400 31.31800
C  26.48900 -0.22300 32.33100
C  25.96600 -0.07600 33.76900
C  24.47500 0.38000 33.43000
C  24.30600 0.30800 31.90100
C  23.39900 -0.27900 34.29000
C  26.77600 1.00700 34.65300
C  27.48100 0.56200 35.85000
H  27.36400 1.45900 37.06900
N  23.78700 0.51200 28.88700
C  22.83200 0.74200 29.84400
C  21.56300 1.05300 29.17900
C  21.88000 1.23200 27.81500
C  23.22800 0.67000 27.65300
C  20.26200 1.31200 30.04000
C  21.06000 1.75900 26.64300
O  21.48000 1.94000 25.50900
C  19.59900 1.94400 26.89800
N  26.19100 -0.06700 27.11200
C  25.22300 0.17300 26.18200
C  25.78000 0.02600 24.71500
C  27.30600 -0.09600 24.99100
C  27.37400 -0.32100 26.51600
C  25.02700 -1.09300 23.95400
C  28.17100 1.12700 24.50200
C  28.07100 2.45900 25.35200
N  27.65400 -0.92500 29.43900
C  28.68700 -1.18500 28.54600
C  29.87000 -1.72200 29.23800
C  29.53600 -1.54000 30.61200
C  28.21900 -0.96000 30.63500
C  31.14000 -2.27100 28.61000
C  30.04100 -1.66200 32.01500
O  31.14800 -1.98200 32.41900
C  28.82800 -1.09000 32.88700
C  28.48700 -2.12100 33.85600
O  27.61600 -2.93300 33.87400
O  29.37600 -1.98500 34.86000
C  29.13900 -2.74400 36.08800
H  22.19700 0.83400 31.86000
H  23.28300 0.73800 25.64800
H  29.32500 -1.19600 26.52700
H  25.82500 -1.01300 34.30600
H  24.33600 1.44400 33.61700
H  22.94100 -1.03000 33.64700
H  22.65200 0.50700 34.40400
H  23.70500 -0.69700 35.24900
H  26.05000 1.72500 35.03400
H  27.42000 1.58900 33.99400
H  28.51300 0.44700 35.51900
H  26.99600 -0.38900 36.06800
H  20.00700 2.37100 30.01100
H  20.33300 0.83500 31.01700
H  19.44000 0.82300 29.51800
H  19.15100 2.12300 25.92000
H  19.67500 2.90600 27.40600
H  19.15500 1.08200 27.39400
H  25.68600 0.95400 24.15100
H  27.60500 -1.05100 24.55900
H  24.09000 -1.12700 24.50900
H  25.54500 -2.05000 24.01200
H  24.66600 -0.92000 22.94000
H  27.93500 1.42700 23.48100
H  29.18400 0.75200 24.65100
H  27.35200 2.40500 26.16900
H  27.70600 3.22600 24.66900
H  29.02200 2.82900 25.73500
H  32.04900 -1.94700 29.11700
H  31.12800 -2.02200 27.54800
H  31.07300 -3.35100 28.47900
H  29.20600 -0.23600 33.45000
H  29.37000 -3.80300 35.97500
H  28.08400 -2.90600 36.30900
H  29.60000 -2.29500 36.96700
Mg 25.70000 51.46400 25.83200
C  23.29100 52.10200 28.25400
C  27.96200 50.57600 28.17600
C  27.80900 51.02400 23.36800
C  23.38100 52.90900 23.46400
N  25.70800 51.43300 28.02900
C  24.60000 51.52000 28.75700
C  24.92200 51.13200 30.18800
C  26.41800 50.81900 30.27100
C  26.76500 50.99400 28.77800
C  27.22500 51.68800 31.24600
C  23.89900 50.02300 30.76800
C  22.96200 50.46000 31.90400
H  23.30800 49.91800 33.32500
N  27.65100 50.87300 25.74700
C  28.42500 50.57900 26.81700
C  29.72600 50.15400 26.41800
C  29.77100 50.28600 24.98600
C  28.37200 50.69600 24.62600
C  30.83100 49.69400 27.37200
C  30.89900 49.99700 23.97900
O  30.74200 50.18500 22.79900
C  32.18500 49.43600 24.49800
N  25.61800 52.13100 23.71300
C  26.65100 51.76200 22.96700
C  26.39300 52.17200 21.44000
C  24.86000 52.61700 21.49800
C  24.61600 52.61700 22.98600
C  27.33700 53.28400 21.02000
C  23.86400 51.68600 20.66200
C  23.15400 52.36800 19.44600
N  23.74400 52.27600 25.80900
C  22.96500 52.79200 24.77000
C  21.68900 53.26100 25.27400
C  21.76200 53.03000 26.64000
C  23.05500 52.45100 26.92600
C  20.59900 53.93600 24.48200
C  21.08600 53.15500 27.92300
O  19.99700 53.63200 28.16800
C  22.05400 52.48400 28.99700
C  22.26300 53.52600 30.04500
O  23.15900 54.37700 29.95600
O  21.42700 53.36300 31.11400
C  21.62100 54.33300 32.22300
H  28.60100 50.15300 28.95400
H  28.45000 50.82100 22.50800
H  22.60900 53.34400 22.82600
H  24.72300 52.06000 30.72400
H  26.65400 49.78000 30.50000
H  26.65800 52.31500 31.93400
H  27.94100 52.18700 30.59200
H  27.66500 50.91000 31.87000
H  24.45600 49.12600 31.03800
H  23.25900 49.71100 29.94300
H  21.91500 50.22600 31.71700
H  23.14500 51.53400 31.95400
H  31.02700 48.62600 27.28000
H  30.57400 49.98100 28.39200
H  31.74000 50.22700 27.09300
H  31.99500 48.52200 25.06100
H  32.66400 50.15600 25.16100
H  32.84000 49.16600 23.66900
H  26.59300 51.26300 20.87400
H  24.88200 53.64000 21.12400
H  28.05900 53.57300 21.78400
H  26.76200 54.11200 20.60600
H  28.04800 52.84200 20.32300
H  23.08600 51.31200 21.32800
H  24.28100 50.73300 20.33500
H  23.42100 51.86800 18.51500
H  23.49500 53.39400 19.30800
H  22.06500 52.32200 19.48100
H  20.87300 54.23800 23.47200
H  20.32400 54.90100 24.90900
H  19.69200 53.33200 24.49700
H  21.70800 51.53000 29.39500
H  20.93900 53.95100 32.98300
H  21.40900 55.28500 31.73700
H  22.69300 54.29700 32.41800

