158

Mg 48.42900 14.23300 27.17400
C  46.59100 14.70500 30.09100
C  50.76200 16.30700 28.19000
C  49.85800 13.73700 24.18100
C  45.43900 12.51400 25.77000
N  48.55600 15.42200 28.93500
C  47.75600 15.44600 30.10200
C  48.41300 16.23100 31.25300
C  49.47800 17.02500 30.38200
C  49.68200 16.22100 29.07200
C  49.14400 18.50300 30.25400
C  49.09900 15.25500 32.20500
C  48.74900 15.36300 33.66000
H  49.82600 15.09100 34.73300
N  50.10900 14.80600 26.42500
C  51.01700 15.63100 27.01900
C  52.20900 15.57600 26.23400
C  51.98200 14.87600 25.04300
C  50.56200 14.37700 25.17100
C  53.44800 16.31000 26.78900
C  52.80300 14.64800 23.85200
O  52.53100 14.04500 22.81400
C  54.19600 15.26800 23.91800
N  47.75100 13.34000 25.19500
C  48.60800 13.19900 24.22600
C  47.98200 12.48600 22.99400
C  46.56600 12.05500 23.49900
C  46.57400 12.66100 24.90500
C  47.91200 13.46400 21.72900
C  46.20400 10.54000 23.40400
C  46.88700 9.51600 24.31800
N  46.46200 13.74400 27.75200
C  45.40900 12.95100 27.10400
C  44.41400 12.69700 28.09800
C  44.80700 13.40800 29.28000
C  46.04400 14.05100 29.02600
C  43.19900 11.81600 27.96300
C  44.41600 13.68500 30.67400
O  43.37700 13.38800 31.28800
C  45.58800 14.52500 31.14600
C  45.00500 15.84500 31.70400
O  44.03400 16.41400 31.25000
O  45.66400 16.17900 32.90400
C  44.93800 17.14200 33.76900
H  51.58700 16.98000 28.43100
H  50.24600 13.63200 23.16500
H  44.59600 11.90700 25.43400
H  47.71700 16.85500 31.81300
H  50.51200 16.95800 30.72300
H  48.68900 18.69700 29.28300
H  50.06500 19.08600 30.28400
H  48.45500 18.96000 30.96400
H  50.17500 15.38000 32.08400
H  48.92200 14.23700 31.85800
H  47.89000 14.77600 33.98600
H  48.39400 16.38200 33.81000
H  53.43800 16.33000 27.87900
H  53.43600 17.31400 26.36600
H  54.35900 15.81700 26.44900
H  54.92400 14.82900 24.60200
H  54.14100 16.34500 24.07800
H  54.62900 15.08500 22.93500
H  48.59300 11.60900 22.78200
H  45.82600 12.60500 22.91700
H  47.99800 14.52200 21.97500
H  46.97500 13.38900 21.17800
H  48.70800 13.24600 21.01700
H  46.40000 10.24500 22.37300
H  45.16800 10.29300 23.63300
H  47.52900 8.84700 23.74500
H  46.18800 9.03100 24.99900
H  47.54300 10.15800 24.90500
H  43.41700 10.76400 27.77600
H  42.69900 12.06900 27.02800
H  42.67700 11.91100 28.91500
H  45.95400 13.89900 31.95900
H  43.87600 17.30900 33.59100
H  45.43100 18.11400 33.76500
H  45.10800 16.76900 34.78000
Mg 30.12100 58.42500 40.56000
C  27.26400 56.46500 39.97200
C  31.91600 55.54300 39.97100
C  32.82700 60.34800 40.40300
C  28.04000 61.27100 40.69300
N  29.49600 56.24100 40.04200
C  28.36400 55.68300 39.82000
C  28.53700 54.17600 39.39000
C  29.99300 53.86100 39.84400
C  30.52000 55.28700 39.94000
C  30.12600 52.97200 41.10300
C  28.27200 54.06200 37.82500
C  26.96800 53.51300 37.38600
H  26.14100 54.33100 36.38900
N  32.10000 57.98200 40.40200
C  32.66500 56.73200 40.22900
C  34.12900 56.90200 40.29900
C  34.39100 58.28500 40.62100
C  33.05700 58.97800 40.54300
C  35.13500 55.87200 39.91100
C  35.73900 58.84700 40.99800
O  36.75700 58.15500 40.97800
C  35.89200 60.32000 41.41600
N  30.38800 60.54300 40.47000
C  31.63700 61.10500 40.42400
C  31.62100 62.65500 40.48900
C  30.06200 62.95300 40.59800
C  29.43000 61.52400 40.68300
C  32.59600 63.28200 41.55600
C  29.47400 63.78500 39.46500
C  28.98400 65.16900 39.83300
N  28.04100 58.85500 40.48700
C  27.33400 60.04500 40.48600
C  25.91900 59.68100 40.35300
C  25.86400 58.31600 40.24800
C  27.18600 57.85200 40.22800
C  24.67400 60.60300 40.36800
C  24.91700 57.23100 40.09700
O  23.72700 57.31100 40.08900
C  25.86200 55.94700 39.89100
C  25.51500 54.99000 40.98700
O  25.31300 55.32500 42.15000
O  25.32100 53.72400 40.48200
C  24.92600 52.86200 41.56200
H  32.61400 54.70600 39.91000
H  33.72600 60.96700 40.39400
H  27.47800 62.18600 40.89200
H  27.78100 53.61800 39.94300
H  30.51800 53.24600 39.11300
H  30.45200 51.94900 40.91600
H  29.12600 52.92400 41.53600
H  30.71900 53.46000 41.87600
H  29.12800 53.47100 37.49800
H  28.32400 55.00900 37.28700
H  26.34300 53.38600 38.27000
H  27.28000 52.57100 36.93500
H  35.92900 56.34900 39.33800
H  34.62300 55.11000 39.32300
H  35.61600 55.44700 40.79300
H  36.86900 60.39100 41.89300
H  35.08800 60.68500 42.05600
H  35.96900 60.94300 40.52500
H  31.99800 62.91000 39.49900
H  29.93500 63.25900 41.63700
H  33.38200 63.87700 41.09000
H  33.15600 62.54800 42.13700
H  32.11300 63.91900 42.29700
H  28.55500 63.31700 39.11000
H  30.19900 63.82600 38.65200
H  29.02800 65.82100 38.95900
H  29.51700 65.63000 40.66400
H  27.95800 65.19800 40.20000
H  24.90600 61.33900 41.13800
H  23.80300 59.99800 40.62000
H  24.45900 61.13300 39.44000
H  25.53800 55.46900 38.96700
H  23.93800 53.16400 41.91000
H  25.59400 53.03300 42.40600
H  24.95100 51.79700 41.33100

