158

Mg 23.90000 -6.34600 46.54100
C  26.02300 -3.99300 45.13700
C  21.41900 -5.37000 44.42500
C  21.87400 -9.21400 47.18500
C  26.58200 -7.76600 48.12700
N  23.76700 -4.88600 44.94200
C  24.75600 -4.00800 44.56100
C  24.22500 -3.07400 43.55700
C  22.68000 -3.22700 43.67400
C  22.61700 -4.59000 44.36200
C  21.87400 -2.09400 44.40600
C  24.87900 -3.33400 42.17100
C  25.48400 -2.16000 41.42400
H  24.51000 -1.64200 40.34300
N  21.88800 -7.15500 45.98500
C  21.08200 -6.53600 45.07100
C  19.89700 -7.27600 44.77400
C  19.94300 -8.41100 45.66500
C  21.24500 -8.30300 46.31100
C  18.81900 -7.02000 43.64200
C  18.84600 -9.41200 45.77200
O  17.88400 -9.50600 45.01100
C  18.86500 -10.38500 46.95700
N  24.12800 -8.13800 47.63000
C  23.20400 -9.20100 47.79000
C  23.80100 -10.39100 48.57200
C  25.33800 -9.98200 48.72000
C  25.35700 -8.54500 48.13700
C  23.02400 -10.70500 49.89600
C  26.33800 -10.88500 48.10200
C  26.17600 -12.42700 48.38800
N  25.97900 -6.01500 46.67400
C  26.88400 -6.64600 47.43300
C  28.12000 -5.85100 47.33500
C  27.82600 -4.80300 46.51000
C  26.49500 -4.95300 46.07500
C  29.44100 -6.28300 48.05300
C  28.33200 -3.56900 45.98600
O  29.38300 -2.94300 46.28900
C  27.14400 -2.96600 45.00700
C  26.76500 -1.62100 45.43900
O  25.90600 -1.26500 46.23000
O  27.46100 -0.68800 44.71600
C  27.25800 0.72600 45.11000
H  20.55800 -4.88700 43.95800
H  21.40200 -10.19400 47.27400
H  27.42000 -8.22000 48.66100
H  24.50900 -2.08000 43.90300
H  22.24200 -3.17000 42.67700
H  22.49400 -1.67100 45.19600
H  20.92100 -2.43700 44.81000
H  21.68500 -1.29400 43.69100
H  24.27900 -3.86600 41.43300
H  25.62400 -4.11100 42.34200
H  26.43100 -2.35100 40.92000
H  25.62600 -1.32900 42.11500
H  19.27200 -6.42400 42.85100
H  18.02700 -6.39500 44.05500
H  18.35800 -7.89800 43.18900
H  17.82700 -10.59100 47.22100
H  19.30800 -9.87800 47.81400
H  19.40500 -11.26500 46.60700
H  23.73900 -11.30100 47.97500
H  25.53000 -9.89300 49.78900
H  21.98900 -10.78800 49.56400
H  23.30600 -9.97500 50.65400
H  23.22200 -11.66300 50.37600
H  27.33400 -10.60900 48.44700
H  26.36800 -10.66600 47.03400
H  26.17700 -13.02200 47.47500
H  25.23900 -12.66400 48.89200
H  26.97800 -12.82500 49.01100
H  29.25400 -6.03100 49.09700
H  30.34900 -5.78100 47.72000
H  29.55800 -7.36500 48.10600
H  27.63600 -2.90800 44.03600
H  27.52600 0.91900 46.14800
H  26.21800 1.04300 45.03300
H  27.78900 1.37500 44.41300
Mg 37.31100 50.38600 25.56300
C  37.56900 48.05700 28.43500
C  36.11100 52.71500 27.72000
C  36.53500 52.24600 22.90900
C  37.90800 47.58300 23.56800
N  36.96400 50.31000 27.80700
C  37.16400 49.37000 28.76000
C  36.95500 49.95900 30.19800
C  36.35600 51.36400 29.88100
C  36.54100 51.50500 28.33000
C  34.87700 51.59500 30.39200
C  38.35800 50.01600 31.03900
C  38.17200 49.73600 32.54300
H  36.77000 49.93400 33.19800
N  36.52600 52.23800 25.39100
C  36.04700 53.01200 26.36400
C  35.51700 54.24000 25.73800
C  35.74400 54.15900 24.28700
C  36.25500 52.87500 24.15600
C  34.90300 55.32500 26.57600
C  35.39500 55.16700 23.14300
O  35.69600 54.93900 21.98200
C  34.57900 56.41600 23.47300
N  37.12800 49.96900 23.53700
C  36.93400 50.92900 22.58500
C  37.01600 50.34900 21.17300
C  37.43500 48.85600 21.43600
C  37.45400 48.79300 22.94500
C  35.76200 50.59400 20.27900
C  38.72700 48.46000 20.63600
C  40.07900 48.73600 21.31900
N  37.84400 48.28700 25.87200
C  38.05100 47.31000 24.94500
C  38.39200 46.05900 25.58300
C  38.25000 46.34300 26.95100
C  37.86100 47.71000 27.08300
C  38.72000 44.74400 24.95100
C  38.28700 45.72900 28.25200
O  38.49600 44.57800 28.60400
C  37.93000 46.85800 29.28100
C  36.80800 46.51900 30.08200
O  35.63400 46.44100 29.75700
O  37.25900 46.02300 31.30400
C  36.23300 45.69500 32.34000
H  35.82900 53.50700 28.41600
H  36.44900 52.71000 21.92400
H  38.10200 46.77900 22.85500
H  36.22700 49.32300 30.70100
H  36.98300 52.06400 30.43400
H  34.41800 50.61200 30.49900
H  34.22000 52.00900 29.62700
H  34.80300 52.18700 31.30400
H  38.89800 50.95500 30.92200
H  39.09400 49.31000 30.65500
H  38.93200 50.26900 33.11300
H  38.43600 48.68900 32.68900
H  33.99200 55.79400 26.20500
H  35.54500 56.20400 26.62700
H  34.79100 54.95500 27.59500
H  33.59100 56.02700 23.71900
H  34.52300 57.10100 22.62800
H  35.02700 56.92400 24.32700
H  37.83800 50.76800 20.59100
H  36.60500 48.19000 21.20100
H  35.16700 49.69300 20.42800
H  35.94800 50.74500 19.21500
H  35.15600 51.47300 20.49800
H  38.76300 48.99400 19.68700
H  38.74800 47.37300 20.55500
H  40.59300 49.62600 20.95400
H  40.71600 47.86600 21.15800
H  40.16400 48.81600 22.40300
H  38.88900 43.95700 25.68700
H  39.60700 44.80000 24.32000
H  37.95000 44.36600 24.27800
H  38.82000 47.03400 29.88600
H  35.24600 45.82200 31.89500
H  36.12600 46.21500 33.29200
H  36.28400 44.63200 32.57500

