158

Mg 46.31900 24.56600 28.76800
C  47.49000 26.68300 31.29200
C  45.25000 22.42600 31.27900
C  45.98300 22.16500 26.47500
C  47.99000 26.56800 26.43800
N  46.26600 24.61500 30.93600
C  46.60300 25.71600 31.67800
C  46.02700 25.56400 33.11900
C  45.58300 24.03100 33.24500
C  45.70700 23.63800 31.78900
C  46.56600 23.18400 34.12800
C  44.92000 26.62700 33.42000
C  45.01500 27.38300 34.80800
H  45.82300 26.81200 36.02800
N  45.61400 22.57800 28.85300
C  45.16400 21.92000 30.00000
C  44.51800 20.69400 29.59500
C  44.71200 20.59700 28.12700
C  45.47800 21.84000 27.75000
C  43.72600 19.81000 30.65600
C  44.30700 19.52700 27.16000
O  44.52200 19.68000 25.90700
C  43.52900 18.25300 27.53900
N  46.95500 24.41100 26.78800
C  46.53700 23.32700 26.01900
C  46.89200 23.49800 24.58700
C  47.59700 24.93600 24.55300
C  47.46000 25.38600 25.96000
C  47.66300 22.37800 23.96400
C  46.70800 25.92400 23.69200
C  47.44900 26.85800 22.68000
N  47.44900 26.35900 28.81900
C  47.97500 27.04500 27.73400
C  48.55900 28.34300 28.25700
C  48.39800 28.27100 29.66400
C  47.74500 27.02200 29.92200
C  49.29400 29.35700 27.41600
C  48.59500 28.89800 30.97800
O  49.19100 29.96100 31.38400
C  47.99800 27.93400 32.05500
C  49.06600 27.72000 33.02800
O  50.01500 27.01300 32.82900
O  48.79500 28.42600 34.18200
C  49.89200 28.69100 35.07000
H  44.92700 21.68000 32.00900
H  45.88800 21.36800 25.73400
H  48.38700 27.18800 25.63100
H  46.78300 25.85400 33.84900
H  44.57000 23.97400 33.64300
H  47.07900 23.81800 34.85100
H  47.39000 22.66100 33.64300
H  45.96900 22.52100 34.75300
H  43.92400 26.18500 33.38900
H  44.95600 27.40400 32.65700
H  44.01800 27.40200 35.24900
H  45.37500 28.37900 34.55200
H  42.69100 19.69100 30.33600
H  43.65700 20.21600 31.66500
H  44.08400 18.80000 30.85800
H  43.16900 18.24400 28.56800
H  44.09800 17.33900 27.36800
H  42.62000 18.22200 26.93800
H  45.94800 23.52200 24.04200
H  48.62600 24.88500 24.19700
H  47.71400 21.51200 24.62400
H  48.67600 22.69100 23.71200
H  47.22800 22.19600 22.98100
H  46.23100 26.63700 24.36500
H  46.00300 25.28700 23.15700
H  48.21900 26.29100 22.15700
H  47.98900 27.67500 23.15800
H  46.64800 27.24600 22.05100
H  49.45000 30.20100 28.08800
H  48.57300 29.61900 26.64200
H  50.18000 28.80600 27.10300
H  47.25300 28.58200 32.51700
H  50.79200 28.11300 34.85600
H  49.59600 28.54500 36.10900
H  50.10200 29.75200 34.93700
Mg 9.56100 48.07000 26.18000
C  7.74300 48.25100 29.23100
C  12.41600 49.04600 27.77900
C  11.16700 47.99400 23.19400
C  6.54500 47.57800 24.54400
N  10.00900 48.61300 28.28700
C  9.15400 48.50600 29.32500
C  9.95400 48.86700 30.67300
C  11.23000 49.56300 30.14200
C  11.24300 49.06900 28.67200
C  11.27600 51.10700 30.11300
C  10.22000 47.63600 31.57700
C  10.03500 47.95400 33.10000
H  10.14200 46.76600 34.08300
N  11.54200 48.37300 25.64800
C  12.61500 48.74800 26.39700
C  13.77500 48.72700 25.60400
C  13.44300 48.37000 24.26300
C  11.93800 48.19800 24.33800
C  15.18600 48.99300 26.18700
C  14.36400 48.16100 23.01900
O  13.96100 47.87700 21.88500
C  15.80000 48.37200 23.18500
N  8.92800 48.05400 24.13400
C  9.76800 48.05800 23.05500
C  9.08400 47.77200 21.67400
C  7.68800 47.25500 22.21600
C  7.69500 47.59400 23.77800
C  8.89400 49.06200 20.80700
C  7.36800 45.77400 21.93000
C  6.51100 45.35400 20.72200
N  7.53600 47.85200 26.73000
C  6.42400 47.73200 25.90900
C  5.29500 47.45700 26.77100
C  5.74400 47.85200 28.05000
C  7.12400 47.95600 27.99900
C  3.98600 46.90400 26.39500
C  5.33900 47.95000 29.43300
O  4.24400 47.94700 29.97900
C  6.65700 48.11000 30.29500
C  6.77800 46.78900 30.96100
O  6.91500 45.69700 30.36000
O  6.57600 46.89300 32.30500
C  6.38000 45.60000 32.97600
H  13.27400 49.49800 28.28200
H  11.65300 47.75600 22.24500
H  5.63400 47.17400 24.09800
H  9.53000 49.66300 31.28500
H  12.14100 49.09200 30.51100
H  12.04600 51.57300 30.72900
H  10.34300 51.56200 30.44400
H  11.51800 51.37400 29.08400
H  11.23900 47.27400 31.43800
H  9.42100 46.91200 31.41800
H  8.98400 48.24300 33.13500
H  10.68400 48.73700 33.49200
H  15.09900 49.15900 27.26100
H  15.80800 49.77800 25.75700
H  15.81100 48.11600 26.02200
H  16.06200 49.25200 23.77400
H  16.22500 48.51200 22.19100
H  16.12300 47.48600 23.73300
H  9.54300 46.95700 21.11500
H  6.93600 47.89400 21.75200
H  9.70900 49.02000 20.08500
H  9.02700 49.84000 21.55900
H  7.92000 49.20800 20.33900
H  7.00300 45.43200 22.89800
H  8.30900 45.26500 21.71900
H  6.21100 46.28400 20.23800
H  5.64400 44.72600 20.92600
H  7.14800 44.88800 19.97100
H  3.93000 46.40100 25.43000
H  3.19500 47.65300 26.36800
H  3.74800 46.15300 27.14800
H  6.61000 48.91400 31.03000
H  6.12000 45.91100 33.98800
H  7.26300 44.96200 32.95800
H  5.46900 45.16100 32.56900

