158

Mg 49.75000 46.57000 42.40400
C  46.42400 46.98900 41.76700
C  49.39800 43.37100 40.66000
C  53.13500 46.14200 42.39500
C  50.15200 49.80300 43.33600
N  48.13800 45.36900 41.16200
C  46.88000 45.84000 41.07800
C  46.09900 45.01300 40.14100
C  46.98000 43.72400 39.86700
C  48.26900 44.17700 40.53600
C  46.32000 42.49400 40.48900
C  45.69800 45.71900 38.83500
C  44.11300 45.73700 38.54800
H  43.71000 45.66300 37.08300
N  51.03900 45.03800 41.77100
C  50.64800 43.76000 41.16800
C  51.77000 42.84600 41.34400
C  52.93300 43.66200 41.69600
C  52.39400 45.09000 41.95900
C  51.66600 41.33500 41.06300
C  54.35100 43.07000 41.76700
O  54.57800 41.83200 41.67300
C  55.51100 43.96000 41.97200
N  51.44300 47.77800 42.80000
C  52.74500 47.39600 42.77700
C  53.69700 48.57100 43.11700
C  52.66200 49.72300 43.52800
C  51.30400 49.06800 43.24800
C  54.78500 48.18600 44.23900
C  52.84300 51.03700 42.72800
C  52.72300 52.33900 43.61800
N  48.58200 48.11200 42.63300
C  48.86500 49.41600 43.05400
C  47.58200 50.10200 43.17100
C  46.67000 49.09300 42.79200
C  47.29400 47.96900 42.37000
C  47.25600 51.44600 43.75100
C  45.29000 48.96900 42.62300
O  44.35300 49.67500 42.92400
C  45.07800 47.62200 41.93100
C  44.14100 46.70400 42.76400
O  44.27400 46.32700 43.90100
O  43.15300 46.24600 41.95800
C  42.18200 45.36000 42.61000
H  49.27900 42.38300 40.21000
H  54.16600 45.92800 42.68400
H  50.28500 50.86300 43.56100
H  45.16300 44.73200 40.62300
H  47.16800 43.59400 38.80100
H  45.63800 42.63100 41.32800
H  47.13200 41.93600 40.95400
H  45.84800 41.92500 39.68800
H  46.37900 45.38500 38.05200
H  46.00600 46.74300 39.04900
H  43.73300 46.67500 38.95500
H  43.54200 45.06100 39.18500
H  50.64600 40.95100 41.10500
H  52.37600 40.76500 41.66200
H  51.94900 41.29200 40.01100
H  55.52100 44.28600 43.01200
H  55.55100 44.75300 41.22500
H  56.47700 43.46000 41.89000
H  54.20500 48.78300 42.17600
H  52.63800 49.84000 44.61100
H  54.99500 47.11600 44.25200
H  54.56100 48.58500 45.22800
H  55.70700 48.76500 44.18300
H  52.13100 51.13100 41.90800
H  53.86500 51.10900 42.35600
H  53.51800 52.31600 44.36300
H  51.81800 52.54300 44.19100
H  52.83200 53.13100 42.87700
H  46.70600 52.13600 43.11200
H  48.15500 51.86300 44.20600
H  46.54400 51.24300 44.55100
H  44.75300 47.65200 40.89100
H  41.30000 45.40500 41.97200
H  42.00800 45.78500 43.59900
H  42.61800 44.37200 42.75600
Mg 26.88300 49.27000 26.33900
C  24.91000 50.62100 28.99300
C  29.20600 48.31200 28.74700
C  29.03900 48.71200 23.91600
C  24.60700 50.82400 24.05000
N  27.04500 49.53800 28.60600
C  26.08100 49.94500 29.47000
C  26.44700 49.62800 30.85900
C  27.94100 49.10500 30.83700
C  28.07900 48.88500 29.27900
C  28.94400 50.16900 31.38300
C  25.42700 48.54900 31.47600
C  24.80800 48.78500 32.86500
H  25.61700 49.54200 33.96700
N  28.88200 48.54800 26.30400
C  29.61400 48.10700 27.36600
C  30.88000 47.53500 26.87300
C  30.85300 47.68100 25.42200
C  29.57400 48.31000 25.11700
C  31.95900 46.96500 27.68400
C  31.89800 47.37400 24.29200
O  31.80300 47.60700 23.11500
C  33.28000 46.92000 24.69100
N  26.86300 49.76600 24.28300
C  27.83800 49.24600 23.51800
C  27.51000 49.35500 22.03100
C  26.02800 50.03300 22.08000
C  25.76400 50.17000 23.54400
C  28.57700 50.17300 21.21600
C  25.02300 49.05400 21.32300
C  24.79400 49.16700 19.75800
N  25.07600 50.39700 26.46900
C  24.33300 51.04800 25.43900
C  23.32700 51.85200 26.09300
C  23.47600 51.66400 27.49800
C  24.61900 50.79300 27.60600
C  22.34600 52.72700 25.40500
C  22.91600 52.02400 28.82500
O  21.98700 52.73300 29.22000
C  23.90100 51.39200 29.81000
C  24.51300 52.48300 30.63800
O  25.27800 53.39900 30.28800
O  23.99700 52.43700 31.92600
C  24.37200 53.52300 32.82800
H  29.98900 47.89300 29.38200
H  29.65900 48.43000 23.06100
H  24.01100 51.40900 23.34700
H  26.44000 50.50600 31.50500
H  28.09200 48.18100 31.39500
H  29.97800 49.86600 31.21900
H  28.84300 50.23600 32.46600
H  28.66000 51.12600 30.94500
H  25.95900 47.60000 31.54700
H  24.63700 48.45400 30.73200
H  24.55400 47.77200 33.17700
H  23.87500 49.30800 32.65100
H  31.90300 47.16200 28.75400
H  32.89900 47.25000 27.21100
H  31.88500 45.90100 27.45900
H  33.11700 46.06000 25.34100
H  33.84100 47.65900 25.26300
H  33.85200 46.67200 23.79600
H  27.43900 48.35600 21.60000
H  25.98300 50.99900 21.57500
H  28.73400 51.03000 21.87100
H  28.11100 50.42500 20.26400
H  29.53100 49.65800 21.10400
H  23.99300 49.13000 21.67000
H  25.33600 48.03500 21.54900
H  24.69800 48.18700 19.29100
H  25.46800 49.80900 19.19100
H  23.82100 49.60400 19.53200
H  21.64000 52.07600 24.88900
H  22.87000 53.27600 24.62200
H  21.78100 53.46100 25.97900
H  23.39600 50.67100 30.45300
H  23.68300 53.67200 33.66000
H  24.46200 54.45100 32.26400
H  25.32700 53.26500 33.28500

