158

Mg 30.87700 58.11400 40.00400
C  27.84500 56.48900 39.04200
C  32.54500 55.45300 38.75100
C  33.51900 60.02700 40.01900
C  28.89900 60.79900 40.97800
N  30.21700 56.30700 38.75800
C  28.98600 55.78900 38.59100
C  28.93500 54.43600 37.85700
C  30.44400 54.04900 38.12700
C  31.12200 55.37500 38.58000
C  30.67500 52.97100 39.23700
C  28.64000 54.59200 36.38500
C  27.26500 54.19600 35.84200
H  26.43400 55.21600 35.09800
N  32.82100 57.70800 39.65700
C  33.32700 56.56200 39.15700
C  34.71100 56.57700 39.26200
C  35.08600 57.96300 39.54900
C  33.78100 58.65600 39.77500
C  35.62300 55.35400 39.04600
C  36.37800 58.48200 39.64300
O  37.29500 57.76000 39.39500
C  36.72100 59.91900 40.02600
N  31.15900 60.10400 40.36100
C  32.32100 60.66500 40.19100
C  32.35900 62.10400 40.61600
C  30.99900 62.25800 41.36200
C  30.29800 60.99800 40.86100
C  33.50900 62.57400 41.55000
C  30.25700 63.69800 41.05100
C  29.63300 64.38200 42.24700
N  28.79100 58.57900 40.04200
C  28.15900 59.62900 40.59600
C  26.71000 59.49500 40.54600
C  26.54900 58.17700 40.01700
C  27.83700 57.73500 39.62500
C  25.72100 60.52900 40.84400
C  25.52900 57.23200 39.61200
O  24.31900 57.19400 39.70400
C  26.32000 56.05100 38.92300
C  26.01800 54.85100 39.61300
O  26.44000 54.54300 40.68700
O  25.18800 54.02800 38.87600
C  24.94300 52.67700 39.34300
H  33.04200 54.54100 38.41400
H  34.34600 60.73500 39.94200
H  28.34000 61.64300 41.38700
H  28.36100 53.69400 38.41100
H  30.95500 53.70500 37.22800
H  30.63600 53.47100 40.20500
H  31.64600 52.48100 39.16400
H  29.81200 52.30500 39.22800
H  29.36400 53.94000 35.89500
H  28.79100 55.64400 36.14300
H  26.67800 53.71800 36.62700
H  27.29300 53.39800 35.10100
H  36.24100 55.19600 39.93000
H  36.26600 55.72700 38.24800
H  35.11200 54.42300 38.80200
H  36.45900 60.60300 39.21800
H  37.76500 60.01900 40.32300
H  36.11400 60.03900 40.92300
H  32.43800 62.63100 39.66500
H  31.15900 62.08900 42.42700
H  34.08400 61.71000 41.88300
H  33.24000 63.15100 42.43500
H  34.25600 63.15400 41.00700
H  29.58000 63.71900 40.19700
H  30.93800 64.44000 40.63400
H  29.85200 65.44900 42.28900
H  29.98800 64.01100 43.20900
H  28.54400 64.37100 42.27800
H  26.08200 61.52800 40.59900
H  25.67200 60.39000 41.92400
H  24.72300 60.36800 40.43700
H  25.97100 55.98700 37.89300
H  24.10000 52.74800 40.03100
H  25.76700 52.21500 39.88700
H  24.57000 52.08000 38.51100
Mg 17.41400 50.87400 26.34300
C  19.50100 49.64800 28.80700
C  14.93800 51.59500 28.62400
C  15.68200 51.96800 23.78200
C  20.08800 49.88200 24.09100
N  17.19100 50.61400 28.42400
C  18.21900 50.19800 29.25200
C  17.97800 50.50800 30.71700
C  16.40200 50.89100 30.61700
C  16.09700 51.05100 29.14400
C  15.48000 49.81300 31.23400
C  18.81800 51.61000 31.29000
C  18.86600 51.66100 32.87800
H  17.76500 51.04200 33.75200
N  15.49600 51.66800 26.20100
C  14.67700 51.97600 27.26300
C  13.61600 52.80100 26.79500
C  13.82700 52.95800 25.39100
C  14.97100 52.09300 25.05300
C  12.52900 53.33700 27.70600
C  12.99200 53.89800 24.38900
O  13.35600 53.94800 23.22200
C  11.73400 54.64500 24.85700
N  17.82500 50.83200 24.23100
C  16.86300 51.27800 23.39800
C  17.34900 51.10000 21.96800
C  18.83000 50.64600 22.01700
C  18.92700 50.43300 23.49200
C  16.34800 50.21500 21.24300
C  19.85400 51.83800 21.59300
C  20.67700 51.54400 20.27100
N  19.33700 49.82200 26.38300
C  20.25100 49.51300 25.41400
C  21.34600 48.82100 25.94400
C  21.13700 48.79800 27.31500
C  19.92100 49.49300 27.48300
C  22.49100 48.39200 25.15400
C  21.71300 48.49100 28.62300
O  22.74900 48.10800 28.99900
C  20.64000 49.02100 29.60900
C  20.29500 47.92600 30.61100
O  19.44800 47.11700 30.47600
O  21.01100 48.20400 31.70800
C  20.61400 47.46800 32.89600
H  14.22500 52.00200 29.34400
H  15.19600 52.40300 22.90600
H  20.93200 49.85100 23.39900
H  18.17400 49.68500 31.40400
H  16.25900 51.87600 31.06200
H  14.82800 49.34200 30.49800
H  14.94100 50.28700 32.05400
H  16.06000 48.96200 31.59100
H  18.50200 52.61100 30.99600
H  19.84000 51.50400 30.92500
H  19.11100 52.66100 33.23500
H  19.79500 51.09700 32.94800
H  11.63900 52.89800 27.25500
H  12.58400 54.42400 27.75300
H  12.65100 52.95500 28.72000
H  11.06000 54.04500 25.46800
H  11.19500 55.01600 23.98500
H  12.01300 55.54400 25.40600
H  17.36500 52.04900 21.43200
H  19.00700 49.69700 21.51000
H  16.01200 50.66600 20.31000
H  15.46000 50.15900 21.87200
H  16.70000 49.18400 21.23800
H  20.41200 52.29000 22.41300
H  19.28200 52.70800 21.27200
H  20.31900 50.66700 19.73200
H  21.75200 51.60800 20.43900
H  20.48200 52.37900 19.59800
H  23.19200 47.85500 25.79300
H  22.98500 49.18800 24.59600
H  22.13900 47.65700 24.43000
H  21.28300 49.74000 30.11500
H  19.56500 47.59300 33.16500
H  21.22700 47.90000 33.68800
H  20.88900 46.41800 32.78600

