158

Mg 53.61600 24.44800 44.96400
C  50.68500 26.15200 44.18800
C  52.16400 21.65300 43.81500
C  56.62700 22.84600 45.04000
C  55.09500 27.37200 46.04300
N  51.68600 24.03700 43.69800
C  50.58000 24.79600 43.75900
C  49.33600 24.02000 43.22300
C  49.77300 22.54400 43.59900
C  51.31500 22.75000 43.72700
C  49.17100 21.94800 44.91200
C  49.19100 24.34700 41.73400
C  47.82000 24.33000 41.09900
H  47.46800 22.96200 40.49900
N  54.28400 22.51600 44.42300
C  53.49300 21.52900 43.98000
C  54.21900 20.28700 43.79800
C  55.56800 20.63000 44.11000
C  55.54100 22.03000 44.57600
C  53.53000 18.99400 43.56900
C  56.77100 19.77400 43.99700
O  56.63700 18.64600 43.67300
C  58.16900 20.14500 44.39100
N  55.71000 25.08800 45.17600
C  56.69300 24.19900 45.41700
C  57.93200 24.91800 45.97000
C  57.46800 26.42500 46.10600
C  55.97500 26.33100 45.73400
C  58.44400 24.30100 47.35800
C  58.35200 27.45400 45.31000
C  57.79100 28.29400 44.13800
N  53.05700 26.36900 45.17500
C  53.73300 27.44000 45.77100
C  52.73700 28.50400 45.94100
C  51.62300 28.09900 45.33300
C  51.85400 26.78200 44.87400
C  52.88600 29.81100 46.68300
C  50.22200 28.45500 44.88800
O  49.51000 29.43300 45.17700
C  49.64200 27.22200 44.18100
C  49.29400 27.74800 42.79200
O  50.06000 27.82300 41.80700
O  48.00800 28.01900 42.79100
C  47.24000 28.39800 41.59200
H  51.55700 20.78100 43.56400
H  57.60700 22.38400 45.17700
H  55.49900 28.27500 46.50600
H  48.42300 24.33600 43.72800
H  49.57000 21.85500 42.78000
H  49.95200 21.55400 45.56200
H  48.37800 21.24900 44.64400
H  48.73600 22.75300 45.50500
H  49.84400 23.57700 41.32500
H  49.57300 25.33900 41.49400
H  47.78200 25.09300 40.32200
H  47.06900 24.57300 41.85100
H  54.09000 18.10800 43.86700
H  53.30400 18.91800 42.50500
H  52.62800 18.96900 44.17900
H  58.57300 21.04300 43.92300
H  58.82000 19.27600 44.29700
H  58.12500 20.32900 45.46500
H  58.70200 24.85800 45.20000
H  57.47300 26.82600 47.11900
H  58.38100 25.09600 48.10100
H  59.42100 23.83100 47.24700
H  57.71400 23.59900 47.76300
H  59.03500 26.79200 44.78000
H  58.83900 28.09500 46.04500
H  56.75300 28.09900 43.86700
H  58.28500 28.00500 43.21000
H  57.73900 29.37200 44.29400
H  53.69600 29.72700 47.40900
H  51.90000 30.02800 47.09300
H  53.02000 30.45700 45.81600
H  48.80400 26.84000 44.76300
H  47.37500 29.47800 41.54000
H  46.18900 28.11500 41.65000
H  47.68900 27.84300 40.76900
Mg 47.87900 14.46000 28.17300
C  45.85500 14.58200 31.04000
C  49.80500 17.03100 29.66900
C  49.86000 14.60600 25.40800
C  45.52800 12.76800 26.51400
N  47.80700 15.63200 30.16800
C  47.04800 15.33900 31.24400
C  47.70400 15.94700 32.45900
C  48.54300 17.07700 31.88500
C  48.70400 16.59600 30.43100
C  48.07000 18.50500 31.96400
C  48.37600 14.89800 33.31100
C  48.10100 14.90400 34.77100
H  49.20900 14.65000 35.75700
N  49.67700 15.61500 27.64300
C  50.38000 16.53600 28.42900
C  51.56900 17.00800 27.69900
C  51.57400 16.30900 26.43300
C  50.37800 15.42600 26.47200
C  52.55100 17.97900 28.36900
C  52.59000 16.50600 25.32600
O  52.51500 15.84700 24.26800
C  53.63200 17.55300 25.46600
N  47.70600 13.86400 26.26900
C  48.61400 13.96100 25.28900
C  48.19300 13.36500 23.94800
C  46.79600 12.78100 24.34200
C  46.67100 13.12000 25.82700
C  48.07200 14.38700 22.80200
C  46.45400 11.28400 23.98100
C  47.13600 10.16500 24.73500
N  46.09900 13.82100 28.61900
C  45.18100 13.17400 27.81900
C  44.02700 12.80900 28.60100
C  44.22300 13.36700 29.82200
C  45.48800 13.93100 29.83700
C  42.83000 12.14500 28.09200
C  43.60200 13.60200 31.08500
O  42.47300 13.35100 31.49300
C  44.65000 14.35500 31.89600
C  44.01700 15.56200 32.51500
O  44.10500 16.73600 32.20100
O  43.56800 15.10900 33.75500
C  43.07300 16.20300 34.66900
H  50.33400 17.82000 30.20700
H  50.52400 14.53400 24.54400
H  44.67600 12.15400 26.21500
H  46.89800 16.44700 32.99600
H  49.48400 17.15600 32.42900
H  47.47800 18.80200 31.09900
H  48.88800 19.21200 32.10300
H  47.48900 18.72600 32.86000
H  49.46100 15.00400 33.27200
H  48.19600 13.92800 32.84700
H  47.36700 14.17800 35.12100
H  47.72100 15.90200 34.98700
H  52.44300 19.04100 28.15300
H  53.61900 17.82000 28.21600
H  52.56400 17.85300 29.45200
H  54.48800 17.34000 26.10500
H  53.20300 18.48700 25.83000
H  54.07600 17.63700 24.47400
H  48.78400 12.54400 23.54200
H  46.05200 13.37500 23.81200
H  47.07000 14.37200 22.37300
H  48.89200 14.26000 22.09600
H  48.38600 15.34500 23.21500
H  46.72400 11.18200 22.92900
H  45.39100 11.07700 24.10800
H  47.82400 9.63800 24.07400
H  46.36000 9.48700 25.09100
H  47.63800 10.57900 25.61000
H  42.86000 11.05800 28.01700
H  42.50000 12.66900 27.19500
H  42.07100 12.24800 28.86700
H  44.84500 13.65100 32.70500
H  42.16400 16.59200 34.21000
H  43.76700 17.03900 34.76100
H  42.88700 15.79600 35.66300

