158

Mg 0.80900 8.01900 27.04600
C  1.70100 10.05200 29.73400
C  0.71900 5.37100 29.25000
C  0.58600 6.02900 24.32300
C  1.09100 10.72500 24.92000
N  1.17300 7.78100 29.18900
C  1.31000 8.76000 30.11600
C  1.08200 8.28200 31.57800
C  1.17400 6.72900 31.29000
C  0.95900 6.65000 29.78400
C  2.49100 6.03400 31.79600
C  -0.20100 8.79700 32.31200
C  -0.22000 8.91700 33.81800
H  1.00700 8.55400 34.66100
N  0.72600 5.94400 26.81400
C  0.68100 5.06100 27.87200
C  0.73000 3.70700 27.23500
C  0.62100 3.86300 25.83000
C  0.64000 5.33500 25.61900
C  0.72000 2.40600 27.98700
C  0.46400 2.90700 24.75400
O  0.45100 3.31200 23.60700
C  0.30400 1.43100 24.96600
N  1.01200 8.33200 24.88900
C  0.63900 7.39800 24.00300
C  0.61100 7.93800 22.53300
C  0.38300 9.49200 22.88400
C  0.78600 9.50700 24.33200
C  1.91000 7.69400 21.72100
C  -1.05800 9.87300 22.45000
C  -1.21500 10.86100 21.23200
N  1.45200 10.01400 27.20100
C  1.50600 10.98500 26.31000
C  1.99100 12.15300 26.90900
C  2.14000 11.83600 28.30600
C  1.78800 10.53500 28.42800
C  1.99800 13.57000 26.33700
C  2.44000 12.44300 29.58000
O  2.83300 13.51900 30.05700
C  2.10800 11.30500 30.59000
C  3.33900 11.16400 31.45700
O  4.34300 10.58200 31.16400
O  3.05600 11.79000 32.61300
C  4.04400 11.80300 33.67900
H  0.66600 4.57500 29.99500
H  0.38600 5.42700 23.43400
H  0.95300 11.58800 24.26600
H  1.99600 8.50600 32.12900
H  0.35500 6.18000 31.75400
H  3.06600 6.77200 32.35600
H  3.14800 5.85800 30.94500
H  2.19900 5.14200 32.35000
H  -1.00200 8.13000 31.99500
H  -0.39100 9.79200 31.91000
H  -0.99300 8.20000 34.09300
H  -0.63100 9.89600 34.06500
H  0.95300 2.63800 29.02600
H  1.47900 1.78400 27.51200
H  -0.25700 1.92300 27.99400
H  -0.04200 0.88600 24.08700
H  -0.37500 1.22100 25.79200
H  1.25900 1.02700 25.30200
H  -0.25200 7.51700 22.01600
H  1.15000 10.01200 22.31000
H  2.41200 8.62400 21.45200
H  1.69100 7.23700 20.75600
H  2.61600 7.12500 22.32600
H  -1.53900 10.25700 23.34900
H  -1.68000 9.02200 22.17100
H  -0.28500 10.92300 20.66700
H  -1.64400 11.83400 21.46900
H  -1.98900 10.36900 20.64300
H  2.65700 14.30700 26.79500
H  0.97700 13.93900 26.43800
H  2.20100 13.55300 25.26600
H  1.21400 11.64600 31.11300
H  4.53600 12.77500 33.72200
H  4.83600 11.05500 33.67000
H  3.52400 11.73400 34.63400
Mg 45.01900 4.59800 47.83600
C  42.58000 6.96000 47.21800
C  42.80800 2.13600 47.25900
C  47.54900 2.34200 47.66100
C  47.39100 7.18500 48.05000
N  42.93700 4.61400 47.26800
C  42.13200 5.63100 47.01200
C  40.84100 5.17300 46.31300
C  40.84200 3.65000 46.59100
C  42.29400 3.43900 47.08700
C  39.83400 3.04300 47.54000
C  40.62600 5.50500 44.81900
C  39.43900 6.43400 44.53300
H  39.79500 7.49400 43.50000
N  45.14100 2.45700 47.74700
C  44.09700 1.68200 47.53600
C  44.60300 0.30800 47.44000
C  46.03700 0.34100 47.47600
C  46.30200 1.76500 47.67900
C  43.78700 -0.94800 47.26300
C  46.99900 -0.79300 47.52700
O  46.66600 -1.94200 47.31200
C  48.51900 -0.58600 47.90100
N  47.17300 4.70000 47.82300
C  47.99100 3.70400 47.65700
C  49.51000 4.18200 47.57100
C  49.39500 5.67500 47.86100
C  47.91100 5.88800 47.84300
C  50.36500 3.41800 48.66800
C  50.16900 6.67700 46.88300
C  50.90700 7.79100 47.64000
N  44.99900 6.70300 47.78400
C  46.02300 7.57300 47.95800
C  45.47400 8.89600 47.72000
C  44.09500 8.70400 47.47200
C  43.89200 7.40400 47.52900
C  46.23000 10.18800 47.51800
C  42.87000 9.36600 47.11200
O  42.61100 10.54100 46.93500
C  41.71900 8.28200 47.02300
C  40.90100 8.52000 48.29000
O  41.04200 7.97700 49.40100
O  40.02700 9.51600 48.02000
C  39.08700 9.81400 49.03800
H  42.17200 1.30000 46.96300
H  48.50700 1.83500 47.52600
H  48.16700 7.94400 48.17300
H  39.98100 5.64300 46.79000
H  40.85500 3.03400 45.69200
H  39.62200 2.06700 47.10200
H  39.00000 3.70900 47.76100
H  40.33400 2.97100 48.50600
H  40.51300 4.58700 44.24200
H  41.52300 6.03200 44.49500
H  39.16700 7.10600 45.34700
H  38.58100 5.84700 44.20700
H  43.91800 -1.39000 46.27600
H  42.73000 -0.75200 47.44200
H  44.21300 -1.59000 48.03400
H  49.00600 -1.56100 47.91700
H  48.48500 -0.05900 48.85500
H  48.98600 0.00400 47.11300
H  49.95200 4.04900 46.58400
H  49.64900 5.79800 48.91300
H  51.42300 3.52600 48.43200
H  50.06700 2.37100 48.73100
H  50.10200 3.73500 49.67700
H  49.39800 7.22800 46.34400
H  50.87900 6.24100 46.18000
H  50.77500 8.82300 47.31600
H  51.94300 7.58700 47.36800
H  50.87600 7.62500 48.71700
H  46.56500 10.66900 48.43600
H  45.48700 10.88300 47.12600
H  47.13300 10.18000 46.90800
H  41.13500 8.50900 46.13100
H  38.37500 10.41200 48.46900
H  39.55900 10.33600 49.87100
H  38.68200 8.85100 49.34800

