158

Mg 42.76400 41.37500 26.36300
C  41.83000 43.55600 29.10700
C  44.07000 39.22800 28.94000
C  43.71700 39.29400 24.07500
C  42.01600 43.78600 24.09800
N  42.90900 41.33400 28.80800
C  42.43800 42.38000 29.61900
C  42.50000 41.81800 31.12600
C  43.54000 40.62500 30.97700
C  43.54900 40.44000 29.52900
C  44.98900 40.86200 31.47000
C  41.03700 41.57800 31.76300
C  40.71800 41.41900 33.33500
H  41.82900 41.32000 34.31700
N  43.65200 39.46600 26.45900
C  44.15500 38.79300 27.56700
C  44.64000 37.53400 27.07700
C  44.44400 37.46000 25.63700
C  43.99100 38.76900 25.31300
C  45.18400 36.45800 28.01200
C  44.52800 36.33400 24.65000
O  44.37700 36.48600 23.43900
C  44.88200 34.91500 25.16300
N  42.81700 41.52300 24.37700
C  43.30900 40.57400 23.60900
C  43.31200 40.97400 22.10800
C  42.57200 42.30900 22.08500
C  42.40400 42.56200 23.64000
C  44.66900 41.12800 21.35900
C  41.27300 42.29900 21.40000
C  40.26600 41.17500 21.62500
N  41.99000 43.24000 26.47000
C  41.72900 44.18700 25.45700
C  41.30300 45.37900 26.04600
C  41.32000 45.19500 27.44500
C  41.70200 43.81900 27.65700
C  40.98900 46.64100 25.25800
C  41.11700 45.88900 28.71100
O  40.77500 47.05100 28.95700
C  41.23600 44.76400 29.87400
C  42.02400 45.34300 30.90300
O  43.05800 45.91700 30.68400
O  41.54000 44.92200 32.12700
C  42.58900 45.05500 33.13600
H  44.54700 38.62100 29.71100
H  43.97800 38.71600 23.18600
H  41.79300 44.58500 23.38700
H  42.93800 42.60100 31.74500
H  43.18600 39.63900 31.27700
H  45.26600 41.89500 31.68100
H  45.69500 40.47700 30.73500
H  45.08000 40.22900 32.35300
H  40.75500 40.64500 31.27500
H  40.44200 42.35300 31.27900
H  40.32300 40.42200 33.53000
H  39.93400 42.14500 33.55200
H  45.36600 36.81900 29.02500
H  46.15600 36.10900 27.66500
H  44.56800 35.56100 27.94000
H  44.01200 34.51600 25.68500
H  45.74300 34.89200 25.83100
H  45.14800 34.22700 24.36100
H  42.73100 40.22900 21.56400
H  43.14300 43.04800 21.52200
H  44.82600 42.08900 20.86900
H  44.59700 40.40000 20.55100
H  45.55000 40.96700 21.98000
H  41.52500 42.36700 20.34200
H  40.77000 43.24500 21.60000
H  40.67300 40.37500 22.24200
H  39.98400 40.63300 20.72300
H  39.41100 41.63100 22.12500
H  40.50400 46.43300 24.30400
H  41.95200 47.15100 25.29700
H  40.30700 47.22400 25.87700
H  40.23900 44.49300 30.22000
H  42.89800 46.10000 33.15600
H  43.43700 44.39600 32.94800
H  42.18000 44.88200 34.13100
Mg -11.52100 16.66500 41.50900
C  -8.41200 15.01400 41.12100
C  -10.25700 19.35200 39.62700
C  -14.57200 17.79700 41.42300
C  -12.73300 13.45300 42.58100
N  -9.56300 17.10100 40.47000
C  -8.43300 16.31000 40.52300
C  -7.22500 16.94800 39.83600
C  -7.73100 18.42600 39.42300
C  -9.26700 18.33700 39.86700
C  -6.98000 19.60700 39.91000
C  -6.76200 16.15800 38.62500
C  -5.27900 16.22700 38.32500
H  -4.88000 16.90800 37.03200
N  -12.32500 18.37300 40.69900
C  -11.67600 19.36400 39.95300
C  -12.67800 20.44200 39.68400
C  -13.85200 20.03600 40.22100
C  -13.61900 18.65400 40.83500
C  -12.47600 21.64800 38.76300
C  -15.15300 20.75300 40.08000
O  -15.21300 21.94100 39.73300
C  -16.52800 20.11700 40.37200
N  -13.34600 15.69500 41.67800
C  -14.46700 16.48400 41.81100
C  -15.66600 15.80100 42.41600
C  -15.03000 14.42600 42.78300
C  -13.63800 14.46400 42.24200
C  -16.34700 16.46500 43.67300
C  -15.85500 13.16700 42.37300
C  -16.53300 12.32500 43.52600
N  -10.76200 14.70700 42.04300
C  -11.33400 13.52100 42.43100
C  -10.39800 12.44000 42.55800
C  -9.20900 12.99500 42.10000
C  -9.49000 14.32000 41.69900
C  -10.69200 11.06000 43.12100
C  -7.80400 12.71800 41.93300
O  -7.25600 11.70600 42.15900
C  -7.19100 14.03100 41.24800
C  -6.10700 14.53000 42.16500
O  -6.09400 14.41800 43.37800
O  -5.03400 15.02900 41.47400
C  -3.94000 15.52800 42.26400
H  -9.88900 20.21100 39.06100
H  -15.58900 18.12600 41.64500
H  -13.11100 12.53600 43.03700
H  -6.41500 17.04300 40.55800
H  -7.81000 18.46800 38.33700
H  -6.63800 20.11600 39.00800
H  -6.08200 19.24100 40.40600
H  -7.58500 20.25800 40.54100
H  -7.24700 16.57600 37.74200
H  -7.04600 15.10900 38.54500
H  -5.04800 15.16200 38.30000
H  -4.84500 16.81700 39.13200
H  -11.40200 21.77500 38.89200
H  -12.89300 22.55000 39.21100
H  -12.73500 21.68600 37.70400
H  -17.30000 20.84000 40.10800
H  -16.62000 19.96700 41.44800
H  -16.62900 19.17000 39.84200
H  -16.40100 15.63300 41.62900
H  -14.99300 14.42900 43.87200
H  -16.38900 17.54800 43.55700
H  -15.76900 16.18200 44.55300
H  -17.32700 16.01700 43.84100
H  -15.24000 12.50200 41.76600
H  -16.68800 13.47900 41.74300
H  -17.60700 12.50300 43.47100
H  -16.18800 12.42600 44.55500
H  -16.45100 11.25100 43.36300
H  -9.82600 10.40400 43.03900
H  -11.49600 10.63800 42.51900
H  -11.03500 11.31400 44.12400
H  -6.65300 13.74400 40.34500
H  -3.04300 15.71400 41.67200
H  -3.66700 14.72100 42.94400
H  -4.40800 16.33500 42.82800

