158

Mg 42.47900 41.86200 26.40900
C  41.46900 44.19700 28.82300
C  43.52100 39.78300 28.90600
C  43.39100 39.52800 24.14800
C  41.86300 44.21700 23.91000
N  42.47500 42.04200 28.61600
C  41.92900 43.00000 29.39200
C  41.87100 42.58200 30.91300
C  42.51300 41.15000 30.91100
C  42.92200 41.00100 29.39500
C  43.76500 40.97100 31.84400
C  40.47100 42.59200 31.56000
C  40.20800 43.44700 32.79800
H  39.37900 42.90000 33.93200
N  43.35600 39.96900 26.51700
C  43.69800 39.29700 27.61100
C  44.14400 37.99800 27.31200
C  43.88300 37.77700 25.92800
C  43.50400 39.14000 25.48700
C  44.66200 37.06800 28.39200
C  44.08300 36.48500 25.07900
O  43.72400 36.45000 23.89700
C  44.43900 35.18500 25.87600
N  42.69500 41.90000 24.30800
C  42.96500 40.79600 23.58700
C  42.87500 41.06200 22.09800
C  42.29300 42.49500 22.04100
C  42.31200 42.93900 23.52700
C  44.26700 40.77800 21.36700
C  40.87200 42.73800 21.39800
C  40.71700 43.89900 20.40800
N  41.81000 43.87500 26.34500
C  41.63900 44.64100 25.26600
C  41.01500 45.91000 25.68800
C  40.84000 45.72500 27.09600
C  41.40800 44.50700 27.41800
C  40.63600 47.00900 24.84500
C  40.44400 46.42400 28.27100
O  40.01900 47.55000 28.40600
C  40.86300 45.38100 29.48000
C  41.85600 46.03300 30.47700
O  43.08000 45.90800 30.46000
O  41.16200 46.59800 31.53600
C  42.00500 47.02000 32.67400
H  43.74700 39.19200 29.79700
H  43.60300 38.79100 23.37200
H  41.63900 44.84800 23.04800
H  42.45400 43.30000 31.48900
H  41.83900 40.31400 31.10300
H  43.63100 41.57600 32.74000
H  44.65800 41.37600 31.36800
H  43.97100 39.94500 32.14800
H  40.06900 41.61400 31.82500
H  39.82100 42.98900 30.78000
H  39.79600 44.44000 32.61500
H  41.17100 43.73900 33.21700
H  43.84900 36.40500 28.68500
H  45.15100 37.59700 29.21000
H  45.33900 36.29900 28.02000
H  45.51600 35.18500 26.04400
H  44.23300 34.33400 25.22800
H  43.77600 34.99900 26.72000
H  42.12100 40.37600 21.71100
H  43.04800 43.06300 21.49800
H  45.11100 40.75100 22.05600
H  44.47100 41.59200 20.67100
H  44.22200 39.81400 20.86100
H  40.21400 42.90300 22.25200
H  40.39200 41.86700 20.95200
H  39.94700 44.47500 20.92000
H  40.04400 43.59100 19.60800
H  41.52400 44.47800 19.95900
H  40.57400 46.59600 23.83800
H  41.35300 47.82900 24.89000
H  39.64000 47.40900 25.03900
H  40.01600 45.03600 30.07400
H  43.05200 47.15300 32.40100
H  41.93300 46.30600 33.49400
H  41.62800 47.98000 33.02700
Mg 5.78500 53.54800 42.00400
C  5.11100 50.04000 41.52800
C  8.69300 53.06500 40.57700
C  6.05900 56.70900 42.29900
C  2.32400 53.60800 43.29000
N  6.69200 51.70800 40.95100
C  6.31400 50.36800 40.96600
C  7.38900 49.41800 40.45200
C  8.58000 50.45900 40.39700
C  7.97800 51.83400 40.62500
C  9.71300 50.13800 41.33200
C  6.98700 48.80100 39.06500
C  6.08500 49.54200 38.05300
H  6.46500 49.52800 36.56000
N  7.18600 54.73600 41.41800
C  8.37800 54.39600 40.87300
C  9.08300 55.60700 40.51300
C  8.33200 56.70200 41.06700
C  7.12900 56.08200 41.58400
C  10.40100 55.67600 39.78900
C  8.75600 58.15100 40.89800
O  9.80900 58.48000 40.38700
C  7.86500 59.22100 41.33100
N  4.36200 54.92700 42.73200
C  4.82000 56.22700 42.87000
C  3.69900 57.16300 43.30900
C  2.44700 56.11900 43.50400
C  3.05200 54.79400 43.08700
C  4.09700 58.02200 44.59600
C  1.17200 56.56400 42.65700
C  0.10000 57.41400 43.30800
N  4.07700 52.14900 42.41200
C  2.86400 52.32300 42.98100
C  2.28000 51.04300 43.40000
C  3.12500 50.09900 42.83100
C  4.16300 50.83300 42.19400
C  0.93200 50.82000 44.08400
C  3.33700 48.70000 42.59400
O  2.64800 47.70200 42.96500
C  4.64200 48.54700 41.77300
C  4.20400 47.80600 40.58100
O  3.41100 48.15700 39.71500
O  4.82000 46.56600 40.61400
C  4.50800 45.58400 39.53600
H  9.72900 52.87600 40.28800
H  6.02500 57.79100 42.44100
H  1.30700 53.70600 43.67600
H  7.51000 48.74400 41.30000
H  8.93500 50.49700 39.36700
H  9.70000 49.05200 41.42800
H  9.65000 50.70000 42.26300
H  10.58400 50.24900 40.68600
H  6.53000 47.81400 39.14700
H  7.94800 48.64500 38.57500
H  6.00100 50.61400 38.23300
H  5.08900 49.10600 38.11700
H  10.52900 54.70600 39.31000
H  11.14200 55.96300 40.53500
H  10.56300 56.44100 39.02900
H  8.25500 60.22600 41.16800
H  7.72100 59.18900 42.41100
H  6.92100 59.14500 40.79200
H  3.46200 57.75800 42.42600
H  2.22500 56.08900 44.57100
H  5.18000 58.00700 44.71800
H  3.66900 57.56600 45.48900
H  3.77500 59.05900 44.50400
H  0.73400 55.61700 42.34100
H  1.44800 56.95700 41.67900
H  -0.27300 58.16000 42.60700
H  0.42800 57.97700 44.18200
H  -0.71400 56.75200 43.60500
H  0.54200 49.85400 43.76200
H  0.30500 51.61500 43.68100
H  0.90700 51.00400 45.15800
H  5.35300 47.92500 42.31700
H  5.49400 45.35700 39.13000
H  4.00300 45.95700 38.64500
H  4.11800 44.63300 39.90100

