158

Mg 25.67800 1.39900 30.28200
C  27.74000 1.36800 33.15600
C  22.96400 1.59200 32.60200
C  23.55700 1.18900 27.71600
C  28.31100 0.42200 28.40600
N  25.48300 1.70000 32.52700
C  26.47200 1.67200 33.47400
C  25.84600 1.90900 34.86100
C  24.33300 1.65700 34.65400
C  24.25200 1.70800 33.11900
C  23.79200 0.35400 35.34800
C  26.10400 3.42400 35.33600
C  27.19700 3.61200 36.43000
H  26.72800 4.49600 37.60300
N  23.56500 1.41500 30.16500
C  22.65000 1.55500 31.21300
C  21.34800 1.48800 30.65300
C  21.48400 1.51100 29.18600
C  22.97800 1.36300 28.92200
C  20.13500 1.49000 31.53200
C  20.40500 1.63400 28.08000
O  20.60300 1.48700 26.85800
C  19.14400 2.03900 28.56600
N  25.96800 0.93700 28.32300
C  24.90800 0.98300 27.35900
C  25.44700 0.66900 25.96100
C  26.99400 0.71300 26.20900
C  27.08600 0.64200 27.71300
C  24.96800 -0.72500 25.52400
C  27.79400 1.87800 25.63300
C  27.10600 3.24300 25.27400
N  27.66700 0.95000 30.67100
C  28.58700 0.61800 29.74600
C  29.92200 0.40300 30.40200
C  29.62800 0.69700 31.76000
C  28.24200 1.01400 31.88500
C  31.19100 -0.02800 29.69600
C  30.16500 0.74000 33.05600
O  31.26800 0.44100 33.48100
C  29.00400 1.20100 33.99000
C  28.84400 0.19300 35.09300
O  28.26400 -0.83600 35.08000
O  29.33300 0.74100 36.30300
C  28.99700 -0.14300 37.43600
H  22.23400 1.81300 33.38300
H  22.86700 1.01800 26.88800
H  29.21500 0.26200 27.81500
H  26.29100 1.30900 35.65500
H  23.68300 2.38500 35.13900
H  24.49900 -0.27800 35.88500
H  23.55500 -0.30800 34.51600
H  22.85300 0.48600 35.88600
H  25.16900 3.89900 35.63300
H  26.53300 4.03600 34.54300
H  28.07400 4.07300 35.97500
H  27.45500 2.65900 36.89100
H  19.67000 2.47500 31.50700
H  20.32300 1.13200 32.54500
H  19.39700 0.81800 31.09300
H  18.59000 1.22100 29.02800
H  18.51500 2.32900 27.72400
H  19.17900 2.89500 29.23900
H  25.16000 1.40800 25.21400
H  27.49300 -0.18700 25.85000
H  24.52900 -0.61200 24.53400
H  24.27600 -1.13400 26.26100
H  25.82800 -1.38800 25.42200
H  28.23900 1.45700 24.73100
H  28.64800 2.11600 26.26600
H  26.70400 3.78200 26.13200
H  26.36000 3.11900 24.48800
H  27.88200 3.83200 24.78600
H  31.73800 0.86200 29.38300
H  30.87200 -0.59000 28.81800
H  31.83500 -0.62800 30.33800
H  29.26200 2.22200 34.27400
H  29.56000 -1.07500 37.48400
H  27.91400 -0.22900 37.52100
H  29.24700 0.44300 38.32000
Mg 47.39700 25.27800 28.66400
C  48.67800 27.41600 31.12100
C  46.70300 23.00800 30.99200
C  47.04000 23.00400 26.18800
C  48.84400 27.44900 26.21300
N  47.62700 25.24100 30.74400
C  47.97300 26.30600 31.56200
C  47.58000 26.05800 33.00400
C  47.10600 24.59900 33.04900
C  47.11100 24.24000 31.54400
C  47.93600 23.61800 33.86100
C  46.42600 27.04900 33.41300
C  46.76300 27.93100 34.67800
H  45.77900 27.82100 35.90900
N  46.84700 23.29800 28.61100
C  46.61300 22.54200 29.66900
C  46.21800 21.16400 29.24800
C  46.20400 21.16700 27.85100
C  46.74700 22.53300 27.50100
C  45.93900 20.03300 30.27800
C  45.86300 20.09400 26.89400
O  46.04500 20.22300 25.69100
C  45.30700 18.76000 27.24000
N  47.82800 25.30300 26.51500
C  47.38800 24.28000 25.66500
C  47.69200 24.58000 24.18200
C  48.29300 25.98000 24.28400
C  48.22300 26.30900 25.75800
C  48.70700 23.56900 23.64400
C  47.54700 27.08200 23.49400
C  48.38600 28.19100 22.78800
N  48.47800 27.09000 28.63400
C  48.94400 27.82500 27.55700
C  49.64200 28.96000 28.09600
C  49.46900 28.92900 29.50800
C  48.83100 27.67700 29.76400
C  50.52700 29.90600 27.31900
C  49.82100 29.58500 30.75800
O  50.47200 30.57800 30.98400
C  49.19400 28.69000 31.88300
C  50.20800 28.28900 32.99400
O  50.73000 27.15900 33.05800
O  50.45700 29.29500 33.78900
C  51.41800 28.89400 34.90400
H  46.47300 22.23300 31.72700
H  46.89400 22.43400 25.26800
H  49.32700 28.07800 25.46300
H  48.40000 26.25200 33.69500
H  46.06600 24.42800 33.32800
H  48.93900 23.52800 33.44400
H  47.52400 22.61200 33.94100
H  47.96100 24.10100 34.83800
H  45.53200 26.44700 33.57700
H  46.24500 27.75400 32.60200
H  46.77700 28.88500 34.15200
H  47.73900 27.65100 35.07500
H  45.68500 19.04000 29.90700
H  45.09600 20.43100 30.84300
H  46.74900 19.95100 31.00300
H  46.07000 18.23700 27.81600
H  45.11500 18.19600 26.32700
H  44.42800 18.90600 27.86800
H  46.82600 24.63500 23.52200
H  49.36300 26.02000 24.08000
H  49.37700 23.90700 22.85400
H  48.11200 22.74400 23.25300
H  49.36300 23.33300 24.48200
H  46.96000 27.65500 24.21100
H  46.90700 26.59000 22.76200
H  48.35000 28.11600 21.70100
H  49.45400 28.03300 22.94100
H  48.22900 29.23800 23.04900
H  50.18400 30.23700 26.33900
H  51.46800 29.41200 27.07500
H  50.67100 30.75100 27.99200
H  48.33000 29.19000 32.32000
H  50.94100 28.06700 35.43100
H  51.54900 29.76600 35.54500
H  52.38400 28.53000 34.55400

