158

Mg -9.78900 39.07800 41.69400
C  -9.05900 35.67800 41.28600
C  -6.76900 39.91200 40.88000
C  -10.89200 42.32900 41.57900
C  -13.15500 38.10800 42.10300
N  -8.22100 37.94200 40.85700
C  -8.05500 36.61400 40.83900
C  -6.70800 36.23200 40.20200
C  -5.90900 37.55900 40.49700
C  -7.02100 38.55100 40.82600
C  -4.79900 37.49800 41.59100
C  -6.74400 35.55900 38.81200
C  -5.35100 34.94200 38.43100
H  -4.54500 35.51500 37.25000
N  -8.93200 40.87200 41.28900
C  -7.71600 41.03100 40.97400
C  -7.33200 42.41500 40.95800
C  -8.51000 43.19000 41.22000
C  -9.54700 42.17000 41.38100
C  -6.00400 42.95500 40.61900
C  -8.64300 44.74100 41.16600
O  -7.70700 45.42500 40.84800
C  -9.90800 45.51400 41.49300
N  -11.73700 40.09400 41.66300
C  -11.84200 41.40700 41.89500
C  -13.27300 41.88100 42.20600
C  -14.03600 40.52500 42.25100
C  -12.92800 39.50700 41.90300
C  -13.58200 42.84400 43.43200
C  -15.27500 40.33100 41.35100
C  -16.60700 39.97800 42.09400
N  -10.92000 37.24300 41.87900
C  -12.24000 37.01100 42.13000
C  -12.42700 35.54700 42.34500
C  -11.19000 34.99100 42.11300
C  -10.30700 36.05400 41.71800
C  -13.73600 34.86000 42.73300
C  -10.40800 33.79800 42.07200
O  -10.67800 32.70200 42.47800
C  -9.02400 34.24200 41.47100
C  -7.87300 33.90500 42.31800
O  -7.47200 34.54500 43.27400
O  -7.14700 32.87500 41.69000
C  -5.73500 32.77500 42.07700
H  -5.80100 40.38000 40.68800
H  -11.22300 43.35600 41.41200
H  -14.17100 37.79300 42.35200
H  -6.34600 35.41000 40.82000
H  -5.50100 37.81800 39.52000
H  -4.93100 38.18100 42.43000
H  -3.85000 37.75500 41.11900
H  -4.70200 36.50800 42.03600
H  -7.01400 36.28200 38.04200
H  -7.48900 34.76400 38.80500
H  -5.65700 33.91200 38.24500
H  -4.66800 34.73800 39.25600
H  -5.29000 42.29400 40.12800
H  -5.54800 43.38000 41.51300
H  -6.16400 43.74100 39.88100
H  -10.32600 45.10900 42.41400
H  -10.52900 45.28900 40.62600
H  -9.84200 46.59200 41.63800
H  -13.59100 42.42400 41.31600
H  -14.28000 40.32000 43.29400
H  -14.21900 43.64600 43.05900
H  -12.63900 43.28400 43.75900
H  -14.02600 42.46100 44.35100
H  -15.11100 39.47900 40.69100
H  -15.35900 41.31700 40.89200
H  -17.10000 40.94500 42.19500
H  -16.46900 39.61900 43.11400
H  -17.22600 39.27700 41.53400
H  -14.38800 35.45300 43.37400
H  -13.55900 34.00400 43.38300
H  -14.32000 34.48700 41.89200
H  -8.88000 33.76600 40.50100
H  -5.06800 32.26900 41.37900
H  -5.70900 32.12500 42.95200
H  -5.31400 33.73500 42.37700
Mg -4.83900 25.22600 25.30800
C  -3.28900 26.73200 28.01000
C  -6.44000 23.07000 27.44400
C  -5.99300 23.64400 22.59600
C  -2.93200 27.34700 23.19600
N  -4.84700 24.86700 27.41800
C  -4.16700 25.68600 28.37200
C  -4.57800 25.34300 29.75900
C  -5.40900 24.02500 29.57600
C  -5.58300 23.97300 28.07900
C  -4.78000 22.76700 30.18300
C  -5.23300 26.52600 30.51700
C  -4.89100 26.75900 32.01200
H  -4.80700 25.36800 32.75800
N  -6.08300 23.61400 25.05600
C  -6.67500 22.89800 26.03800
C  -7.55300 21.93100 25.46600
C  -7.41300 21.97400 24.03400
C  -6.50700 23.15700 23.83300
C  -8.42700 21.04400 26.29000
C  -8.08500 21.19600 22.89600
O  -7.90000 21.43500 21.70200
C  -8.95800 20.05800 23.22900
N  -4.54500 25.53200 23.13600
C  -5.11000 24.68200 22.26500
C  -4.53300 24.91900 20.83500
C  -3.79000 26.33200 20.95700
C  -3.71800 26.42400 22.50900
C  -3.65600 23.74700 20.32800
C  -4.63100 27.50100 20.33400
C  -4.15500 28.03400 18.98700
N  -3.53700 26.88900 25.51400
C  -2.77200 27.51100 24.58300
C  -1.90000 28.45100 25.24400
C  -2.04400 28.19000 26.62500
C  -3.02500 27.19100 26.71600
C  -1.02200 29.46300 24.52700
C  -1.54800 28.53100 27.93300
O  -0.67100 29.30800 28.36000
C  -2.36300 27.61600 28.86700
C  -1.49400 26.87900 29.94100
O  -1.05400 25.75800 29.81800
O  -1.51000 27.61700 31.08800
C  -0.88700 26.95600 32.23300
H  -7.02900 22.38200 28.05300
H  -6.18600 23.11900 21.65800
H  -2.41400 28.13700 22.65000
H  -3.68100 25.16100 30.35000
H  -6.41700 24.08900 29.98600
H  -5.53200 22.13400 30.65400
H  -4.12800 23.02000 31.01900
H  -4.32100 22.15700 29.40400
H  -6.31700 26.41400 30.54300
H  -5.11100 27.46300 29.97400
H  -5.61400 27.34900 32.57600
H  -3.94200 27.28700 32.10100
H  -8.12300 19.99700 26.30300
H  -9.34600 21.10400 25.70700
H  -8.59700 21.38600 27.31100
H  -8.40600 19.39200 23.89200
H  -9.28300 19.60400 22.29300
H  -9.90600 20.33200 23.69300
H  -5.41700 24.94100 20.19700
H  -2.80300 26.31800 20.49400
H  -4.27600 22.85400 20.40600
H  -2.75100 23.67600 20.93100
H  -3.39400 23.82700 19.27300
H  -4.60700 28.39500 20.95700
H  -5.64300 27.10500 20.24000
H  -4.02600 29.11600 19.03000
H  -5.03400 27.87400 18.36300
H  -3.28500 27.50600 18.59600
H  -1.41600 30.47600 24.61500
H  -0.96300 29.34000 23.44500
H  -0.08100 29.46300 25.07700
H  -3.12400 28.17200 29.41500
H  -0.79800 25.87300 32.14700
H  -1.41000 27.08800 33.18000
H  0.07900 27.45400 32.31200

