158

Mg 1.23200 42.75800 24.91700
C  3.11200 42.43100 27.84300
C  -1.62600 42.05800 26.96600
C  -0.58300 42.36500 22.13000
C  4.24800 42.80600 23.01800
N  0.80900 42.46900 27.25400
C  1.74500 42.32100 28.16500
C  1.12700 42.09600 29.55100
C  -0.38000 41.90000 29.26500
C  -0.44500 42.08500 27.73400
C  -0.97000 40.56000 29.72800
C  1.50200 43.24100 30.50000
C  1.12300 43.07400 31.96100
H  0.87800 41.68600 32.62400
N  -0.77200 42.40100 24.61500
C  -1.78000 42.19100 25.56000
C  -3.05700 42.11700 24.84400
C  -2.74800 42.33400 23.47900
C  -1.32600 42.29100 23.36900
C  -4.42700 42.06500 25.59500
C  -3.72700 42.39900 22.39800
O  -3.45500 42.20800 21.22100
C  -5.23200 42.53500 22.58000
N  1.77900 42.50600 22.86500
C  0.81800 42.34400 21.94300
C  1.32300 42.38100 20.49900
C  2.86900 42.71500 20.77200
C  3.04200 42.74100 22.29500
C  1.05600 41.10200 19.71400
C  3.29200 44.03900 20.10200
C  2.86600 45.33400 20.74900
N  3.25900 42.74600 25.28200
C  4.34500 42.83500 24.42800
C  5.57200 42.86100 25.26300
C  5.12800 42.70200 26.53400
C  3.73400 42.64400 26.54300
C  6.93400 43.11500 24.84300
C  5.48600 42.53000 27.91300
O  6.59200 42.50600 28.38500
C  4.27200 42.40300 28.82100
C  4.22900 41.12700 29.63300
O  4.00500 40.01900 29.11200
O  4.46400 41.30300 30.95400
C  4.76500 40.05300 31.67000
H  -2.56600 41.93300 27.50700
H  -1.09000 42.30600 21.16500
H  5.12500 42.95600 22.38500
H  1.57500 41.19000 29.95800
H  -1.04600 42.65200 29.69000
H  -0.32600 40.03400 30.43400
H  -1.16700 39.95600 28.84300
H  -1.97100 40.67300 30.14300
H  0.93900 44.09000 30.11200
H  2.54700 43.53800 30.58600
H  0.25700 43.69100 32.19900
H  1.95400 43.60500 32.42400
H  -4.66000 43.10900 25.80400
H  -4.30500 41.52800 26.53600
H  -5.26800 41.62800 25.05700
H  -5.75200 41.62800 22.88800
H  -5.72300 42.98000 21.71400
H  -5.32800 43.25500 23.39200
H  0.81200 43.24000 20.06300
H  3.59800 41.96000 20.48000
H  0.16800 40.55900 20.03600
H  1.89400 40.40500 19.74100
H  0.92200 41.46600 18.69500
H  2.83700 43.93100 19.11800
H  4.37600 44.08400 19.99300
H  2.20200 45.08300 21.57600
H  2.37800 46.01300 20.05000
H  3.75100 45.82700 21.15200
H  7.61000 42.36400 25.25300
H  7.11100 44.10600 25.26200
H  7.09800 42.98400 23.77300
H  4.35000 43.24900 29.50300
H  5.51100 39.40300 31.21300
H  3.88000 39.41900 31.72400
H  5.17100 40.18700 32.67300
Mg -6.30400 25.22700 25.71300
C  -4.77000 26.46600 28.62000
C  -7.87000 22.78600 27.74100
C  -7.16800 23.50800 22.96400
C  -4.11300 27.19200 23.80600
N  -6.41800 24.81000 27.93600
C  -5.68700 25.48600 28.92000
C  -5.96600 24.91100 30.33300
C  -6.71300 23.50400 29.97200
C  -7.09900 23.74100 28.45200
C  -5.76800 22.31900 30.30300
C  -6.72200 25.94400 31.19200
C  -6.47200 26.12900 32.67900
H  -5.71700 24.99000 33.37500
N  -7.68800 23.55600 25.37900
C  -8.20600 22.69000 26.35500
C  -9.02900 21.72500 25.72000
C  -8.78600 21.91800 24.28600
C  -7.85700 23.02600 24.13900
C  -9.85600 20.69700 26.41400
C  -9.36100 21.05400 23.11400
O  -8.93300 21.28000 21.98300
C  -10.39600 19.96300 23.34000
N  -5.79800 25.47400 23.65100
C  -6.20200 24.48800 22.75100
C  -5.63200 24.70700 21.38200
C  -4.70600 25.96600 21.65200
C  -4.98600 26.34600 23.10700
C  -4.97000 23.46200 20.79900
C  -4.90800 27.17000 20.68500
C  -3.57900 27.88300 20.15800
N  -4.66200 26.57900 26.10500
C  -3.89700 27.29300 25.19100
C  -2.98600 28.17000 25.99800
C  -3.31900 27.88000 27.35400
C  -4.32600 26.92800 27.36300
C  -1.92000 28.99200 25.41400
C  -3.00000 28.11500 28.77900
O  -2.12800 28.76500 29.28000
C  -3.89700 27.23800 29.60200
C  -2.95600 26.41000 30.44200
O  -2.38400 25.41300 29.98100
O  -2.78400 26.95800 31.61300
C  -2.05000 26.15700 32.63300
H  -8.24800 21.93400 28.31000
H  -7.44300 22.97100 22.05400
H  -3.54600 27.89200 23.18800
H  -5.06400 24.64200 30.88200
H  -7.58200 23.34900 30.61100
H  -5.54400 21.79600 29.37400
H  -6.34600 21.56400 30.83600
H  -4.86000 22.63400 30.81600
H  -7.76400 25.66500 31.04000
H  -6.71900 26.91200 30.69100
H  -7.45200 26.21400 33.14900
H  -5.80600 26.97500 32.84600
H  -9.27600 19.79700 26.61700
H  -10.74800 20.45800 25.83600
H  -10.26000 21.22100 27.28000
H  -10.74400 19.58900 22.37700
H  -11.17400 20.45200 23.92600
H  -9.86300 19.16800 23.86100
H  -6.37400 25.02800 20.65200
H  -3.66700 25.69800 21.46200
H  -3.90400 23.66100 20.69200
H  -5.41900 23.10800 19.87100
H  -5.12500 22.68200 21.54500
H  -5.53400 27.93200 21.15000
H  -5.42500 26.84200 19.78300
H  -3.62100 28.90300 20.54000
H  -3.58200 27.75400 19.07600
H  -2.71600 27.33200 20.53100
H  -2.25700 30.02700 25.34700
H  -1.72500 28.70600 24.38000
H  -0.98500 28.98300 25.97400
H  -4.50900 27.86900 30.24700
H  -0.98900 26.39500 32.70200
H  -2.17200 25.07800 32.54600
H  -2.42500 26.43400 33.61900

