158

Mg 56.00800 23.10200 44.36500
C  53.77100 25.60400 43.24600
C  53.92600 20.69200 43.18900
C  58.43400 20.82000 44.69800
C  58.27500 25.58700 45.27400
N  54.06900 23.13600 43.29600
C  53.31300 24.24200 43.03100
C  51.90400 23.82700 42.53000
C  51.90400 22.26000 42.81500
C  53.40300 21.97500 43.17400
C  50.94100 21.75800 43.93600
C  51.64400 24.14800 41.03300
C  50.26300 24.60700 40.81000
H  49.49700 23.84100 39.73000
N  56.12200 21.02300 44.05400
C  55.14600 20.27100 43.63500
C  55.54800 18.92600 43.71100
C  56.95900 18.90900 44.01000
C  57.23600 20.25700 44.24900
C  54.69100 17.67700 43.36000
C  57.80800 17.60100 44.16200
O  57.36500 16.48600 44.02800
C  59.19200 17.69800 44.62200
N  58.05300 23.21200 44.87300
C  58.79800 22.14900 44.95100
C  60.23600 22.53000 45.41500
C  60.07700 23.99900 45.87400
C  58.74500 24.27100 45.38700
C  60.92500 21.66200 46.53800
C  61.20000 24.98500 45.22700
C  61.98300 25.89800 46.18300
N  56.06700 25.23100 44.32300
C  57.00000 26.04200 44.74300
C  56.53600 27.39900 44.57900
C  55.23200 27.27800 44.04300
C  55.03700 25.89500 43.82500
C  57.29100 28.57900 44.98600
C  54.12300 27.98400 43.58500
O  53.95500 29.21200 43.60100
C  53.09200 26.93800 43.07100
C  52.74900 27.32700 41.59400
O  53.36300 27.11400 40.55600
O  51.52500 27.87100 41.63600
C  51.05700 28.53000 40.37400
H  53.16900 19.93500 42.97100
H  59.21800 20.06200 44.65700
H  58.93500 26.37900 45.63400
H  51.09100 24.23100 43.13300
H  51.64200 21.75800 41.88400
H  51.52900 21.59500 44.83900
H  50.64500 20.75300 43.63300
H  50.06000 22.38200 44.08600
H  51.88600 23.26400 40.44300
H  52.32100 24.92600 40.67800
H  50.35100 25.67300 40.59900
H  49.65300 24.75500 41.70200
H  54.58300 17.16700 44.31700
H  55.16800 17.01600 42.63700
H  53.69600 17.90700 42.98100
H  59.93200 17.97100 43.87000
H  59.47800 16.66100 44.79800
H  59.23200 18.06200 45.64900
H  60.88400 22.43000 44.54400
H  60.12900 23.98800 46.96200
H  61.95100 21.42900 46.25300
H  60.46800 20.67200 46.53500
H  60.90200 22.15700 47.50800
H  60.74700 25.62500 44.47000
H  61.86800 24.33100 44.66700
H  61.46600 25.94200 47.14200
H  62.14800 26.90500 45.80000
H  62.98100 25.51300 46.39700
H  58.20600 28.62700 44.39500
H  57.52900 28.45800 46.04300
H  56.68800 29.45500 44.74900
H  52.21600 26.78400 43.70100
H  51.72200 28.31400 39.53900
H  51.04700 29.59800 40.59100
H  50.02500 28.26300 40.14600
Mg 49.18400 44.90200 43.12900
C  45.83100 45.43900 42.20500
C  48.92900 41.67900 41.79800
C  52.57400 44.58100 43.48600
C  49.33400 48.09700 44.36800
N  47.51900 43.71400 41.91200
C  46.25600 44.10400 41.81400
C  45.50800 42.90700 41.34600
C  46.44700 41.69700 41.46300
C  47.71100 42.37600 41.77900
C  45.95000 40.70700 42.45000
C  44.88200 43.16200 39.94500
C  43.48600 42.72100 39.55000
H  43.25900 41.87400 38.28600
N  50.53800 43.39300 42.69000
C  50.25600 42.13600 42.16500
C  51.42900 41.44100 41.92400
C  52.53800 42.26200 42.38300
C  51.91500 43.44100 42.98200
C  51.39700 40.05700 41.20000
C  53.99100 41.88900 42.19500
O  54.35900 40.81000 41.79800
C  55.11500 42.74700 42.73600
N  50.85400 46.28600 43.70400
C  52.11700 45.84500 43.94600
C  52.95700 47.04300 44.46100
C  51.82700 48.01800 44.98800
C  50.59000 47.43700 44.31100
C  54.04300 46.66700 45.46400
C  52.13300 49.48000 44.79500
C  51.67200 50.39900 46.00900
N  47.83700 46.49300 43.33500
C  48.08100 47.73500 43.78400
C  46.83600 48.47700 43.75800
C  45.90400 47.64900 43.13100
C  46.58000 46.45900 42.87600
C  46.60800 49.88400 44.08200
C  44.56700 47.49900 42.57500
O  43.62400 48.28500 42.52100
C  44.47200 46.11400 41.95600
C  43.25000 45.40100 42.37100
O  42.14600 45.49400 41.78500
O  43.46400 44.54200 43.43600
C  42.33600 43.66500 43.77100
H  48.93700 40.64600 41.44300
H  53.65400 44.56600 43.64200
H  49.28900 49.10100 44.79300
H  44.62300 42.77600 41.96800
H  46.57800 41.18300 40.51100
H  45.47200 39.82300 42.02900
H  45.26300 41.06000 43.21800
H  46.73500 40.21700 43.02600
H  45.48100 42.51500 39.30500
H  45.03200 44.19800 39.64000
H  42.92500 43.63800 39.37000
H  42.93600 42.12700 40.28100
H  52.36500 39.57600 41.06000
H  50.88000 40.15300 40.24500
H  50.65200 39.37000 41.59900
H  54.98800 42.77500 43.81800
H  55.16500 43.70200 42.21300
H  56.08200 42.32300 42.46400
H  53.40300 47.54200 43.60000
H  51.45700 47.92700 46.00900
H  55.07200 46.92100 45.20800
H  54.04500 45.65100 45.85700
H  53.83700 47.39800 46.24600
H  51.80600 49.81800 43.81200
H  53.20200 49.67400 44.88000
H  50.92500 51.12100 45.67800
H  52.52800 50.97400 46.36200
H  51.42600 49.81200 46.89400
H  47.07700 50.10700 45.04000
H  45.54500 50.11400 44.00800
H  47.10400 50.48500 43.31900
H  44.47100 46.12600 40.86700
H  41.79400 44.27900 44.49000
H  42.75300 42.70600 44.07700
H  41.69400 43.35800 42.94400

