158

Mg 25.50700 -0.04700 29.04200
C  27.48900 -0.36200 31.88200
C  22.75300 0.42300 30.88900
C  23.73200 0.09900 26.03400
C  28.36200 -0.84800 27.01600
N  25.18100 -0.17700 31.05800
C  26.14000 -0.01000 32.09300
C  25.53300 0.21300 33.47100
C  23.97800 0.40800 33.14500
C  23.95400 0.13900 31.62000
C  22.98500 -0.48800 33.97700
C  26.23700 1.44500 34.10100
C  26.98600 1.15300 35.44200
H  26.56500 1.97900 36.60700
N  23.59700 0.18300 28.58200
C  22.60000 0.41700 29.48000
C  21.36700 0.69500 28.83200
C  21.60900 0.63900 27.41200
C  22.99200 0.28400 27.29400
C  20.17300 1.04200 29.67100
C  20.57200 0.81700 26.26400
O  20.89400 0.48100 25.12100
C  19.17800 1.21700 26.53200
N  25.97700 -0.50100 26.84100
C  25.08800 -0.20900 25.88500
C  25.75800 -0.13900 24.51500
C  27.26700 -0.43400 24.76200
C  27.21600 -0.59800 26.32600
C  24.99300 -0.97400 23.38000
C  28.22100 0.62200 24.11800
C  28.56300 1.77200 25.01600
N  27.50700 -0.63500 29.33800
C  28.53400 -0.92400 28.42600
C  29.71400 -1.27500 29.23500
C  29.32500 -1.05400 30.56000
C  28.00600 -0.63900 30.57600
C  31.01400 -1.72900 28.67500
C  29.81600 -1.00600 31.90400
O  30.93800 -1.23100 32.27700
C  28.64300 -0.52000 32.79700
C  28.44800 -1.45200 33.91000
O  27.57000 -2.27000 34.01400
O  29.45000 -1.28200 34.85300
C  29.38000 -2.05200 36.14900
H  21.98000 0.73300 31.59600
H  23.22700 0.29800 25.08600
H  29.19700 -1.13800 26.37400
H  25.55000 -0.68800 34.08400
H  23.73200 1.44100 33.38700
H  22.49300 -1.18300 33.29700
H  22.23800 0.21500 34.34700
H  23.36800 -0.94400 34.89000
H  25.39700 2.06800 34.41000
H  26.92400 1.90900 33.39300
H  28.05600 1.35900 35.43100
H  26.75200 0.11900 35.69500
H  20.07600 0.57900 30.65300
H  19.26500 0.64600 29.21700
H  20.06100 2.10600 29.87900
H  18.93300 2.16200 27.01600
H  18.70400 0.38000 27.04300
H  18.70100 1.36900 25.56400
H  25.78100 0.86600 24.09300
H  27.61500 -1.45000 24.57300
H  24.57100 -1.84900 23.87400
H  25.59000 -1.15000 22.48500
H  24.17900 -0.32900 23.04600
H  27.81900 1.00500 23.18000
H  29.16600 0.09400 23.98800
H  27.83300 1.95600 25.80400
H  28.68700 2.68100 24.42800
H  29.52800 1.55900 25.47700
H  30.82600 -2.75100 28.34600
H  31.89400 -1.86000 29.30500
H  31.43200 -1.09000 27.89700
H  29.05700 0.41700 33.17100
H  29.96100 -1.58100 36.94200
H  29.70000 -3.08100 35.98100
H  28.33600 -2.10000 36.45600
Mg 29.85100 58.95100 38.58300
C  26.77900 57.26100 37.79400
C  31.50800 56.07000 38.05700
C  32.56600 60.89400 38.52500
C  27.94100 62.00600 38.61900
N  29.25400 57.02100 37.87500
C  28.00800 56.48100 37.63400
C  28.09000 55.03900 36.97500
C  29.47400 54.62800 37.58200
C  30.15100 55.97400 37.81000
C  29.39600 53.78700 38.86700
C  27.97600 55.03100 35.42900
C  26.64800 54.55600 34.78700
H  25.80000 55.43900 33.88600
N  31.83600 58.52200 38.48600
C  32.32800 57.24500 38.26200
C  33.71900 57.37100 38.13900
C  34.13200 58.74600 38.40900
C  32.80800 59.48800 38.54400
C  34.56600 56.13000 37.91000
C  35.50600 59.27200 38.45200
O  36.44100 58.63200 38.09300
C  35.75600 60.73800 38.96500
N  30.18600 61.21500 38.42900
C  31.41900 61.68200 38.49900
C  31.43200 63.24200 38.34800
C  29.87700 63.57500 38.28500
C  29.30500 62.20400 38.43500
C  32.18900 63.96400 39.50400
C  29.47100 64.27800 36.97300
C  29.83700 65.72200 36.86800
N  27.77600 59.54800 38.42100
C  27.19600 60.81500 38.55400
C  25.72400 60.58700 38.61000
C  25.50300 59.22800 38.33100
C  26.78000 58.65200 38.23800
C  24.68200 61.74100 38.69500
C  24.52400 58.26700 38.05300
O  23.31800 58.40400 38.08200
C  25.23100 56.96500 37.56000
C  24.76900 55.88400 38.57300
O  24.51600 56.08300 39.78400
O  24.30300 54.80600 37.80500
C  23.16000 54.18400 38.31400
H  32.06000 55.13500 37.94200
H  33.48300 61.47100 38.39200
H  27.32500 62.90500 38.69200
H  27.27400 54.46600 37.41500
H  30.06500 54.06100 36.86200
H  28.51100 53.17800 39.05100
H  29.59900 54.52900 39.64000
H  30.21100 53.06300 38.86100
H  28.64300 54.31600 34.94600
H  28.31200 56.02000 35.11800
H  25.91400 54.12600 35.46900
H  27.00700 53.77700 34.11400
H  35.62900 56.32000 38.06100
H  34.35200 55.68000 36.94100
H  34.25200 55.39500 38.65100
H  36.81400 60.93300 39.13900
H  35.18300 61.01200 39.85100
H  35.53100 61.47400 38.19300
H  31.92300 63.43900 37.39500
H  29.46700 64.12200 39.13500
H  31.49800 64.71600 39.88500
H  33.10300 64.47700 39.20600
H  32.28500 63.33900 40.39200
H  28.40500 64.17500 36.76800
H  29.97300 63.79400 36.13600
H  29.01600 66.41600 36.68800
H  30.58200 65.75500 36.07300
H  30.49400 66.05800 37.67000
H  25.05600 62.58400 38.11500
H  24.51400 62.11000 39.70700
H  23.68900 61.56400 38.28400
H  24.89400 56.73000 36.55000
H  22.45500 53.99400 37.50400
H  22.52400 54.84800 38.89900
H  23.32000 53.19300 38.73800

