158

Mg -2.07800 16.93300 27.41200
C  -2.31700 14.95000 30.37000
C  -2.34800 19.74400 29.31200
C  -1.78000 18.72100 24.60500
C  -1.41200 14.06200 25.65500
N  -2.41300 17.30700 29.61300
C  -2.30700 16.36100 30.56100
C  -2.47400 17.05000 31.94100
C  -2.45900 18.54700 31.62800
C  -2.31900 18.55100 30.11500
C  -3.62100 19.40000 32.25000
C  -1.45500 16.61600 33.00400
C  -1.08600 17.53800 34.16300
H  -0.67700 16.98800 35.49000
N  -2.23000 18.87900 26.95400
C  -2.30400 19.88600 27.88300
C  -2.24300 21.20400 27.23800
C  -2.10900 20.87100 25.83400
C  -2.05500 19.44800 25.72000
C  -2.22700 22.48500 27.97200
C  -2.05400 21.82300 24.58500
O  -2.14800 21.51200 23.34600
C  -1.76100 23.33400 24.89200
N  -1.66100 16.48800 25.41600
C  -1.62800 17.40900 24.40500
C  -1.35300 16.73300 23.06800
C  -0.95500 15.27300 23.49800
C  -1.38500 15.22900 24.93100
C  -2.65000 16.76900 22.13700
C  0.55200 14.85400 23.23100
C  1.62500 15.86600 23.62300
N  -1.99800 14.90800 27.88000
C  -1.75700 13.84500 27.01400
C  -1.82000 12.60400 27.74500
C  -2.02300 12.97300 29.08500
C  -2.09900 14.39500 29.08700
C  -1.96000 11.23700 27.17600
C  -2.35500 12.48400 30.40400
O  -2.46800 11.28400 30.72100
C  -2.28600 13.75400 31.30900
C  -0.92600 13.59700 31.98200
O  0.17300 13.74000 31.53500
O  -1.28800 13.20000 33.22600
C  -0.29200 13.50900 34.22800
H  -2.30700 20.62500 29.95700
H  -1.68600 19.30000 23.68400
H  -1.21900 13.10600 25.16500
H  -3.44600 16.74200 32.32500
H  -1.51600 18.96700 31.97700
H  -4.38000 18.67100 32.53300
H  -4.15400 19.95500 31.47800
H  -3.37500 20.08300 33.06300
H  -0.48900 16.30500 32.60800
H  -1.98200 15.81700 33.52600
H  -2.01800 18.08800 34.29700
H  -0.25100 18.18900 33.90400
H  -2.08400 22.46800 29.05200
H  -3.14300 23.04400 27.78200
H  -1.42500 23.12800 27.60800
H  -2.02500 23.97900 24.05400
H  -0.67300 23.30100 24.94800
H  -2.21400 23.76900 25.78200
H  -0.46400 17.14800 22.59200
H  -1.53400 14.50700 22.98200
H  -3.35400 17.36400 22.71900
H  -3.04500 15.77800 21.91100
H  -2.50100 17.32800 21.21400
H  0.69400 14.50900 22.20700
H  0.56900 13.92500 23.80100
H  2.13800 16.12000 22.69600
H  2.27500 15.41300 24.37200
H  1.21200 16.79000 24.02700
H  -3.03000 11.02900 27.16300
H  -1.48900 10.55600 27.88400
H  -1.47400 11.17000 26.20300
H  -3.05800 13.80400 32.07700
H  0.29500 14.36900 33.90700
H  0.41300 12.72300 34.49900
H  -0.85300 13.79700 35.11700
Mg 0.87500 42.10600 26.28700
C  2.96900 42.13700 29.15200
C  -1.84400 41.65300 28.41100
C  -1.04200 41.88400 23.57800
C  3.74500 41.94500 24.25200
N  0.58400 42.01800 28.58900
C  1.62200 41.92100 29.53200
C  1.00900 41.93400 30.88800
C  -0.54500 41.73100 30.68600
C  -0.65200 41.77600 29.09200
C  -1.19100 40.51200 31.45700
C  1.38100 43.29200 31.65400
C  1.83300 43.14800 33.13700
H  1.37700 42.00800 34.03100
N  -1.18900 41.94600 25.99300
C  -2.11700 41.71200 26.99300
C  -3.41600 41.52900 26.40000
C  -3.22300 41.53300 24.94700
C  -1.78700 41.76300 24.75400
C  -4.71100 41.44800 27.16300
C  -4.28100 41.31500 23.89100
O  -3.99800 41.40300 22.68800
C  -5.66100 40.89400 24.29600
N  1.28400 41.87300 24.24400
C  0.30100 41.93300 23.27600
C  0.84100 41.85700 21.86900
C  2.36200 41.89000 22.08500
C  2.49300 41.89600 23.62800
C  0.40000 40.56300 21.04200
C  3.00800 43.07600 21.45300
C  2.41600 44.47300 21.62500
N  2.91500 42.18900 26.55900
C  3.99200 42.10700 25.64700
C  5.23800 42.32500 26.41500
C  4.87000 42.32500 27.72900
C  3.45100 42.25200 27.81100
C  6.69100 42.51300 25.88000
C  5.45300 42.55000 29.06600
O  6.64000 42.79600 29.47700
C  4.22900 42.29200 30.02100
C  4.61600 41.20400 30.88200
O  4.74100 40.02100 30.54400
O  4.89300 41.69300 32.22800
C  5.25500 40.68200 33.20500
H  -2.67700 41.40200 29.07100
H  -1.53600 41.92700 22.60500
H  4.63400 41.91700 23.61800
H  1.43700 41.07200 31.39900
H  -1.06500 42.62000 31.04100
H  -1.68800 39.74900 30.85800
H  -1.95400 41.02800 32.04000
H  -0.48000 40.07400 32.15800
H  0.57200 44.02000 31.72100
H  2.18300 43.86800 31.19300
H  1.50200 44.03800 33.67300
H  2.91800 43.21600 33.20900
H  -4.67500 41.59200 28.24300
H  -5.14900 40.46300 27.00200
H  -5.40500 42.15600 26.71100
H  -6.20600 41.70400 24.77900
H  -5.49200 40.04700 24.96000
H  -6.25400 40.62000 23.42300
H  0.37800 42.70600 21.36700
H  2.88600 41.04000 21.65000
H  -0.00300 39.74400 21.63800
H  1.25500 40.21700 20.46300
H  -0.42200 40.85800 20.39000
H  3.12500 42.79900 20.40600
H  4.02800 43.13200 21.83400
H  2.23100 44.89100 20.63600
H  3.23100 45.12800 21.93300
H  1.55000 44.49700 22.28600
H  6.76000 43.46400 25.35300
H  6.82100 41.71000 25.15400
H  7.38400 42.40800 26.71500
H  4.15200 43.14300 30.69800
H  6.17200 40.15500 32.93900
H  4.55400 39.84800 33.22400
H  5.31500 41.13900 34.19300

