158

Mg 40.39600 9.24500 29.76400
C  41.96700 10.85400 32.21000
C  38.17700 7.89900 31.93500
C  38.78200 7.99600 27.10800
C  42.94000 10.22400 27.49100
N  40.22700 9.29900 31.90400
C  40.87700 10.15700 32.70800
C  40.39700 9.98600 34.13300
C  39.26700 8.91600 34.05400
C  39.19000 8.65300 32.54300
C  39.43400 7.58200 34.74600
C  40.04200 11.39500 34.71200
C  39.23200 11.50800 35.96400
H  39.67800 12.41900 37.06100
N  38.66500 8.15300 29.51800
C  37.86700 7.66300 30.61100
C  36.72000 6.96700 30.02000
C  36.84900 7.06200 28.58900
C  38.14400 7.71400 28.38300
C  35.50200 6.46500 30.88300
C  35.82600 6.71600 27.46900
O  36.07700 6.63000 26.27800
C  34.41100 6.41700 27.91600
N  40.91200 9.00500 27.66200
C  40.00700 8.47900 26.78900
C  40.49100 8.52100 25.29000
C  41.97200 9.12300 25.42500
C  41.90800 9.49800 26.92800
C  40.37900 7.27300 24.41100
C  42.28200 10.29000 24.40600
C  41.85200 11.74900 24.62800
N  42.13000 10.25900 29.74000
C  43.05800 10.67300 28.81200
C  44.07500 11.44000 29.42200
C  43.74500 11.50200 30.74400
C  42.51800 10.85200 30.86000
C  45.39200 11.92700 28.73800
C  44.12500 12.05900 32.02800
O  45.10700 12.68300 32.39000
C  42.92600 11.69400 33.09600
C  43.58400 10.95300 34.19300
O  43.99000 9.82100 34.17200
O  43.65500 11.79800 35.24900
C  44.03400 11.14500 36.54400
H  37.58800 7.49800 32.76200
H  38.21200 7.70300 26.22400
H  43.65200 10.64900 26.78100
H  41.24400 9.61100 34.70700
H  38.31600 9.40700 34.26100
H  38.45700 7.39700 35.19100
H  40.24600 7.63300 35.47100
H  39.76800 6.74800 34.12800
H  39.50100 11.90900 33.91700
H  40.95200 11.99300 34.75700
H  39.16000 10.55300 36.48500
H  38.25000 11.89100 35.68800
H  35.69600 6.51100 31.95500
H  35.31000 5.47600 30.46800
H  34.67500 7.13400 30.64700
H  33.96600 7.15900 28.58000
H  34.24300 5.47400 28.43700
H  33.82500 6.44300 26.99700
H  39.84100 9.22500 24.77000
H  42.67000 8.28900 25.49000
H  41.34500 6.77400 24.48600
H  40.18100 7.58500 23.38500
H  39.55600 6.60400 24.66000
H  41.72800 10.08000 23.49100
H  43.35300 10.40000 24.23300
H  41.24700 12.07700 23.78300
H  42.73200 12.39100 24.65200
H  41.22600 11.76900 25.52100
H  46.24000 11.92300 29.42300
H  45.37800 12.94900 28.35900
H  45.64300 11.31700 27.87000
H  42.59200 12.70400 33.33300
H  43.24000 11.34900 37.26300
H  44.98600 11.54100 36.89700
H  44.16400 10.06400 36.58400
Mg -1.20700 34.87000 27.47300
C  -2.89400 33.09800 29.95900
C  -0.05400 37.07500 29.81300
C  -0.12200 36.88100 24.97300
C  -2.52200 32.67300 25.06300
N  -1.57500 35.08900 29.71200
C  -2.17800 34.19500 30.52200
C  -2.06600 34.67000 32.00500
C  -1.30800 36.01300 31.82600
C  -0.87900 36.06000 30.38700
C  -2.12800 37.29400 32.31300
C  -1.32200 33.61900 32.91600
C  -1.92700 33.44700 34.31600
H  -0.97600 33.43300 35.46100
N  -0.07500 36.57800 27.43100
C  0.29500 37.32900 28.50200
C  1.10800 38.43300 28.04300
C  1.01400 38.51500 26.65100
C  0.30600 37.27100 26.28200
C  1.85300 39.36500 29.02400
C  1.70200 39.44300 25.62900
O  1.40300 39.44300 24.44400
C  2.96800 40.23700 25.98100
N  -1.27300 34.76400 25.35900
C  -0.82900 35.78000 24.49500
C  -1.34300 35.62600 23.10900
C  -1.77700 34.13900 23.16000
C  -1.89200 33.85000 24.60100
C  -2.56300 36.57400 22.87400
C  -0.98000 33.12900 22.31800
C  0.31700 32.55800 22.82800
N  -2.45900 33.27100 27.42600
C  -2.82400 32.40100 26.40700
C  -3.71900 31.41000 26.92200
C  -3.70400 31.51300 28.31900
C  -3.02000 32.74700 28.60100
C  -4.38500 30.35700 25.98800
C  -4.09300 30.94400 29.62200
O  -4.73100 29.89300 29.85100
C  -3.66800 31.95700 30.76900
C  -4.82400 32.41300 31.51000
O  -5.76600 33.09200 31.08500
O  -4.67800 31.99700 32.81100
C  -5.81500 32.42300 33.66200
H  0.30100 37.73100 30.61100
H  0.14700 37.59200 24.19000
H  -2.77900 31.98100 24.25900
H  -3.09800 34.77600 32.34000
H  -0.33600 36.04800 32.31800
H  -1.40900 37.99800 32.73200
H  -2.83400 37.05900 33.10900
H  -2.72400 37.72200 31.50700
H  -0.40300 34.14500 33.17400
H  -1.26900 32.68300 32.36000
H  -2.39200 32.46100 34.30400
H  -2.81500 34.07600 34.37500
H  2.93200 39.21700 29.07900
H  1.54400 39.08500 30.03100
H  1.58500 40.37100 28.70100
H  2.71500 40.90300 26.80500
H  3.32000 40.92300 25.21100
H  3.86500 39.71300 26.31300
H  -0.59800 35.85300 22.34700
H  -2.80800 34.01600 22.82600
H  -2.50000 37.42000 23.55900
H  -3.55300 36.11900 22.87900
H  -2.59600 37.03700 21.88800
H  -0.77300 33.55100 21.33400
H  -1.66300 32.29800 22.14300
H  0.76700 33.18700 23.59600
H  0.94000 32.47100 21.93800
H  0.06700 31.56300 23.19600
H  -4.50400 29.43600 26.55900
H  -3.76900 30.04300 25.14500
H  -5.32500 30.65800 25.52500
H  -2.93400 31.41500 31.36500
H  -6.58400 33.08200 33.26000
H  -5.37800 32.73200 34.61200
H  -6.33900 31.54300 34.03600

