158

Mg 47.42500 15.89300 27.98500
C  45.81200 15.60800 31.13000
C  49.46600 18.19100 29.26800
C  48.64500 16.31100 24.86500
C  44.89900 13.91100 26.68000
N  47.63300 16.67500 30.02700
C  46.97300 16.38400 31.15200
C  47.56200 17.25900 32.27400
C  48.51500 18.19600 31.64700
C  48.60700 17.61100 30.22100
C  48.11300 19.65400 31.64000
C  48.03100 16.43000 33.44600
C  47.96500 17.05500 34.85100
H  49.05300 16.59800 35.81300
N  48.92900 16.94300 27.18300
C  49.60100 17.91000 27.87900
C  50.53300 18.62700 26.99800
C  50.42600 17.98500 25.72200
C  49.27700 17.03900 25.87000
C  51.39600 19.76900 27.42900
C  51.24700 18.21500 24.50000
O  51.01100 17.64000 23.43900
C  52.38000 19.11700 24.54400
N  46.89600 15.22000 26.00100
C  47.59800 15.38200 24.90800
C  47.01000 14.61400 23.68500
C  45.98900 13.70200 24.42700
C  45.91400 14.27500 25.78600
C  46.48000 15.49600 22.50300
C  46.41100 12.22000 24.26900
C  47.64400 11.79800 25.08500
N  45.69700 15.01900 28.71000
C  44.73700 14.34900 28.00200
C  43.60900 14.03800 28.82100
C  44.02600 14.45700 30.07900
C  45.31200 15.08200 29.94000
C  42.45100 13.15000 28.44300
C  43.64500 14.54300 31.47900
O  42.62300 14.17500 32.04800
C  44.74900 15.31100 32.21400
C  44.27300 16.58900 32.82600
O  43.84800 17.55300 32.13800
O  44.43200 16.59900 34.13700
C  43.95300 17.80700 34.79400
H  50.19200 18.90800 29.65800
H  48.96700 16.42800 23.82800
H  44.18400 13.21400 26.23700
H  46.79800 17.95400 32.62300
H  49.46400 18.04200 32.16200
H  47.29800 19.93500 32.30700
H  47.80100 19.99200 30.65200
H  49.02600 20.16800 31.94300
H  49.07900 16.19300 33.26500
H  47.56100 15.45800 33.59600
H  46.99700 16.75600 35.25300
H  47.96800 18.14400 34.80500
H  52.48000 19.65200 27.40700
H  51.00300 20.19200 28.35300
H  51.20800 20.61700 26.77000
H  53.13800 18.65900 25.18000
H  51.94700 20.09500 24.75600
H  52.77200 19.25600 23.53700
H  47.87600 14.07800 23.29700
H  44.98500 13.73300 24.00200
H  46.45300 16.56100 22.73300
H  45.44500 15.30700 22.21600
H  47.23000 15.29000 21.74000
H  46.46700 11.98700 23.20500
H  45.57800 11.58100 24.56200
H  47.84100 12.34300 26.00800
H  48.51000 12.09800 24.49400
H  47.56400 10.73900 25.32900
H  41.73800 13.69000 27.82000
H  42.01100 12.73600 29.35000
H  43.01500 12.46100 27.81500
H  45.09600 14.69800 33.04600
H  44.27100 18.69800 34.25300
H  44.49100 17.91700 35.73500
H  42.91800 17.79800 35.13400
Mg -8.88000 40.95800 42.83200
C  -7.91500 37.68300 41.92400
C  -6.05700 42.15300 41.11100
C  -10.02500 44.16400 43.15200
C  -11.95900 39.66700 43.75100
N  -7.31000 40.02800 41.60200
C  -7.02200 38.68800 41.51700
C  -5.80800 38.41400 40.63900
C  -5.04700 39.82000 40.74800
C  -6.17100 40.75300 41.20300
C  -3.94500 39.91800 41.78300
C  -6.18200 37.79300 39.21300
C  -5.47200 36.44800 38.74700
H  -4.48300 36.60100 37.56500
N  -8.22200 42.88200 42.00400
C  -6.96900 43.20300 41.46300
C  -6.77200 44.63800 41.46200
C  -7.95800 45.22000 42.14400
C  -8.82300 44.08600 42.37400
C  -5.50200 45.25000 40.88100
C  -8.18500 46.68700 42.44500
O  -7.36500 47.46600 42.10900
C  -9.36200 47.24400 43.12300
N  -10.70900 41.76500 43.38700
C  -10.91500 43.14800 43.53000
C  -12.26000 43.43700 44.24200
C  -12.91600 41.96100 44.22400
C  -11.81800 41.03400 43.82100
C  -12.24500 44.11200 45.61800
C  -14.16700 41.77900 43.41700
C  -15.52200 41.72000 44.18800
N  -9.66600 39.07200 43.05500
C  -10.97100 38.70000 43.41000
C  -11.03700 37.32700 43.50600
C  -9.82700 36.80900 42.92800
C  -9.10700 37.91600 42.59800
C  -12.13100 36.54300 44.13400
C  -9.03400 35.64500 42.50000
O  -9.40700 34.49000 42.45600
C  -7.80500 36.16500 41.84900
C  -6.69600 35.57000 42.63600
O  -6.63700 35.67400 43.85600
O  -5.74800 34.93600 41.85800
C  -4.57600 34.41600 42.56600
H  -5.14900 42.52400 40.63000
H  -10.35800 45.16400 43.43700
H  -12.91100 39.27600 44.11700
H  -5.23100 37.60700 41.08900
H  -4.69100 40.27500 39.82400
H  -3.09000 40.23900 41.18600
H  -3.90600 38.91100 42.19800
H  -4.12500 40.57300 42.63600
H  -5.87400 38.63300 38.59000
H  -7.23500 37.69100 38.95000
H  -6.22000 35.67200 38.58600
H  -4.94700 36.07900 39.62800
H  -5.72700 46.11300 40.25500
H  -4.99300 44.48100 40.30000
H  -4.74400 45.62900 41.56600
H  -9.16600 48.31200 43.22400
H  -9.48800 46.89200 44.14700
H  -10.28000 47.05400 42.56600
H  -12.74900 44.11700 43.54500
H  -13.22100 41.82700 45.26100
H  -13.01500 44.88200 45.58500
H  -11.24600 44.52800 45.74900
H  -12.41900 43.51500 46.51200
H  -14.10300 40.89800 42.77800
H  -14.26300 42.70000 42.84100
H  -15.34900 41.64300 45.26200
H  -16.07100 40.79700 44.00300
H  -16.06100 42.64900 44.00100
H  -12.90300 36.45100 43.36900
H  -12.48100 36.88200 45.10900
H  -11.68900 35.58600 44.40900
H  -7.72200 35.81500 40.82000
H  -4.63900 33.32900 42.52600
H  -4.37900 34.67600 43.60600
H  -3.69300 34.72200 42.00400

