158

Mg 17.42300 -1.38600 27.93500
C  16.44700 0.48300 30.70700
C  19.57400 -3.23900 29.92300
C  18.60000 -2.72500 25.08600
C  15.40100 0.68600 25.94400
N  18.10600 -1.23400 30.02600
C  17.47000 -0.43800 30.98600
C  17.97700 -0.83500 32.36400
C  19.21500 -1.79900 32.10400
C  19.00000 -2.07800 30.55900
C  20.66300 -1.26500 32.34500
C  16.80300 -1.57600 33.08000
C  16.38800 -1.25300 34.51600
H  17.31100 -0.46700 35.38200
N  18.79400 -2.84500 27.61200
C  19.61200 -3.49700 28.51500
C  20.48000 -4.37700 27.83400
C  20.18400 -4.27200 26.37800
C  19.16200 -3.22800 26.29300
C  21.43200 -5.37300 28.51700
C  20.68500 -5.15900 25.28300
O  20.21500 -5.08300 24.18700
C  21.80100 -6.14400 25.48000
N  17.01900 -1.03000 25.85000
C  17.70400 -1.69000 24.89700
C  17.33900 -1.15700 23.50500
C  16.14500 -0.26100 23.79800
C  16.17600 -0.22000 25.29000
C  18.57500 -0.47100 22.76600
C  14.76700 -0.87500 23.20900
C  14.10700 -0.10100 22.04700
N  16.21400 0.21900 28.17200
C  15.40500 0.87300 27.32700
C  14.60000 1.84000 28.07100
C  14.92800 1.71400 29.40200
C  15.92700 0.74600 29.38800
C  13.58400 2.81700 27.52800
C  14.70900 2.23700 30.72100
O  13.97800 3.15600 31.05400
C  15.62000 1.37700 31.60500
C  16.56300 2.20500 32.27300
O  17.68700 2.48800 31.87900
O  15.92500 2.71100 33.35200
C  16.70100 3.65800 34.23500
H  20.32500 -3.75400 30.52700
H  19.07800 -3.08000 24.17100
H  14.76500 1.38200 25.39300
H  18.45900 -0.03100 32.92000
H  19.09700 -2.74900 32.62400
H  20.47600 -0.54300 33.14000
H  21.09200 -0.80400 31.45600
H  21.39600 -1.97600 32.72600
H  17.11400 -2.61400 33.19700
H  15.90700 -1.57000 32.45900
H  16.13600 -2.10600 35.14600
H  15.46800 -0.67100 34.47700
H  21.02700 -6.38200 28.43500
H  21.47200 -5.17600 29.58900
H  22.38200 -5.26500 27.99400
H  21.32200 -6.91000 26.09000
H  22.60400 -5.63500 26.01400
H  22.05300 -6.62900 24.53800
H  16.99600 -2.05800 22.99500
H  16.11500 0.78800 23.50000
H  18.25700 0.55200 22.56200
H  18.84500 -0.93500 21.81800
H  19.42900 -0.37800 23.43600
H  14.05800 -0.93900 24.03400
H  14.93200 -1.88300 22.82900
H  13.19700 -0.63100 21.76900
H  14.72400 -0.19900 21.15300
H  13.80800 0.92600 22.25800
H  13.09400 2.28800 26.71000
H  14.16200 3.64800 27.12400
H  13.01300 3.24400 28.35200
H  14.96600 0.77300 32.23400
H  16.49500 4.70000 33.99000
H  17.76300 3.47100 34.08000
H  16.44700 3.42500 35.26900
Mg 50.00400 45.85400 42.29700
C  46.54500 46.65900 41.67000
C  49.22100 42.74900 41.23700
C  53.17100 45.30100 42.39500
C  50.41100 49.23500 43.22600
N  48.00200 44.81100 41.52800
C  46.75500 45.33200 41.39900
C  45.79000 44.29000 40.77900
C  46.66200 42.99700 40.82400
C  48.03800 43.52400 41.22100
C  46.13400 41.83900 41.78300
C  45.64900 44.78600 39.37800
C  44.20000 44.70700 38.80700
H  43.91500 43.47100 37.83000
N  51.03900 44.28700 41.80200
C  50.60500 43.04500 41.46000
C  51.66000 42.15500 41.32500
C  52.86900 42.86500 41.58900
C  52.42300 44.18300 42.04600
C  51.45400 40.70400 40.91500
C  54.31800 42.24400 41.38400
O  54.45500 41.07300 41.17100
C  55.50200 43.17300 41.38400
N  51.63200 47.19000 42.78300
C  52.91400 46.66700 42.72500
C  53.92200 47.75000 43.10500
C  53.04900 48.97700 43.54200
C  51.63600 48.47600 43.16600
C  55.01800 47.43400 44.25700
C  53.53200 50.34000 42.90000
C  53.57300 51.56800 43.84800
N  48.79100 47.64100 42.48400
C  49.09300 48.94600 42.84300
C  47.92900 49.78000 42.85700
C  46.92900 48.95000 42.36200
C  47.47300 47.63700 42.13100
C  47.89600 51.27100 43.21000
C  45.55100 48.90100 41.92100
O  44.75100 49.79900 41.89800
C  45.29300 47.42500 41.37000
C  44.04500 46.94800 42.09800
O  43.92800 46.82800 43.31000
O  42.97800 46.94000 41.20400
C  41.66400 46.52700 41.78000
H  49.00400 41.72200 40.93500
H  54.23300 45.12900 42.58200
H  50.54500 50.25900 43.58200
H  44.89400 44.13800 41.38000
H  46.80000 42.38500 39.93300
H  45.04700 41.91100 41.74200
H  46.61600 41.93500 42.75600
H  46.27000 40.85700 41.33000
H  46.26000 44.20500 38.68700
H  45.98300 45.79500 39.13800
H  43.81800 45.61600 38.34100
H  43.46000 44.55100 39.59200
H  52.37500 40.18800 41.18400
H  51.28200 40.62900 39.84100
H  50.64400 40.27000 41.50100
H  55.82500 43.36500 42.40700
H  55.18800 44.11300 40.93100
H  56.22000 42.70700 40.71000
H  54.50600 47.97500 42.21300
H  52.94000 48.97900 44.62700
H  54.74500 46.46100 44.66500
H  55.00400 48.18300 45.05000
H  55.94100 47.45700 43.67800
H  52.95000 50.58200 42.01000
H  54.44300 50.19400 42.32000
H  54.59000 51.96100 43.83500
H  53.25100 51.25600 44.84200
H  52.91100 52.38200 43.55300
H  46.87200 51.39600 43.56200
H  48.08000 51.87300 42.32000
H  48.60000 51.52100 44.00400
H  45.13700 47.53700 40.29700
H  41.02400 46.46600 40.90000
H  41.21100 47.30500 42.39500
H  41.75000 45.57100 42.29700

