158

Mg 2.03800 8.24500 27.06200
C  2.15000 10.45000 29.86500
C  2.07200 5.69700 29.32900
C  1.91600 6.15800 24.50300
C  2.46200 10.96900 24.87700
N  2.05300 8.12800 29.38100
C  2.00800 9.10100 30.25200
C  1.86400 8.57500 31.71800
C  2.20800 7.05900 31.59800
C  2.19000 6.93800 30.02700
C  3.62100 6.60300 32.22900
C  0.44300 8.85300 32.39800
C  0.54000 9.60400 33.70300
H  1.13100 8.83600 34.92300
N  1.87500 6.27200 26.90000
C  1.90500 5.35200 27.93400
C  1.78300 3.97800 27.44400
C  1.81600 4.09400 26.06200
C  1.88800 5.57400 25.80200
C  1.57600 2.75000 28.39800
C  1.74600 3.02900 24.94700
O  1.90300 3.25500 23.77100
C  1.64400 1.58600 25.33500
N  2.01200 8.51900 25.02300
C  1.98000 7.49000 24.11400
C  2.19400 8.08400 22.67500
C  1.86600 9.58800 22.88700
C  2.25000 9.69200 24.35600
C  3.58800 7.85400 21.98100
C  0.35500 9.98800 22.57600
C  -0.00900 11.35600 22.11400
N  2.42300 10.27200 27.27500
C  2.60100 11.24200 26.27700
C  2.73900 12.47100 26.93600
C  2.63000 12.21500 28.33000
C  2.49000 10.84300 28.52200
C  2.95800 13.83500 26.20800
C  2.55200 12.80200 29.66200
O  2.76000 13.93200 30.02700
C  2.25600 11.67300 30.63900
C  3.34000 11.61500 31.69300
O  4.44100 11.07900 31.62600
O  2.81800 12.18700 32.85700
C  3.71200 12.08700 34.00900
H  2.03400 4.90300 30.07900
H  1.74600 5.46200 23.67900
H  2.75000 11.74800 24.16800
H  2.68800 9.03200 32.26600
H  1.50300 6.39200 32.09400
H  3.37900 5.60800 32.60300
H  3.95100 7.34000 32.96100
H  4.43800 6.59600 31.50800
H  -0.11200 7.93700 32.60100
H  -0.14500 9.38100 31.64600
H  -0.44900 10.03100 33.86900
H  1.17600 10.45500 33.46000
H  2.47000 2.42600 28.93000
H  1.13800 1.91500 27.85000
H  0.93700 3.05800 29.22700
H  0.63200 1.28400 25.60300
H  2.31400 1.51200 26.19100
H  2.00200 0.85700 24.60700
H  1.50300 7.67800 21.93700
H  2.68700 10.01600 22.31200
H  4.00900 7.03200 22.56100
H  4.29800 8.68000 22.00500
H  3.47800 7.40200 20.99500
H  -0.21600 9.76700 23.47800
H  0.03800 9.24400 21.84500
H  0.87200 11.83100 21.68100
H  -0.56600 11.99500 22.79900
H  -0.74800 11.30700 21.31400
H  2.18000 13.83700 25.44500
H  3.92000 13.91700 25.70300
H  2.78800 14.69000 26.86300
H  1.33600 11.86700 31.19000
H  3.78300 11.05600 34.35600
H  3.40100 12.75700 34.81000
H  4.71300 12.43200 33.75100
Mg -11.08300 17.50700 40.38100
C  -7.56100 17.09200 40.55300
C  -10.52300 20.93300 39.66700
C  -14.28400 17.81800 39.53300
C  -11.41700 14.03700 40.54000
N  -9.11800 18.85900 40.13300
C  -7.89500 18.47000 40.30400
C  -6.95900 19.64200 39.97000
C  -7.93100 20.88500 40.04500
C  -9.30800 20.24000 39.94500
C  -7.87800 21.80900 41.29900
C  -6.37700 19.50900 38.45600
C  -4.94700 19.04000 38.26300
H  -4.67000 17.96400 37.21700
N  -12.29300 19.23000 39.81600
C  -11.85100 20.51900 39.49900
C  -12.95800 21.23100 39.04000
C  -14.08100 20.38100 38.91200
C  -13.63100 19.07900 39.42900
C  -12.77200 22.67900 38.67900
C  -15.37100 20.76700 38.34600
O  -15.65800 21.95600 38.06900
C  -16.46900 19.84400 38.01900
N  -12.61400 16.14700 40.13200
C  -13.88200 16.52000 39.89700
C  -14.88700 15.28600 39.80300
C  -13.93200 14.09600 40.02500
C  -12.54700 14.73100 40.31500
C  -16.05100 15.55800 40.79800
C  -13.81500 13.02600 38.87800
C  -14.25400 11.61000 39.42800
N  -9.83000 15.81600 40.56300
C  -10.13900 14.49100 40.60100
C  -8.93100 13.74500 40.85000
C  -7.87700 14.69500 40.77800
C  -8.47300 15.96500 40.60000
C  -8.85200 12.27200 40.96500
C  -6.43300 14.95700 40.81000
O  -5.49100 14.24100 40.82800
C  -6.15500 16.44100 40.71900
C  -5.35100 16.93800 41.90300
O  -4.61100 17.84400 41.89800
O  -5.41800 16.04300 42.94800
C  -4.22100 16.11300 43.82800
H  -10.37200 22.01300 39.60000
H  -15.31500 17.97900 39.21000
H  -11.54600 12.95300 40.54800
H  -6.16700 19.70900 40.71600
H  -7.82300 21.45400 39.12200
H  -7.76000 22.86000 41.03400
H  -7.01700 21.44400 41.85900
H  -8.68900 21.57200 41.98700
H  -6.51000 20.44800 37.91700
H  -6.90800 18.66500 38.01700
H  -4.62500 18.59700 39.20500
H  -4.27100 19.86900 38.04900
H  -13.28100 22.84900 37.73100
H  -11.71400 22.88700 38.51500
H  -13.22600 23.29400 39.45600
H  -16.10800 18.96200 37.49000
H  -17.14800 20.39100 37.36500
H  -17.08300 19.74600 38.91500
H  -15.32300 15.17900 38.80900
H  -14.29700 13.51300 40.87000
H  -15.95800 16.62900 40.98200
H  -16.11300 14.84800 41.62300
H  -17.01900 15.46000 40.30700
H  -12.85000 12.95700 38.37500
H  -14.52800 13.23400 38.08000
H  -15.31500 11.37100 39.50800
H  -13.83700 11.38300 40.40900
H  -13.75100 10.93100 38.74000
H  -7.93500 11.82400 40.58100
H  -9.59100 11.69200 40.41100
H  -8.99800 11.97500 42.00400
H  -5.57300 16.46000 39.79700
H  -3.77700 15.12500 43.95000
H  -4.55700 16.47700 44.79800
H  -3.46000 16.83700 43.53500

