158

Mg 16.18500 -1.33300 28.51100
C  15.06700 0.64300 31.11000
C  18.32300 -3.00800 30.65800
C  17.55100 -2.94000 25.80600
C  14.36100 0.74800 26.39300
N  16.82700 -0.96300 30.65600
C  16.01900 -0.30400 31.55800
C  16.55500 -0.59000 32.95600
C  17.57700 -1.77600 32.71900
C  17.59100 -1.96800 31.25800
C  18.99000 -1.63500 33.40600
C  15.35600 -1.01500 33.93000
C  15.75500 -1.13900 35.39600
H  16.94800 -0.41800 35.95900
N  17.80200 -2.79900 28.21000
C  18.45300 -3.38300 29.29000
C  19.27700 -4.40600 28.75200
C  19.09300 -4.50600 27.33100
C  18.12900 -3.44000 27.00900
C  20.18400 -5.23400 29.70000
C  19.81700 -5.45300 26.35100
O  19.53500 -5.56300 25.09100
C  20.94200 -6.33300 26.83800
N  15.91000 -1.25200 26.38000
C  16.72800 -1.89100 25.50400
C  16.60300 -1.29600 24.08200
C  15.39200 -0.29600 24.30700
C  15.21100 -0.22300 25.79900
C  17.90800 -0.76500 23.44200
C  14.09200 -0.52400 23.53700
C  12.83700 -1.11600 24.23900
N  14.98800 0.33200 28.61000
C  14.14200 0.99900 27.73100
C  13.35100 2.02000 28.31900
C  13.66200 1.89900 29.68800
C  14.70700 0.92300 29.78100
C  12.47700 2.96200 27.65800
C  13.40900 2.49500 30.94900
O  12.63800 3.39400 31.29800
C  14.24300 1.67400 31.98100
C  15.16900 2.55600 32.74400
O  16.17200 3.08300 32.28100
O  14.68800 2.80200 33.99200
C  15.42700 3.80800 34.72000
H  18.79100 -3.61400 31.43600
H  18.02100 -3.54600 25.02800
H  13.75900 1.36700 25.72500
H  17.15300 0.20100 33.41000
H  17.30000 -2.77600 33.05100
H  19.73900 -1.74100 32.62100
H  19.15300 -2.37800 34.18700
H  19.02000 -0.71000 33.98200
H  15.11400 -2.06000 33.73900
H  14.56600 -0.27600 33.79400
H  15.95000 -2.19400 35.59000
H  14.84000 -0.84600 35.91100
H  21.26300 -5.22700 29.54600
H  19.81000 -6.22100 29.42800
H  19.97400 -5.20600 30.76900
H  21.29700 -7.02300 26.07200
H  20.48200 -7.01500 27.55300
H  21.77900 -5.77300 27.25400
H  16.26200 -2.17900 23.54100
H  15.71300 0.72700 24.11000
H  18.74200 -1.12900 24.04200
H  17.71800 0.30800 23.41100
H  17.90700 -1.10000 22.40500
H  14.39800 -1.29800 22.83300
H  13.69700 0.35100 23.02100
H  12.14900 -0.37500 24.64800
H  13.08000 -1.68100 25.13800
H  12.25800 -1.74000 23.55700
H  12.82500 3.16500 26.64500
H  12.55600 3.91500 28.18100
H  11.47100 2.55400 27.75900
H  13.59100 1.09800 32.63700
H  16.48700 3.55900 34.69000
H  14.92500 4.01800 35.66400
H  15.31100 4.72200 34.13700
Mg 26.88300 49.71800 26.10200
C  24.68700 50.88900 28.83000
C  28.91800 48.61600 28.49900
C  28.84200 49.11400 23.63100
C  24.66700 51.52900 23.98600
N  26.84800 49.92500 28.33200
C  25.84500 50.28300 29.22500
C  26.14600 49.81700 30.65600
C  27.65300 49.47700 30.58100
C  27.85700 49.29100 29.04400
C  28.65700 50.53200 31.18800
C  25.15100 48.70600 31.11600
C  24.22200 49.17400 32.20300
H  24.16800 48.41300 33.54100
N  28.67100 48.91800 26.07600
C  29.29700 48.41700 27.16500
C  30.46700 47.77100 26.67200
C  30.50100 47.94000 25.29000
C  29.30800 48.68800 24.92200
C  31.40200 47.05900 27.55800
C  31.47100 47.41300 24.23600
O  31.34200 47.61400 23.01400
C  32.65300 46.53700 24.57900
N  26.84000 50.36300 24.19300
C  27.75800 49.91100 23.27800
C  27.40000 50.18900 21.81600
C  25.99400 50.69100 21.91500
C  25.77300 50.90900 23.46600
C  28.43700 51.15200 21.18600
C  24.92600 49.71300 21.36700
C  23.95400 50.36300 20.50200
N  25.17400 51.14900 26.29700
C  24.41200 51.72900 25.33400
C  23.30500 52.30100 25.92300
C  23.40500 52.09300 27.28000
C  24.55700 51.31300 27.45900
C  22.20800 53.05800 25.30400
C  22.63100 52.29400 28.56000
O  21.63700 52.94200 28.76600
C  23.46700 51.49300 29.53800
C  23.86100 52.41100 30.67300
O  24.95000 52.94700 30.81300
O  22.80400 52.37300 31.56800
C  22.99000 53.01700 32.87000
H  29.46700 48.07500 29.27200
H  29.53500 48.86800 22.82300
H  23.96300 51.98100 23.28500
H  26.05600 50.69700 31.29300
H  27.85800 48.50000 31.02100
H  29.41200 50.00000 31.76800
H  28.08800 51.25500 31.77200
H  29.12000 51.11400 30.39200
H  25.70000 47.81800 31.42800
H  24.60900 48.39300 30.22300
H  23.23700 49.02400 31.76200
H  24.28200 50.22200 32.49700
H  32.37400 47.51500 27.36600
H  31.40200 46.01000 27.26400
H  31.21000 47.17100 28.62500
H  33.13000 46.11800 23.69300
H  32.26800 45.72500 25.19600
H  33.38900 47.09300 25.16000
H  27.51700 49.27700 21.23000
H  25.86600 51.71400 21.56100
H  29.31400 51.16500 21.83300
H  27.98500 52.11700 20.95800
H  28.85600 50.68600 20.29400
H  24.37600 49.17800 22.14000
H  25.24900 48.81900 20.83300
H  24.07400 50.02500 19.47300
H  23.95600 51.43400 20.30100
H  22.94500 50.12200 20.83500
H  22.67500 53.95500 24.89800
H  21.48700 53.37800 26.05600
H  21.67300 52.43400 24.58900
H  22.89800 50.63100 29.88600
H  22.04600 52.82600 33.37900
H  23.03000 54.10600 32.90300
H  23.78200 52.53200 33.44100

