158

Mg -2.19100 16.90800 26.53500
C  -2.43800 14.61800 28.95900
C  -3.07500 19.44200 28.89500
C  -2.13400 19.24700 24.06300
C  -2.16900 14.36400 24.05800
N  -2.82300 17.03200 28.61000
C  -2.59800 15.92700 29.46300
C  -2.74900 16.33400 30.90400
C  -3.00100 17.87700 30.81800
C  -3.03300 18.15800 29.36100
C  -4.35100 18.30200 31.37900
C  -1.62100 15.93500 31.89900
C  -1.18500 16.95500 32.94800
H  -0.95200 16.32100 34.38600
N  -2.44700 19.02400 26.48600
C  -2.83600 19.85400 27.56100
C  -2.78900 21.22200 27.08100
C  -2.56000 21.15300 25.67100
C  -2.36300 19.76000 25.37800
C  -3.07900 22.44700 28.00600
C  -2.63500 22.25900 24.64600
O  -2.42500 22.12800 23.44800
C  -2.96700 23.63000 25.10000
N  -2.20400 16.87600 24.27200
C  -2.13600 17.97100 23.49100
C  -1.99300 17.60700 22.01100
C  -1.82000 15.98200 22.06700
C  -2.08000 15.69000 23.60400
C  -3.12700 18.14300 21.16700
C  -0.54500 15.33300 21.49000
C  0.70800 15.41300 22.41400
N  -2.28500 14.89600 26.40600
C  -2.27500 13.97200 25.42200
C  -2.15700 12.62700 25.96500
C  -2.24800 12.86300 27.31900
C  -2.29400 14.26400 27.54500
C  -2.20300 11.34900 25.27600
C  -2.26100 12.19000 28.56800
O  -2.34400 11.00800 28.80500
C  -2.46300 13.27400 29.67000
C  -1.38400 13.12500 30.66800
O  -0.22800 13.39500 30.44800
O  -1.89200 12.55600 31.84200
C  -0.77900 11.92200 32.58300
H  -3.28100 20.28400 29.55900
H  -2.04800 19.91700 23.20600
H  -2.24400 13.54000 23.34500
H  -3.58600 15.70900 31.21400
H  -2.24300 18.48100 31.31700
H  -4.13700 19.00700 32.18300
H  -4.89600 17.52800 31.91900
H  -5.03100 18.85500 30.73100
H  -0.75000 15.54200 31.37300
H  -1.96500 15.05200 32.43700
H  -1.84000 17.81400 33.09700
H  -0.23100 17.36600 32.61800
H  -2.30500 23.20200 27.87700
H  -3.16900 22.26700 29.07800
H  -4.04500 22.82200 27.66900
H  -3.88800 23.67700 25.68000
H  -3.13800 24.18300 24.17600
H  -2.26200 24.13400 25.76100
H  -0.99600 17.83700 21.63400
H  -2.71400 15.55900 21.61000
H  -2.66500 18.67900 20.33700
H  -3.66900 18.80400 21.84300
H  -3.79100 17.39500 20.73500
H  -0.31500 15.86200 20.56600
H  -0.77600 14.29800 21.23800
H  0.52700 15.56000 23.47900
H  1.27600 16.26500 22.03900
H  1.49600 14.66200 22.36100
H  -1.95300 11.41600 24.21700
H  -3.19800 10.97300 25.51600
H  -1.48500 10.64400 25.69500
H  -3.35400 13.18300 30.29100
H  -0.35800 11.17700 31.90900
H  -1.25800 11.47800 33.45600
H  -0.14800 12.73900 32.93300
Mg 47.78300 34.49200 26.71400
C  45.99000 33.13900 29.40600
C  48.20000 37.20400 28.87500
C  48.96600 36.24600 24.16300
C  47.14500 31.70400 24.83100
N  47.32400 34.96400 28.99600
C  46.59000 34.28400 29.84500
C  46.63000 34.87400 31.25800
C  46.87300 36.38900 30.89500
C  47.59100 36.17600 29.56900
C  45.60800 37.26000 30.85200
C  47.80100 34.35100 32.13000
C  47.93200 34.53400 33.65600
H  46.88900 35.39100 34.46100
N  48.51400 36.48900 26.60600
C  48.73800 37.39700 27.60100
C  49.27500 38.60600 27.04700
C  49.40800 38.38800 25.63200
C  48.97600 36.98000 25.39900
C  49.47300 39.84500 27.99700
C  49.84400 39.31900 24.49200
O  49.98600 38.97500 23.31700
C  50.32900 40.70400 24.93200
N  47.99500 34.03600 24.81000
C  48.46600 34.95500 23.91400
C  48.67100 34.32400 22.51600
C  48.26800 32.83300 22.81300
C  47.77800 32.81500 24.23600
C  47.78400 34.98100 21.30500
C  49.38000 31.80500 22.54000
C  50.60400 31.81000 23.39700
N  46.74700 32.79200 26.94200
C  46.56500 31.73300 26.09400
C  45.82600 30.72100 26.85400
C  45.41900 31.33300 28.06200
C  46.08600 32.49800 28.11700
C  45.30200 29.43400 26.43900
C  44.64500 31.09100 29.25100
O  43.88900 30.22700 29.56300
C  44.92400 32.36900 30.14900
C  45.22100 31.86000 31.51600
O  46.22300 31.20700 31.85100
O  44.22100 32.26800 32.37800
C  44.52200 31.93800 33.80200
H  48.22200 38.04800 29.56700
H  49.43600 36.70500 23.29000
H  47.02600 30.74900 24.31400
H  45.74400 34.81200 31.89000
H  47.47700 36.86000 31.67000
H  45.79900 38.26300 31.23300
H  44.83300 36.73800 31.41300
H  45.19100 37.31800 29.84700
H  48.72500 34.66700 31.64600
H  47.89400 33.29600 31.87100
H  48.96600 34.83500 33.82100
H  47.91900 33.50100 34.00100
H  50.38700 40.36400 27.71000
H  49.63200 39.75500 29.07200
H  48.69600 40.56400 27.73700
H  51.21000 40.61400 25.56800
H  49.47100 41.13400 25.44800
H  50.59200 41.32700 24.07700
H  49.72900 34.50300 22.32300
H  47.41500 32.48400 22.23100
H  48.47800 35.52800 20.66800
H  47.09300 35.65900 21.80500
H  47.20900 34.24300 20.74600
H  49.77700 31.94400 21.53400
H  48.91800 30.82100 22.62300
H  50.96000 30.85300 23.77700
H  50.53400 32.46500 24.26500
H  51.39100 32.21100 22.75800
H  45.49900 29.36400 25.36900
H  44.24200 29.35200 26.67900
H  45.79000 28.56800 26.88600
H  44.04500 33.01300 30.19300
H  44.07700 32.77700 34.33800
H  45.56600 31.92500 34.11400
H  44.04200 31.01100 34.11700

