158

Mg -8.72600 41.05600 42.26500
C  -7.52400 37.73600 41.33500
C  -5.90500 42.28900 40.79900
C  -10.09300 44.04800 42.55000
C  -11.59400 39.51500 43.34700
N  -7.00800 40.06700 41.11800
C  -6.67100 38.72100 40.94900
C  -5.28500 38.61800 40.27400
C  -4.76000 40.09500 40.30900
C  -5.96500 40.89100 40.86000
C  -3.44900 40.33900 41.16800
C  -5.44700 38.00500 38.86300
C  -4.48900 36.94800 38.25900
H  -3.64400 37.44500 37.05600
N  -8.07600 43.00000 41.74900
C  -6.86300 43.30400 41.13400
C  -6.86000 44.73700 40.89100
C  -8.01300 45.28200 41.53100
C  -8.84100 44.13100 41.92000
C  -5.67900 45.41300 40.22000
C  -8.34100 46.79200 41.67000
O  -7.59200 47.67200 41.22300
C  -9.56000 47.26000 42.43700
N  -10.55500 41.62900 42.78600
C  -10.81700 42.94500 42.97800
C  -12.25200 43.16300 43.53800
C  -12.71900 41.75900 43.84200
C  -11.51900 40.86800 43.40900
C  -12.33200 44.14900 44.68500
C  -14.06600 41.39800 43.19200
C  -14.92600 40.44100 44.01300
N  -9.47700 39.04800 42.42200
C  -10.64100 38.58700 42.93800
C  -10.75800 37.12900 42.84400
C  -9.50000 36.78400 42.13500
C  -8.80300 37.98100 41.91700
C  -11.90400 36.30900 43.38200
C  -8.75800 35.67500 41.59400
O  -9.09900 34.50500 41.71500
C  -7.46900 36.21600 41.09000
C  -6.27800 35.50100 41.65200
O  -5.74200 35.87800 42.69900
O  -5.89500 34.41800 40.92700
C  -4.69500 33.62300 41.26800
H  -5.01800 42.81500 40.43800
H  -10.50300 45.03200 42.79100
H  -12.50400 39.01700 43.68900
H  -4.62700 37.93900 40.81700
H  -4.40400 40.41300 39.32900
H  -2.80300 41.16400 40.86700
H  -2.79100 39.47400 41.08200
H  -3.47500 40.31900 42.25800
H  -5.30000 38.82900 38.16500
H  -6.48600 37.70900 38.71400
H  -5.05500 36.03700 38.06400
H  -3.77400 36.85900 39.07600
H  -6.10100 46.31000 39.76700
H  -5.11800 44.73100 39.58100
H  -4.95000 45.75900 40.95300
H  -10.46200 46.99400 41.88500
H  -9.54800 48.34700 42.52000
H  -9.52300 46.95800 43.48300
H  -12.82200 43.53700 42.68800
H  -12.91200 41.70900 44.91300
H  -11.40600 44.60500 45.03400
H  -12.88700 43.75300 45.53600
H  -13.09200 44.88100 44.41100
H  -13.92700 40.77500 42.30900
H  -14.68300 42.26800 42.96700
H  -15.88200 40.90900 44.24900
H  -14.44400 40.25400 44.97300
H  -15.12600 39.46700 43.56700
H  -12.75200 36.64100 42.78300
H  -12.14300 36.60200 44.40500
H  -11.74600 35.23400 43.46600
H  -7.49300 35.91700 40.04200
H  -4.94700 32.65900 41.71100
H  -4.01200 34.24000 41.85100
H  -4.02300 33.38700 40.44200
Mg -9.34100 18.25000 43.67600
C  -5.84200 17.96300 44.02700
C  -8.93800 21.68500 43.14400
C  -12.63200 18.54500 43.14600
C  -9.49300 14.76100 43.40300
N  -7.57500 19.62900 43.49200
C  -6.32900 19.28900 43.83100
C  -5.39500 20.54300 43.73100
C  -6.40100 21.73500 43.81800
C  -7.72000 20.99000 43.41100
C  -6.49700 22.32400 45.22000
C  -4.50100 20.55000 42.43100
C  -5.02700 19.80600 41.11700
H  -5.92400 20.57000 40.15000
N  -10.60100 19.89400 43.16500
C  -10.28800 21.23400 43.09400
C  -11.48800 21.97400 42.74500
C  -12.62100 21.17000 42.87200
C  -11.98600 19.82400 43.01200
C  -11.33600 23.44300 42.49700
C  -14.18900 21.56300 42.79900
O  -14.44700 22.77200 42.80200
C  -15.34300 20.59200 42.88100
N  -10.76000 16.81600 43.15200
C  -12.08300 17.23900 43.19300
C  -13.01400 16.01000 43.35300
C  -12.02400 14.83700 43.09600
C  -10.70800 15.46500 43.25800
C  -13.80300 15.96600 44.67500
C  -12.24700 14.18600 41.66000
C  -13.59800 13.48500 41.47600
N  -7.96300 16.64800 43.70300
C  -8.16200 15.30200 43.57600
C  -6.89200 14.62500 43.77900
C  -5.95200 15.64900 43.94100
C  -6.63900 16.84900 43.89700
C  -6.58800 13.15800 43.70500
C  -4.56700 15.96800 44.13100
O  -3.56700 15.26200 44.31800
C  -4.41800 17.50500 44.18400
C  -3.78300 17.98200 45.38200
O  -2.63100 18.24600 45.43000
O  -4.67700 18.00900 46.41400
C  -4.13700 18.60000 47.65800
H  -8.73800 22.73700 42.92900
H  -13.71200 18.70400 43.16000
H  -9.56300 13.67100 43.42000
H  -4.84100 20.63000 44.66600
H  -6.22600 22.54400 43.10900
H  -7.25100 23.10400 45.11900
H  -5.48500 22.70800 45.34500
H  -6.74400 21.60900 46.00500
H  -3.42800 20.43800 42.58900
H  -4.60100 21.62500 42.28100
H  -5.50500 18.84500 41.31000
H  -4.14900 19.48100 40.56000
H  -11.66200 23.66600 41.48200
H  -10.37100 23.91700 42.68000
H  -12.00400 23.99000 43.16300
H  -15.12000 19.99300 43.76300
H  -15.35600 19.89200 42.04500
H  -16.33100 21.03200 42.74400
H  -13.65100 16.12900 42.47700
H  -12.12500 14.01200 43.80200
H  -13.69300 15.01500 45.19500
H  -14.85200 16.15700 44.44900
H  -13.32700 16.67100 45.35700
H  -11.49100 13.43200 41.43800
H  -12.13500 15.06200 41.02200
H  -14.15800 13.93200 40.65500
H  -14.26600 13.51900 42.33600
H  -13.48400 12.44000 41.18700
H  -5.54900 13.02200 43.40500
H  -7.10100 12.62000 42.90800
H  -6.79900 12.78000 44.70500
H  -3.83100 17.73100 43.29300
H  -4.98200 18.65700 48.34500
H  -3.67600 19.57800 47.52100
H  -3.42100 17.89900 48.08700

