158

Mg 16.96200 -2.57300 28.35000
C  15.62700 -0.77500 31.09400
C  18.86100 -4.43100 30.52600
C  18.37500 -4.05000 25.73300
C  15.14300 -0.47800 26.24700
N  17.24700 -2.53400 30.51000
C  16.57800 -1.77100 31.46600
C  17.08700 -2.06200 32.89900
C  18.22100 -3.10600 32.65100
C  18.12300 -3.38000 31.11400
C  19.59500 -2.76600 33.19800
C  15.96200 -2.59500 33.82100
C  15.77400 -1.78700 35.17800
H  16.91000 -0.96800 35.82000
N  18.32600 -4.12300 28.14100
C  18.91700 -4.81600 29.16400
C  19.87600 -5.86000 28.65100
C  19.69300 -5.75500 27.19200
C  18.73200 -4.59700 26.94900
C  20.62200 -6.76600 29.53700
C  20.35600 -6.58800 26.06900
O  20.18000 -6.35900 24.90400
C  21.13500 -7.81000 26.46000
N  16.69600 -2.44600 26.26600
C  17.47000 -3.08300 25.39400
C  17.46600 -2.42600 24.01600
C  16.21700 -1.45700 24.12300
C  15.88900 -1.52400 25.65600
C  18.75400 -1.68400 23.60300
C  15.10300 -1.97600 23.21400
C  13.93900 -1.08300 22.97200
N  15.62100 -1.00700 28.53100
C  14.94500 -0.27000 27.62500
C  14.07200 0.66300 28.28100
C  14.39900 0.51500 29.60600
C  15.32800 -0.50300 29.73300
C  13.11600 1.67900 27.61400
C  14.06000 1.05300 30.90300
O  13.34400 2.01200 31.23400
C  14.98600 0.25900 31.91400
C  15.86700 1.24500 32.41300
O  16.84000 1.73800 31.77400
O  15.38400 1.78900 33.56800
C  16.12000 3.01400 34.11100
H  19.61400 -4.84800 31.19900
H  18.78800 -4.45400 24.80600
H  14.78800 0.25800 25.52200
H  17.54400 -1.13200 33.23600
H  17.92800 -4.05400 33.10200
H  19.83200 -3.37300 34.07100
H  19.72200 -1.74400 33.55500
H  20.27700 -2.85000 32.35100
H  16.10700 -3.61800 34.16900
H  15.02600 -2.44900 33.28100
H  15.44700 -2.41200 36.01000
H  14.98300 -1.04800 35.05400
H  20.77900 -6.29800 30.50800
H  21.58900 -6.96500 29.07500
H  20.22500 -7.78100 29.57000
H  20.59000 -8.37200 27.21800
H  21.97700 -7.35700 26.98400
H  21.41200 -8.37800 25.57200
H  17.44400 -3.26400 23.32000
H  16.56700 -0.51700 23.69600
H  19.46900 -1.99200 24.36600
H  18.63500 -0.60300 23.68000
H  19.12200 -1.96700 22.61700
H  14.85100 -2.91900 23.70000
H  15.50200 -2.30800 22.25600
H  13.04500 -1.39300 23.51300
H  13.75200 -0.85800 21.92200
H  14.08600 -0.09500 23.40900
H  13.04500 2.54800 28.26800
H  12.16200 1.21100 27.37000
H  13.55100 2.03800 26.68100
H  14.34400 -0.13400 32.70300
H  16.68900 2.77000 35.00800
H  15.34600 3.68700 34.48000
H  16.81500 3.46200 33.40100
Mg 26.85400 50.91600 26.23100
C  25.25300 52.19700 29.01900
C  29.01800 49.25300 28.29500
C  28.58700 50.04700 23.47800
C  24.66100 52.55400 24.21800
N  27.01600 50.64400 28.44100
C  26.31300 51.32300 29.37700
C  26.81500 51.00400 30.79000
C  28.19700 50.37700 30.44800
C  28.00700 49.93600 28.95100
C  29.41600 51.33600 30.64400
C  25.77300 49.94800 31.50300
C  24.82500 50.47400 32.62000
H  24.96500 49.77600 33.95400
N  28.53500 49.69600 25.94000
C  29.27100 48.99600 26.87600
C  30.30500 48.21500 26.24900
C  30.26800 48.52800 24.80300
C  29.12100 49.51900 24.69800
C  31.16300 47.22800 27.07800
C  30.98200 47.79500 23.62800
O  30.86400 48.15100 22.44900
C  31.82400 46.61700 23.87300
N  26.81800 51.56600 24.17600
C  27.53500 50.90700 23.23000
C  27.21500 51.26400 21.75800
C  25.81000 51.94400 22.00300
C  25.72700 51.99500 23.56600
C  28.20600 52.26400 21.20900
C  24.72700 51.22600 21.20500
C  23.50500 52.11500 20.76800
N  25.37000 52.22300 26.46700
C  24.48500 52.77100 25.58500
C  23.48900 53.60800 26.30100
C  23.75700 53.33800 27.61200
C  24.87500 52.47600 27.67500
C  22.36100 54.21600 25.57400
C  23.35000 53.56300 28.97200
O  22.43100 54.20500 29.39200
C  24.32300 52.88900 29.91900
C  24.86300 53.90900 30.83900
O  25.81600 54.64800 30.72500
O  24.05200 53.93900 31.99900
C  24.36800 54.95300 33.11800
H  29.67500 48.69700 28.96700
H  29.11800 49.65600 22.60700
H  23.92400 52.95200 23.51800
H  26.84600 51.98500 31.26300
H  28.46100 49.53500 31.08800
H  29.71600 51.64100 29.64100
H  30.16900 50.68400 31.08700
H  29.11700 52.16000 31.29100
H  26.41900 49.14200 31.85100
H  25.00000 49.56800 30.83400
H  23.80900 50.37900 32.23900
H  25.11300 51.51400 32.77200
H  31.21800 47.45000 28.14400
H  32.12200 47.33300 26.57100
H  30.79100 46.23800 26.81200
H  32.69200 46.93600 24.45100
H  32.00100 46.04100 22.96400
H  31.14900 45.99000 24.45500
H  27.27800 50.40600 21.08900
H  25.72400 52.95900 21.61600
H  27.81400 53.08700 20.61200
H  28.93000 51.70600 20.61600
H  28.69500 52.68900 22.08600
H  24.31000 50.47000 21.87100
H  25.20200 50.73800 20.35400
H  22.75800 51.89200 21.53000
H  23.06000 51.85000 19.80900
H  23.78900 53.16700 20.75800
H  22.76300 54.88000 24.80900
H  21.82900 54.72000 26.38100
H  21.61900 53.55300 25.13000
H  23.73200 52.20800 30.53200
H  23.38300 55.04200 33.57600
H  24.67900 55.90600 32.68900
H  25.11400 54.55100 33.80400

