158

Mg 7.71100 53.85700 40.03300
C  7.25500 50.46600 40.15400
C  11.00500 53.50600 39.05400
C  7.84900 57.17600 39.36500
C  4.12800 54.19900 40.68300
N  8.97200 52.14400 39.60500
C  8.54700 50.82000 39.65800
C  9.76000 49.88700 39.36700
C  10.98700 50.85000 39.37700
C  10.29600 52.26100 39.34600
C  12.04100 50.61800 40.42000
C  9.54300 49.13600 37.99900
C  9.36000 49.99100 36.71300
H  8.31400 49.50200 35.66900
N  9.26400 55.19000 39.33600
C  10.49000 54.83400 38.91100
C  11.18000 55.98700 38.58500
C  10.35100 57.10000 38.66700
C  9.11400 56.54200 39.15700
C  12.66400 55.84800 38.15800
C  10.71100 58.51500 38.20400
O  11.85000 58.72100 37.78300
C  9.77600 59.66300 38.30900
N  6.20100 55.45100 40.06400
C  6.59000 56.73900 39.84000
C  5.37200 57.73200 40.00400
C  4.25500 56.71400 40.50700
C  4.87600 55.36200 40.36100
C  5.57800 59.08900 40.78600
C  2.79400 56.91300 39.92600
C  1.62200 56.98100 40.98500
N  5.96300 52.58500 40.44600
C  4.64700 52.85900 40.68400
C  3.99700 51.54300 40.95900
C  5.00200 50.63100 40.80500
C  6.15000 51.25600 40.38300
C  2.58400 51.39600 41.53100
C  5.26000 49.21700 40.95600
O  4.57000 48.28300 41.33200
C  6.73000 49.03600 40.48600
C  6.64100 48.14000 39.30600
O  6.12000 48.31300 38.22700
O  7.19900 46.94900 39.62300
C  6.77900 45.77200 38.84000
H  12.07300 53.37200 38.86700
H  8.00900 58.25600 39.31800
H  3.12600 54.49600 40.99800
H  9.78600 49.14900 40.16800
H  11.50300 50.81700 38.41700
H  12.91800 50.40500 39.80800
H  11.76200 49.68400 40.90700
H  12.26100 51.40200 41.14400
H  8.83900 48.31100 38.10600
H  10.48600 48.59900 37.89100
H  10.33200 49.95300 36.22200
H  9.10100 51.03500 36.89200
H  12.68800 56.06000 37.08900
H  13.12600 54.91500 38.48100
H  13.12700 56.64300 38.74200
H  9.60200 59.82500 39.37200
H  8.88200 59.51400 37.70300
H  10.29500 60.49500 37.83300
H  5.05700 58.03800 39.00700
H  4.28000 56.79400 41.59300
H  4.76300 59.22800 41.49700
H  5.49100 59.93700 40.10600
H  6.50900 59.09000 41.35400
H  2.60200 56.08400 39.24400
H  2.75500 57.80400 39.29900
H  1.03200 57.85600 40.71600
H  1.99700 57.11200 42.00000
H  0.91600 56.15300 41.05000
H  2.17100 52.38800 41.71800
H  2.78500 50.94600 42.50300
H  1.94300 50.77600 40.90500
H  7.31700 48.55900 41.27100
H  6.69300 44.95700 39.55800
H  7.57900 45.37500 38.21500
H  5.88400 45.95000 38.24400
Mg -1.28400 34.19700 27.38800
C  -3.02800 32.90900 30.07100
C  0.37300 36.34600 29.40100
C  -0.34800 36.10400 24.64900
C  -3.32700 32.39800 25.16000
N  -1.31700 34.51500 29.51700
C  -2.04100 33.80500 30.50300
C  -1.65500 34.21300 31.92000
C  -0.63800 35.39100 31.68600
C  -0.41700 35.35300 30.11200
C  -1.25000 36.76400 32.23500
C  -1.01900 33.03000 32.71500
C  -1.71000 32.54600 34.03500
H  -0.78000 32.08600 35.15100
N  -0.07700 35.99900 27.06100
C  0.50300 36.65500 28.04000
C  1.38400 37.72100 27.48600
C  1.08100 37.78600 26.11500
C  0.17200 36.60100 25.87600
C  2.42900 38.41800 28.29700
C  1.53100 38.72600 25.08700
O  1.24300 38.70100 23.92400
C  2.43800 39.85600 25.47600
N  -1.71000 34.11800 25.24300
C  -1.17900 35.01700 24.33300
C  -1.71700 34.68800 22.93300
C  -2.17300 33.26900 23.00100
C  -2.37900 33.21100 24.60600
C  -2.65400 35.73900 22.24300
C  -1.31100 32.09600 22.42700
C  -0.30500 31.51300 23.35100
N  -2.84700 32.97100 27.58800
C  -3.62600 32.32500 26.56500
C  -4.55000 31.40600 27.21800
C  -4.36400 31.58500 28.57200
C  -3.35800 32.62900 28.76200
C  -5.38700 30.39900 26.51500
C  -4.74700 31.06400 29.84900
O  -5.47600 30.19000 30.22700
C  -3.91100 31.94600 30.85200
C  -4.84300 32.71900 31.66200
O  -5.25300 33.83500 31.29700
O  -5.13400 32.18200 32.84800
C  -6.01900 32.96900 33.66700
H  1.06100 36.95500 29.99200
H  0.01500 36.72100 23.82400
H  -3.86100 31.81100 24.40900
H  -2.59000 34.58400 32.34000
H  0.35700 35.15400 32.06400
H  -2.10800 36.52300 32.86200
H  -1.49500 37.33600 31.34100
H  -0.40900 37.23000 32.75000
H  0.04900 33.18800 32.86100
H  -1.08700 32.25100 31.95600
H  -2.26100 31.63500 33.79900
H  -2.52400 33.21400 34.31800
H  3.33600 38.72800 27.77900
H  2.78800 37.81200 29.12900
H  1.96800 39.29100 28.76000
H  3.43300 39.50600 25.75200
H  2.01800 40.39000 26.32900
H  2.57800 40.62100 24.71300
H  -0.76700 34.62000 22.40300
H  -3.17700 33.12200 22.60200
H  -2.31800 36.19400 21.31200
H  -2.80800 36.61800 22.86800
H  -3.60100 35.22100 22.08600
H  -0.74900 32.53600 21.60200
H  -2.00100 31.39700 21.95500
H  0.67200 31.98400 23.24500
H  -0.26700 30.43900 23.16700
H  -0.70600 31.47600 24.36400
H  -4.75400 29.64900 26.04100
H  -6.00200 30.84300 25.73300
H  -6.06600 30.06200 27.29800
H  -3.35400 31.34600 31.57200
H  -6.48100 32.23000 34.32200
H  -6.68900 33.71900 33.24600
H  -5.37100 33.65000 34.21900

