158

Mg 1.17500 -1.82700 43.24700
C  4.45300 -0.63500 43.14700
C  0.05900 1.14700 41.85700
C  -1.94600 -3.29700 42.69600
C  2.38300 -4.90100 44.18900
N  2.13000 0.06700 42.68000
C  3.46200 0.27600 42.69800
C  3.74300 1.66700 42.01000
C  2.35700 2.42800 41.88500
C  1.45900 1.15700 42.17000
C  2.21000 3.66100 42.77200
C  4.51900 1.51400 40.60200
C  5.98900 2.13600 40.44100
H  6.28300 2.73300 39.05600
N  -0.74400 -1.16100 42.40900
C  -0.95900 0.10800 41.94800
C  -2.33900 0.19200 41.52700
C  -2.98200 -1.03600 41.88800
C  -1.90000 -1.92000 42.38000
C  -2.81200 1.44700 40.62000
C  -4.54200 -1.32100 41.76200
O  -5.22500 -0.44600 41.16100
C  -5.20900 -2.65400 42.21600
N  0.28000 -3.88100 43.50900
C  -1.00200 -4.22700 43.30100
C  -1.34800 -5.76700 43.64900
C  0.12800 -6.18300 43.95800
C  1.00300 -4.94400 43.86000
C  -2.30500 -5.96400 44.83400
C  0.71400 -7.26600 42.97100
C  1.12800 -8.55500 43.63800
N  3.09100 -2.64900 43.60800
C  3.38600 -3.94100 44.02400
C  4.85000 -4.03200 44.19900
C  5.36200 -2.74000 43.87400
C  4.18100 -1.95300 43.57700
C  5.79000 -5.18100 44.47700
C  6.53000 -1.88000 43.73800
O  7.73400 -2.08500 43.91200
C  5.90600 -0.52100 43.11500
C  6.47100 0.57200 43.91700
O  6.30300 0.63500 45.14900
O  7.30300 1.42900 43.25900
C  7.81200 2.55500 44.04200
H  -0.16000 2.19100 41.62500
H  -2.90000 -3.81700 42.58700
H  2.84500 -5.76000 44.68000
H  4.38600 2.07700 42.78900
H  1.97200 2.63600 40.88700
H  2.27200 4.46000 42.03300
H  2.93700 3.70400 43.58300
H  1.18900 3.59700 43.14900
H  3.88700 1.76500 39.75000
H  4.61400 0.43700 40.46200
H  6.62900 1.31000 40.75000
H  6.11300 2.98100 41.11800
H  -3.42800 1.11100 39.78600
H  -2.04400 2.05600 40.14500
H  -3.48500 2.07200 41.20800
H  -6.25500 -2.69200 41.91100
H  -4.87400 -2.56400 43.24900
H  -4.72900 -3.45100 41.64800
H  -1.62200 -6.20700 42.69000
H  0.27500 -6.58500 44.96000
H  -2.80400 -5.08100 45.23200
H  -1.77500 -6.56500 45.57300
H  -3.14300 -6.48100 44.36600
H  1.62800 -6.95600 42.46400
H  0.01500 -7.43600 42.15300
H  1.76100 -8.25100 44.47100
H  1.65500 -9.29100 43.03000
H  0.26600 -9.10300 44.01900
H  5.84900 -5.84500 43.61500
H  5.39300 -5.76600 45.30700
H  6.74800 -4.81600 44.84900
H  6.29800 -0.44400 42.10100
H  8.50000 2.97500 43.30900
H  8.34800 2.19400 44.91900
H  6.96300 3.19000 44.29500
Mg 49.30400 34.54800 27.36300
C  47.08900 33.61300 30.08000
C  49.92400 37.46900 28.97400
C  50.59900 35.72900 24.59000
C  48.38200 31.52000 25.80000
N  48.66100 35.27800 29.25100
C  47.76400 34.85200 30.25100
C  47.62500 35.88200 31.36700
C  48.40300 37.04400 30.81100
C  49.06800 36.53800 29.62100
C  47.53500 38.39500 30.51800
C  48.10000 35.45300 32.81200
C  47.00800 35.54700 33.85400
H  47.01600 36.83100 34.76400
N  50.15400 36.30600 26.90000
C  50.38300 37.42300 27.66200
C  50.97700 38.48700 26.83800
C  51.40100 37.92200 25.67100
C  50.63100 36.64500 25.64200
C  51.17300 39.90300 27.31300
C  52.27400 38.43600 24.64900
O  52.65500 37.80100 23.68700
C  52.91000 39.79900 24.79900
N  49.32800 33.71100 25.43900
C  50.09300 34.37500 24.55900
C  50.37200 33.47900 23.34200
C  49.80800 32.07800 23.72100
C  49.14900 32.43200 25.10400
C  49.90100 34.02200 22.04900
C  50.87500 31.04800 23.80900
C  50.85900 30.16000 22.52500
N  48.01200 32.89500 27.76500
C  47.68400 31.73400 27.02100
C  46.62100 30.91700 27.72300
C  46.41000 31.70100 28.89100
C  47.27200 32.79300 28.93800
C  46.01800 29.59700 27.25600
C  45.55300 31.73800 30.05100
O  44.59800 31.01900 30.34900
C  45.94800 32.98200 30.86800
C  46.08700 32.60400 32.30800
O  47.00300 31.93200 32.77200
O  44.89800 32.93100 32.92800
C  44.63700 32.28700 34.20200
H  50.04700 38.42600 29.48500
H  51.13600 36.05000 23.69500
H  48.22500 30.59000 25.25100
H  46.57400 36.17200 31.39500
H  49.25800 37.24000 31.45800
H  47.26200 38.41500 29.46300
H  48.05500 39.33100 30.71900
H  46.54000 38.47900 30.95500
H  48.96700 35.99200 33.19600
H  48.39200 34.40800 32.70600
H  46.92900 34.64800 34.46500
H  46.07300 35.66600 33.30700
H  50.65200 40.12000 28.24500
H  50.83000 40.56000 26.51400
H  52.23600 40.08600 27.47100
H  53.33200 39.94800 25.79300
H  52.09000 40.51400 24.74000
H  53.61300 39.98900 23.98800
H  51.45200 33.40900 23.20800
H  49.06900 31.83800 22.95600
H  48.90600 33.84900 21.64000
H  50.64500 33.69000 21.32400
H  49.92100 35.10500 22.16800
H  50.66600 30.35800 24.62600
H  51.88000 31.46800 23.77200
H  51.91000 29.96700 22.31300
H  50.48500 30.66100 21.63200
H  50.48000 29.14900 22.67400
H  46.00100 29.62100 26.16600
H  44.99600 29.43400 27.59800
H  46.56200 28.68800 27.51400
H  45.08200 33.61800 30.68800
H  43.66800 32.53400 34.63700
H  45.38900 32.61500 34.92000
H  44.65000 31.20400 34.08300

