158

Mg 46.63100 16.41700 28.73300
C  44.99500 16.51100 31.91000
C  49.16500 18.36000 30.17800
C  47.77700 17.18500 25.66900
C  43.71200 15.07000 27.37700
N  47.01100 17.33000 30.78500
C  46.23600 17.21000 31.92700
C  46.91100 17.79800 33.23400
C  48.19400 18.53300 32.61400
C  48.15500 18.06300 31.11100
C  48.11500 20.13800 32.68400
C  47.28200 16.65500 34.26000
C  46.65900 16.95600 35.67500
H  46.67500 18.35000 36.33800
N  48.35800 17.41800 28.05500
C  49.27300 18.12400 28.78400
C  50.33400 18.64400 27.96100
C  49.84300 18.37800 26.61200
C  48.61500 17.60800 26.69700
C  51.67500 19.25000 28.52100
C  50.45900 18.68200 25.29200
O  50.03200 18.31400 24.22100
C  51.77300 19.34600 25.28600
N  45.92100 16.11600 26.71400
C  46.56500 16.54900 25.65800
C  45.81300 16.20900 24.36300
C  44.54100 15.43700 24.94700
C  44.68800 15.53400 26.46400
C  45.55600 17.38600 23.39900
C  44.36200 13.94000 24.44500
C  45.33300 12.90700 25.07400
N  44.72000 15.82500 29.43600
C  43.68700 15.21400 28.79100
C  42.71700 14.83000 29.85500
C  43.24000 15.31100 31.04700
C  44.39200 15.89700 30.72700
C  41.45700 14.05900 29.70300
C  42.91500 15.50300 32.51300
O  41.91300 15.14900 33.11400
C  44.12100 16.21200 33.11200
C  43.55700 17.38900 33.70100
O  43.47100 18.51500 33.17400
O  43.20400 17.10500 35.00000
C  42.49700 18.14800 35.78700
H  49.87600 19.15000 30.42700
H  47.96600 17.56000 24.66100
H  42.76600 14.61600 27.07500
H  46.10800 18.39200 33.67100
H  49.13100 18.22000 33.07400
H  47.64400 20.48700 33.60300
H  47.64300 20.48500 31.76500
H  49.10000 20.60300 32.72900
H  48.33800 16.53900 34.50400
H  46.90300 15.70800 33.87600
H  47.19400 16.23700 36.29600
H  45.62800 16.61100 35.59800
H  52.52200 18.66300 28.16700
H  51.84400 19.31900 29.59500
H  51.82400 20.23600 28.07900
H  51.58500 20.27300 25.82700
H  52.06500 19.69000 24.29400
H  52.53700 18.82000 25.85800
H  46.38600 15.37900 23.94900
H  43.64400 15.98500 24.66000
H  45.83500 18.38400 23.73500
H  44.53100 17.43600 23.03200
H  46.05100 17.06400 22.48300
H  44.57100 13.97700 23.37600
H  43.32500 13.67000 24.64500
H  46.31000 13.31300 25.33700
H  45.45200 12.02100 24.45100
H  44.93600 12.51800 26.01100
H  41.61500 12.99900 29.90100
H  41.04700 14.20500 28.70300
H  40.70600 14.49700 30.36100
H  44.64600 15.56400 33.81500
H  42.64200 17.85400 36.82700
H  41.44500 18.37600 35.62000
H  42.90500 19.14900 35.64200
Mg -1.40000 34.17900 26.53400
C  -3.13100 32.54600 29.02300
C  -0.05500 36.27800 28.70700
C  0.00100 35.78700 23.94900
C  -3.11500 32.12800 24.14400
N  -1.77100 34.46500 28.61000
C  -2.38200 33.62800 29.46100
C  -2.01000 34.06900 30.91100
C  -1.26400 35.35500 30.69600
C  -0.95700 35.37600 29.23700
C  -2.14100 36.60900 30.92300
C  -1.37500 32.82200 31.72900
C  -2.06400 32.24800 32.94400
H  -1.37300 32.30700 34.25700
N  0.01300 35.65600 26.36000
C  0.44300 36.38100 27.41500
C  1.31500 37.40900 26.95700
C  1.32200 37.36800 25.49200
C  0.40300 36.19200 25.19800
C  2.06100 38.44500 27.85800
C  2.05400 38.21900 24.40000
O  2.06800 37.86400 23.18800
C  2.84000 39.35800 24.85500
N  -1.59100 33.95600 24.28400
C  -0.73500 34.68200 23.52200
C  -0.83100 34.23400 22.07200
C  -1.96400 33.22100 22.01000
C  -2.22000 33.09200 23.58400
C  -0.99400 35.40300 21.00800
C  -1.73900 31.88000 21.23300
C  -0.81000 30.91500 21.95400
N  -2.87000 32.60000 26.51600
C  -3.46400 31.94700 25.50500
C  -4.35800 31.00800 26.06500
C  -4.18600 31.16800 27.43700
C  -3.32000 32.18500 27.68400
C  -5.27200 30.08700 25.26900
C  -4.66700 30.59700 28.72200
O  -5.49200 29.69400 28.88800
C  -3.91200 31.48500 29.78400
C  -5.03700 31.94000 30.60600
O  -5.61800 33.02500 30.50400
O  -5.21800 31.05300 31.60300
C  -6.23200 31.42400 32.61500
H  0.53700 36.86200 29.41500
H  0.29600 36.37300 23.07600
H  -3.73600 31.63900 23.39100
H  -2.99300 34.34100 31.29500
H  -0.39100 35.36200 31.34900
H  -2.01400 36.93700 31.95400
H  -3.21300 36.52200 30.74600
H  -2.00800 37.47900 30.28000
H  -0.36300 33.08100 32.04200
H  -1.24600 32.02300 30.99800
H  -2.04600 31.18300 32.71200
H  -3.07700 32.63200 33.06400
H  3.11900 38.24000 27.69900
H  1.83200 38.45500 28.92400
H  1.71300 39.43700 27.57100
H  2.23800 40.00300 25.49600
H  3.27700 39.92500 24.03300
H  3.63600 39.01000 25.51300
H  0.14400 33.84100 21.78100
H  -2.82300 33.69900 21.53900
H  -1.38700 36.33500 21.41500
H  -1.70400 35.12300 20.23000
H  -0.06100 35.65300 20.50200
H  -1.28900 32.12000 20.27000
H  -2.70000 31.39400 21.06200
H  -1.19200 29.89400 21.94300
H  -0.77800 31.25000 22.99100
H  0.16300 30.82500 21.47100
H  -4.67100 29.18200 25.35600
H  -5.28400 30.34400 24.21000
H  -6.25700 30.09600 25.73500
H  -3.39400 30.81300 30.46800
H  -5.94500 32.25400 33.26200
H  -6.42100 30.52900 33.20700
H  -7.16500 31.63300 32.09300

