158

Mg 1.64800 -2.02000 43.97600
C  4.77800 -0.50200 43.78100
C  0.23600 0.91000 42.57800
C  -1.31700 -3.54500 44.04300
C  3.18700 -4.86400 45.18800
N  2.39900 -0.15800 43.06400
C  3.73700 0.27400 43.21500
C  3.96400 1.66700 42.48200
C  2.45100 2.17100 42.46600
C  1.63600 0.91500 42.67300
C  2.13200 3.31900 43.45100
C  4.69100 1.61800 41.14500
C  4.71400 2.88200 40.31200
H  4.03200 2.97800 38.95100
N  -0.24600 -1.41600 43.30000
C  -0.64600 -0.17800 42.81600
C  -2.05300 -0.22700 42.50100
C  -2.56100 -1.46300 43.07700
C  -1.36900 -2.18000 43.57700
C  -2.74800 0.96100 41.91400
C  -4.00700 -1.86800 43.07100
O  -4.75400 -1.15200 42.41500
C  -4.60300 -3.03000 43.67700
N  1.04300 -3.95500 44.40400
C  -0.23600 -4.27100 44.56200
C  -0.48100 -5.61300 45.24200
C  1.00300 -6.12500 45.37500
C  1.81500 -4.96500 44.93900
C  -1.30400 -5.39800 46.55300
C  1.38500 -7.29500 44.45500
C  2.13400 -8.46600 45.12200
N  3.61700 -2.60600 44.49000
C  4.00500 -3.72100 44.95800
C  5.49100 -3.71600 45.13600
C  5.86800 -2.42200 44.75300
C  4.66300 -1.75200 44.36500
C  6.35800 -4.88700 45.71800
C  6.90300 -1.50400 44.48800
O  8.14100 -1.52800 44.62500
C  6.27600 -0.18900 43.84300
C  6.52600 0.95700 44.73200
O  6.09700 1.13000 45.86500
O  7.50500 1.76400 44.21100
C  7.87000 2.87300 45.05800
H  -0.20200 1.85700 42.25700
H  -2.26600 -4.07900 44.12400
H  3.66400 -5.73700 45.64000
H  4.54300 2.32600 43.12900
H  2.21200 2.58900 41.48800
H  1.27000 3.95500 43.24900
H  2.97700 4.00700 43.42600
H  2.02200 2.88500 44.44500
H  4.31300 0.87400 40.44300
H  5.69100 1.28400 41.42200
H  5.73100 3.23800 40.15100
H  4.19300 3.65300 40.87900
H  -2.25600 1.85200 42.30400
H  -3.70600 1.09200 42.41700
H  -2.96500 0.95200 40.84600
H  -4.26400 -3.99100 43.29100
H  -5.66900 -3.09500 43.45700
H  -4.53100 -2.86800 44.75300
H  -1.12400 -6.23400 44.62000
H  1.24200 -6.46100 46.38400
H  -0.69800 -5.34200 47.45700
H  -2.11200 -6.12600 46.61300
H  -1.79100 -4.42300 46.52500
H  1.80600 -6.98500 43.49900
H  0.43800 -7.75000 44.16500
H  2.88000 -8.07400 45.81300
H  2.77900 -8.86800 44.34100
H  1.53400 -9.21300 45.64200
H  6.09900 -5.71100 45.05300
H  5.99400 -5.05100 46.73200
H  7.43100 -4.69300 45.73600
H  6.80300 0.02800 42.91400
H  8.92900 2.95800 45.30100
H  7.31600 3.00200 45.98800
H  7.62600 3.72000 44.41700
Mg 7.65500 2.26700 27.97700
C  9.26100 1.15000 30.92000
C  5.68400 4.32900 29.72700
C  6.19600 3.11800 25.05400
C  9.50000 -0.16200 26.23600
N  7.38100 2.58300 30.08600
C  8.24800 2.09300 31.08900
C  7.89000 2.76600 32.40200
C  6.61000 3.64500 32.00700
C  6.53800 3.50200 30.51400
C  5.31900 3.23300 32.66100
C  9.04600 3.56800 33.10200
C  8.69200 4.45500 34.26500
H  9.12400 4.06200 35.68500
N  6.15800 3.42800 27.49300
C  5.46800 4.28400 28.34000
C  4.51200 5.07700 27.65500
C  4.63600 4.79500 26.27300
C  5.72400 3.72700 26.20900
C  3.61600 6.14100 28.42700
C  3.91100 5.42200 25.13700
O  4.07700 5.12400 23.96800
C  2.86300 6.49100 25.31900
N  7.81900 1.55100 25.94100
C  7.05200 2.10400 24.96700
C  7.45500 1.62400 23.58700
C  8.44200 0.44900 23.92900
C  8.74800 0.72400 25.42800
C  6.20400 1.28900 22.66900
C  9.71400 0.29800 23.06700
C  9.93100 -1.12400 22.57200
N  9.03700 0.75600 28.42000
C  9.69500 -0.11700 27.62900
C  10.60400 -0.84700 28.33000
C  10.55200 -0.38900 29.66600
C  9.52300 0.58800 29.64000
C  11.46900 -2.01500 27.80200
C  10.96700 -0.65000 31.02300
O  11.73500 -1.51000 31.42100
C  10.24400 0.42500 31.85700
C  9.65200 -0.19000 33.14300
O  8.85900 -1.11700 33.26600
O  10.21700 0.40500 34.24300
C  9.85300 -0.17500 35.55300
H  5.14500 5.01400 30.38500
H  5.74500 3.58400 24.17600
H  9.98600 -0.98200 25.70400
H  7.48400 2.01800 33.08300
H  6.86200 4.68700 32.20100
H  5.15000 3.72800 33.61800
H  5.27600 2.14400 32.64500
H  4.49100 3.52700 32.01700
H  9.42500 4.30000 32.38900
H  9.86000 2.97800 33.52400
H  7.60500 4.39800 34.21200
H  9.14200 5.43200 34.08700
H  4.00400 7.15800 28.36800
H  3.57800 5.86500 29.48100
H  2.59500 6.18600 28.04900
H  1.95000 5.92900 25.51700
H  2.64400 6.95800 24.35800
H  3.20300 7.20300 26.07100
H  8.01300 2.42300 23.09900
H  7.88900 -0.48600 24.01100
H  5.22400 1.29300 23.14700
H  6.29200 0.27600 22.27800
H  6.10800 1.98500 21.83500
H  10.60000 0.58300 23.63400
H  9.61700 0.99700 22.23700
H  10.32100 -1.17200 21.55600
H  9.00200 -1.69000 22.63800
H  10.59800 -1.57900 23.30500
H  11.92700 -1.74100 26.85200
H  10.81400 -2.88500 27.75800
H  12.26800 -2.20300 28.52000
H  10.99400 1.14400 32.18600
H  9.27400 0.59200 36.06800
H  10.66600 -0.37700 36.25100
H  9.19800 -1.04600 35.52700

