158

Mg 9.17100 4.86800 27.73000
C  10.62900 3.28000 30.49100
C  7.11100 6.62000 29.88600
C  7.74600 6.13200 25.03500
C  10.89300 2.63400 25.68800
N  8.80600 4.85500 29.95100
C  9.58000 4.21000 30.85100
C  9.06900 4.50900 32.27900
C  7.86900 5.52000 32.03800
C  7.91500 5.70500 30.54000
C  6.50300 5.22200 32.48200
C  10.24100 5.04400 33.12000
C  10.02200 6.02800 34.28600
H  10.87600 5.76300 35.52000
N  7.62200 6.07300 27.47300
C  6.89800 6.70600 28.43500
C  5.94300 7.62000 27.84200
C  6.18600 7.56800 26.44500
C  7.26200 6.57100 26.29500
C  4.96600 8.45800 28.52800
C  5.56300 8.27000 25.28700
O  6.03400 8.24700 24.20100
C  4.29600 9.01900 25.46500
N  9.27100 4.46300 25.60000
C  8.54000 5.05500 24.72100
C  9.03500 4.75600 23.26800
C  10.00800 3.58700 23.44600
C  10.07000 3.49200 25.01300
C  7.79200 4.50200 22.34200
C  11.36300 3.74400 22.72600
C  11.95800 2.53900 22.11200
N  10.52600 3.24900 27.95100
C  11.10400 2.42900 27.07200
C  11.93000 1.41600 27.76200
C  11.74400 1.71600 29.13600
C  10.96700 2.86100 29.16700
C  12.68200 0.27400 27.08800
C  12.09700 1.39400 30.48100
O  12.92400 0.54400 30.81000
C  11.47400 2.42000 31.44100
C  10.67200 1.54200 32.29800
O  9.64500 0.96800 32.03400
O  11.19200 1.43700 33.56600
C  10.33200 1.01900 34.65700
H  6.50400 7.26100 30.53000
H  7.58800 6.80100 24.18600
H  11.30700 1.90500 24.98700
H  8.83200 3.52500 32.68200
H  8.06800 6.51700 32.43000
H  6.07100 4.66700 31.64900
H  5.98900 6.18200 32.54000
H  6.55100 4.66300 33.41600
H  10.92900 5.60200 32.48500
H  10.64000 4.11800 33.53400
H  8.97000 5.84500 34.50600
H  10.21700 7.03500 33.91800
H  3.95400 8.22100 28.20000
H  5.34500 9.46300 28.33700
H  4.87900 8.22500 29.59000
H  3.93000 9.42300 24.52200
H  4.46700 9.87800 26.11400
H  3.59300 8.30400 25.89300
H  9.53500 5.65900 22.91700
H  9.55200 2.64600 23.13700
H  6.82600 4.41700 22.84000
H  7.94800 3.46800 22.03600
H  7.72000 5.28200 21.58400
H  12.02000 4.05000 23.54100
H  11.25300 4.52200 21.97100
H  11.72300 2.63600 21.05200
H  11.42300 1.64000 22.41700
H  13.03300 2.43700 22.25900
H  11.98400 -0.55800 26.99700
H  13.50400 -0.15900 27.65900
H  12.93100 0.51700 26.05500
H  12.18200 3.02600 32.00600
H  10.14900 1.95100 35.19400
H  10.85700 0.33700 35.32600
H  9.40100 0.58800 34.29100
Mg -10.93600 17.16100 40.54300
C  -7.41500 16.78600 40.59700
C  -10.46700 20.50200 40.12700
C  -14.25200 17.39200 40.06400
C  -11.21900 13.68400 40.84900
N  -9.10200 18.46800 40.26900
C  -7.77200 18.12500 40.39100
C  -6.92400 19.35100 40.34600
C  -7.96600 20.54500 40.61100
C  -9.25100 19.82400 40.20900
C  -7.97900 21.00500 42.05900
C  -6.30900 19.50600 38.90100
C  -4.79000 19.18000 38.79900
H  -4.33900 18.33500 37.56900
N  -12.18900 18.76400 40.04100
C  -11.82300 20.08600 40.04100
C  -12.93500 20.89800 39.85700
C  -14.08600 20.06800 39.82400
C  -13.56300 18.69000 39.98200
C  -12.81300 22.35900 39.68400
C  -15.55700 20.48600 39.79900
O  -15.90900 21.67700 39.81500
C  -16.66500 19.50600 39.62100
N  -12.45200 15.69400 40.41200
C  -13.75600 16.07600 40.37400
C  -14.70600 14.86700 40.38400
C  -13.74400 13.71200 40.74000
C  -12.38600 14.40300 40.70500
C  -15.85400 15.16000 41.46100
C  -13.90800 12.53400 39.83000
C  -14.02800 11.23200 40.48600
N  -9.63400 15.50200 40.57300
C  -9.87000 14.15600 40.74700
C  -8.65000 13.37600 40.81700
C  -7.71700 14.40000 40.83500
C  -8.29000 15.65700 40.67700
C  -8.46800 11.91400 41.02300
C  -6.24500 14.61900 40.91700
O  -5.27100 13.83300 41.02700
C  -6.00100 16.16600 40.82200
C  -5.29600 16.63300 42.01100
O  -4.15300 17.07900 42.02400
O  -6.09900 16.40400 43.14600
C  -5.49900 16.86400 44.36900
H  -10.39000 21.58200 40.26900
H  -15.33400 17.32400 39.93100
H  -11.35500 12.64600 41.15800
H  -6.11600 19.30100 41.07600
H  -7.76100 21.40700 39.97600
H  -8.90400 20.66900 42.52500
H  -8.03500 22.09100 42.13800
H  -7.07300 20.68900 42.57700
H  -6.57700 20.49900 38.54000
H  -6.88200 18.90200 38.19800
H  -4.52400 18.74200 39.76100
H  -4.26100 20.12600 38.68100
H  -12.60700 22.58100 38.63600
H  -12.08600 22.77300 40.38300
H  -13.76500 22.85600 39.86700
H  -16.66500 18.85700 38.74500
H  -17.58900 20.08400 39.60800
H  -16.86700 18.92000 40.51800
H  -15.22600 14.80800 39.42800
H  -13.77500 13.55900 41.81900
H  -16.66600 15.35900 40.76200
H  -15.67600 16.03700 42.08400
H  -16.00900 14.26400 42.06300
H  -13.08700 12.30400 39.15200
H  -14.78000 12.70700 39.20000
H  -13.38900 10.46000 40.05700
H  -14.99600 10.73000 40.50300
H  -13.72300 11.35300 41.52600
H  -7.98900 11.51900 40.12700
H  -9.43800 11.43500 41.16100
H  -7.91800 11.71800 41.94300
H  -5.42300 16.25200 39.90200
H  -4.77500 16.14100 44.74600
H  -6.31400 17.05500 45.06700
H  -4.95000 17.80500 44.35600

