158

Mg 35.66200 3.13500 30.44800
C  33.17600 3.76700 32.71000
C  38.05600 3.61400 32.85400
C  38.05600 2.54200 28.07400
C  33.28800 3.48700 27.85500
N  35.63600 3.78300 32.47700
C  34.50400 3.73900 33.30900
C  34.83100 3.80600 34.79900
C  36.33600 4.20500 34.73400
C  36.72300 3.83800 33.27300
C  36.61100 5.69700 35.14300
C  34.51200 2.51300 35.55100
C  34.38600 2.58000 37.09200
H  35.13200 3.63200 37.86300
N  37.78300 3.02900 30.47300
C  38.59700 3.25900 31.56100
C  39.97700 3.10700 31.15500
C  39.97800 2.76600 29.77600
C  38.54200 2.77400 29.37800
C  41.15600 3.05300 32.11000
C  41.09700 2.42800 28.77300
O  40.91800 2.26500 27.53100
C  42.47700 2.28300 29.15500
N  35.62000 3.04100 28.26500
C  36.74600 2.60200 27.58100
C  36.36700 2.19000 26.11100
C  34.78600 2.52200 26.00300
C  34.53900 3.12900 27.42800
C  37.33400 2.67900 24.97400
C  33.92400 1.25700 25.79300
C  32.66500 1.38500 24.81400
N  33.57900 3.60700 30.22200
C  32.74400 3.65300 29.15800
C  31.42800 3.88700 29.64500
C  31.53900 3.89200 31.03700
C  32.89500 3.78200 31.31200
C  30.32000 4.13900 28.70100
C  30.83800 4.12700 32.29000
O  29.65500 4.44600 32.50500
C  31.91600 3.99900 33.46700
C  31.99500 5.39000 34.09800
O  32.48300 6.45300 33.58000
O  31.57700 5.16700 35.37600
C  31.92600 6.21400 36.34000
H  38.80000 3.65200 33.65200
H  38.76500 2.41700 27.25300
H  32.57000 3.49900 27.03300
H  34.26000 4.66800 35.14300
H  36.82700 3.51500 35.42000
H  37.37100 5.72200 35.92400
H  35.69400 6.11100 35.56200
H  37.10600 6.34600 34.42200
H  35.33600 1.83600 35.32600
H  33.64800 1.97500 35.16000
H  34.45500 1.62000 37.60500
H  33.33600 2.87300 37.10800
H  41.71800 3.96200 31.89400
H  41.74900 2.15000 31.96700
H  40.74200 3.13600 33.11500
H  43.09800 2.03500 28.29400
H  42.55100 1.55200 29.96000
H  42.69800 3.24100 29.62500
H  36.47300 1.10800 26.19400
H  34.54200 3.21300 25.19600
H  37.88000 3.55600 25.32300
H  36.78600 2.82700 24.04400
H  38.03600 1.85300 24.85500
H  33.54600 0.89600 26.74900
H  34.59900 0.56100 25.29300
H  32.91500 0.77800 23.94400
H  32.28300 2.38000 24.58700
H  31.79200 0.96400 25.31300
H  29.32800 4.22300 29.14400
H  30.21500 3.38400 27.92200
H  30.49100 5.08500 28.18700
H  31.89000 3.13900 34.13600
H  32.07300 7.18300 35.86400
H  32.78500 5.92900 36.94800
H  31.02800 6.28900 36.95300
Mg -10.93600 17.16100 40.54300
C  -7.41500 16.78600 40.59700
C  -10.46700 20.50200 40.12700
C  -14.25200 17.39200 40.06400
C  -11.21900 13.68400 40.84900
N  -9.10200 18.46800 40.26900
C  -7.77200 18.12500 40.39100
C  -6.92400 19.35100 40.34600
C  -7.96600 20.54500 40.61100
C  -9.25100 19.82400 40.20900
C  -7.97900 21.00500 42.05900
C  -6.30900 19.50600 38.90100
C  -4.79000 19.18000 38.79900
H  -4.33900 18.33500 37.56900
N  -12.18900 18.76400 40.04100
C  -11.82300 20.08600 40.04100
C  -12.93500 20.89800 39.85700
C  -14.08600 20.06800 39.82400
C  -13.56300 18.69000 39.98200
C  -12.81300 22.35900 39.68400
C  -15.55700 20.48600 39.79900
O  -15.90900 21.67700 39.81500
C  -16.66500 19.50600 39.62100
N  -12.45200 15.69400 40.41200
C  -13.75600 16.07600 40.37400
C  -14.70600 14.86700 40.38400
C  -13.74400 13.71200 40.74000
C  -12.38600 14.40300 40.70500
C  -15.85400 15.16000 41.46100
C  -13.90800 12.53400 39.83000
C  -14.02800 11.23200 40.48600
N  -9.63400 15.50200 40.57300
C  -9.87000 14.15600 40.74700
C  -8.65000 13.37600 40.81700
C  -7.71700 14.40000 40.83500
C  -8.29000 15.65700 40.67700
C  -8.46800 11.91400 41.02300
C  -6.24500 14.61900 40.91700
O  -5.27100 13.83300 41.02700
C  -6.00100 16.16600 40.82200
C  -5.29600 16.63300 42.01100
O  -4.15300 17.07900 42.02400
O  -6.09900 16.40400 43.14600
C  -5.49900 16.86400 44.36900
H  -10.39000 21.58200 40.26900
H  -15.33400 17.32400 39.93100
H  -11.35500 12.64600 41.15800
H  -6.11600 19.30100 41.07600
H  -7.76100 21.40700 39.97600
H  -8.90400 20.66900 42.52500
H  -8.03500 22.09100 42.13800
H  -7.07300 20.68900 42.57700
H  -6.57700 20.49900 38.54000
H  -6.88200 18.90200 38.19800
H  -4.52400 18.74200 39.76100
H  -4.26100 20.12600 38.68100
H  -12.60700 22.58100 38.63600
H  -12.08600 22.77300 40.38300
H  -13.76500 22.85600 39.86700
H  -16.66500 18.85700 38.74500
H  -17.58900 20.08400 39.60800
H  -16.86700 18.92000 40.51800
H  -15.22600 14.80800 39.42800
H  -13.77500 13.55900 41.81900
H  -16.66600 15.35900 40.76200
H  -15.67600 16.03700 42.08400
H  -16.00900 14.26400 42.06300
H  -13.08700 12.30400 39.15200
H  -14.78000 12.70700 39.20000
H  -13.38900 10.46000 40.05700
H  -14.99600 10.73000 40.50300
H  -13.72300 11.35300 41.52600
H  -7.98900 11.51900 40.12700
H  -9.43800 11.43500 41.16100
H  -7.91800 11.71800 41.94300
H  -5.42300 16.25200 39.90200
H  -4.77500 16.14100 44.74600
H  -6.31400 17.05500 45.06700
H  -4.95000 17.80500 44.35600

