158

Mg 0.24800 8.73800 26.65700
C  0.85600 10.86300 29.63900
C  0.06900 6.15600 28.84300
C  0.28000 6.81600 23.95000
C  0.56000 11.64300 24.77200
N  0.62800 8.58400 29.03900
C  0.74900 9.50000 30.01700
C  0.42300 8.93100 31.37000
C  0.43000 7.41100 31.11000
C  0.35700 7.37100 29.57100
C  1.69700 6.61100 31.65200
C  -0.97300 9.43500 31.92400
C  -1.09700 9.88800 33.37300
H  -0.05900 9.66400 34.38300
N  0.24800 6.68600 26.43200
C  0.06900 5.77900 27.46300
C  -0.28800 4.51000 26.89100
C  -0.12400 4.60900 25.47500
C  0.16300 6.07200 25.21500
C  -0.79000 3.35000 27.76300
C  -0.20400 3.58800 24.43700
O  0.02500 3.82900 23.25300
C  -0.51400 2.14000 24.88500
N  0.37300 9.18000 24.72800
C  0.43100 8.21200 23.77100
C  0.38700 8.82900 22.35800
C  0.22800 10.37300 22.58000
C  0.42400 10.43500 24.09300
C  1.75600 8.58100 21.63300
C  -1.11100 11.04300 22.15800
C  -0.95300 12.10600 20.97900
N  0.55000 10.84100 27.06100
C  0.71400 11.88700 26.17100
C  1.01400 13.11100 26.82800
C  1.07600 12.74300 28.19800
C  0.80300 11.37100 28.33000
C  1.32200 14.41600 26.19300
C  1.22700 13.26100 29.47800
O  1.30200 14.48400 29.79500
C  1.06400 12.06000 30.51300
C  2.33400 11.84400 31.20400
O  3.18300 10.97700 31.04500
O  2.35700 12.70900 32.26600
C  3.41800 12.59500 33.21800
H  -0.04400 5.25400 29.44800
H  0.14200 6.18500 23.07000
H  0.63400 12.51200 24.11500
H  1.21700 9.26300 32.03900
H  -0.42800 6.94300 31.59200
H  2.30000 7.26500 32.28200
H  2.39700 6.36900 30.85200
H  1.33900 5.67900 32.09000
H  -1.72000 8.66400 31.73600
H  -1.21900 10.31800 31.33400
H  -1.94600 9.33500 33.77400
H  -1.50000 10.90100 33.39100
H  -1.77300 3.04300 27.40800
H  -1.19900 3.74900 28.69200
H  -0.07700 2.52600 27.78600
H  0.37400 1.82000 25.42900
H  -0.73300 1.54400 23.99900
H  -1.35300 1.97700 25.56200
H  -0.45200 8.37000 21.83500
H  1.01700 11.00000 22.16600
H  2.48100 8.30700 22.39900
H  1.98100 9.48100 21.06200
H  1.75500 7.59400 21.17000
H  -1.38200 11.73900 22.95200
H  -1.90100 10.30000 22.05100
H  -1.57100 11.77700 20.14300
H  0.08100 12.28700 20.68600
H  -1.40600 13.02900 21.34000
H  0.45700 14.79400 25.64800
H  2.10900 14.32400 25.44400
H  1.57700 15.18700 26.92000
H  0.30600 12.23700 31.27500
H  3.30400 13.20100 34.11700
H  4.37600 12.97100 32.85900
H  3.59400 11.58300 33.58300
Mg 41.46700 9.16500 29.86100
C  43.48500 10.32700 32.45800
C  39.20700 8.14900 32.20000
C  39.69500 7.69200 27.39100
C  43.87200 10.22200 27.57200
N  41.43200 9.23900 32.09500
C  42.26900 9.85900 32.92300
C  41.65500 9.91800 34.36200
C  40.38700 8.97900 34.24400
C  40.34100 8.83400 32.74800
C  40.50400 7.53900 34.91800
C  41.39500 11.42600 34.69300
C  40.54900 11.71600 35.99600
H  41.18700 12.56000 37.15100
N  39.72000 8.04100 29.79800
C  38.87300 7.78100 30.84800
C  37.64900 7.25200 30.30000
C  37.80900 7.00200 28.93600
C  39.14300 7.50500 28.66100
C  36.50200 6.81300 31.19500
C  36.85100 6.43800 27.82600
O  37.14700 6.11800 26.66400
C  35.42700 6.17300 28.32100
N  41.92600 8.80000 27.79000
C  40.91200 8.24400 26.97300
C  41.29700 8.37400 25.48000
C  42.51500 9.37000 25.55700
C  42.80800 9.55800 27.05400
C  41.63900 7.00600 24.73600
C  42.15200 10.72100 24.84300
C  41.36900 11.83500 25.55400
N  43.29400 10.07100 29.98500
C  44.18800 10.36000 28.97200
C  45.37900 10.89100 29.51300
C  45.17600 10.86700 30.91200
C  43.90000 10.33200 31.13600
C  46.57500 11.34100 28.77200
C  45.77200 11.20800 32.21400
O  46.85700 11.69000 32.37700
C  44.63800 10.93300 33.28300
C  45.07300 9.91100 34.24200
O  45.36800 8.74900 33.98100
O  44.84300 10.41200 35.54300
C  44.86600 9.45500 36.64100
H  38.31800 8.14400 32.83300
H  39.18700 7.39000 26.47300
H  44.63000 10.72400 26.96800
H  42.42900 9.40000 34.92900
H  39.50400 9.47600 34.64600
H  40.62100 6.69200 34.24200
H  39.62100 7.32800 35.52300
H  41.43400 7.56100 35.48600
H  40.82500 11.88600 33.88500
H  42.33900 11.95800 34.80800
H  40.18000 10.78700 36.43000
H  39.64000 12.25300 35.72600
H  36.88200 6.68100 32.20900
H  36.18400 5.80000 30.94700
H  35.62000 7.44800 31.11800
H  34.80000 5.85000 27.49000
H  34.90400 7.04800 28.70700
H  35.36200 5.40900 29.09600
H  40.40500 8.81900 25.04000
H  43.47400 9.10400 25.11400
H  41.07500 6.72700 23.84600
H  41.47200 6.16800 25.41300
H  42.69800 7.05200 24.48400
H  41.62200 10.49200 23.91800
H  43.03500 11.15900 24.37800
H  41.27200 11.57100 26.60700
H  40.35900 12.05200 25.20500
H  41.93800 12.76500 25.55100
H  47.35600 11.47000 29.52100
H  46.45700 12.25300 28.18700
H  46.96800 10.65500 28.02000
H  44.42400 11.82100 33.87700
H  44.45000 8.48900 36.35600
H  44.24900 9.88900 37.42800
H  45.83000 9.36500 37.14300

