158

Mg 46.77100 5.29900 47.94700
C  44.76600 8.16600 47.43500
C  44.11500 3.36400 46.92500
C  48.89600 2.77600 47.55300
C  49.43300 7.58500 48.36900
N  44.70400 5.75100 47.37600
C  44.08600 6.99100 47.32900
C  42.61700 6.76800 46.94100
C  42.43400 5.22900 46.83700
C  43.79300 4.73900 47.12200
C  41.27200 4.63600 47.67600
C  42.00400 7.51300 45.69200
C  40.45300 7.69100 45.71800
H  39.61000 7.42500 44.44600
N  46.53000 3.34800 47.45500
C  45.36900 2.73100 47.08300
C  45.64800 1.37800 46.67700
C  47.01600 1.13200 46.91400
C  47.54500 2.47100 47.37300
C  44.53800 0.43100 46.11000
C  47.71700 -0.22000 46.79500
O  47.07300 -1.19000 46.43700
C  49.16600 -0.42500 47.09200
N  48.87100 5.29100 47.86700
C  49.47900 4.09100 47.79000
C  50.92500 4.13400 48.16100
C  51.09200 5.61700 48.53900
C  49.74400 6.25500 48.18300
C  51.42900 3.08600 49.25500
C  52.35700 6.28600 47.87600
C  53.14100 7.28300 48.77300
N  47.10500 7.46700 48.04700
C  48.19500 8.18500 48.16700
C  47.93100 9.59000 48.30500
C  46.57200 9.68000 47.89200
C  46.15100 8.32500 47.78100
C  48.87900 10.67200 48.70600
C  45.45900 10.58800 47.66000
O  45.35600 11.80700 47.56500
C  44.27000 9.62300 47.19400
C  43.08900 9.97800 47.96100
O  42.79700 9.54000 49.05800
O  42.28800 10.74100 47.10500
C  41.01600 11.15400 47.62800
H  43.25300 2.77300 46.61100
H  49.61800 1.96000 47.47500
H  50.29600 8.22300 48.57000
H  42.05100 7.15500 47.78900
H  42.28300 4.94400 45.79600
H  40.56100 3.99800 47.15200
H  40.67500 5.44800 48.09100
H  41.64300 4.01800 48.49300
H  42.27900 6.93200 44.81100
H  42.40100 8.50600 45.48100
H  40.15700 8.70400 45.99000
H  40.03400 7.09800 46.53200
H  44.85400 0.22300 45.08800
H  43.50400 0.77000 46.05900
H  44.52600 -0.58400 46.50600
H  49.41900 -1.48200 47.01000
H  49.38700 -0.09800 48.10700
H  49.77100 0.21200 46.44700
H  51.46700 3.95000 47.23300
H  51.12500 5.80100 49.61300
H  50.69800 2.28300 49.35100
H  51.51300 3.66400 50.17500
H  52.34900 2.65000 48.86500
H  51.92800 6.78200 47.00500
H  53.14300 5.68000 47.42500
H  54.16500 6.90800 48.77400
H  52.77800 7.41000 49.79200
H  53.19700 8.23400 48.24200
H  49.75400 10.38500 49.29000
H  48.27300 11.33500 49.32400
H  49.24800 11.27300 47.87500
H  44.13500 9.87100 46.14200
H  40.45000 11.70100 46.87500
H  41.22000 11.82200 48.46500
H  40.54400 10.27500 48.06700
Mg -12.12500 16.63200 42.15300
C  -8.75000 15.30800 41.72200
C  -10.95500 19.53000 40.35200
C  -15.22000 17.43100 41.64300
C  -13.11700 13.21800 42.64500
N  -10.04600 17.31300 41.14100
C  -8.79500 16.63300 41.19900
C  -7.68900 17.47200 40.68600
C  -8.36200 18.91800 40.41700
C  -9.88700 18.61600 40.63600
C  -7.77800 20.21000 41.19000
C  -7.00700 16.91300 39.40300
C  -5.60000 16.47500 39.60300
H  -5.23500 15.16300 38.86100
N  -12.93300 18.35000 41.32900
C  -12.35400 19.36000 40.64600
C  -13.37600 20.31900 40.25200
C  -14.62500 19.85500 40.64200
C  -14.28900 18.49300 41.24900
C  -13.04400 21.70300 39.75500
C  -15.98900 20.52000 40.37600
O  -16.08000 21.59800 39.74700
C  -17.22700 19.81400 40.93900
N  -13.85000 15.48200 42.14200
C  -15.02200 16.09600 42.02700
C  -16.23900 15.18400 42.26400
C  -15.59800 13.81800 42.55100
C  -14.10400 14.15300 42.41200
C  -17.07800 15.71600 43.43300
C  -16.04300 12.71800 41.56100
C  -17.11800 11.86200 42.11300
N  -11.23000 14.71700 42.40000
C  -11.73400 13.42300 42.61300
C  -10.59800 12.53100 42.88100
C  -9.42500 13.24300 42.55300
C  -9.85500 14.54700 42.22800
C  -10.77000 11.09900 43.36700
C  -8.07200 13.12600 42.50000
O  -7.37300 12.17200 42.77300
C  -7.54300 14.51100 41.95700
C  -6.77200 15.06300 43.03700
O  -7.09300 16.03200 43.70800
O  -5.52700 14.45600 43.08000
C  -4.64000 14.86100 44.22500
H  -10.58700 20.46300 39.92000
H  -16.24900 17.78400 41.73500
H  -13.43500 12.17900 42.76300
H  -6.97900 17.53600 41.51100
H  -8.29900 19.17700 39.36000
H  -8.52500 20.56800 41.89800
H  -7.42900 21.00400 40.53000
H  -6.82000 19.88700 41.59700
H  -7.16400 17.57400 38.55000
H  -7.54700 16.03700 39.04400
H  -5.33800 16.28600 40.64400
H  -4.97000 17.20600 39.09500
H  -13.75800 22.18800 39.09000
H  -12.14100 21.77600 39.14900
H  -12.89800 22.37800 40.59900
H  -18.07400 20.47700 40.76600
H  -17.04200 19.77100 42.01200
H  -17.44700 18.85500 40.47100
H  -16.87300 15.15100 41.37800
H  -15.78600 13.68600 43.61700
H  -16.45000 16.43800 43.95400
H  -17.32600 14.91100 44.12500
H  -18.01600 16.12900 43.06200
H  -15.14500 12.10700 41.47400
H  -16.28800 13.11100 40.57400
H  -16.94100 10.82300 41.83700
H  -18.05900 12.09900 41.61600
H  -17.13200 11.95800 43.19900
H  -11.10000 10.49500 42.52200
H  -11.54900 11.16000 44.12700
H  -9.84100 10.71600 43.79100
H  -7.01900 14.42400 41.00500
H  -4.36700 15.90300 44.05900
H  -3.71600 14.30900 44.05500
H  -5.22200 14.69000 45.13100

