158

Mg 24.93100 1.24200 29.80000
C  27.03500 0.84000 32.68900
C  22.22400 0.97400 31.99200
C  23.00400 1.32900 27.13700
C  27.68000 0.52200 27.88000
N  24.70300 0.83000 32.08400
C  25.70000 0.86400 33.05500
C  25.19700 1.07700 34.43800
C  23.64100 0.97300 34.19400
C  23.47600 0.84200 32.66500
C  22.88500 -0.08600 34.97100
C  25.58700 2.51600 35.01100
C  26.68200 2.67600 36.08200
H  26.50500 3.48400 37.33200
N  22.88500 1.06100 29.60300
C  21.95400 0.98800 30.59900
C  20.63000 0.93300 29.99000
C  20.83600 1.07400 28.56300
C  22.24100 1.14400 28.37000
C  19.31400 0.56700 30.78300
C  19.79100 1.03000 27.49600
O  20.00200 1.02400 26.31000
C  18.33300 0.73200 27.81300
N  25.28300 0.88200 27.83400
C  24.40000 1.21900 26.91300
C  24.98300 1.27200 25.45000
C  26.39900 0.64400 25.70800
C  26.51600 0.78400 27.24000
C  24.20900 0.63000 24.25800
C  27.56000 1.29900 24.90800
C  28.21500 2.47000 25.46000
N  26.97000 0.96200 30.15200
C  27.91100 0.61900 29.23700
C  29.24100 0.43500 29.89500
C  28.95600 0.58600 31.25200
C  27.55700 0.80500 31.35600
C  30.55800 0.08100 29.30900
C  29.42700 0.52700 32.50900
O  30.56900 0.38100 32.86800
C  28.27700 0.82800 33.49600
C  28.34200 -0.05100 34.65800
O  27.78200 -1.15500 34.66600
O  29.11600 0.40300 35.66100
C  29.40200 -0.35900 36.88800
H  21.35800 0.96900 32.65600
H  22.38300 1.47000 26.24900
H  28.61900 0.29900 27.36900
H  25.60800 0.36700 35.15600
H  23.07100 1.88600 34.36900
H  22.34500 -0.79400 34.34200
H  22.14400 0.46400 35.55000
H  23.46800 -0.68400 35.67200
H  24.73000 3.10200 35.34000
H  26.05000 3.07500 34.19700
H  27.60400 3.02600 35.61700
H  27.05100 1.73200 36.48200
H  19.46000 0.10700 31.76100
H  18.86700 -0.17900 30.12600
H  18.73400 1.47400 30.95300
H  17.87100 1.23900 28.66000
H  18.15200 -0.31200 28.06600
H  17.70400 0.87400 26.93500
H  24.98400 2.34200 25.24300
H  26.34600 -0.39900 25.39600
H  23.17800 0.33200 24.44500
H  24.82500 -0.19600 23.90400
H  24.24100 1.31500 23.41100
H  27.15800 1.60500 23.94200
H  28.30400 0.52400 24.72200
H  28.34000 3.21300 24.67300
H  29.21300 2.32300 25.87300
H  27.70300 3.03100 26.24200
H  30.72500 0.26700 28.24900
H  30.60600 -0.98900 29.51500
H  31.28800 0.67600 29.85800
H  28.57300 1.80600 33.87500
H  28.61600 -0.35800 37.64200
H  30.29800 0.05700 37.35000
H  29.40200 -1.44800 36.83100
Mg 29.55400 58.81700 39.58100
C  27.06900 56.36300 38.48500
C  31.89300 56.70700 38.14300
C  31.71700 61.27900 39.79700
C  26.84700 61.01000 39.96300
N  29.48000 56.75500 38.37600
C  28.42700 55.91300 38.15600
C  28.85100 54.60200 37.47800
C  30.42500 54.65500 37.52800
C  30.66100 56.11200 38.07300
C  31.09900 53.48200 38.28000
C  28.22000 54.32800 36.04300
C  27.87000 55.62100 35.26000
H  27.90200 55.43400 33.77400
N  31.54400 58.88300 39.25900
C  32.34800 57.99300 38.53400
C  33.69900 58.44400 38.63200
C  33.68400 59.79100 39.29200
C  32.27200 60.04900 39.41600
C  34.84500 57.54600 38.08800
C  34.84600 60.58800 39.69600
O  36.00100 60.15000 39.49100
C  34.65100 61.84700 40.43000
N  29.30900 60.90500 39.66500
C  30.38000 61.62600 40.01900
C  30.00100 63.03900 40.54900
C  28.43300 62.99800 40.37600
C  28.16500 61.57900 39.92400
C  30.33000 63.23200 42.03400
C  27.80200 64.11700 39.58000
C  26.75900 64.92200 40.28500
N  27.37100 58.73300 39.50100
C  26.47100 59.70600 39.67600
C  25.12500 59.16400 39.58000
C  25.30000 57.83400 39.17200
C  26.68600 57.65500 39.02700
C  23.82900 59.89200 39.78100
C  24.58100 56.67300 38.77800
O  23.37600 56.49600 38.81200
C  25.70900 55.63600 38.24500
C  25.69500 54.39800 39.13600
O  26.57400 54.04900 39.89800
O  24.54100 53.72300 38.83500
C  24.57200 52.33100 39.23400
H  32.71500 56.12400 37.72200
H  32.25900 62.20900 39.98100
H  26.05400 61.74100 40.13400
H  28.55900 53.90900 38.26700
H  30.82900 54.51100 36.52600
H  32.13600 53.38900 37.95700
H  30.57100 52.56400 38.02300
H  31.14700 53.60900 39.36100
H  27.24400 53.90200 36.27300
H  28.62600 53.51500 35.44100
H  28.47800 56.50400 35.45600
H  26.81900 55.80700 35.48000
H  34.82400 57.49800 36.99900
H  34.59900 56.51300 38.33400
H  35.87000 57.76000 38.39200
H  35.55200 62.03000 41.01400
H  33.85000 61.78300 41.16700
H  34.54300 62.73200 39.80300
H  30.51500 63.84800 40.02900
H  27.99300 63.06500 41.37100
H  29.67700 64.02800 42.39100
H  31.38900 63.46100 42.15100
H  30.19500 62.40800 42.73500
H  27.38800 63.66800 38.67800
H  28.58600 64.80200 39.25700
H  26.05600 65.27500 39.53100
H  27.28100 65.74000 40.78300
H  26.31200 64.37400 41.11400
H  23.03500 59.29400 39.33300
H  23.76300 60.90200 39.37500
H  23.68700 59.97800 40.85800
H  25.49700 55.29200 37.23300
H  24.93600 51.77000 38.37300
H  23.55600 52.02300 39.48100
H  25.28200 52.00700 39.99500

