158

Mg 6.21600 54.11800 40.93300
C  3.93500 51.38700 40.97600
C  8.61400 51.84900 40.03500
C  8.22600 56.67700 40.57700
C  3.37500 56.38900 41.32700
N  6.17700 51.96600 40.42300
C  5.13300 51.11100 40.36200
C  5.57000 49.75500 39.71800
C  7.14700 49.84400 39.69700
C  7.32400 51.31100 40.19900
C  7.84400 48.81000 40.51700
C  4.86300 49.52400 38.29500
C  4.30400 48.10600 38.03500
H  4.97500 47.37000 36.87200
N  8.17800 54.22700 40.31100
C  8.96700 53.19900 39.96100
C  10.29600 53.79600 39.70000
C  10.16300 55.21100 39.85600
C  8.77400 55.44100 40.20100
C  11.49300 52.95900 39.36500
C  11.40400 56.19700 39.60600
O  12.49800 55.72200 39.37400
C  11.20400 57.61400 39.66500
N  5.73900 56.28800 40.73500
C  6.83600 57.11000 40.75000
C  6.41000 58.54800 40.96700
C  4.87000 58.40300 41.26700
C  4.63000 56.93000 41.05300
C  7.15800 59.25500 42.07900
C  3.95900 59.35200 40.47100
C  2.99900 60.16100 41.25200
N  4.06500 54.03100 41.19000
C  3.13400 54.98500 41.42300
C  1.88500 54.36400 41.66700
C  2.07500 52.89100 41.57200
C  3.47900 52.75400 41.18100
C  0.53600 55.10800 41.91800
C  1.49100 51.60100 41.70000
O  0.39100 51.27300 42.13300
C  2.65300 50.55100 41.35300
C  2.25900 49.43800 40.35600
O  1.67900 49.66900 39.29400
O  2.57800 48.18800 40.78200
C  1.87600 46.98000 40.17400
H  9.34000 51.05300 39.85900
H  8.98300 57.46300 40.52700
H  2.53700 57.08900 41.36600
H  5.36300 48.92300 40.39100
H  7.58600 49.73100 38.70700
H  8.15900 49.07400 41.52600
H  8.69700 48.37400 39.99800
H  7.26200 47.90100 40.66500
H  5.63800 49.68200 37.54500
H  4.07000 50.25600 38.14200
H  3.22100 48.22500 37.98100
H  4.58200 47.55500 38.93400
H  12.06100 53.46500 38.58500
H  11.28800 51.95200 39.00000
H  12.14300 52.71500 40.20500
H  10.35800 57.87700 39.02900
H  12.12800 58.02500 39.26000
H  11.09200 57.91400 40.70700
H  6.67300 59.08300 40.05600
H  4.64100 58.55300 42.32200
H  7.86600 59.98700 41.69000
H  7.79900 58.54300 42.60000
H  6.57500 59.73400 42.86500
H  3.46900 58.78000 39.68300
H  4.59900 60.07900 39.97200
H  3.18700 61.20300 40.99200
H  3.06400 60.03500 42.33200
H  1.96900 60.02600 40.92200
H  -0.29200 54.55600 41.47400
H  0.49000 56.14700 41.59300
H  0.26500 55.09500 42.97400
H  2.87700 50.19500 42.35800
H  1.00300 47.15300 39.54500
H  1.45000 46.41100 41.00000
H  2.53300 46.33300 39.59300
Mg 1.25500 41.13900 25.46700
C  2.27400 41.56400 28.91800
C  -1.68900 39.78800 26.73200
C  0.40500 40.67500 22.30200
C  4.55400 41.74300 24.53600
N  0.35400 40.80800 27.56500
C  0.93500 41.08300 28.77500
C  -0.03500 40.73700 29.96200
C  -1.28400 40.16200 29.18600
C  -0.86300 40.27300 27.76100
C  -1.56600 38.70500 29.62400
C  -0.30000 41.96800 30.89900
C  -0.56900 41.69100 32.40800
H  -1.55900 40.49700 32.70100
N  -0.47700 40.43900 24.65100
C  -1.58500 40.02000 25.32000
C  -2.59200 39.69100 24.31100
C  -1.91400 39.86300 23.02600
C  -0.58000 40.39000 23.28600
C  -3.94200 39.17900 24.65900
C  -2.54300 39.56000 21.62800
O  -1.94400 39.86100 20.59400
C  -3.95600 39.02600 21.49100
N  2.37900 41.18100 23.69800
C  1.75300 41.00800 22.47100
C  2.80100 41.14800 21.33600
C  4.13700 41.37000 22.11400
C  3.65600 41.50100 23.49700
C  2.89100 40.01500 20.23800
C  4.84100 42.71300 21.71300
C  4.15100 44.06900 22.00600
N  3.10500 41.65200 26.45500
C  4.35700 41.80700 25.92600
C  5.29800 41.96100 27.00100
C  4.48300 41.88200 28.18000
C  3.12700 41.70500 27.80100
C  6.81500 42.02500 26.91900
C  4.58800 41.94100 29.57100
O  5.57800 42.21200 30.25100
C  3.19600 41.73900 30.15300
C  3.21600 40.42700 30.97300
O  3.66900 39.37500 30.51200
O  2.87400 40.62500 32.29800
C  3.02800 39.44200 33.07900
H  -2.46700 39.15900 27.17000
H  0.12200 40.53800 21.25600
H  5.61500 41.80700 24.28200
H  0.44700 40.02800 30.63500
H  -2.16200 40.78600 29.35400
H  -1.02700 38.40900 30.52400
H  -1.14600 38.00400 28.90300
H  -2.64500 38.69900 29.77800
H  -1.18600 42.51500 30.57400
H  0.52600 42.67800 30.89600
H  -1.04500 42.57800 32.82600
H  0.36700 41.51100 32.93700
H  -4.10300 39.36400 25.72100
H  -3.86600 38.10700 24.47200
H  -4.77000 39.52800 24.04300
H  -4.04200 37.97600 21.77200
H  -4.19700 38.92700 20.43200
H  -4.70600 39.65200 21.97500
H  2.51700 42.11300 20.91800
H  4.86100 40.55600 22.13700
H  2.21300 39.16900 20.35400
H  3.90600 39.62500 20.16600
H  2.54800 40.40800 19.28100
H  4.98200 42.61800 20.63700
H  5.79800 42.64700 22.23000
H  3.99200 44.51800 21.02600
H  4.82700 44.71600 22.56500
H  3.21100 44.01900 22.55600
H  7.13600 42.08500 25.87900
H  7.23000 41.17900 27.46600
H  7.09900 42.91000 27.48800
H  3.05400 42.63700 30.75400
H  4.10400 39.27400 33.11900
H  2.57400 38.60200 32.55300
H  2.80100 39.47000 34.14500

