158

Mg 40.40800 9.19800 29.26800
C  42.33700 10.60400 31.93100
C  38.28500 7.92100 31.62200
C  38.92900 7.54600 26.86300
C  42.94900 10.19400 27.06700
N  40.34700 9.33700 31.49900
C  41.12400 10.01800 32.37900
C  40.61800 9.90400 33.87800
C  39.36600 8.99000 33.63500
C  39.27800 8.73900 32.17300
C  39.32300 7.63500 34.53600
C  40.32000 11.26800 34.46500
C  39.36100 11.38200 35.69200
H  39.62700 12.30100 36.83600
N  38.82700 7.87300 29.22600
C  37.99500 7.54200 30.25500
C  36.87200 6.85700 29.73100
C  36.91700 6.80600 28.31300
C  38.27200 7.42700 28.10900
C  35.80600 6.29800 30.57600
C  35.93100 6.22400 27.20200
O  36.28300 6.24000 25.97100
C  34.55700 5.58700 27.57800
N  40.97100 8.76900 27.27800
C  40.20900 8.05100 26.49100
C  40.68200 8.01400 25.02900
C  42.02800 8.85800 25.05200
C  41.97300 9.31500 26.51800
C  40.81300 6.59400 24.55600
C  42.21600 9.94700 23.93400
C  41.62700 11.31700 24.24200
N  42.23200 10.24100 29.45900
C  43.17400 10.54100 28.43900
C  44.27400 11.25700 28.99500
C  43.89200 11.38000 30.41900
C  42.68700 10.68400 30.61200
C  45.51300 11.79600 28.20200
C  44.30400 11.90600 31.69700
O  45.26700 12.58100 31.99900
C  43.30400 11.37900 32.77800
C  43.98000 10.57200 33.81400
O  44.72500 9.66200 33.65200
O  43.58500 11.01900 35.03600
C  44.13500 10.43000 36.22500
H  37.54800 7.61500 32.36700
H  38.38300 7.11400 26.02100
H  43.61800 10.59900 26.30400
H  41.27600 9.36200 34.55800
H  38.41100 9.41500 33.94400
H  38.94600 6.75700 34.01200
H  38.88400 7.68300 35.53300
H  40.38400 7.39500 34.60000
H  39.99700 12.03400 33.76000
H  41.21300 11.66500 34.94700
H  39.30400 10.35300 36.04800
H  38.38700 11.66300 35.29400
H  35.67600 6.46000 31.64600
H  35.62400 5.23200 30.44400
H  34.98900 6.90200 30.18100
H  34.64700 4.51300 27.41300
H  33.73900 6.04900 27.02600
H  34.28800 5.69200 28.62900
H  39.97300 8.48900 24.35200
H  42.93500 8.25400 25.01800
H  40.11100 5.88500 24.99600
H  41.76900 6.13800 24.81600
H  40.76900 6.58100 23.46700
H  41.66400 9.71800 23.02300
H  43.26500 9.96300 23.63800
H  40.80800 11.60400 23.58300
H  42.43800 12.02900 24.09000
H  41.15200 11.38700 25.22000
H  45.21400 12.28900 27.27700
H  46.34500 11.15300 27.91500
H  46.00300 12.60300 28.74700
H  42.90300 12.28000 33.24000
H  45.15200 10.77900 36.40400
H  43.93700 9.35800 36.23400
H  43.55600 10.83500 37.05400
Mg 37.05200 49.57300 24.96200
C  37.39800 47.66800 27.89600
C  35.61300 52.05700 26.85700
C  36.18400 51.02600 22.06000
C  38.16100 46.79600 23.16400
N  36.62400 49.89500 27.17100
C  36.86800 48.95800 28.17800
C  36.58000 49.59300 29.53600
C  36.00000 51.04000 29.18100
C  36.07300 51.02300 27.64100
C  34.52500 51.39900 29.65700
C  37.83600 49.59200 30.47900
C  37.69800 48.88000 31.86300
H  36.48700 49.24500 32.74400
N  36.15600 51.36500 24.51000
C  35.65900 52.24200 25.42700
C  35.02100 53.37100 24.72800
C  35.25300 53.14700 23.31200
C  35.86400 51.81800 23.22500
C  34.40300 54.46400 25.44100
C  34.81300 53.96800 22.14900
O  35.12200 53.66400 20.97100
C  34.03600 55.24000 22.38200
N  37.20000 49.04500 22.89600
C  36.94200 49.89300 21.88000
C  37.14000 49.14200 20.48600
C  38.02800 47.96000 20.89700
C  37.80400 47.92700 22.41000
C  35.90900 48.81400 19.67200
C  39.50100 48.04800 20.51000
C  40.02500 46.75200 19.81900
N  37.55300 47.59900 25.36600
C  38.04500 46.60800 24.59400
C  38.48300 45.46800 25.36100
C  38.16900 45.83000 26.69600
C  37.73400 47.17300 26.64100
C  39.04800 44.26200 24.77500
C  38.23000 45.36700 28.05100
O  38.44500 44.30000 28.58200
C  37.81200 46.60700 28.88200
C  36.73700 46.21900 29.78800
O  35.55400 46.47800 29.62800
O  37.11900 45.47500 30.87500
C  36.06700 45.19900 31.90200
H  35.09200 52.80200 27.46200
H  35.91400 51.46500 21.09800
H  38.66100 46.09900 22.48900
H  35.77300 49.08800 30.06600
H  36.61100 51.81500 29.64400
H  34.45700 52.41400 30.05000
H  34.33000 50.80900 30.55300
H  33.78900 51.21000 28.87600
H  38.08200 50.65200 30.53100
H  38.58200 49.02800 29.92000
H  38.63400 49.04300 32.39800
H  37.65300 47.80900 31.66000
H  34.12700 54.30500 26.48300
H  33.48400 54.80100 24.96100
H  35.13900 55.26600 25.39100
H  34.30800 55.86200 23.23500
H  32.97800 55.14000 22.62700
H  34.10600 55.79300 21.44600
H  37.69800 49.84700 19.87000
H  37.55000 47.05400 20.52400
H  35.04000 49.41900 19.93200
H  35.55200 47.78600 19.60900
H  36.20800 48.97400 18.63600
H  40.07900 48.27300 21.40600
H  39.60900 48.72800 19.66500
H  39.33300 45.91200 19.88200
H  40.87100 46.48600 20.45300
H  40.23700 46.92400 18.76400
H  38.19600 43.61000 24.58800
H  39.57400 43.85900 25.64100
H  39.59300 44.39700 23.84100
H  38.75600 46.81000 29.38600
H  35.13000 44.72500 31.61100
H  35.70600 46.17900 32.21200
H  36.44000 44.58000 32.71900

