158

Mg -10.43600 39.73400 41.60900
C  -9.55600 36.54700 40.63700
C  -7.33900 40.89100 40.38100
C  -11.45500 42.88200 41.95600
C  -13.62900 38.63500 42.35000
N  -8.64800 38.81700 40.60700
C  -8.52300 37.43300 40.30800
C  -7.14100 37.10000 39.69200
C  -6.52200 38.48000 39.68000
C  -7.55900 39.44900 40.25800
C  -5.05200 38.64400 40.12900
C  -7.11500 36.36000 38.35100
C  -5.96500 35.48000 37.94600
H  -4.95600 36.01800 36.88500
N  -9.44400 41.63300 41.31300
C  -8.22000 41.91200 40.82900
C  -8.02900 43.32800 40.87300
C  -9.17300 43.93100 41.29400
C  -10.10500 42.77800 41.57400
C  -6.68000 43.91700 40.43800
C  -9.49400 45.37000 41.44100
O  -8.62800 46.21700 41.30300
C  -10.78100 46.06700 41.76600
N  -12.36700 40.59900 41.77000
C  -12.46800 41.94500 42.02400
C  -13.94100 42.37700 42.30200
C  -14.64600 40.98800 42.49900
C  -13.52200 39.99700 42.18500
C  -14.21800 43.43200 43.35800
C  -15.95900 40.66200 41.64000
C  -17.23800 40.54300 42.44100
N  -11.32900 37.96000 41.72300
C  -12.62400 37.65400 42.08400
C  -12.81100 36.16600 42.02500
C  -11.62300 35.74800 41.43100
C  -10.78100 36.83300 41.31700
C  -14.06300 35.35400 42.26500
C  -10.92000 34.54000 40.93800
O  -11.28000 33.41900 40.95200
C  -9.53800 35.06600 40.41500
C  -8.42600 34.28300 41.08900
O  -7.98600 34.42500 42.24500
O  -7.99800 33.33000 40.26000
C  -7.16300 32.21100 40.65800
H  -6.32500 41.08300 40.02400
H  -11.72200 43.86800 42.34300
H  -14.56000 38.22400 42.74600
H  -6.63300 36.48900 40.43800
H  -6.36300 38.82100 38.65700
H  -4.58600 39.31500 39.40700
H  -4.54200 37.68400 40.21100
H  -5.03000 39.06200 41.13600
H  -7.11500 37.17400 37.62500
H  -8.08000 35.88300 38.18000
H  -6.28500 34.50900 37.56900
H  -5.42600 35.16700 38.84100
H  -5.88100 43.22500 40.70400
H  -6.27400 44.82900 40.87600
H  -6.61900 44.08600 39.36300
H  -11.52500 45.66200 41.08000
H  -10.76100 47.14700 41.62000
H  -11.05500 45.89900 42.80700
H  -14.37500 42.80000 41.39600
H  -14.82900 40.91000 43.57000
H  -14.65400 42.96700 44.24200
H  -14.89700 44.20900 43.00700
H  -13.38400 43.93700 43.84500
H  -15.73200 39.71000 41.16000
H  -15.94800 41.45100 40.88700
H  -18.02300 41.09300 41.92300
H  -17.06600 40.92800 43.44600
H  -17.55000 39.50100 42.51100
H  -14.68200 35.43100 41.37100
H  -14.55000 35.72800 43.16600
H  -13.87900 34.29200 42.42600
H  -9.64700 34.75800 39.37500
H  -7.65100 31.27400 40.38800
H  -6.86300 32.27900 41.70300
H  -6.25500 32.28800 40.05900
Mg -11.61800 17.24300 42.23400
C  -8.12800 17.25300 42.58200
C  -11.57600 20.56800 41.56600
C  -14.90300 16.92800 41.48000
C  -11.42800 13.62500 42.29500
N  -10.04600 18.70100 42.17000
C  -8.69000 18.51200 42.26700
C  -7.92500 19.82900 42.02700
C  -9.11000 20.87000 42.24800
C  -10.32100 20.01600 41.94500
C  -9.08900 21.56300 43.65100
C  -7.35000 19.93200 40.62400
C  -5.81800 20.09100 40.60700
H  -5.01900 19.10500 39.85100
N  -13.09100 18.60100 41.67000
C  -12.84700 19.94800 41.47200
C  -14.08700 20.54300 41.17400
C  -15.13400 19.57000 41.14600
C  -14.41500 18.27200 41.39300
C  -14.19800 21.97500 40.86600
C  -16.61400 19.87100 40.95600
O  -16.99300 21.03800 40.83000
C  -17.65300 18.68000 40.83100
N  -12.93700 15.40200 41.55800
C  -14.23700 15.68600 41.61800
C  -15.09200 14.41900 41.88600
C  -13.96900 13.27900 41.98500
C  -12.72700 14.14100 42.05200
C  -16.05900 14.44700 43.09400
C  -13.91300 12.24800 40.80600
C  -14.13900 10.77000 41.24100
N  -10.10800 15.73000 42.38800
C  -10.20200 14.29500 42.43400
C  -8.84200 13.79100 42.63000
C  -8.05300 14.93200 42.78400
C  -8.84900 16.04200 42.60400
C  -8.34900 12.38300 42.64100
C  -6.66900 15.37800 43.14400
O  -5.68900 14.72300 43.38500
C  -6.69000 16.90900 43.06700
C  -6.39500 17.50100 44.38200
O  -6.89600 17.20000 45.46100
O  -5.44000 18.48600 44.21600
C  -5.30900 19.54900 45.20100
H  -11.51100 21.65700 41.51500
H  -15.96400 16.77200 41.27100
H  -11.31100 12.54200 42.37300
H  -7.11800 19.91700 42.75300
H  -9.15300 21.65500 41.49300
H  -8.24900 21.33900 44.30800
H  -9.92800 21.02000 44.08700
H  -9.19200 22.64700 43.69800
H  -7.80300 20.70500 40.00400
H  -7.55800 18.99500 40.10700
H  -5.39600 20.17800 41.60800
H  -5.65100 21.09800 40.22500
H  -14.31700 22.10900 39.79100
H  -13.32300 22.54600 41.17500
H  -15.03500 22.37000 41.44200
H  -18.59900 19.06900 40.45300
H  -17.90700 18.40600 41.85500
H  -17.34400 17.84900 40.19700
H  -15.72600 14.22300 41.02100
H  -13.96200 12.82800 42.97700
H  -16.32900 15.49200 43.24200
H  -15.63800 14.03200 44.00900
H  -16.98600 13.90800 42.89700
H  -12.93100 12.39000 40.35500
H  -14.58300 12.53800 39.99600
H  -13.35500 10.13700 40.82800
H  -15.06900 10.51700 40.73300
H  -14.35500 10.66900 42.30500
H  -8.76800 11.86400 41.78000
H  -8.91100 12.02200 43.50300
H  -7.26500 12.37100 42.75300
H  -5.93300 17.18900 42.33300
H  -5.03600 20.46800 44.68100
H  -4.63400 19.37100 46.03700
H  -6.25600 19.69200 45.72100

