158

Mg -1.65400 16.96900 27.02900
C  -2.08600 14.79100 29.85100
C  -2.48400 19.59800 29.20500
C  -1.67500 19.10200 24.48700
C  -1.98800 14.28900 24.96400
N  -2.34200 17.14500 29.24400
C  -2.30800 16.12900 30.22500
C  -2.67100 16.68100 31.71900
C  -2.89000 18.22500 31.39900
C  -2.57800 18.31900 29.86100
C  -4.30500 18.70300 31.94000
C  -1.56900 16.38300 32.73000
C  -1.50100 17.41000 33.85400
H  -1.13700 16.79100 35.23700
N  -1.86500 18.99100 26.88200
C  -2.16400 19.90300 27.93400
C  -2.12400 21.28000 27.45800
C  -1.76600 21.11100 26.04500
C  -1.75100 19.67800 25.72700
C  -2.21200 22.49900 28.35900
C  -1.43700 22.16700 25.04600
O  -1.27800 21.97900 23.82700
C  -1.10600 23.53000 25.51700
N  -1.73100 16.73800 25.00000
C  -1.81300 17.77500 24.10500
C  -1.88800 17.27600 22.61900
C  -2.16400 15.73800 22.82800
C  -1.95100 15.56100 24.38100
C  -2.94500 17.92000 21.79400
C  -1.15000 14.80700 22.06800
C  0.36000 14.93100 22.64400
N  -1.76400 14.94100 27.28600
C  -1.88700 13.95400 26.32900
C  -1.94700 12.64000 26.97000
C  -1.95200 12.92900 28.36200
C  -1.87700 14.32500 28.45500
C  -2.17500 11.22700 26.30900
C  -2.03300 12.32600 29.62800
O  -2.10900 11.16000 29.96800
C  -2.10400 13.53600 30.63900
C  -0.91500 13.42300 31.53200
O  0.18700 13.92600 31.40200
O  -1.18900 12.57300 32.57700
C  -0.26600 12.48300 33.72600
H  -2.65500 20.45200 29.86300
H  -1.66900 19.82100 23.66500
H  -2.27000 13.40400 24.39000
H  -3.52800 16.14000 32.11900
H  -2.10100 18.82100 31.85700
H  -5.07000 18.85800 31.17900
H  -4.23600 19.59500 32.56300
H  -4.74700 17.92900 32.56700
H  -0.56900 16.35200 32.29900
H  -1.84900 15.41300 33.14000
H  -2.42400 17.98900 33.89200
H  -0.69000 18.09600 33.60800
H  -1.26100 23.02600 28.43700
H  -2.70700 22.38800 29.32300
H  -2.77000 23.24400 27.79100
H  -0.70200 24.14900 24.71600
H  -0.38100 23.51100 26.33000
H  -2.05400 24.03200 25.71300
H  -0.93200 17.49700 22.14300
H  -3.15200 15.40400 22.51400
H  -3.65800 18.40500 22.46000
H  -3.53000 17.18400 21.24300
H  -2.66600 18.60400 20.99300
H  -1.07700 15.04800 21.00800
H  -1.54900 13.79300 22.10400
H  1.13300 15.00200 21.87900
H  0.45300 14.10700 23.35100
H  0.43200 15.90200 23.13400
H  -2.66400 11.27600 25.33600
H  -2.95300 10.83300 26.96300
H  -1.38000 10.48400 26.24300
H  -3.08600 13.42100 31.09700
H  -1.02500 12.46300 34.50900
H  0.21600 13.46000 33.77000
H  0.41200 11.63100 33.78400
Mg 54.71100 25.23900 45.01100
C  51.80900 26.99100 43.92100
C  53.49500 22.45400 43.44500
C  57.83100 23.86800 45.23500
C  56.08400 28.39800 45.95400
N  52.94800 24.84700 43.70800
C  51.86800 25.73100 43.46100
C  50.83600 24.94600 42.58000
C  51.20900 23.47100 42.77300
C  52.62700 23.57500 43.37300
C  50.24200 22.84700 43.81700
C  50.86000 25.33700 41.06000
C  49.48800 25.49700 40.41400
H  49.35600 24.64800 39.21300
N  55.54800 23.40900 44.47700
C  54.86500 22.33500 43.95800
C  55.69600 21.10400 43.94100
C  56.96700 21.51700 44.33300
C  56.83500 22.99700 44.65300
C  55.27200 19.75700 43.44400
C  58.23500 20.75600 44.31600
O  58.12900 19.61500 43.96600
C  59.66000 21.21800 44.65500
N  56.75100 26.09000 45.28600
C  57.75200 25.24500 45.60100
C  58.95100 25.90400 46.23900
C  58.41600 27.41100 46.37600
C  56.98400 27.31500 45.83500
C  59.37500 25.20700 47.51100
C  59.36100 28.51900 45.81700
C  58.93500 29.18600 44.56700
N  54.13000 27.30300 44.99300
C  54.74100 28.39400 45.49400
C  53.71800 29.40700 45.83300
C  52.56200 28.97700 45.08400
C  52.89900 27.66500 44.65900
C  53.95300 30.60600 46.58000
C  51.20800 29.30700 44.62500
O  50.58900 30.32900 44.86700
C  50.68200 27.99500 43.86900
C  50.31200 28.52300 42.46200
O  51.15700 28.92000 41.60500
O  48.91700 28.64600 42.32500
C  48.51000 29.27700 41.07100
H  53.14400 21.50700 43.03100
H  58.75500 23.34300 45.48800
H  56.45100 29.29800 46.45200
H  49.85500 25.15500 43.00500
H  51.15100 22.83500 41.88900
H  49.88100 21.86300 43.51900
H  49.40400 23.51400 44.01900
H  50.78200 22.76900 44.76100
H  51.33300 24.50400 40.54000
H  51.53100 26.19600 41.04700
H  49.33100 26.53200 40.10800
H  48.77300 25.24700 41.19800
H  54.24600 19.49500 43.70200
H  55.80300 19.07200 44.10500
H  55.43500 19.60900 42.37700
H  59.95200 22.13300 44.13800
H  60.38500 20.45500 44.36900
H  59.65900 21.27700 45.74300
H  59.83000 25.91700 45.59600
H  58.37600 27.51600 47.46000
H  59.43700 25.77300 48.44000
H  60.38700 24.83900 47.34100
H  58.75300 24.31100 47.52200
H  60.35800 28.11800 45.63600
H  59.51500 29.20300 46.65100
H  58.50500 28.34700 44.02000
H  59.82300 29.49300 44.01500
H  58.33600 30.08700 44.69800
H  54.67000 30.39600 47.37400
H  52.92700 30.85100 46.85700
H  54.39800 31.37700 45.95200
H  49.80200 27.65000 44.41200
H  48.97500 30.26300 41.07800
H  47.43300 29.44100 41.10900
H  48.81300 28.75700 40.16200

