158

Mg 47.49700 34.34400 27.63700
C  45.52100 32.76300 30.12100
C  47.75900 37.04500 29.81700
C  48.98400 35.91400 25.07000
C  46.56600 31.81700 25.45700
N  46.86900 34.72000 29.76600
C  46.18800 33.86700 30.60700
C  46.23400 34.41700 32.09800
C  46.39600 35.93800 31.80400
C  47.10700 35.92000 30.40500
C  45.07800 36.73000 31.72400
C  47.51400 33.88400 32.80700
C  47.38900 33.73400 34.30200
H  46.26000 34.56000 34.98500
N  48.28300 36.22100 27.42400
C  48.39800 37.13700 28.50100
C  49.26700 38.26100 28.03700
C  49.47600 38.00000 26.64000
C  48.98000 36.66800 26.29900
C  49.70100 39.35100 29.02400
C  50.20400 38.89700 25.66200
O  50.46300 38.44000 24.50800
C  50.70800 40.28500 26.04200
N  47.89300 33.83700 25.53000
C  48.50100 34.66700 24.71500
C  48.27700 34.27200 23.22300
C  47.78200 32.77600 23.39000
C  47.36300 32.78300 24.84300
C  47.14000 35.22700 22.54400
C  48.88100 31.70700 23.06000
C  50.07700 31.56200 24.00400
N  46.31000 32.63200 27.69600
C  46.04800 31.69200 26.69400
C  45.34000 30.57400 27.32500
C  45.10200 31.03200 28.65300
C  45.67100 32.23100 28.83700
C  44.96900 29.28300 26.73800
C  44.34200 30.62700 29.84500
O  43.72800 29.58700 30.01800
C  44.40700 31.85000 30.82100
C  44.52600 31.47200 32.23900
O  45.56300 31.28500 32.77600
O  43.28400 31.63900 32.84100
C  43.25600 31.51300 34.32400
H  47.69900 37.90700 30.48500
H  49.42600 36.33200 24.16300
H  46.25700 30.92500 24.90800
H  45.27400 34.22900 32.58000
H  46.94500 36.50400 32.55600
H  44.58000 36.59900 30.76300
H  45.16500 37.74000 32.12400
H  44.42600 36.20800 32.42400
H  48.38800 34.49900 32.59300
H  47.57300 32.92700 32.28800
H  48.32100 33.88200 34.84800
H  47.16400 32.67300 34.40700
H  50.75500 39.62900 29.02600
H  49.47000 38.97100 30.01900
H  49.06000 40.22900 28.94800
H  49.90300 40.80600 26.56100
H  50.95700 40.75100 25.08900
H  51.49000 40.10900 26.78100
H  49.24100 34.39500 22.72800
H  46.94500 32.53200 22.73600
H  46.82300 36.02400 23.21700
H  46.28200 34.62400 22.24900
H  47.56600 35.61100 21.61700
H  49.14500 31.91500 22.02300
H  48.40600 30.72800 23.00300
H  50.87800 31.93700 23.36600
H  50.06400 30.48900 24.19600
H  50.13300 32.12100 24.93800
H  45.76200 28.94300 26.07100
H  44.01600 29.34300 26.21200
H  45.00600 28.51400 27.50900
H  43.50600 32.44400 30.66900
H  43.83100 30.61900 34.56500
H  42.24300 31.34100 34.68700
H  43.57400 32.43200 34.81600
Mg 16.82900 51.87200 26.55000
C  18.71800 50.73600 28.99900
C  14.47100 52.82700 28.97600
C  15.08300 53.35400 24.21700
C  19.30300 51.04900 24.15800
N  16.60400 51.74500 28.68700
C  17.57400 51.32000 29.51100
C  17.28000 51.45800 31.08600
C  15.76200 51.88100 30.97000
C  15.61200 52.24200 29.50500
C  14.79400 50.82300 31.53300
C  18.34500 52.43700 31.87700
C  18.30200 52.17900 33.43800
H  17.18200 51.47900 34.16800
N  14.91600 52.81500 26.58000
C  14.11800 53.11400 27.64300
C  12.87800 53.86800 27.16100
C  13.05300 54.07500 25.76000
C  14.36000 53.36200 25.43300
C  11.67200 54.26100 27.97500
C  12.16300 54.70000 24.69700
O  12.48200 54.64400 23.50400
C  10.90000 55.54800 25.03000
N  17.16500 52.06700 24.48000
C  16.25200 52.71900 23.76400
C  16.69300 53.16400 22.35400
C  17.96300 52.26400 22.25600
C  18.23100 51.85400 23.72000
C  15.67700 52.98400 21.20400
C  19.24100 52.87400 21.50400
C  19.73700 52.02000 20.29400
N  18.49600 50.82800 26.46400
C  19.43000 50.62700 25.45800
C  20.50400 49.83200 26.02200
C  20.27500 49.92500 27.40700
C  19.08100 50.54600 27.61700
C  21.64600 49.22400 25.30400
C  20.81600 49.48400 28.67400
O  21.74900 48.71900 28.89300
C  19.88500 50.12200 29.76300
C  19.50500 49.05300 30.66100
O  18.66600 48.13900 30.46600
O  20.14700 49.11200 31.83000
C  19.49500 48.34800 32.93800
H  13.71300 53.10900 29.71000
H  14.86700 54.13300 23.48300
H  20.08400 50.80200 23.43600
H  17.35300 50.50800 31.61600
H  15.55800 52.82000 31.48600
H  15.19600 50.10700 32.25000
H  14.32000 50.30300 30.70000
H  13.94300 51.28100 32.03700
H  17.98400 53.41700 31.56500
H  19.38000 52.31400 31.55600
H  18.52900 53.11800 33.94200
H  19.16600 51.51400 33.45600
H  10.80400 53.62200 27.81500
H  11.31900 55.28800 27.87800
H  11.90100 54.13000 29.03300
H  10.26000 55.50100 24.14800
H  11.11500 56.60600 25.18000
H  10.37200 55.06400 25.85200
H  17.01300 54.20000 22.46700
H  17.75600 51.36100 21.68100
H  14.92700 52.26300 21.52900
H  16.19900 52.74600 20.27700
H  15.14400 53.91900 21.03100
H  20.02600 52.83800 22.26000
H  19.07700 53.91800 21.23600
H  19.43400 52.56000 19.39700
H  19.38400 50.99000 20.25500
H  20.82600 52.04700 20.33600
H  21.46100 48.19400 24.99700
H  22.54900 49.28600 25.91200
H  21.70800 49.67400 24.31300
H  20.45400 50.84000 30.35400
H  18.45700 48.65600 33.06000
H  20.02000 48.57500 33.86600
H  19.52100 47.27900 32.72600

