158

Mg 9.33700 3.82000 27.23500
C  10.29200 2.19200 30.31500
C  7.63000 6.07400 29.19600
C  7.88000 4.99000 24.47400
C  10.55200 1.05600 25.43800
N  9.02600 4.03600 29.57000
C  9.56800 3.28100 30.60800
C  9.07600 3.85100 31.94700
C  8.01900 4.90400 31.47800
C  8.23300 5.02900 30.02300
C  6.51900 4.51800 31.82100
C  10.31100 4.41100 32.71700
C  10.71500 3.70200 34.02700
H  11.09700 4.48500 35.34100
N  8.06100 5.43000 26.81600
C  7.59000 6.30100 27.76100
C  6.85600 7.33200 27.07600
C  6.76500 6.99700 25.67700
C  7.59100 5.75700 25.61400
C  6.19700 8.49200 27.76000
C  5.99700 7.62000 24.51600
O  5.91800 7.08100 23.41500
C  5.50000 9.07600 24.66200
N  9.15400 3.05900 25.35100
C  8.52000 3.75000 24.33000
C  8.56500 3.02800 22.98500
C  9.84700 2.01300 23.24800
C  9.85300 2.04600 24.77800
C  7.22100 2.37100 22.59000
C  11.22300 2.46300 22.58800
C  11.22900 2.32800 21.01200
N  10.30600 1.99000 27.76400
C  10.79100 1.07200 26.90700
C  11.36600 -0.05700 27.69300
C  11.21200 0.36500 29.02800
C  10.59800 1.65300 29.05400
C  11.85200 -1.40900 27.26100
C  11.38400 -0.04400 30.45100
O  11.83200 -1.09800 30.88600
C  10.91200 1.14600 31.32900
C  10.09800 0.51400 32.39100
O  8.88400 0.17100 32.26900
O  10.88800 0.33000 33.54600
C  10.18000 -0.30300 34.63200
H  7.08200 6.82700 29.76600
H  7.37800 5.28200 23.54900
H  10.73700 0.17000 24.82800
H  8.68600 3.03500 32.55700
H  8.17700 5.89400 31.90300
H  5.99100 4.32000 30.88700
H  6.12000 5.37300 32.36600
H  6.32700 3.57700 32.33700
H  10.28300 5.46000 33.01100
H  11.15600 4.32300 32.03500
H  11.64500 3.23300 33.70400
H  10.03200 2.92800 34.37700
H  6.18400 8.50600 28.85000
H  5.15900 8.40300 27.43700
H  6.54300 9.46900 27.42300
H  4.48900 9.07200 25.06900
H  5.38700 9.61200 23.72000
H  6.11700 9.59800 25.39400
H  8.82800 3.70500 22.17200
H  9.45800 1.04500 22.93400
H  7.40500 1.31100 22.42000
H  6.92400 2.88700 21.67700
H  6.50000 2.46500 23.40200
H  12.00900 1.77800 22.90500
H  11.41900 3.48700 22.90500
H  11.36000 3.31500 20.56800
H  10.30300 1.76900 20.87300
H  12.08600 1.73400 20.69600
H  12.93100 -1.49200 27.39100
H  11.69700 -1.52700 26.18800
H  11.28700 -2.17900 27.78500
H  11.73000 1.48800 31.96200
H  9.55400 -1.06300 34.16400
H  9.52500 0.36700 35.18900
H  10.88400 -0.84800 35.26000
Mg 16.32400 52.28900 24.83200
C  17.89500 51.28600 27.76900
C  13.46300 52.86100 26.66700
C  14.54400 52.74700 22.03200
C  19.04200 50.94600 23.06700
N  15.72000 52.03000 27.04200
C  16.57100 51.77100 28.02700
C  15.83700 52.06100 29.41200
C  14.42400 52.47400 28.99900
C  14.50300 52.38100 27.45700
C  13.33900 51.49800 29.59200
C  16.56300 53.26700 30.03900
C  16.83500 53.28900 31.53100
H  16.00100 52.36400 32.45100
N  14.25800 52.81500 24.33000
C  13.30000 53.10500 25.23200
C  12.05200 53.50700 24.55600
C  12.35900 53.48100 23.23300
C  13.79100 52.94200 23.11900
C  10.86000 53.87200 25.41800
C  11.47600 53.79700 22.10700
O  11.92100 53.77300 20.92300
C  10.02200 54.17300 22.23800
N  16.72700 51.80600 22.76100
C  15.85200 52.14800 21.76400
C  16.40300 51.88800 20.34700
C  17.81000 51.50400 20.68100
C  17.91200 51.37900 22.27500
C  15.64000 50.80800 19.57200
C  18.88600 52.44900 20.03500
C  19.21300 53.69800 20.88500
N  18.27900 51.36700 25.29900
C  19.17900 50.81100 24.43500
C  20.25000 50.29400 25.23300
C  19.80800 50.46500 26.52100
C  18.53900 51.02700 26.54200
C  21.54200 49.75900 24.81900
C  20.12800 50.37200 27.95300
O  21.10100 49.85400 28.48600
C  18.93700 50.98000 28.80800
C  18.46800 49.88500 29.65900
O  17.59400 49.03200 29.38500
O  19.16600 49.90000 30.79900
C  18.87300 48.84800 31.79300
H  12.58700 53.02200 27.29900
H  14.06700 53.19400 21.15700
H  19.74800 50.48900 22.37000
H  15.89000 51.13400 29.98300
H  14.20300 53.49400 29.31500
H  13.78200 50.54700 29.88700
H  12.53800 51.27600 28.88600
H  12.96000 51.96100 30.50300
H  16.24900 54.25600 29.70600
H  17.55100 53.23500 29.57900
H  16.56100 54.30400 31.82300
H  17.87500 53.06300 31.76500
H  10.11800 53.07500 25.37700
H  10.27400 54.72300 25.07100
H  11.03800 54.12000 26.46400
H  9.82300 55.20000 22.54700
H  9.45800 53.55000 22.93200
H  9.49000 54.25200 21.28900
H  16.41400 52.89700 19.93600
H  18.04300 50.52100 20.27100
H  15.16000 51.25600 18.70300
H  14.79600 50.47900 20.17900
H  16.18700 50.00500 19.07700
H  18.67900 52.74100 19.00500
H  19.85200 51.96100 19.90200
H  18.40400 53.85900 21.59700
H  19.18600 54.47400 20.11900
H  20.17100 53.66200 21.40400
H  21.97200 50.58500 24.25200
H  21.26900 48.87400 24.24600
H  22.16000 49.60400 25.70400
H  19.36200 51.74800 29.45600
H  17.80300 48.87000 32.00100
H  19.29500 49.06000 32.77500
H  19.27200 47.90800 31.41100

