158

Mg 40.83100 9.36800 29.07500
C  42.47300 10.53100 32.00300
C  38.50400 7.75900 31.27900
C  39.45800 8.05000 26.41300
C  43.40900 10.73600 27.17700
N  40.52700 9.15100 31.47800
C  41.26000 9.88200 32.39700
C  40.65700 9.73100 33.76900
C  39.56200 8.63500 33.60000
C  39.50900 8.48600 32.04400
C  39.76200 7.28100 34.42000
C  40.15500 11.01700 34.48000
C  39.68500 11.02600 36.09400
H  40.48100 11.97300 37.02600
N  39.23500 8.08600 28.83900
C  38.40000 7.59500 29.83000
C  37.34600 6.85500 29.21500
C  37.44600 7.04300 27.82900
C  38.76700 7.73400 27.61600
C  36.37000 5.95700 29.92000
C  36.58800 6.59700 26.64000
O  36.85100 6.90900 25.49400
C  35.32400 5.88900 26.93300
N  41.32500 9.41900 27.10100
C  40.53400 8.81800 26.17500
C  41.22000 8.91700 24.81900
C  42.37600 10.04600 24.98900
C  42.38000 10.13700 26.49200
C  41.58600 7.53700 24.08600
C  42.03900 11.41600 24.36500
C  40.86200 12.22600 24.83300
N  42.59000 10.42100 29.49700
C  43.55100 10.86200 28.59000
C  44.63600 11.48700 29.32500
C  44.15700 11.48700 30.64800
C  42.95100 10.72200 30.69500
C  45.89300 12.04800 28.69600
C  44.53300 11.86700 31.99400
O  45.44700 12.60500 32.36300
C  43.33200 11.40600 32.87400
C  43.84600 10.75200 34.11400
O  44.53200 9.73000 34.04200
O  43.34900 11.43600 35.24300
C  43.71300 10.72900 36.48500
H  37.70800 7.40000 31.93500
H  39.09100 7.73000 25.43600
H  44.22300 11.04600 26.51900
H  41.41200 9.24300 34.38600
H  38.56800 8.99300 33.86900
H  38.91600 7.08200 35.07800
H  40.50800 7.39700 35.20600
H  39.96700 6.32100 33.94800
H  39.27200 11.36000 33.94100
H  40.99900 11.69400 34.35200
H  39.72900 10.05800 36.59200
H  38.62000 11.25700 36.11800
H  35.34300 6.32100 29.93500
H  36.55000 5.82700 30.98700
H  36.23200 5.00500 29.40700
H  34.71400 6.43100 27.65500
H  35.59000 4.87500 27.23100
H  34.72300 5.88300 26.02400
H  40.46300 9.40700 24.20700
H  43.25800 9.55400 24.57800
H  41.70500 6.78800 24.86800
H  42.45900 7.48100 23.43600
H  40.72500 7.14700 23.54400
H  41.94800 11.19600 23.30200
H  42.92400 12.02300 24.55500
H  40.11200 12.22300 24.04200
H  41.24300 13.23300 25.00000
H  40.40800 11.87300 25.75900
H  46.25400 11.39000 27.90500
H  46.63400 12.08600 29.49400
H  45.87400 13.07200 28.32300
H  42.80500 12.32100 33.14600
H  43.76700 11.49800 37.25500
H  44.58900 10.09100 36.36400
H  42.88400 10.06200 36.71900
Mg 6.45100 55.13500 39.32500
C  5.81000 51.71500 39.10500
C  9.75900 54.52000 38.43900
C  6.79400 58.44600 38.83000
C  2.97400 55.63900 39.58300
N  7.71100 53.32800 38.96900
C  7.17000 52.00800 38.88200
C  8.36000 51.02300 38.58900
C  9.63900 51.89200 38.64400
C  9.05300 53.33600 38.78400
C  10.69900 51.47400 39.83200
C  8.05900 50.29300 37.20300
C  7.69200 51.26100 36.03800
H  6.70900 50.75700 34.94400
N  8.00500 56.29500 38.79900
C  9.29700 55.89400 38.40400
C  10.12900 56.99300 38.20400
C  9.24900 58.21800 38.33600
C  7.92700 57.67500 38.61900
C  11.55800 56.90400 37.91600
C  9.76100 59.65400 38.18800
O  10.96200 59.93100 38.01400
C  8.77900 60.84400 38.40500
N  5.04200 56.83500 39.34000
C  5.45300 58.07300 39.09900
C  4.38600 59.14900 39.28900
C  3.10700 58.21200 39.43800
C  3.71800 56.82900 39.43600
C  4.64400 60.04100 40.60300
C  2.03100 58.46600 38.38300
C  1.32300 59.82800 38.49500
N  4.71800 53.95200 39.48500
C  3.42100 54.30500 39.66000
C  2.55200 53.09300 39.91600
C  3.53000 52.06000 39.73900
C  4.77600 52.63200 39.38600
C  0.98300 53.05700 40.07300
C  3.75900 50.68900 39.82500
O  3.04000 49.78400 40.20000
C  5.14100 50.40700 39.28400
C  4.94000 49.50300 38.15900
O  4.55400 49.90400 37.07400
O  5.38800 48.19400 38.44400
C  5.10900 47.26300 37.35900
H  10.79300 54.35400 38.12700
H  6.87500 59.53400 38.78000
H  1.89900 55.81300 39.66600
H  8.28500 50.23200 39.33500
H  10.13200 51.79400 37.67700
H  10.21700 50.94700 40.65600
H  11.09500 52.42000 40.20100
H  11.40300 50.92500 39.20700
H  7.25200 49.57800 37.36200
H  8.99500 49.78800 36.96200
H  8.63100 51.54500 35.56400
H  7.23700 52.18900 36.38300
H  11.58000 56.20800 37.07800
H  12.04400 56.50600 38.80700
H  12.01900 57.80600 37.51500
H  9.38700 61.70100 38.11600
H  8.41400 61.02300 39.41600
H  8.06100 60.64700 37.60900
H  4.29700 59.79900 38.41900
H  2.72600 58.33900 40.45100
H  5.63100 59.76300 40.97400
H  3.88700 59.96000 41.38300
H  4.61100 61.08900 40.30600
H  1.18100 57.78700 38.31200
H  2.60400 58.48500 37.45600
H  1.84300 60.42900 39.24200
H  0.30800 59.58800 38.81000
H  1.16000 60.29000 37.52100
H  0.90300 51.97300 40.15200
H  0.49600 53.53500 39.22300
H  0.63000 53.59200 40.95500
H  5.61200 49.90100 40.12600
H  4.03900 47.10500 37.22400
H  5.59900 46.31000 37.56300
H  5.62500 47.54700 36.44200

