158

Mg 6.89000 54.47500 41.18300
C  4.59200 51.83800 41.01100
C  9.15900 52.54600 39.82500
C  8.64600 57.26100 40.90000
C  4.02500 56.56200 41.94400
N  6.71100 52.49000 40.25100
C  5.75100 51.50500 40.35200
C  6.22700 50.19500 39.72200
C  7.75300 50.42000 39.58800
C  7.91000 51.93500 39.91200
C  8.61100 49.52500 40.52000
C  5.54700 49.92200 38.34000
C  5.23400 48.47600 38.03200
H  5.71900 47.80800 36.66300
N  8.74400 54.83600 40.53100
C  9.51900 53.89000 40.02000
C  10.81200 54.41400 39.85000
C  10.69200 55.84000 40.04500
C  9.30500 56.08100 40.51100
C  12.05700 53.70600 39.45600
C  11.77100 56.86700 39.72300
O  12.83700 56.46400 39.27000
C  11.50400 58.31900 39.70400
N  6.34000 56.64400 41.36900
C  7.35800 57.56500 41.26900
C  6.87600 59.04300 41.43000
C  5.33900 58.78900 41.49600
C  5.17400 57.21100 41.60200
C  7.53800 59.81500 42.67400
C  4.55400 59.27300 40.26300
C  3.48000 60.39200 40.36500
N  4.75600 54.25000 41.54000
C  3.80000 55.20800 41.86400
C  2.50200 54.53800 42.04800
C  2.82000 53.16500 41.84300
C  4.15700 53.03700 41.45900
C  1.21900 55.10900 42.53300
C  2.26000 51.80500 41.89100
O  1.13400 51.40000 42.19200
C  3.42400 50.90200 41.40500
C  2.84900 49.96100 40.32900
O  2.32600 50.19800 39.26400
O  2.89300 48.68700 40.93900
C  2.44100 47.53400 40.06100
H  9.93200 51.85500 39.48200
H  9.21100 58.19200 40.81800
H  3.21200 57.27800 42.07700
H  6.03700 49.42000 40.46400
H  8.06800 50.22900 38.56200
H  9.34900 48.98700 39.92500
H  7.96100 48.83000 41.05200
H  9.14000 50.17400 41.21800
H  6.18800 50.36500 37.57700
H  4.62300 50.49800 38.39300
H  4.15100 48.58700 37.97900
H  5.50900 47.84200 38.87500
H  12.26300 53.70600 38.38600
H  12.03400 52.68500 39.83900
H  12.89200 54.12700 40.01700
H  10.57900 58.53900 39.17100
H  12.30600 58.80100 39.14500
H  11.54400 58.62700 40.74900
H  7.14100 59.59500 40.52800
H  4.98700 59.23300 42.42700
H  6.79200 60.27400 43.32300
H  8.08700 60.60700 42.16600
H  8.24600 59.18000 43.20700
H  4.15000 58.41100 39.73200
H  5.29700 59.67000 39.57200
H  3.78300 61.25400 39.77100
H  3.30800 60.61800 41.41700
H  2.60200 59.93700 39.90500
H  0.35000 54.71800 42.00200
H  1.34900 56.18700 42.44300
H  1.08200 54.88800 43.59100
H  3.69800 50.28100 42.25800
H  3.26800 46.82900 39.97300
H  2.07700 47.87900 39.09300
H  1.56900 47.14000 40.58400
Mg -11.40000 38.31700 41.58500
C  -9.00600 35.75900 41.08300
C  -9.51400 40.41700 39.70100
C  -14.08500 40.32900 41.41100
C  -13.56500 35.72000 42.92900
N  -9.53900 38.06400 40.42800
C  -8.74400 36.93000 40.47900
C  -7.44700 37.22100 39.71500
C  -7.59300 38.74400 39.26900
C  -8.97100 39.11700 39.79400
C  -6.42900 39.74500 39.57800
C  -7.01900 36.21300 38.60600
C  -5.71700 35.48200 38.80600
H  -4.62600 35.60300 37.68300
N  -11.68900 40.23300 40.87400
C  -10.83500 40.92500 40.01300
C  -11.42600 42.12900 39.59300
C  -12.67000 42.20800 40.25500
C  -12.88500 40.90600 40.93400
C  -10.63600 43.05900 38.70400
C  -13.59000 43.44600 40.12800
O  -13.10700 44.48700 39.64900
C  -15.00300 43.45200 40.63200
N  -13.53400 38.05200 42.14900
C  -14.37100 39.06100 42.01300
C  -15.79700 38.69500 42.36100
C  -15.63900 37.25200 42.91100
C  -14.14900 36.97400 42.69400
C  -16.58500 39.66700 43.27300
C  -16.50500 36.33500 41.96200
C  -18.07300 36.66600 41.84700
N  -11.25900 36.23300 42.13100
C  -12.18600 35.36600 42.73700
C  -11.54500 34.10100 43.00500
C  -10.29400 34.19500 42.40900
C  -10.18100 35.49700 41.81900
C  -12.22100 32.98200 43.63500
C  -9.10800 33.57000 42.20500
O  -8.81800 32.44800 42.59800
C  -8.12600 34.57600 41.45500
C  -6.88400 34.81000 42.27600
O  -5.91800 34.08200 42.32400
O  -6.87200 36.07000 42.92300
C  -5.71800 36.44400 43.62900
H  -8.79200 41.07200 39.21000
H  -14.99800 40.92300 41.32400
H  -14.21000 34.97000 43.39200
H  -6.68000 37.17000 40.48800
H  -7.75900 38.64100 38.19600
H  -5.48100 39.25300 39.79500
H  -6.56000 40.54200 40.31100
H  -6.15000 40.28400 38.67200
H  -6.96500 36.63500 37.60200
H  -7.80400 35.45700 38.55900
H  -6.03300 34.44400 38.90500
H  -5.19900 35.80500 39.70900
H  -11.08200 43.96900 38.30500
H  -10.33700 42.43600 37.86100
H  -9.83500 43.34700 39.38600
H  -14.94800 43.17800 41.68500
H  -15.63700 42.90800 39.93200
H  -15.33200 44.48800 40.54200
H  -16.25300 38.70000 41.37100
H  -15.99500 37.12200 43.93300
H  -17.12700 39.02200 43.96400
H  -17.30100 40.25000 42.69300
H  -15.84800 40.32600 43.73300
H  -16.35300 35.30800 42.29500
H  -16.14100 36.46300 40.94300
H  -18.30500 37.53900 42.45700
H  -18.71600 35.85700 42.19200
H  -18.37200 36.99300 40.85200
H  -12.59700 33.24100 44.62500
H  -11.61700 32.07500 43.60700
H  -13.07300 32.74000 42.99900
H  -7.84600 34.00100 40.57200
H  -5.61600 37.52800 43.66100
H  -4.80400 36.06900 43.16900
H  -5.82200 36.14200 44.67200

