158

Mg 54.24200 24.40700 44.41700
C  51.67400 26.65800 43.66200
C  52.23300 21.86100 43.19900
C  56.95300 22.51600 44.43800
C  56.34600 27.28500 44.66500
N  52.22000 24.25100 43.65000
C  51.35000 25.31500 43.45400
C  49.97900 24.75300 42.93900
C  50.07800 23.22400 43.28300
C  51.59900 23.06700 43.37200
C  49.38700 22.71100 44.58500
C  49.72300 24.96500 41.44100
C  48.26100 25.25900 41.01000
H  48.05300 24.79100 39.57400
N  54.55000 22.38500 43.96200
C  53.59800 21.46300 43.44700
C  54.22700 20.20500 43.41400
C  55.60400 20.34800 43.85200
C  55.79000 21.78800 44.12600
C  53.45200 19.01400 42.85200
C  56.64300 19.19400 43.83600
O  56.41600 18.13500 43.28200
C  57.98300 19.35000 44.46200
N  56.37000 24.83400 44.29700
C  57.26900 23.89200 44.57300
C  58.64500 24.47700 44.93100
C  58.41300 25.91600 45.04700
C  56.95400 26.01000 44.65800
C  59.34600 23.83600 46.18700
C  59.34800 26.75900 44.14300
C  59.91400 27.97500 44.75400
N  54.06100 26.60600 44.34400
C  55.01200 27.65000 44.54900
C  54.34400 28.90800 44.69600
C  53.01900 28.57500 44.31600
C  52.91200 27.13000 44.10900
C  54.91100 30.21100 44.93000
C  51.64900 29.12400 44.13700
O  51.26600 30.28900 44.32100
C  50.83400 27.92100 43.44900
C  50.45300 28.22800 42.07500
O  51.24700 28.24200 41.14400
O  49.09100 28.71200 41.98700
C  48.74700 29.19300 40.61400
H  51.54000 21.09400 42.84700
H  57.76700 21.78800 44.44900
H  57.08400 28.07000 44.84300
H  49.20900 25.31000 43.47300
H  49.86200 22.54500 42.45900
H  50.07500 22.05900 45.12300
H  48.43100 22.20800 44.43600
H  49.22500 23.53400 45.28100
H  50.11000 24.14300 40.83900
H  50.40100 25.73900 41.08100
H  48.06400 26.33000 41.04300
H  47.53400 24.85300 41.71400
H  53.62500 18.81000 41.79600
H  52.37800 19.17300 42.94800
H  53.65500 18.20700 43.55700
H  58.46200 18.38600 44.63700
H  57.75600 19.88100 45.38600
H  58.69300 19.99400 43.94300
H  59.18500 24.24400 44.01300
H  58.38300 26.22000 46.09300
H  58.59300 23.37900 46.82900
H  59.87200 24.52900 46.84300
H  60.07100 23.11600 45.80800
H  58.91200 27.13600 43.21900
H  60.23900 26.20000 43.85600
H  59.77900 28.90900 44.20900
H  61.00000 27.90700 44.81100
H  59.49800 28.02600 45.76000
H  54.28000 30.55300 45.75100
H  54.62800 30.82500 44.07500
H  55.95800 30.18500 45.23100
H  50.04600 27.73000 44.17700
H  49.55300 29.51500 39.95500
H  48.20900 30.14000 40.59000
H  48.14800 28.36800 40.22800
Mg 6.49100 53.06900 40.56300
C  6.01600 49.60300 40.05800
C  9.83700 52.74000 39.96900
C  6.81700 56.40200 40.32200
C  3.11500 53.41700 41.09000
N  7.73800 51.41300 40.07200
C  7.37600 50.09500 39.88000
C  8.69300 49.19300 39.89300
C  9.81800 50.21700 40.15400
C  9.09400 51.54900 40.02700
C  10.55500 50.13600 41.50300
C  8.98200 48.44100 38.54600
C  8.74200 49.17500 37.22000
H  7.66600 48.78000 36.26900
N  8.16800 54.40000 40.32200
C  9.45300 54.06700 40.00600
C  10.24300 55.27400 39.94100
C  9.39900 56.35300 40.11000
C  8.05500 55.76200 40.26800
C  11.76400 55.21300 39.65300
C  9.80700 57.82000 40.07700
O  10.99700 58.07100 39.85600
C  8.91600 58.95900 40.20700
N  5.21900 54.64400 40.46400
C  5.54300 55.92100 40.49800
C  4.32400 56.86500 40.77000
C  3.22400 55.88100 41.22400
C  3.91500 54.55100 40.95800
C  4.56200 58.04900 41.79000
C  1.81000 56.07500 40.50800
C  0.65900 56.34500 41.43300
N  4.84100 51.78300 40.62700
C  3.58000 52.06200 40.99400
C  2.84700 50.83100 41.15000
C  3.76900 49.81100 40.72400
C  4.96400 50.47900 40.37600
C  1.36000 50.70600 41.40600
C  4.00500 48.37300 40.61000
O  3.21800 47.45300 40.92700
C  5.47800 48.22100 40.16600
C  5.50300 47.50400 38.94300
O  5.16800 48.06800 37.90300
O  5.93300 46.27400 39.14700
C  5.90700 45.28200 38.01100
H  10.89200 52.46500 39.89800
H  6.82100 57.48400 40.17000
H  2.11700 53.39500 41.53300
H  8.49800 48.46400 40.68000
H  10.58400 50.17700 39.37900
H  10.27300 51.03600 42.05100
H  11.63600 50.04300 41.39900
H  10.30100 49.27700 42.12400
H  8.43900 47.49600 38.58400
H  10.02000 48.12100 38.63200
H  9.60500 49.05900 36.56500
H  8.60500 50.22400 37.48000
H  11.92700 55.63700 38.66200
H  12.13200 54.18700 39.62400
H  12.32100 55.77900 40.40000
H  9.38200 59.94200 40.14900
H  8.37800 58.84800 41.14800
H  8.08200 58.95000 39.50500
H  4.05400 57.29800 39.80700
H  3.07900 56.01000 42.29700
H  4.75000 58.98100 41.25600
H  5.36000 57.76700 42.47700
H  3.65100 58.22500 42.36000
H  1.65200 55.27300 39.78700
H  1.76600 56.94900 39.85800
H  0.02900 55.48900 41.67900
H  -0.00400 57.10700 41.02400
H  1.11200 56.66800 42.37000
H  0.68600 51.15300 40.67600
H  1.30000 51.21600 42.36700
H  1.15200 49.70200 41.77400
H  5.97500 47.68600 40.97500
H  5.41400 44.38500 38.38500
H  6.93600 44.96500 37.84200
H  5.48600 45.65100 37.07500

