158

Mg 47.35000 24.83600 29.46100
C  48.09400 27.24200 31.94900
C  46.22300 22.79100 32.05100
C  46.81200 22.56500 27.21800
C  48.90700 26.90900 27.05900
N  47.14500 24.98800 31.69900
C  47.52800 26.07600 32.45200
C  47.18000 25.81900 33.91600
C  47.00200 24.25400 33.95500
C  46.72900 24.01600 32.50800
C  48.19200 23.54800 34.61200
C  46.02200 26.70400 34.46500
C  46.39000 27.58800 35.72200
H  46.52100 26.84900 37.06400
N  46.57600 22.96500 29.65100
C  46.18600 22.28300 30.74100
C  45.68400 20.96000 30.36900
C  45.80300 20.92000 28.92400
C  46.39800 22.19400 28.51600
C  45.01800 19.98800 31.34400
C  45.41200 19.81000 28.02200
O  45.49700 19.89500 26.84700
C  45.13500 18.37700 28.57600
N  47.74300 24.78500 27.42500
C  47.45600 23.70100 26.65200
C  47.72300 23.89700 25.16700
C  48.33100 25.31800 25.12100
C  48.35300 25.71600 26.61200
C  48.66900 22.77300 24.69300
C  47.57500 26.46900 24.25300
C  48.54500 27.06400 23.24100
N  48.28800 26.71900 29.46400
C  48.90600 27.41100 28.41800
C  49.35800 28.71500 28.90500
C  49.10800 28.63200 30.30700
C  48.40400 27.44200 30.58500
C  50.02300 29.79600 28.17200
C  49.22000 29.43200 31.58400
O  49.69400 30.53600 31.74000
C  48.55900 28.51700 32.65500
C  49.73300 28.13600 33.63000
O  50.71000 27.42500 33.41600
O  49.52400 28.65500 34.92000
C  50.62700 28.36300 35.86300
H  46.08300 22.19900 32.95900
H  46.47400 21.93500 26.39300
H  49.28800 27.66400 26.36800
H  48.10200 25.93300 34.48600
H  46.08700 23.99000 34.48400
H  47.91300 22.76100 35.31300
H  48.93100 24.23500 35.02300
H  48.66300 22.86700 33.90300
H  45.20800 26.02200 34.71300
H  45.44800 27.27700 33.73700
H  45.70300 28.42900 35.82100
H  47.37800 28.03800 35.63100
H  45.60400 19.07600 31.45500
H  44.03100 19.60700 31.08300
H  44.95000 20.34200 32.37200
H  45.84200 18.01900 29.32400
H  45.15200 17.65700 27.75800
H  44.16400 18.49100 29.05900
H  46.80700 23.91600 24.57600
H  49.33000 25.22800 24.69500
H  49.07400 23.18200 23.76700
H  48.13200 21.86300 24.42400
H  49.40000 22.63500 25.49000
H  47.19700 27.28500 24.86800
H  46.64800 26.16100 23.77100
H  48.71000 28.13800 23.32400
H  48.07100 26.99400 22.26200
H  49.56700 26.68900 23.17400
H  49.97500 29.63900 27.09500
H  51.08700 29.88300 28.39500
H  49.43600 30.66800 28.46300
H  47.66900 28.82200 33.20400
H  50.04900 27.76200 36.56500
H  50.97400 29.29800 36.30400
H  51.41400 27.70700 35.49000
Mg 42.62800 41.87600 26.24600
C  42.01700 44.09100 28.70400
C  43.85800 39.62900 28.62600
C  43.85800 39.75200 23.75700
C  42.13200 44.35400 23.80900
N  42.76900 41.82100 28.39800
C  42.33100 42.79800 29.17800
C  42.47600 42.41400 30.68700
C  43.43700 41.15900 30.61300
C  43.32600 40.80000 29.15100
C  44.92400 41.34600 31.03900
C  41.03000 42.19300 31.28800
C  40.75600 42.88700 32.62400
H  41.78400 42.69100 33.78600
N  43.50000 39.85100 26.21500
C  43.86900 39.12800 27.32200
C  44.33500 37.81300 26.94200
C  44.44900 37.88400 25.47700
C  43.85800 39.20700 25.04200
C  44.54600 36.75900 27.93700
C  44.96300 36.82400 24.53100
O  45.06300 36.93600 23.34400
C  45.46000 35.43500 25.21700
N  42.92500 42.00300 24.13800
C  43.45700 41.01000 23.30300
C  43.40700 41.36200 21.86100
C  42.67100 42.76400 21.85000
C  42.53400 43.06500 23.33400
C  44.92400 41.45000 21.29600
C  41.33400 42.72700 21.14000
C  40.29200 41.83900 21.77200
N  42.06800 43.82800 26.15300
C  41.96200 44.74100 25.14500
C  41.59600 46.04000 25.75700
C  41.53400 45.80900 27.19000
C  41.89300 44.50600 27.31800
C  41.33000 47.23000 24.96800
C  41.33800 46.46200 28.42400
O  41.03400 47.57100 28.70300
C  41.54500 45.33100 29.53300
C  42.54100 45.80000 30.50400
O  43.69600 45.89900 30.20100
O  42.00000 46.14100 31.73800
C  42.92200 46.61900 32.76500
H  44.28200 38.91100 29.33100
H  44.29300 39.04100 23.05100
H  41.96500 45.16800 23.10000
H  42.89200 43.25500 31.24200
H  43.00100 40.33600 31.17900
H  45.66200 41.26700 30.24100
H  45.06100 40.48500 31.69300
H  44.95600 42.20800 31.70400
H  40.78000 41.13200 31.27800
H  40.29000 42.62100 30.61200
H  39.77900 42.56000 32.98000
H  40.60500 43.90500 32.26500
H  43.98100 36.94300 28.85100
H  45.60400 36.61600 28.15500
H  44.21100 35.73600 27.76600
H  44.54700 34.87400 25.41900
H  46.03700 35.45600 26.14200
H  46.03200 34.83400 24.51000
H  42.84000 40.58500 21.34700
H  43.34200 43.46800 21.35800
H  45.71200 41.06800 21.94500
H  45.23500 42.44800 20.98500
H  44.93400 40.75800 20.45500
H  41.48400 42.48200 20.08800
H  40.90100 43.72700 21.13600
H  40.48700 41.42000 22.76000
H  39.97100 41.08600 21.05300
H  39.38600 42.38900 22.02400
H  42.04800 47.16100 24.15100
H  41.53000 48.15700 25.50500
H  40.32400 47.30200 24.55500
H  40.61500 45.12500 30.06300
H  43.40000 47.54500 32.44500
H  43.67600 45.83500 32.83100
H  42.43600 46.92300 33.69200

