158

Mg 40.79300 9.01800 29.70100
C  42.39700 10.77800 32.19800
C  38.65000 7.81000 31.95700
C  39.16900 7.39500 27.10700
C  43.24300 10.18100 27.37200
N  40.63400 9.19800 31.81700
C  41.32900 10.02600 32.63700
C  40.82600 9.87600 34.06100
C  39.70000 8.79700 33.97200
C  39.62800 8.59900 32.48300
C  39.73400 7.44100 34.81500
C  40.36900 11.24200 34.72500
C  39.39500 11.17100 35.98300
H  39.63000 12.10900 37.17800
N  39.12000 7.74900 29.56800
C  38.33900 7.39000 30.63900
C  37.21000 6.61600 30.15600
C  37.33700 6.48700 28.77200
C  38.64200 7.18100 28.40400
C  36.22900 5.98700 31.06500
C  36.45200 5.82900 27.71900
O  36.58800 6.03800 26.51400
C  35.20700 5.09700 28.24000
N  41.23800 8.64000 27.60700
C  40.42200 8.02600 26.79100
C  40.85800 8.23700 25.35600
C  41.99600 9.25200 25.40000
C  42.21000 9.36800 26.88500
C  41.24200 6.83500 24.86700
C  41.60900 10.60500 24.62200
C  40.57300 11.47100 25.31500
N  42.50700 10.19100 29.72900
C  43.35600 10.57600 28.72700
C  44.37000 11.33300 29.32100
C  44.02500 11.50200 30.70500
C  42.89500 10.77400 30.90700
C  45.60300 11.70100 28.67000
C  44.39100 12.14300 31.95700
O  45.32900 12.87000 32.20900
C  43.29300 11.66900 32.90600
C  43.94200 11.03100 34.08000
O  44.49300 9.93800 34.08700
O  43.69100 11.78500 35.17300
C  43.96100 11.23000 36.46000
H  37.94200 7.49000 32.72500
H  38.70800 6.88100 26.26100
H  43.85400 10.64700 26.59600
H  41.62200 9.55100 34.73100
H  38.79100 9.28000 34.32800
H  38.97800 7.39600 35.59900
H  40.71200 7.44400 35.29700
H  39.60500 6.55700 34.19000
H  39.78900 11.73000 33.94200
H  41.19500 11.88800 35.02300
H  39.44700 10.18300 36.43900
H  38.36300 11.40600 35.72200
H  35.23300 6.37000 30.84100
H  36.40900 6.23200 32.11100
H  36.17000 4.90700 30.93200
H  35.30500 4.29700 28.97500
H  34.81900 4.61500 27.34300
H  34.50100 5.87600 28.52800
H  40.01000 8.51700 24.73200
H  42.99700 8.98600 25.06100
H  40.83600 6.08400 25.54500
H  42.32500 6.76400 24.77000
H  40.63200 6.60000 23.99500
H  41.20300 10.50300 23.61500
H  42.52100 11.18700 24.48900
H  40.56000 11.36000 26.39900
H  39.59500 11.18600 24.92500
H  40.76700 12.52400 25.11200
H  45.66600 12.78600 28.59600
H  45.73300 11.24800 27.68600
H  46.32500 11.23600 29.34100
H  42.74600 12.55600 33.22700
H  44.70000 11.82400 36.99700
H  44.36400 10.21800 36.49500
H  43.08500 11.28300 37.10600
Mg 36.04500 50.32100 25.44600
C  35.95000 48.43800 28.53000
C  34.74700 52.95300 27.26800
C  35.99200 52.03400 22.58800
C  37.06700 47.47000 23.76000
N  35.46400 50.73800 27.69800
C  35.60500 49.82100 28.72000
C  35.19200 50.48300 30.06100
C  34.75900 51.89900 29.61300
C  34.97800 51.94200 28.10600
C  33.33300 52.32000 30.05900
C  36.28100 50.42700 31.15900
C  35.88600 49.71600 32.47000
H  34.47000 49.83600 33.04200
N  35.64500 52.27200 25.02400
C  34.99900 53.20600 25.84500
C  34.60200 54.40100 25.09400
C  35.01300 54.21700 23.76500
C  35.62000 52.82900 23.74800
C  33.89800 55.54100 25.74500
C  34.83000 55.07500 22.54400
O  35.29900 54.90800 21.42200
C  34.17600 56.41100 22.80800
N  36.26300 49.77900 23.47200
C  36.25200 50.66000 22.42200
C  36.67000 49.99300 21.09200
C  37.29200 48.66700 21.50200
C  36.80300 48.63500 23.01400
C  35.46500 49.98300 20.07500
C  38.84000 48.57100 21.37300
C  39.72300 49.29100 22.41500
N  36.34500 48.40100 25.94000
C  36.84100 47.32700 25.15900
C  37.01300 46.11500 25.97500
C  36.63000 46.50700 27.23700
C  36.23200 47.91700 27.20600
C  37.50900 44.81500 25.43700
C  36.50600 46.04800 28.61800
O  36.77000 44.95100 29.10400
C  36.17400 47.29000 29.48500
C  35.01500 46.82900 30.29800
O  33.81000 47.05700 29.96800
O  35.33100 46.12000 31.41900
C  34.24000 45.50600 32.23400
H  34.19700 53.80900 27.66400
H  35.95900 52.61400 21.66400
H  37.44900 46.58900 23.24100
H  34.31200 49.95900 30.43400
H  35.44700 52.65600 29.99300
H  32.79800 52.73400 29.20400
H  33.36700 53.15200 30.76200
H  32.67900 51.49900 30.35300
H  36.72200 51.40600 31.34900
H  37.07900 49.85000 30.69200
H  36.54200 50.05500 33.27100
H  36.15000 48.68400 32.23400
H  33.79600 55.61100 26.82800
H  32.94100 55.65200 25.23400
H  34.29900 56.53800 25.56500
H  33.12300 56.32500 23.07800
H  34.30200 57.05200 21.93600
H  34.75400 56.93400 23.56900
H  37.37000 50.63900 20.56200
H  36.78500 47.82300 21.03500
H  34.57900 50.11000 20.69700
H  35.41900 49.00300 19.60000
H  35.47700 50.87700 19.45200
H  39.09100 49.03600 20.41900
H  39.07200 47.51200 21.25900
H  39.10800 49.86700 23.10700
H  40.48000 49.85600 21.87100
H  40.27500 48.55700 23.00100
H  38.17300 45.13800 24.63500
H  36.60200 44.32700 25.07900
H  37.97500 44.13600 26.15100
H  37.00100 47.55500 30.14300
H  33.62200 44.90200 31.57000
H  33.71000 46.38400 32.60200
H  34.58700 44.82200 33.00800

