158

Mg 35.18100 2.72700 30.27200
C  33.01200 3.93200 32.74300
C  37.78600 2.85900 32.37200
C  37.22700 1.47200 27.77800
C  32.70700 3.28600 27.92000
N  35.38900 3.29900 32.36100
C  34.28700 3.64400 33.20100
C  34.82900 3.75700 34.68300
C  36.36800 3.81700 34.44600
C  36.58100 3.27900 32.99500
C  37.00100 5.22400 34.76900
C  34.33400 2.48800 35.44200
C  33.68500 2.71700 36.79700
H  34.23900 3.85700 37.63900
N  37.15900 2.17600 30.15000
C  38.08800 2.42400 31.13300
C  39.35000 2.08400 30.69600
C  39.25000 1.58700 29.39500
C  37.86100 1.74400 29.00400
C  40.63100 2.00400 31.66700
C  40.29800 1.00300 28.46100
O  39.96300 0.64200 27.29400
C  41.71500 0.90500 28.81500
N  34.96600 2.37600 28.18100
C  35.88900 1.70200 27.41200
C  35.50100 1.79400 25.91700
C  33.97000 2.18900 25.98600
C  33.92700 2.77500 27.45500
C  36.41300 2.83500 25.22000
C  33.06800 0.96800 25.69800
C  32.73600 0.85100 24.25400
N  33.23800 3.44200 30.25800
C  32.34000 3.59700 29.23100
C  31.07200 4.04500 29.78300
C  31.26300 4.27000 31.12400
C  32.58000 3.83600 31.41400
C  29.76000 4.41500 29.00100
C  30.73800 4.82100 32.42000
O  29.66300 5.34900 32.72100
C  31.86100 4.45600 33.50900
C  32.12300 5.79900 34.11900
O  32.78600 6.68200 33.61500
O  31.51200 5.88000 35.25700
C  31.51600 7.12200 35.97600
H  38.59200 2.86200 33.10800
H  37.80400 1.26100 26.87500
H  32.00100 3.52300 27.12200
H  34.29600 4.58600 35.14900
H  36.91800 3.11200 35.07000
H  36.22300 5.89000 35.14200
H  37.68000 5.48900 33.95800
H  37.73600 5.08400 35.56200
H  35.17100 1.79100 35.47100
H  33.51400 1.98100 34.93300
H  33.79900 1.72900 37.24200
H  32.63500 2.98500 36.68800
H  40.49100 2.32400 32.70000
H  41.50900 2.58000 31.37200
H  40.89300 0.94900 31.59100
H  42.08300 1.90100 29.06200
H  42.34400 0.56500 27.99300
H  41.95900 0.19300 29.60300
H  35.62300 0.78400 25.52400
H  33.80000 2.99500 25.27100
H  35.84000 3.49200 24.56600
H  37.00600 2.19300 24.56900
H  36.98200 3.46300 25.90600
H  32.26700 1.03000 26.43500
H  33.46200 0.02300 26.07100
H  31.71000 1.13600 24.02300
H  32.91800 -0.17300 23.92900
H  33.39400 1.46300 23.63700
H  29.07700 5.07800 29.53200
H  29.34500 3.42300 28.82600
H  30.02800 4.81000 28.02100
H  31.37400 3.67200 34.08900
H  30.63200 7.73800 35.81300
H  32.40700 7.70700 35.75300
H  31.51300 6.88400 37.04000
Mg -11.56800 16.96400 40.81900
C  -8.24100 15.83600 40.61900
C  -10.36600 20.09300 39.61000
C  -14.65000 17.91800 40.26000
C  -12.61500 13.62500 41.08600
N  -9.54800 17.86700 40.17200
C  -8.28100 17.16700 40.21200
C  -7.06100 18.12600 39.88600
C  -7.80300 19.51500 39.74900
C  -9.35100 19.19400 39.98200
C  -7.48000 20.49300 40.92200
C  -6.26400 17.75300 38.64400
C  -4.78900 17.61000 38.82100
H  -4.23600 16.46800 37.99100
N  -12.40400 18.82100 40.14900
C  -11.78500 19.97000 39.69000
C  -12.75800 20.99700 39.44800
C  -14.02800 20.42800 39.67800
C  -13.77000 19.00300 39.99900
C  -12.41800 22.36000 39.00100
C  -15.46300 21.14800 39.55400
O  -15.57800 22.26200 39.10200
C  -16.70200 20.48300 40.00600
N  -13.36600 15.89000 40.64200
C  -14.50800 16.55000 40.58500
C  -15.82000 15.64000 40.54800
C  -15.11200 14.24300 40.92300
C  -13.60500 14.59300 40.94100
C  -17.02400 16.14400 41.50100
C  -15.48300 13.10200 39.96300
C  -15.10200 13.26600 38.49800
N  -10.71600 15.09700 40.97500
C  -11.23900 13.85500 41.11400
C  -10.09700 12.91800 41.47900
C  -8.89800 13.67700 41.24200
C  -9.31000 14.91900 40.86800
C  -10.22600 11.47000 41.87700
C  -7.42700 13.66900 41.38500
O  -6.72300 12.70700 41.72000
C  -6.96300 15.06500 40.92700
C  -6.27400 15.69000 42.09700
O  -6.72100 16.47800 42.93300
O  -4.95300 15.34100 42.08000
C  -4.23100 16.03800 43.09400
H  -10.02900 21.05500 39.21800
H  -15.69100 18.21000 40.11300
H  -12.94400 12.63200 41.39900
H  -6.39000 18.10200 40.74500
H  -7.60200 19.98800 38.78800
H  -6.53200 21.01600 40.79800
H  -7.45700 19.92000 41.84900
H  -8.27900 21.22000 41.06800
H  -6.50500 18.46400 37.85300
H  -6.62200 16.80400 38.24300
H  -4.59800 17.48700 39.88700
H  -4.27600 18.47800 38.40600
H  -13.06300 22.82800 38.25700
H  -11.42300 22.30300 38.56000
H  -12.39000 23.05100 39.84400
H  -17.07200 19.60300 39.48000
H  -17.53800 21.18000 40.06100
H  -16.41600 20.20000 41.01900
H  -16.19800 15.65300 39.52600
H  -15.38500 13.95600 41.93800
H  -16.73000 16.99700 42.11200
H  -17.27900 15.28000 42.11600
H  -17.93500 16.37600 40.95100
H  -16.56700 13.00400 40.01600
H  -15.06500 12.16100 40.32000
H  -15.98000 13.10300 37.87200
H  -14.32500 12.53800 38.26300
H  -14.67300 14.26400 38.41500
H  -10.80300 11.39300 42.79900
H  -9.21500 11.08300 42.00700
H  -10.69700 10.99500 41.01600
H  -6.23800 15.02700 40.11400
H  -4.33800 17.08300 42.80000
H  -3.17100 15.79500 43.02900
H  -4.54200 15.81700 44.11500

