158

Mg 53.85600 24.46800 42.96700
C  51.48400 26.99400 42.28100
C  51.74600 22.10900 42.00400
C  56.49000 22.30400 42.92100
C  56.05800 27.02700 43.90400
N  51.87000 24.62300 42.05400
C  51.06200 25.67800 41.83500
C  49.66500 25.20800 41.39200
C  49.67700 23.66300 41.83400
C  51.20000 23.45100 42.07800
C  48.80700 23.26600 43.06100
C  49.27800 25.49000 39.91700
C  50.33300 25.16700 38.85800
H  49.85300 24.32000 37.66200
N  54.10700 22.49000 42.38900
C  53.08100 21.69400 42.13000
C  53.52300 20.29700 42.16600
C  54.87500 20.31500 42.60700
C  55.23600 21.74000 42.67800
C  52.64600 19.08300 41.86400
C  55.71100 19.05000 42.79600
O  55.31600 17.94900 42.50000
C  57.04500 19.03100 43.50500
N  56.03100 24.67300 43.12400
C  56.91100 23.60100 43.22900
C  58.39200 24.03600 43.50300
C  58.18300 25.57200 43.95900
C  56.68300 25.80200 43.63500
C  59.11200 23.14800 44.57500
C  59.12300 26.66600 43.35200
C  59.82300 27.49700 44.30300
N  53.81700 26.64600 43.12700
C  54.76200 27.48600 43.57100
C  54.10000 28.74600 43.80100
C  52.81700 28.68900 43.25200
C  52.69200 27.34000 42.84900
C  54.74200 29.90700 44.47600
C  51.58700 29.37300 42.92500
O  51.21100 30.45900 43.23900
C  50.63000 28.27900 42.31600
C  50.01700 28.75700 41.04700
O  50.45900 28.69800 39.96900
O  48.76700 29.19500 41.37400
C  47.90400 29.73600 40.31100
H  50.95100 21.38600 41.81000
H  57.30400 21.58200 43.01000
H  56.79200 27.69400 44.36000
H  48.88700 25.71300 41.96400
H  49.50600 23.07400 40.93300
H  48.06300 22.52300 42.77300
H  48.33900 24.05300 43.65400
H  49.46200 22.86000 43.83100
H  48.89900 26.50700 39.81600
H  48.34700 24.97000 39.69200
H  51.10500 24.59000 39.36600
H  50.77300 26.07000 38.43500
H  52.33900 18.54100 42.75900
H  53.10400 18.26300 41.31000
H  51.77700 19.45700 41.32300
H  57.12700 18.10300 44.07200
H  57.01100 19.86200 44.21000
H  57.92700 19.00000 42.86500
H  58.97200 23.98600 42.58200
H  58.23200 25.56700 45.04800
H  58.64600 22.27800 45.03600
H  59.63900 23.77000 45.29800
H  60.01600 22.78800 44.08400
H  58.59300 27.34700 42.68500
H  59.82100 26.15500 42.68800
H  59.35800 28.48000 44.37100
H  60.85200 27.70900 44.01300
H  59.77600 27.15300 45.33700
H  54.74400 30.78500 43.83100
H  55.74400 29.62100 44.79500
H  54.24100 29.98000 45.44100
H  49.79300 28.12000 42.99500
H  48.28100 30.72700 40.05900
H  46.94600 29.99600 40.76300
H  47.78500 29.06100 39.46300
Mg -5.29800 24.61500 26.26000
C  -3.71000 26.23200 29.00300
C  -7.35300 22.92400 28.36100
C  -6.52100 23.12600 23.55500
C  -3.17400 26.54700 24.17500
N  -5.53700 24.59800 28.34700
C  -4.80000 25.31800 29.30300
C  -5.26300 24.88300 30.67400
C  -6.23900 23.73300 30.48500
C  -6.40000 23.75500 28.97300
C  -5.90000 22.39000 31.15800
C  -5.89400 26.08700 31.44500
C  -5.66300 26.19800 32.98000
H  -5.05100 25.05900 33.70000
N  -6.68600 23.11300 26.06300
C  -7.53600 22.60700 27.03200
C  -8.54300 21.75700 26.36500
C  -8.24600 21.70900 24.99600
C  -7.08400 22.62900 24.78800
C  -9.62100 21.01900 27.18100
C  -8.87000 20.85200 23.83200
O  -8.59300 20.91300 22.65200
C  -9.77200 19.79200 24.26000
N  -4.72600 24.60800 24.17600
C  -5.46100 24.07300 23.23400
C  -5.10000 24.44800 21.82500
C  -4.16500 25.65900 22.09400
C  -3.93200 25.58600 23.56700
C  -4.57200 23.23400 21.01700
C  -4.81600 26.98300 21.61200
C  -4.15700 27.63300 20.48400
N  -3.82000 26.20600 26.46300
C  -3.05000 26.87300 25.53100
C  -2.22200 27.85500 26.17700
C  -2.43800 27.63300 27.56700
C  -3.36100 26.55700 27.64600
C  -1.29600 28.91600 25.52300
C  -2.17000 28.08300 28.92100
O  -1.62000 29.10600 29.34600
C  -2.85400 27.12900 29.85700
C  -1.73900 26.48400 30.68400
O  -0.81000 25.79500 30.25300
O  -1.82600 26.79300 32.00800
C  -0.92100 26.25500 32.95900
H  -8.10400 22.52800 29.04800
H  -7.06700 22.86300 22.64600
H  -2.70600 27.29300 23.53000
H  -4.38700 24.57400 31.24400
H  -7.24000 24.04900 30.78100
H  -5.70800 21.59000 30.44400
H  -6.69400 22.12600 31.85700
H  -4.94300 22.40200 31.67800
H  -6.95400 26.09200 31.19200
H  -5.53000 27.00900 30.99200
H  -6.59700 26.54000 33.42800
H  -4.95500 27.01500 33.11300
H  -9.35100 19.98700 27.40500
H  -10.57800 21.23300 26.70500
H  -9.79400 21.40700 28.18500
H  -9.79400 19.04300 23.46900
H  -10.73900 20.16500 24.60000
H  -9.33100 19.27300 25.11100
H  -6.04300 24.77500 21.38700
H  -3.21700 25.44700 21.60100
H  -5.16300 23.16400 20.10400
H  -4.58400 22.34800 21.65100
H  -3.53400 23.44700 20.76100
H  -4.84000 27.65000 22.47400
H  -5.82300 26.87100 21.20800
H  -4.85000 27.52400 19.65000
H  -3.21200 27.17400 20.19300
H  -3.85900 28.67100 20.63000
H  -1.77500 29.84200 25.84000
H  -1.06800 28.85600 24.45900
H  -0.38300 29.01100 26.11200
H  -3.42100 27.77700 30.52500
H  0.07200 26.07700 32.54400
H  -1.24300 25.34800 33.47100
H  -0.85700 26.88500 33.84600

