158

Mg 40.34100 8.61000 29.29800
C  42.11100 10.04100 31.92200
C  38.11500 7.21700 31.59000
C  38.46400 7.49900 26.82100
C  42.73700 9.71800 27.15700
N  40.06600 8.80800 31.50300
C  40.92500 9.44400 32.37900
C  40.33900 9.35900 33.78900
C  39.05000 8.47400 33.66100
C  39.05000 8.16300 32.11300
C  38.89700 7.24600 34.59600
C  40.30200 10.76400 34.55600
C  39.30200 10.83500 35.71100
H  39.77300 11.77900 36.79400
N  38.58600 7.53200 29.20300
C  37.77600 7.02000 30.25500
C  36.74500 6.14400 29.72800
C  36.67100 6.47300 28.32000
C  37.99200 7.17700 28.08100
C  35.76800 5.41200 30.55800
C  35.59600 6.26700 27.26700
O  35.68100 6.57000 26.09300
C  34.20000 5.84200 27.67000
N  40.67000 8.45900 27.22200
C  39.66200 8.11100 26.42600
C  40.07900 8.11500 24.93900
C  41.30900 9.09500 25.09200
C  41.66200 9.04000 26.53800
C  40.43400 6.75900 24.39100
C  41.00600 10.53500 24.56900
C  42.00900 10.86300 23.36300
N  42.17700 9.47700 29.51400
C  43.00600 9.89700 28.50800
C  44.19400 10.47200 29.15200
C  43.83300 10.60900 30.48600
C  42.60800 9.95400 30.58900
C  45.47300 10.91700 28.46600
C  44.30400 11.05200 31.82700
O  45.38000 11.52100 32.11900
C  43.17100 10.69800 32.88200
C  43.75000 9.75900 33.89400
O  44.11000 8.60400 33.79200
O  43.89200 10.42900 35.10000
C  44.09300 9.61900 36.29500
H  37.38800 6.84100 32.31200
H  37.85500 7.20600 25.96300
H  43.35300 10.29200 26.46100
H  41.12700 8.86400 34.35600
H  38.26200 9.21700 33.78600
H  39.08700 6.37900 33.96400
H  37.89500 7.21800 35.02500
H  39.62800 7.33600 35.40000
H  40.31100 11.68200 33.96800
H  41.27000 10.87400 35.04400
H  38.87800 9.92600 36.13800
H  38.41600 11.33100 35.31600
H  34.98400 6.12100 30.82300
H  36.16300 5.05600 31.51000
H  35.26300 4.57600 30.07500
H  33.88300 6.40000 28.55100
H  34.21000 4.81800 28.04400
H  33.47800 5.71900 26.86300
H  39.26500 8.60700 24.40800
H  42.28000 8.72600 24.76100
H  40.48000 6.01000 25.18200
H  41.35000 6.76900 23.80100
H  39.60300 6.46200 23.75000
H  41.07400 11.33300 25.30800
H  40.06300 10.49300 24.02300
H  41.62300 11.66400 22.73300
H  42.30200 10.08900 22.65200
H  42.87300 11.38200 23.77600
H  45.17100 11.55200 27.63300
H  46.04100 10.02900 28.19000
H  46.09400 11.52200 29.12700
H  42.92800 11.62000 33.41000
H  43.71500 10.15400 37.16700
H  45.14300 9.54600 36.57600
H  43.61900 8.64800 36.14900
Mg 42.08800 41.08400 27.05100
C  41.19700 43.69200 29.40000
C  42.79600 39.06400 29.64400
C  42.92500 38.80200 24.85800
C  41.82600 43.46300 24.47200
N  41.89800 41.31500 29.21700
C  41.50100 42.38800 29.94000
C  41.54700 42.11700 31.48200
C  42.23200 40.68800 31.49500
C  42.32500 40.33400 30.03800
C  43.65300 40.61500 32.24500
C  40.21100 42.25100 32.20700
C  39.86600 41.36500 33.43200
H  39.41900 42.18900 34.70800
N  42.67900 39.22500 27.22100
C  42.96800 38.55800 28.37000
C  43.49100 37.23200 27.98200
C  43.58200 37.13400 26.59300
C  43.03200 38.42300 26.15800
C  43.79800 36.18300 28.97000
C  44.00300 36.00900 25.75400
O  43.97700 36.03100 24.52900
C  44.60400 34.80300 26.34900
N  42.32700 41.17500 24.98000
C  42.53500 40.02900 24.33100
C  42.67800 40.33500 22.80400
C  42.15300 41.76100 22.66800
C  42.07000 42.14400 24.12600
C  44.06800 39.97200 22.25800
C  40.82300 41.81900 21.89700
C  39.73300 40.71500 22.17400
N  41.72100 43.20400 26.88500
C  41.58100 43.98900 25.75700
C  41.12200 45.27700 26.18800
C  40.99400 45.26000 27.62000
C  41.28700 43.92800 28.02400
C  40.79200 46.45200 25.30300
C  40.53700 45.93900 28.86600
O  39.96600 46.99700 29.04100
C  40.78500 44.90800 30.13400
C  41.95700 45.38400 30.90800
O  43.12100 45.25400 30.61900
O  41.50800 45.87700 32.09400
C  42.46100 46.03400 33.14400
H  43.12600 38.38500 30.43400
H  42.96700 37.97200 24.14900
H  41.61800 44.11200 23.61900
H  42.21300 42.83200 31.96500
H  41.56700 39.92700 31.90200
H  43.54900 40.10200 33.20100
H  43.83700 41.66700 32.46600
H  44.42300 40.23700 31.57400
H  39.51000 41.81800 31.49400
H  39.93500 43.25800 32.51800
H  40.67100 40.67900 33.69500
H  39.14200 40.63200 33.07700
H  43.21600 36.31900 29.88200
H  44.87500 36.09700 29.10900
H  43.45100 35.19000 28.68400
H  45.27600 34.35200 25.61800
H  43.81000 34.13100 26.67200
H  45.30700 35.13500 27.11300
H  41.94300 39.58800 22.50500
H  42.83900 42.35700 22.06600
H  44.21000 38.96200 21.87300
H  44.83700 40.16400 23.00500
H  44.43900 40.71900 21.55600
H  41.09100 41.78000 20.84100
H  40.35100 42.79300 22.03300
H  39.53900 40.10600 21.29100
H  38.76100 41.12100 22.45400
H  40.03000 40.09100 23.01700
H  40.60900 46.05900 24.30300
H  41.57500 47.21000 25.30700
H  39.80900 46.83800 25.57300
H  39.96600 44.69700 30.82100
H  42.93300 47.01700 33.11500
H  43.14500 45.18800 33.20100
H  41.88000 45.74200 34.01900

