158

Mg 35.13700 1.87300 29.47300
C  32.95900 2.82400 32.03100
C  37.68700 1.62400 31.69100
C  37.19000 1.53600 26.91700
C  32.45100 2.49100 27.22600
N  35.22600 2.15400 31.59600
C  34.19100 2.47800 32.43400
C  34.67900 2.32500 33.93100
C  36.24400 2.06900 33.82000
C  36.42400 1.88800 32.29100
C  37.21700 3.06700 34.48400
C  33.87700 1.22500 34.67500
C  33.49500 1.63100 36.13400
H  34.38000 2.73600 36.81900
N  37.17200 1.62200 29.37000
C  38.06000 1.49500 30.33800
C  39.35400 1.22600 29.81600
C  39.29700 1.47200 28.42400
C  37.84500 1.61300 28.17400
C  40.53400 1.02500 30.68000
C  40.37000 1.44900 27.40200
O  40.16100 1.73400 26.24600
C  41.73300 1.16500 27.85900
N  34.80900 2.05200 27.35000
C  35.83700 1.65000 26.57600
C  35.43000 1.43200 25.12700
C  33.85900 1.71900 25.15300
C  33.66600 2.17100 26.62200
C  36.20100 2.38600 24.08300
C  32.90000 0.67100 24.55300
C  32.50600 -0.50800 25.56000
N  33.08500 2.52500 29.57000
C  32.15500 2.72500 28.56000
C  30.96900 3.20700 29.12900
C  31.19800 3.35600 30.51600
C  32.51100 2.82300 30.74000
C  29.71200 3.57900 28.38100
C  30.67300 3.67000 31.78900
O  29.60300 4.21600 32.04000
C  31.80100 3.36700 32.89500
C  32.21600 4.69600 33.43000
O  32.73000 5.68200 32.78600
O  32.05400 4.67400 34.81900
C  32.19900 5.97000 35.51200
H  38.45500 1.35400 32.41800
H  37.94700 1.23100 26.19200
H  31.53500 2.57600 26.63800
H  34.50300 3.27400 34.43700
H  36.51400 1.11900 34.28200
H  37.86500 3.55600 33.75600
H  37.86600 2.60700 35.22900
H  36.62300 3.82400 34.99600
H  34.47900 0.31700 34.71100
H  32.96500 1.04300 34.10800
H  33.34600 0.71900 36.71300
H  32.44400 1.91900 36.09100
H  41.21500 1.87500 30.69400
H  41.07400 0.17200 30.26900
H  40.28400 0.70400 31.69100
H  42.10700 1.97800 28.48100
H  42.52200 0.96700 27.13300
H  41.55200 0.25300 28.42700
H  35.63400 0.40000 24.84000
H  33.58700 2.53700 24.48700
H  35.51300 3.01600 23.52000
H  36.77300 1.87300 23.31000
H  36.92600 2.96800 24.65300
H  33.41600 0.32800 23.65700
H  31.95600 1.10600 24.22500
H  31.42000 -0.47900 25.47100
H  32.93500 -0.38200 26.55400
H  32.82300 -1.48800 25.20400
H  29.85300 3.95800 27.36900
H  29.27100 4.33100 29.03400
H  29.07200 2.70400 28.26800
H  31.47300 2.73800 33.72200
H  31.50900 5.98200 36.35500
H  31.97100 6.84600 34.90500
H  33.22400 6.14000 35.84000
Mg -11.38100 37.69700 42.31700
C  -9.15700 35.05000 41.45000
C  -9.27700 39.92700 40.86400
C  -13.98000 39.99500 42.05700
C  -13.71300 35.14600 43.02500
N  -9.62500 37.43500 41.21000
C  -8.87000 36.29500 40.92800
C  -7.68000 36.53600 40.06600
C  -7.53000 38.09600 40.18400
C  -8.89300 38.55100 40.81600
C  -6.25000 38.52600 40.96500
C  -7.93900 36.08500 38.59900
C  -6.85600 35.17400 38.02400
H  -6.13300 35.68500 36.72500
N  -11.47500 39.86400 41.90100
C  -10.51900 40.54800 41.24400
C  -10.92700 41.90800 41.27800
C  -12.34200 41.87600 41.38500
C  -12.69800 40.55500 41.81500
C  -10.00700 43.02900 40.94500
C  -13.25700 43.02400 41.09600
O  -12.77000 44.14200 40.93200
C  -14.66000 42.93700 41.07300
N  -13.45600 37.60600 42.59600
C  -14.29600 38.72600 42.58700
C  -15.66600 38.33500 43.15600
C  -15.64700 36.80100 43.41600
C  -14.17600 36.48000 43.01000
C  -16.28400 39.14500 44.33300
C  -16.69600 35.95600 42.61200
C  -17.35200 34.82100 43.37400
N  -11.43600 35.50600 42.33300
C  -12.41800 34.68400 42.67400
C  -11.95100 33.34000 42.75900
C  -10.62500 33.40800 42.28400
C  -10.38900 34.76400 41.99600
C  -12.70100 32.16600 43.39600
C  -9.39100 32.69200 41.97100
O  -9.16300 31.49000 42.11300
C  -8.40900 33.72800 41.38900
C  -7.24300 33.77200 42.32600
O  -6.07500 33.80300 42.02700
O  -7.69800 33.90000 43.62500
C  -6.74200 34.09600 44.69800
H  -8.53800 40.65100 40.51600
H  -14.92600 40.53100 41.95700
H  -14.43900 34.36500 43.26100
H  -6.81200 36.02400 40.48100
H  -7.42600 38.56000 39.20300
H  -5.40300 37.87000 40.76000
H  -6.38300 38.55300 42.04600
H  -5.88600 39.50100 40.64200
H  -8.01700 36.98000 37.98200
H  -8.94000 35.65500 38.60200
H  -7.23400 34.23000 37.63100
H  -5.98200 35.05800 38.66500
H  -10.33100 43.61400 40.08400
H  -8.98300 42.70000 40.76800
H  -9.82200 43.76000 41.73200
H  -15.07300 43.89200 40.74900
H  -14.84400 42.80000 42.13800
H  -15.01000 42.06700 40.51700
H  -16.39200 38.55200 42.37200
H  -15.63400 36.65300 44.49600
H  -16.97200 38.50800 44.88900
H  -16.96500 39.88600 43.91600
H  -15.55400 39.57700 45.01700
H  -16.17700 35.58800 41.72700
H  -17.52800 36.60400 42.33500
H  -18.43800 34.90800 43.39200
H  -16.99700 34.86700 44.40400
H  -17.08000 33.87000 42.91600
H  -12.95300 31.37700 42.68700
H  -13.59700 32.54400 43.88700
H  -12.02800 31.63800 44.07200
H  -7.96900 33.45800 40.42900
H  -7.01200 34.89200 45.39300
H  -5.77400 34.40600 44.30500
H  -6.72000 33.12000 45.18200

