158

Mg 41.41500 8.81100 30.33800
C  43.25600 10.01700 32.92500
C  39.01300 7.69400 32.54800
C  39.82800 7.27700 27.79900
C  44.21300 9.43600 28.22300
N  41.32100 8.61000 32.50200
C  42.05600 9.41500 33.31900
C  41.34200 9.72900 34.62200
C  40.11900 8.70800 34.59900
C  40.16200 8.30000 33.10000
C  40.24300 7.50200 35.54200
C  40.98900 11.20800 34.72200
C  40.31100 11.59300 35.98700
H  41.02600 12.03000 37.31500
N  39.57900 7.85500 30.14600
C  38.78800 7.44900 31.18800
C  37.64500 6.76500 30.61600
C  37.71400 6.85700 29.22900
C  39.05600 7.32200 28.99500
C  36.53700 6.28000 31.57000
C  36.70700 6.37500 28.18100
O  36.92500 6.29900 26.97000
C  35.32500 5.96900 28.70600
N  41.97200 8.37300 28.30200
C  41.10200 7.68600 27.50000
C  41.85600 7.60400 26.08700
C  43.08600 8.47800 26.25700
C  43.09600 8.79200 27.67300
C  42.19900 6.11500 25.79700
C  43.20900 9.58700 25.20200
C  42.50500 10.95500 25.41700
N  43.41500 9.57700 30.48500
C  44.44400 9.87800 29.58200
C  45.47300 10.58500 30.25100
C  45.11500 10.64000 31.62300
C  43.85200 9.97400 31.70200
C  46.75300 11.09200 29.56700
C  45.49300 11.07400 32.89100
O  46.45400 11.66200 33.38900
C  44.32500 10.67000 33.82700
C  44.76300 9.52900 34.76400
O  44.49900 8.30800 34.68900
O  45.57700 10.14600 35.66900
C  45.78700 9.19400 36.74000
H  38.30900 7.55800 33.37200
H  39.32600 6.79900 26.95500
H  45.10600 9.82300 27.72900
H  42.08200 9.52900 35.39700
H  39.11600 9.08200 34.80500
H  39.60800 7.57700 36.42500
H  41.29100 7.38200 35.81700
H  39.82100 6.61700 35.06600
H  40.43700 11.47500 33.82100
H  41.86700 11.85200 34.66700
H  39.76600 10.69500 36.27700
H  39.46300 12.24500 35.77400
H  36.07100 7.22300 31.85700
H  36.95100 5.84200 32.47800
H  35.87000 5.55600 31.10100
H  34.63600 5.95800 27.86200
H  35.00500 6.76000 29.38400
H  35.40000 4.98800 29.17400
H  41.29500 7.99100 25.23700
H  44.00200 7.88700 26.27500
H  41.89800 6.06300 24.75100
H  41.84700 5.44900 26.58500
H  43.26900 5.92600 25.70700
H  42.93100 9.33900 24.17800
H  44.26700 9.84400 25.15400
H  43.22700 11.76600 25.32200
H  42.03400 10.96100 26.40000
H  41.74200 11.12300 24.65600
H  46.56800 11.22000 28.50100
H  47.58400 10.39000 29.63200
H  47.06300 12.08900 29.88300
H  43.93200 11.56000 34.31700
H  44.92300 8.91100 37.34000
H  46.50700 9.68900 37.39300
H  46.25300 8.30700 36.31100
Mg -2.33000 33.98200 27.66300
C  -4.23900 32.17700 30.01100
C  -1.08000 35.90400 30.20400
C  -0.97900 36.07200 25.44600
C  -3.94900 32.25700 25.05000
N  -2.65400 34.00400 29.86100
C  -3.44200 33.19500 30.63200
C  -3.23100 33.48700 32.13600
C  -2.51800 34.86300 32.08100
C  -1.98900 34.93700 30.62600
C  -3.50600 36.13900 32.45000
C  -2.46700 32.43800 33.02100
C  -3.22300 32.17200 34.30500
H  -2.44900 31.91200 35.55400
N  -0.99500 35.59400 27.81500
C  -0.58800 36.25100 28.96200
C  0.45300 37.23100 28.59400
C  0.44500 37.29600 27.18100
C  -0.52400 36.29200 26.72500
C  1.23900 38.04500 29.63700
C  1.26800 38.25700 26.30400
O  1.20800 38.27400 25.10700
C  2.25600 39.17900 26.92100
N  -2.48500 34.14000 25.60100
C  -1.84100 35.09800 24.94800
C  -2.15200 35.08100 23.44700
C  -2.81300 33.63200 23.21400
C  -3.10900 33.25300 24.71500
C  -3.12100 36.19100 22.86800
C  -1.89400 32.66100 22.39600
C  -2.60800 31.55100 21.60700
N  -3.74300 32.50200 27.47900
C  -4.23500 31.85200 26.40100
C  -5.11300 30.72300 26.82900
C  -5.15900 30.85000 28.18500
C  -4.29900 31.98700 28.58500
C  -5.70800 29.78300 25.90100
C  -5.76900 30.26100 29.41300
O  -6.62200 29.37000 29.59700
C  -5.11500 31.06200 30.56600
C  -6.24200 31.47700 31.39700
O  -7.24600 32.08700 30.96700
O  -6.08900 31.16600 32.67400
C  -7.20100 31.31600 33.59100
H  -0.76300 36.57800 31.00300
H  -0.62700 36.66300 24.59900
H  -4.33300 31.57800 24.28600
H  -4.22800 33.64900 32.54600
H  -1.68400 34.94500 32.77900
H  -4.50100 35.72600 32.61500
H  -3.49400 36.76500 31.55800
H  -3.09200 36.56100 33.36600
H  -1.50500 32.87000 33.29600
H  -2.28200 31.53300 32.44200
H  -3.57000 31.22300 33.89500
H  -4.06700 32.82300 34.52900
H  1.15800 37.63300 30.64300
H  1.01400 39.11000 29.59000
H  2.26600 37.80600 29.36300
H  2.62600 39.85500 26.15100
H  3.17400 38.72500 27.29500
H  1.70000 39.77200 27.64800
H  -1.23700 35.09900 22.85400
H  -3.73800 33.72000 22.64300
H  -3.30200 36.77200 23.77300
H  -4.06600 35.88300 22.42000
H  -2.60900 36.76400 22.09600
H  -1.24300 32.03800 23.01000
H  -1.20600 33.07200 21.65700
H  -2.27700 31.49000 20.57000
H  -3.68600 31.66100 21.71900
H  -2.36600 30.56500 22.00500
H  -4.94600 29.55900 25.15500
H  -6.55900 30.22700 25.38300
H  -5.95400 28.81200 26.33200
H  -4.44500 30.36900 31.07500
H  -7.13100 30.36800 34.12300
H  -8.20100 31.38600 33.16300
H  -7.02500 32.15300 34.26600

