158

Mg 42.27400 41.43800 25.74000
C  41.42000 43.88100 28.11800
C  43.48300 39.60400 28.45000
C  43.39000 39.04300 23.66200
C  41.84000 43.68200 23.24200
N  42.27200 41.59900 28.05100
C  41.79500 42.68000 28.76200
C  41.80900 42.42200 30.31400
C  42.66800 41.14000 30.39600
C  42.78300 40.72700 28.91900
C  43.96200 41.27600 31.12600
C  40.43000 42.23400 30.98200
C  40.07900 43.33900 32.09100
H  41.00900 43.71700 33.25200
N  43.30900 39.54400 25.99800
C  43.70300 39.02400 27.17600
C  44.27600 37.70000 26.90400
C  44.12600 37.42200 25.49100
C  43.52600 38.66000 25.03200
C  44.78500 36.72900 28.00300
C  44.29800 36.11600 24.65800
O  44.09600 36.08300 23.42300
C  44.84000 34.86900 25.26700
N  42.55800 41.34700 23.81200
C  42.95200 40.24600 23.09200
C  42.79500 40.51000 21.56400
C  42.03700 41.87600 21.51400
C  42.14100 42.33500 22.92900
C  44.05800 40.45900 20.75300
C  40.53500 41.74300 21.17600
C  39.71100 40.57800 21.67800
N  41.68200 43.37500 25.63500
C  41.56600 44.19900 24.49700
C  41.21700 45.48900 24.88700
C  41.06400 45.39200 26.30700
C  41.39400 44.12400 26.69300
C  41.18900 46.68500 24.00800
C  40.77200 46.16900 27.52800
O  40.49900 47.34700 27.72800
C  40.98000 45.11500 28.80200
C  42.02400 45.77100 29.71200
O  43.22400 45.94600 29.43600
O  41.41200 46.18400 30.87100
C  42.32900 46.78000 31.80100
H  43.62400 38.95500 29.31600
H  43.60400 38.34300 22.85200
H  41.64900 44.38400 22.42800
H  42.33000 43.26900 30.76200
H  42.17700 40.31800 30.91500
H  44.06800 40.52200 31.90500
H  44.07100 42.22100 31.65700
H  44.81100 41.19000 30.44700
H  40.49000 41.35100 31.61900
H  39.75500 42.25100 30.12600
H  39.11600 43.04600 32.50800
H  39.98000 44.24300 31.49000
H  43.99000 35.98700 28.07500
H  44.90000 37.20100 28.97900
H  45.76000 36.33900 27.71000
H  44.14200 34.52300 26.02900
H  45.81900 35.18800 25.62300
H  45.07100 34.15900 24.47300
H  42.26500 39.66300 21.12900
H  42.51700 42.57500 20.83000
H  44.30200 41.39100 20.24300
H  44.03600 39.58400 20.10300
H  44.84000 40.32200 21.49900
H  40.56100 41.66500 20.09000
H  40.10800 42.69700 21.48500
H  39.42700 39.87500 20.89500
H  38.85600 40.88600 22.28100
H  40.15000 39.92400 22.43100
H  40.57400 46.55600 23.11800
H  42.19500 46.79700 23.60400
H  40.88600 47.55200 24.59400
H  40.09100 45.01800 29.42400
H  42.77000 47.69500 31.40400
H  43.02700 46.01300 32.13700
H  41.76200 47.11500 32.67000
Mg -11.15000 16.11900 42.06900
C  -8.27000 14.18200 41.44300
C  -9.75000 18.63500 40.25900
C  -14.24100 17.62600 41.75500
C  -12.68900 13.18000 43.27200
N  -9.25300 16.36500 41.07600
C  -8.15800 15.48000 40.97900
C  -6.94400 16.14200 40.44900
C  -7.44300 17.60600 40.07600
C  -8.91000 17.56800 40.57300
C  -6.59300 18.75200 40.67700
C  -6.31400 15.44600 39.22900
C  -4.83500 15.05000 39.24800
H  -3.85800 15.57800 38.14000
N  -11.87900 17.99000 41.38000
C  -11.06900 18.87900 40.66100
C  -11.82000 20.10700 40.52100
C  -13.19200 19.82500 40.89000
C  -13.13100 18.40800 41.37100
C  -11.26600 21.43100 39.95300
C  -14.28200 20.87500 40.93600
O  -14.12000 22.02500 40.59600
C  -15.61400 20.42500 41.52500
N  -13.21200 15.41500 42.30400
C  -14.27800 16.26500 42.25900
C  -15.56900 15.58800 42.69000
C  -15.10400 14.18300 43.08200
C  -13.59600 14.21200 42.88100
C  -16.45200 16.44200 43.63100
C  -15.82300 13.04100 42.36500
C  -16.27800 11.80100 43.26400
N  -10.58700 14.15700 42.38100
C  -11.32200 13.03100 42.97700
C  -10.45100 11.87000 43.09700
C  -9.24200 12.32900 42.51500
C  -9.39900 13.66700 42.05800
C  -10.97000 10.60500 43.77100
C  -7.86700 11.89600 42.08000
O  -7.31200 10.81000 42.21200
C  -7.18400 13.16000 41.61900
C  -6.18900 13.68500 42.65500
O  -6.49300 14.31100 43.69500
O  -4.89500 13.44900 42.25000
C  -3.78200 13.85900 43.23900
H  -9.29500 19.51100 39.79200
H  -15.26700 17.91300 41.51300
H  -13.12900 12.29100 43.72800
H  -6.19600 16.14100 41.24200
H  -7.47400 17.76000 38.99700
H  -6.30500 19.54800 39.98900
H  -5.77400 18.22600 41.16700
H  -7.18200 19.13800 41.50900
H  -6.45400 15.92900 38.26200
H  -6.94600 14.58700 39.00500
H  -4.82700 13.96600 39.13300
H  -4.41300 15.19000 40.24300
H  -11.82700 21.78000 39.08600
H  -10.25000 21.26300 39.59500
H  -11.30700 22.16300 40.75900
H  -16.26200 21.30000 41.58900
H  -15.44200 19.94900 42.49100
H  -16.14200 19.67700 40.93500
H  -16.12700 15.46700 41.76100
H  -15.17400 13.94200 44.14300
H  -17.27400 16.89200 43.07500
H  -15.80700 17.17000 44.12400
H  -16.90800 15.80800 44.39200
H  -15.29500 12.61400 41.51300
H  -16.75400 13.38500 41.91600
H  -16.32500 10.82600 42.77900
H  -17.29900 12.01700 43.57800
H  -15.61700 11.77300 44.13000
H  -10.10500 10.29400 44.35600
H  -11.27700 9.84000 43.05800
H  -11.69600 10.97900 44.49300
H  -6.64600 12.99200 40.68600
H  -3.49000 14.84200 42.87100
H  -2.96600 13.13600 43.21400
H  -4.05000 13.96700 44.28900

