158

Mg 35.98000 2.51100 29.39800
C  33.59500 3.04200 31.82800
C  38.35800 2.67300 31.69700
C  38.19000 1.81200 26.92200
C  33.38800 2.63900 27.00600
N  35.86900 2.91100 31.57400
C  34.84400 3.02100 32.36800
C  35.18000 3.10200 33.87200
C  36.75800 3.31400 33.72200
C  37.07000 2.88500 32.23800
C  37.16200 4.77000 34.07000
C  34.73600 1.75200 34.51100
C  34.52600 1.76600 36.05100
H  35.06000 3.00600 36.77400
N  37.96700 2.22700 29.34800
C  38.80200 2.32500 30.41400
C  40.17200 2.06900 30.00500
C  40.12700 1.82600 28.53800
C  38.68900 1.98400 28.22100
C  41.30600 2.01300 30.96000
C  41.34300 1.45000 27.60700
O  41.19000 1.01700 26.45400
C  42.72500 1.51600 28.11800
N  35.83500 2.24200 27.28700
C  36.83700 1.85700 26.51000
C  36.37000 1.69000 25.04900
C  34.84500 1.56800 25.19300
C  34.61800 2.25300 26.53300
C  36.82800 2.82100 24.11400
C  34.13800 0.15200 25.04300
C  32.91000 -0.02700 24.10700
N  33.95700 2.95000 29.32500
C  33.03100 2.98700 28.27900
C  31.71400 3.26900 28.80000
C  31.85600 3.23200 30.19900
C  33.27200 3.05000 30.44500
C  30.54600 3.34800 28.00400
C  31.19800 3.46500 31.45600
O  30.02700 3.72400 31.79700
C  32.26200 3.16700 32.50700
C  32.16000 4.40900 33.39900
O  32.70100 5.44100 33.20300
O  31.48000 4.09900 34.58000
C  31.32900 5.13200 35.61200
H  39.12400 2.73900 32.47200
H  38.99300 1.45000 26.27600
H  32.51500 2.58400 26.35200
H  34.78100 3.99400 34.35500
H  37.17500 2.56300 34.39300
H  36.42500 5.11100 34.79700
H  37.09700 5.41100 33.19000
H  38.09100 4.77100 34.64100
H  35.37600 0.91600 34.23000
H  33.69900 1.55400 34.24000
H  34.97600 0.88700 36.51400
H  33.43700 1.76100 36.07900
H  40.85000 1.72900 31.90900
H  41.61200 3.05500 31.04500
H  42.08300 1.27100 30.77400
H  42.64100 2.43100 28.70500
H  43.32600 1.85800 27.27600
H  43.03300 0.54700 28.51100
H  36.69900 0.67900 24.81200
H  34.28900 2.17000 24.47400
H  36.28300 3.75000 24.28100
H  36.73000 2.57500 23.05700
H  37.89400 2.98600 24.27000
H  33.75400 -0.14100 26.02000
H  34.91200 -0.57900 24.80600
H  32.89900 0.88700 23.51400
H  32.03700 -0.21300 24.73200
H  33.14500 -0.81400 23.39100
H  30.66000 2.94600 26.99700
H  30.25100 4.38500 27.83900
H  29.70700 2.90800 28.54200
H  31.97600 2.27700 33.06700
H  31.32900 4.58600 36.55500
H  30.37100 5.63600 35.48200
H  32.17700 5.81100 35.69900
Mg 46.41300 24.84200 28.43600
C  47.29900 26.87900 31.20300
C  45.84100 22.33300 30.67200
C  46.01700 22.83800 25.78700
C  47.71900 27.36300 26.34700
N  46.57200 24.66400 30.69000
C  46.78200 25.65000 31.57600
C  46.45700 25.22000 33.02800
C  46.18200 23.62300 32.82100
C  46.21800 23.53800 31.27200
C  47.16800 22.68500 33.52200
C  45.24400 25.99600 33.69500
C  45.45500 26.87700 35.03000
H  44.52700 26.63300 36.24600
N  45.94200 22.89300 28.28700
C  45.69700 22.01700 29.32100
C  45.24900 20.76400 28.77200
C  45.19500 20.90000 27.39900
C  45.71600 22.25800 27.09200
C  45.14200 19.51900 29.67300
C  44.75700 19.81700 26.45700
O  44.90000 19.94400 25.21100
C  44.22600 18.58100 26.92200
N  46.98600 24.97800 26.44800
C  46.55400 24.09500 25.50000
C  46.91300 24.43600 24.08900
C  47.08100 26.01500 24.24500
C  47.33400 26.18900 25.78500
C  48.11600 23.59900 23.41500
C  45.85100 26.83800 23.73300
C  44.46000 26.19900 23.98300
N  47.28600 26.74300 28.66300
C  47.80400 27.58700 27.71400
C  48.33300 28.76100 28.39500
C  48.10400 28.56400 29.78100
C  47.52900 27.29100 29.88200
C  49.02400 29.99400 27.85200
C  48.27100 29.22400 31.11400
O  48.76300 30.32900 31.41900
C  47.72900 28.08000 32.08300
C  48.82700 27.71000 33.04500
O  49.74500 26.89300 32.79500
O  48.52500 28.33500 34.25400
C  49.35700 27.91400 35.35800
H  45.42400 21.64500 31.41000
H  45.93300 22.14300 24.95000
H  47.90000 28.27800 25.78000
H  47.38800 25.21200 33.59400
H  45.12800 23.50500 33.07500
H  47.65600 23.21800 34.33900
H  47.95000 22.36300 32.83400
H  46.45400 21.92400 33.83800
H  44.52500 25.20200 33.89900
H  44.88300 26.65900 32.90900
H  45.29200 27.92900 34.79200
H  46.51200 26.86000 35.29300
H  44.13200 19.15900 29.86800
H  45.74700 19.49100 30.58000
H  45.71000 18.72900 29.18100
H  44.92800 17.90400 27.40900
H  43.76500 18.06700 26.07800
H  43.46900 18.87700 27.64900
H  45.99800 24.12400 23.58500
H  48.01400 26.32500 23.77500
H  48.87800 24.28400 23.04300
H  47.66600 23.06500 22.57800
H  48.47200 22.87500 24.14800
H  45.95100 26.94500 22.65300
H  45.84200 27.86300 24.10300
H  44.19600 25.61900 23.09900
H  43.76200 27.00900 24.19500
H  44.40400 25.47600 24.79700
H  48.49000 30.91700 28.07700
H  49.35800 29.93900 26.81600
H  49.93500 30.09000 28.44300
H  46.80700 28.30100 32.62000
H  48.92000 27.05700 35.87000
H  49.36800 28.75600 36.04900
H  50.41200 27.78000 35.11800

