158

Mg 40.06400 9.56700 29.56400
C  42.17300 11.03200 32.03700
C  37.92800 8.61600 32.17600
C  38.22300 8.07800 27.29500
C  42.51000 10.36900 27.10100
N  40.14100 9.77800 31.85600
C  41.01900 10.50000 32.58100
C  40.64000 10.40600 34.07800
C  39.36800 9.47400 34.13100
C  39.12300 9.23400 32.63900
C  39.63700 8.20800 35.05000
C  40.34500 11.88700 34.64600
C  39.53400 11.95100 35.99500
H  40.13200 12.83800 37.13100
N  38.43500 8.41000 29.74000
C  37.61400 8.20500 30.80900
C  36.51200 7.39700 30.43200
C  36.49000 7.33700 29.01900
C  37.72000 8.02600 28.66300
C  35.56800 6.67600 31.43300
C  35.42700 6.67200 28.03500
O  35.51200 6.64300 26.80300
C  34.16300 6.13200 28.70900
N  40.55500 8.97300 27.55200
C  39.45100 8.53300 26.82500
C  39.69500 8.73200 25.32700
C  41.04300 9.48000 25.18200
C  41.45800 9.62300 26.65300
C  39.61100 7.42700 24.46100
C  40.98700 10.76100 24.37100
C  40.60600 12.08000 25.05700
N  41.92600 10.55200 29.45500
C  42.83100 10.74400 28.42800
C  43.99100 11.57100 28.86200
C  43.74900 11.65900 30.26000
C  42.49000 11.05000 30.58100
C  45.18300 12.03500 28.08600
C  44.33100 12.17900 31.46700
O  45.43100 12.67600 31.69000
C  43.47700 11.66900 32.69800
C  44.15200 10.63200 33.58400
O  44.08800 9.44000 33.44000
O  44.78700 11.24700 34.65900
C  45.34600 10.27100 35.62300
H  37.20100 8.51800 32.98400
H  37.62400 7.69500 26.46600
H  43.04300 10.95200 26.34600
H  41.36700 9.89700 34.71100
H  38.47600 9.96400 34.51900
H  38.68100 8.09300 35.56100
H  40.37700 8.50600 35.79200
H  39.99800 7.32200 34.52800
H  40.05400 12.64300 33.91700
H  41.32100 12.35500 34.77700
H  39.17200 11.00400 36.39500
H  38.67600 12.49200 35.59600
H  36.03300 6.61700 32.41700
H  35.35800 5.62400 31.23700
H  34.63400 7.22600 31.54600
H  33.86600 6.98600 29.31700
H  34.40400 5.25100 29.30500
H  33.42000 5.96400 27.93000
H  38.97700 9.49800 25.03300
H  41.78100 8.81200 24.73900
H  39.81700 6.56100 25.09100
H  40.32700 7.38900 23.63900
H  38.64700 7.33900 23.96100
H  40.21800 10.65500 23.60600
H  41.96700 10.88500 23.91000
H  40.47300 12.03000 26.13800
H  39.69800 12.48300 24.60900
H  41.44700 12.73700 24.83300
H  45.08900 13.07800 27.78100
H  45.23500 11.38600 27.21100
H  46.02200 11.98800 28.78000
H  43.19700 12.47200 33.38000
H  44.50900 9.70600 36.03400
H  45.94000 10.86800 36.31500
H  45.95300 9.57200 35.04700
Mg 36.18000 49.55500 25.52900
C  35.87900 47.47700 28.33200
C  35.39800 52.20600 27.68300
C  35.98800 51.53500 22.89600
C  36.82000 46.74100 23.53000
N  35.36300 49.79600 27.73300
C  35.51300 48.82900 28.67700
C  35.38700 49.35700 30.11700
C  34.98000 50.81900 29.84800
C  35.32700 50.98300 28.31800
C  33.53400 51.29700 30.06400
C  36.66900 49.20100 31.02500
C  36.32700 48.89900 32.50400
H  34.95400 49.31400 33.15200
N  35.83700 51.56300 25.31400
C  35.64400 52.53400 26.31300
C  35.61400 53.86200 25.70000
C  35.57000 53.58500 24.33200
C  35.79000 52.21000 24.10200
C  35.54400 55.19400 26.44300
C  35.36000 54.57700 23.19200
O  35.22100 54.24800 22.00300
C  35.51600 56.01600 23.44300
N  36.20800 49.13000 23.51500
C  36.23100 50.13600 22.64900
C  36.23500 49.58800 21.22500
C  36.78200 48.12700 21.39800
C  36.71700 47.99300 22.94200
C  34.92000 49.55300 20.46900
C  38.23000 47.87200 20.90700
C  39.43900 48.44900 21.84900
N  36.28000 47.52000 25.78200
C  36.61100 46.50100 24.92700
C  36.72600 45.22600 25.70700
C  36.45900 45.62400 27.00400
C  36.19100 46.98100 27.06000
C  37.10300 43.85600 25.23900
C  36.34800 45.05700 28.27800
O  36.49500 43.89500 28.67400
C  35.99600 46.23100 29.24800
C  34.75400 46.05900 30.04800
O  33.62900 46.50500 29.83500
O  35.12400 45.31800 31.15900
C  34.01600 45.14800 32.11300
H  35.27000 53.05500 28.35800
H  35.94400 51.94800 21.88700
H  36.90900 45.79700 22.98800
H  34.58200 48.81700 30.61400
H  35.66900 51.50700 30.33900
H  32.88000 50.56300 30.53400
H  33.10200 51.68700 29.14200
H  33.67100 52.19600 30.66500
H  37.23600 50.13100 31.07000
H  37.26700 48.40800 30.57600
H  37.15900 49.31500 33.07200
H  36.45900 47.81800 32.55200
H  36.20200 55.97300 26.05700
H  35.86400 55.02300 27.47100
H  34.52300 55.57700 26.41300
H  36.52800 56.22200 23.79100
H  34.79600 56.32400 24.20100
H  35.33600 56.46900 22.46800
H  36.82600 50.30500 20.65500
H  36.06700 47.33800 21.16500
H  34.51800 48.55300 20.30900
H  34.98000 49.96100 19.46000
H  34.26900 50.27200 20.96700
H  38.34400 48.23100 19.88400
H  38.31200 46.80400 21.11200
H  39.90000 47.65800 22.44100
H  39.14600 49.24400 22.53500
H  40.28800 48.82100 21.27700
H  36.89700 43.77000 24.17200
H  36.49900 43.09800 25.73900
H  38.15100 43.76200 25.52300
H  36.71100 46.51100 30.02200
H  33.13900 44.78500 31.57600
H  33.92100 46.08400 32.66500
H  34.29800 44.31000 32.75000

