158

Mg -2.15500 16.90900 25.68800
C  -2.60600 14.84300 28.15900
C  -2.68500 19.63200 27.71400
C  -1.63300 18.98500 23.00400
C  -2.00000 14.21100 23.32900
N  -2.58100 17.23500 27.71300
C  -2.64100 16.16500 28.57700
C  -2.95400 16.67300 30.01800
C  -3.07100 18.24700 29.80200
C  -2.72900 18.38600 28.32500
C  -4.34900 18.87500 30.33300
C  -1.82600 16.39000 31.06900
C  -1.82800 17.27200 32.34800
H  -1.48400 16.45900 33.65800
N  -2.11500 18.98200 25.39100
C  -2.35800 19.97800 26.38300
C  -2.35200 21.25500 25.77900
C  -1.80600 21.08300 24.42000
C  -1.88700 19.65100 24.16200
C  -2.78900 22.47400 26.48700
C  -1.49000 22.14900 23.46400
O  -1.36100 21.97700 22.23300
C  -1.16400 23.54900 24.02100
N  -1.98100 16.62000 23.49300
C  -1.74500 17.65600 22.67100
C  -1.72300 17.16700 21.22400
C  -1.99700 15.67100 21.31100
C  -1.84500 15.47700 22.82100
C  -2.73400 17.87600 20.22900
C  -1.06300 14.78300 20.43400
C  -1.72400 13.74500 19.45900
N  -2.20600 14.86800 25.64600
C  -2.09000 13.86600 24.68100
C  -2.14000 12.60000 25.39400
C  -2.45900 12.95900 26.74000
C  -2.39900 14.31500 26.84900
C  -1.90900 11.28800 24.67900
C  -2.79300 12.35800 28.08200
O  -2.97400 11.24300 28.46600
C  -2.71300 13.59600 29.06500
C  -1.51100 13.37800 29.89400
O  -0.34700 13.72300 29.69700
O  -1.94300 12.74800 31.05100
C  -0.97600 12.08600 31.91300
H  -2.76400 20.46000 28.42100
H  -1.33600 19.67600 22.21300
H  -2.08200 13.33600 22.68000
H  -3.87600 16.19900 30.35400
H  -2.27100 18.77400 30.32200
H  -4.90300 19.25300 29.47300
H  -4.11200 19.69700 31.00800
H  -4.91600 18.07900 30.81600
H  -0.85400 16.46700 30.58200
H  -2.00100 15.39500 31.47800
H  -2.69600 17.86300 32.64300
H  -0.93800 17.87200 32.15600
H  -3.20000 23.25500 25.84700
H  -2.17600 22.97200 27.23800
H  -3.64900 22.17800 27.08800
H  -0.48100 24.09700 23.37100
H  -0.57000 23.24300 24.88100
H  -2.04200 24.16800 24.20500
H  -0.67700 17.25800 20.93200
H  -3.00200 15.42300 20.97000
H  -3.14300 18.78700 20.66700
H  -3.60500 17.25600 20.02000
H  -2.25100 18.05200 19.26800
H  -0.40700 14.16800 21.04900
H  -0.51500 15.42300 19.74300
H  -2.78700 13.98700 19.46800
H  -1.65200 12.72800 19.84400
H  -1.34000 13.75900 18.43900
H  -1.84700 10.45000 25.37300
H  -1.00300 11.36100 24.07600
H  -2.72000 11.09100 23.97800
H  -3.63400 13.54500 29.64600
H  -1.54100 11.75000 32.78300
H  -0.14500 12.73500 32.18600
H  -0.53800 11.22300 31.41100
Mg 25.65700 1.11600 29.58400
C  27.45100 0.71400 32.47400
C  22.84200 1.61300 31.42100
C  23.84400 1.09100 26.67500
C  28.35600 -0.25000 27.78100
N  25.27200 1.11800 31.69300
C  26.12100 1.08200 32.79800
C  25.52900 1.56200 34.13700
C  24.04100 1.71700 33.67100
C  24.01400 1.50100 32.14700
C  23.08200 0.76100 34.49500
C  26.20000 2.90700 34.57600
C  27.00700 2.77500 35.98900
H  26.59100 3.64900 37.19000
N  23.65100 1.53200 29.11500
C  22.61000 1.65000 29.99100
C  21.38400 1.60800 29.32900
C  21.66300 1.50000 27.94500
C  23.16900 1.36000 27.86900
C  20.03500 1.71100 29.94100
C  20.68700 1.49800 26.82200
O  21.06900 1.62000 25.67100
C  19.17900 1.36200 26.96100
N  26.04300 0.57400 27.53000
C  25.21100 0.79100 26.51000
C  25.83200 0.59000 25.09900
C  27.27100 0.14500 25.44700
C  27.24100 0.18100 27.03600
C  24.95800 -0.37500 24.22700
C  28.25700 1.26500 24.92100
C  29.65600 0.87900 24.57100
N  27.57600 0.41900 29.92300
C  28.58000 -0.04100 29.17400
C  29.75700 -0.24000 29.93200
C  29.37400 0.13900 31.23600
C  27.99700 0.42800 31.17900
C  31.12100 -0.72500 29.54900
C  29.78900 0.37500 32.62600
O  30.89700 0.36500 33.12600
C  28.55600 0.76300 33.43900
C  28.39800 -0.21500 34.54400
O  27.51500 -1.07700 34.56500
O  29.36800 -0.01500 35.49100
C  29.22600 -0.83800 36.71400
H  21.97100 1.81300 32.04800
H  23.31000 1.05900 25.72300
H  29.13700 -0.65900 27.13600
H  25.61100 0.77800 34.89000
H  23.77000 2.75100 33.88200
H  22.16600 1.26100 34.81000
H  23.50000 0.27900 35.37800
H  22.61400 0.05700 33.80600
H  25.44400 3.67500 34.73900
H  26.85300 3.26300 33.78000
H  28.08900 2.81000 35.85700
H  26.73000 1.78300 36.34600
H  20.18500 1.76900 31.01900
H  19.59600 0.75800 29.64500
H  19.47600 2.55300 29.53400
H  18.63700 1.18900 26.03100
H  18.81800 2.21800 27.53000
H  19.04200 0.47200 27.57500
H  25.84200 1.57900 24.64100
H  27.47200 -0.82300 24.98800
H  25.62700 -1.10200 23.76500
H  24.49900 0.20200 23.42500
H  24.25500 -0.94800 24.83100
H  28.25100 2.02800 25.69900
H  27.90000 1.68700 23.98100
H  29.87700 1.28600 23.58400
H  29.71200 -0.21000 24.55600
H  30.26700 1.21700 25.40800
H  31.21500 -1.63300 28.95300
H  31.60000 -1.02600 30.48000
H  31.52700 0.09400 28.95400
H  28.53700 1.81300 33.73100
H  28.28100 -0.73400 37.24900
H  30.08600 -0.73800 37.37500
H  29.43800 -1.86000 36.39900

