158

Mg 17.07800 -0.93700 28.32100
C  16.01100 0.99700 31.07400
C  19.16000 -2.59200 30.52000
C  18.63400 -2.26700 25.65400
C  15.43200 1.38800 26.26000
N  17.61500 -0.76100 30.52800
C  16.98800 0.01500 31.47100
C  17.37400 -0.33400 32.85400
C  18.49700 -1.45200 32.65300
C  18.40000 -1.62500 31.11200
C  19.88600 -1.13300 33.19600
C  16.08600 -1.00300 33.54300
C  15.69700 -0.36800 34.89100
H  16.75000 0.45200 35.71900
N  18.42500 -2.43900 28.08200
C  19.15900 -2.99400 29.12300
C  19.84300 -4.15300 28.52400
C  19.81400 -4.03100 27.15900
C  18.95600 -2.88600 26.87700
C  20.40800 -5.25600 29.42400
C  20.49900 -4.88100 26.07400
O  20.30100 -4.57500 24.89200
C  21.39800 -6.04500 26.45100
N  17.11500 -0.44500 26.23700
C  17.83100 -1.18400 25.32800
C  17.59100 -0.67100 23.91900
C  16.50300 0.41400 24.12700
C  16.35600 0.49700 25.66400
C  18.87000 -0.30500 23.11400
C  15.20000 0.14100 23.35600
C  15.27100 0.62800 21.92300
N  15.87700 0.78700 28.55200
C  15.15100 1.56500 27.62200
C  14.26500 2.56800 28.27400
C  14.64200 2.35800 29.68600
C  15.59300 1.29300 29.78600
C  13.37700 3.53600 27.64100
C  14.34500 2.83600 30.98300
O  13.61700 3.74600 31.42200
C  15.27800 2.03100 32.03000
C  16.25000 2.98300 32.71100
O  17.36400 3.14000 32.32700
O  15.67700 3.57200 33.78600
C  16.40600 4.51800 34.55500
H  19.70100 -3.34100 31.10300
H  19.06900 -2.61900 24.71600
H  14.86200 1.94600 25.51400
H  17.72700 0.53400 33.41200
H  18.18300 -2.40300 33.08400
H  20.21000 -1.88500 33.91700
H  19.90100 -0.12100 33.59900
H  20.54500 -1.11200 32.32900
H  16.16100 -2.05400 33.82000
H  15.25600 -0.88400 32.84700
H  15.41300 -1.12600 35.62200
H  14.80800 0.22300 34.67000
H  20.71000 -6.05000 28.74200
H  19.70600 -5.60900 30.17900
H  21.34900 -4.98000 29.90100
H  20.71800 -6.78300 26.87600
H  22.22600 -5.81900 27.12200
H  21.89700 -6.41200 25.55400
H  17.05500 -1.38100 23.28900
H  16.92500 1.31800 23.68900
H  19.10800 0.74600 22.94900
H  18.83400 -0.78300 22.13600
H  19.73600 -0.73300 23.61900
H  14.40800 0.65100 23.90500
H  14.93600 -0.90700 23.21900
H  14.88700 -0.11300 21.22200
H  16.28600 0.87000 21.60900
H  14.61000 1.47500 21.73900
H  12.34200 3.26300 27.85000
H  13.49800 3.52800 26.55700
H  13.59500 4.56200 27.93700
H  14.60000 1.63400 32.78500
H  17.47200 4.29300 34.59600
H  16.00500 4.39500 35.56200
H  16.12800 5.52600 34.24900
Mg 46.10400 5.15500 48.97700
C  44.08000 7.92200 47.98500
C  43.43800 3.12700 48.06400
C  48.14700 2.64100 49.05700
C  48.82600 7.45700 49.13800
N  44.07700 5.52900 48.03400
C  43.45800 6.70400 47.75000
C  42.03400 6.57000 47.20900
C  41.78800 5.07700 47.43900
C  43.15500 4.51000 47.93900
C  40.62200 4.72700 48.43000
C  42.00600 7.06000 45.67700
C  40.80200 8.03000 45.41400
H  39.87500 7.63100 44.21400
N  45.79900 3.12200 48.71000
C  44.62900 2.51400 48.40100
C  44.87200 1.06000 48.52400
C  46.26000 0.81300 48.72900
C  46.81900 2.19100 48.80200
C  43.85500 -0.01400 48.45500
C  47.02800 -0.50000 48.84000
O  46.47700 -1.59300 48.87500
C  48.48600 -0.72400 48.88900
N  48.17200 5.08200 48.70700
C  48.78500 3.88400 49.06100
C  50.28900 4.07900 49.35400
C  50.40300 5.64300 49.20300
C  48.99100 6.12800 48.99900
C  50.68800 3.58900 50.79000
C  51.30800 6.05900 47.94600
C  52.69000 6.66900 48.16100
N  46.38600 7.29300 48.87000
C  47.51500 8.02000 49.00800
C  47.18300 9.38300 49.03400
C  45.82700 9.42700 48.62700
C  45.37900 8.13100 48.51700
C  48.12200 10.46400 49.22000
C  44.66900 10.30500 48.32700
O  44.56600 11.48400 48.42500
C  43.49000 9.35600 47.77600
C  42.44800 9.67300 48.76500
O  42.39800 9.27600 49.90100
O  41.34800 10.32200 48.17100
C  40.09700 10.20100 48.95800
H  42.59800 2.53700 47.69100
H  48.78400 1.80900 49.36700
H  49.74000 8.04600 49.23800
H  41.39000 7.25200 47.76400
H  41.52400 4.53600 46.53000
H  41.03300 4.38100 49.37800
H  39.91800 4.03200 47.97400
H  40.07500 5.64500 48.64500
H  41.82000 6.18200 45.05800
H  42.90900 7.63000 45.45600
H  41.20800 9.03800 45.32600
H  40.14900 8.14200 46.27900
H  42.89900 0.39900 48.13300
H  43.68500 -0.44900 49.44000
H  43.94400 -0.72900 47.63600
H  48.95900 -0.12600 48.11000
H  48.83300 -1.75400 48.80200
H  48.70100 -0.35200 49.89100
H  50.89500 3.48700 48.66800
H  50.83700 6.04600 50.11800
H  49.93800 3.78000 51.55600
H  51.60600 4.06400 51.13700
H  50.98000 2.55000 50.63600
H  50.69400 6.77700 47.40200
H  51.36300 5.18900 47.29300
H  53.31800 6.28000 47.35900
H  53.15000 6.48600 49.13200
H  52.57700 7.74200 48.00700
H  49.04500 10.32800 48.65700
H  48.17600 10.64600 50.29400
H  47.60300 11.27700 48.71200
H  43.24600 9.67700 46.76300
H  39.22000 10.62700 48.47000
H  40.23900 10.59400 49.96500
H  39.83200 9.14400 48.97100

