158

Mg 0.42800 7.69700 26.58600
C  1.52300 9.85200 29.09300
C  0.69000 5.06600 28.77400
C  0.23100 5.48900 23.96700
C  0.79600 10.43800 24.26600
N  0.99700 7.57100 28.67400
C  1.14500 8.58100 29.57400
C  1.03500 8.10200 31.03300
C  1.22100 6.56700 30.80800
C  0.96300 6.31800 29.31300
C  2.62700 5.91900 31.25200
C  -0.30600 8.57500 31.72500
C  -0.38000 8.65600 33.21400
H  0.91600 8.47200 34.00400
N  0.22800 5.63300 26.43800
C  0.28800 4.69300 27.46300
C  -0.14900 3.44200 27.01400
C  -0.14400 3.51900 25.53600
C  0.13600 4.92900 25.25200
C  -0.43700 2.35900 28.00400
C  -0.23600 2.50200 24.50900
O  -0.24100 2.69000 23.32700
C  -0.28000 1.06100 24.98200
N  0.63900 7.93300 24.49000
C  0.51600 6.81300 23.57200
C  0.38700 7.22500 22.09200
C  0.21600 8.78600 22.26000
C  0.53500 9.15000 23.78000
C  1.60200 6.75100 21.27800
C  -1.22200 9.25600 21.93900
C  -1.53900 10.04500 20.65100
N  1.14400 9.69700 26.60200
C  1.06700 10.71300 25.64100
C  1.31200 11.98800 26.19900
C  1.59800 11.65300 27.55900
C  1.38400 10.32400 27.73500
C  1.26600 13.32600 25.55000
C  1.94700 12.26100 28.83600
O  2.25900 13.38400 29.13500
C  1.86600 11.10200 29.87100
C  3.15300 10.99700 30.62100
O  4.16300 10.33200 30.29600
O  3.15500 11.95200 31.59600
C  4.29700 11.70300 32.50300
H  0.82800 4.29700 29.53700
H  0.16300 4.83400 23.09500
H  0.59900 11.30900 23.63700
H  1.89900 8.58900 31.48700
H  0.53200 5.92400 31.35700
H  3.18700 5.54800 30.39300
H  2.54600 5.07900 31.94200
H  3.32700 6.70600 31.53500
H  -1.07200 7.85300 31.44100
H  -0.35200 9.61400 31.40100
H  -1.19700 7.97700 33.45700
H  -0.88600 9.60100 33.41800
H  -0.60900 2.68300 29.03000
H  0.24000 1.51000 27.91000
H  -1.35400 1.90500 27.62700
H  0.51000 0.83900 25.70000
H  -0.03900 0.42400 24.13100
H  -1.29900 0.98100 25.36100
H  -0.54500 6.75100 21.78600
H  0.95400 9.29400 21.63900
H  2.47900 6.67400 21.92000
H  1.83000 7.44200 20.46700
H  1.22900 5.82600 20.83700
H  -1.43800 10.05600 22.64700
H  -1.89100 8.39500 21.91600
H  -0.78400 9.72100 19.93400
H  -1.59500 11.12200 20.81200
H  -2.50600 9.75000 20.24500
H  0.49900 13.35500 24.77600
H  2.22000 13.40000 25.02900
H  1.09400 14.08100 26.31700
H  1.08600 11.34100 30.59300
H  4.25900 10.65600 32.80600
H  4.22400 12.37700 33.35600
H  5.25800 11.95200 32.05200
Mg 40.53500 9.62100 29.67600
C  42.47400 10.77000 32.25800
C  38.18400 8.40200 31.96600
C  38.83400 8.13300 27.15100
C  43.15700 10.44700 27.42200
N  40.32100 9.69300 31.85000
C  41.22700 10.19600 32.73000
C  40.73600 10.20700 34.19100
C  39.53600 9.18500 34.10700
C  39.31500 9.10400 32.58700
C  39.67200 7.74100 34.62500
C  40.43700 11.69200 34.68400
C  40.85100 12.13700 36.04700
H  39.61100 12.59600 36.91700
N  38.69400 8.49100 29.59900
C  37.83600 8.17400 30.61500
C  36.68300 7.48600 30.08300
C  36.93400 7.26100 28.74800
C  38.25900 7.93600 28.41700
C  35.53600 6.84200 30.88400
C  36.20400 6.43900 27.70900
O  36.65600 6.29900 26.52800
C  34.85400 5.85100 28.02500
N  41.04600 9.29600 27.61000
C  40.06100 8.71100 26.80500
C  40.53900 8.72800 25.33400
C  41.63400 9.81100 25.33900
C  41.98600 9.83000 26.84700
C  41.04300 7.39900 24.85200
C  41.17900 11.20200 24.75400
C  40.67000 12.20300 25.74700
N  42.45900 10.43700 29.81100
C  43.39300 10.74300 28.76400
C  44.58900 11.34900 29.39700
C  44.17200 11.39300 30.74800
C  42.92600 10.85400 30.94300
C  45.86900 11.85600 28.72900
C  44.60000 11.97300 32.01700
O  45.62000 12.60000 32.32200
C  43.53000 11.58000 33.07400
C  44.25000 10.74600 34.07000
O  44.81000 9.66100 33.76700
O  44.30200 11.37500 35.31400
C  45.09600 10.69900 36.43700
H  37.44600 8.14300 32.72800
H  38.28700 7.73600 26.29300
H  43.86400 10.88300 26.71300
H  41.46100 9.85200 34.92400
H  38.66100 9.62400 34.58400
H  39.83200 6.97700 33.86400
H  38.77600 7.43500 35.16500
H  40.52200 7.72600 35.30700
H  39.36100 11.77000 34.52500
H  40.90500 12.43400 34.03800
H  41.40300 13.05900 35.86100
H  41.47200 11.45800 36.63200
H  35.77800 7.03600 31.92900
H  35.35500 5.77100 30.79600
H  34.54100 7.25000 30.70400
H  34.12600 6.60300 28.33000
H  34.92700 5.04700 28.75800
H  34.35900 5.46600 27.13400
H  39.71300 9.14900 24.76200
H  42.58700 9.62500 24.84300
H  41.44600 6.83100 25.69100
H  41.73700 7.57500 24.03000
H  40.13400 6.91600 24.49500
H  40.47800 11.11600 23.92400
H  42.09300 11.48100 24.23000
H  41.49500 12.65200 26.29900
H  39.92800 11.70800 26.37400
H  40.18600 13.09200 25.34200
H  45.74300 12.76000 28.13200
H  46.10300 11.05000 28.03300
H  46.60300 11.97400 29.52500
H  43.20100 12.46000 33.62700
H  44.39800 10.40500 37.22100
H  45.72600 11.44900 36.91600
H  45.59900 9.81400 36.04700

