158

Mg 34.69600 3.38100 29.22600
C  32.39100 4.21300 31.78900
C  37.25700 4.01300 31.67400
C  37.03400 2.94700 26.94000
C  32.12900 3.59900 27.00900
N  34.77900 4.26200 31.45200
C  33.68800 4.40900 32.25000
C  34.04600 4.47200 33.77600
C  35.65400 4.56800 33.68100
C  35.92500 4.33800 32.18200
C  36.15500 5.93300 34.26300
C  33.60700 3.15000 34.52900
C  33.32000 3.28700 36.00900
H  33.99400 4.42600 36.78000
N  36.79100 3.32400 29.33100
C  37.60700 3.61500 30.37600
C  38.98300 3.30400 29.96100
C  38.99200 3.08400 28.51700
C  37.60500 3.12800 28.21200
C  40.12700 3.41600 30.95900
C  40.05000 2.68300 27.59600
O  39.82600 2.36600 26.41300
C  41.51900 2.52400 28.05400
N  34.55900 3.29400 27.23800
C  35.70200 2.98500 26.51600
C  35.26300 2.75900 25.03700
C  33.74100 3.14600 24.98600
C  33.41900 3.33600 26.46600
C  36.13300 3.55100 23.98900
C  32.74000 2.22200 24.20900
C  32.07600 1.04900 24.95300
N  32.67000 3.71900 29.34300
C  31.75600 3.75100 28.33300
C  30.38700 4.04600 28.84300
C  30.60500 4.20600 30.22400
C  32.00800 4.04900 30.47800
C  29.09600 4.10000 28.04000
C  29.91900 4.46800 31.43000
O  28.75600 4.64900 31.68200
C  31.07500 4.48300 32.50100
C  30.91600 5.69300 33.31400
O  31.30800 6.82700 33.04000
O  30.43500 5.34100 34.58100
C  30.20600 6.43200 35.47000
H  38.08900 4.12400 32.37200
H  37.70400 2.72100 26.10700
H  31.23100 3.60900 26.38700
H  33.59100 5.35300 34.22900
H  36.08000 3.72700 34.22900
H  36.88100 5.69600 35.04100
H  35.35100 6.58900 34.59400
H  36.63500 6.50000 33.46500
H  34.22900 2.27400 34.34500
H  32.70400 2.69900 34.11700
H  33.83700 2.39400 36.35900
H  32.23700 3.29800 36.13000
H  41.12400 3.25300 30.55000
H  40.08500 2.53200 31.59600
H  40.09300 4.37900 31.46800
H  42.10700 2.04200 27.27300
H  41.55900 1.88800 28.93800
H  41.97500 3.48000 28.31200
H  35.34900 1.68700 24.85800
H  33.67800 4.13300 24.52700
H  36.88300 4.14700 24.50900
H  35.51300 4.08500 23.26800
H  36.72700 2.79500 23.47600
H  33.26700 1.86000 23.32600
H  32.05300 3.00400 23.88400
H  31.06400 0.91600 24.57200
H  31.96500 1.18900 26.02800
H  32.50400 0.06600 24.75800
H  29.26800 4.89200 27.31100
H  28.27000 4.44700 28.66100
H  28.91700 3.22200 27.42000
H  30.81300 3.55600 33.01100
H  29.56800 7.22900 35.08800
H  31.13400 6.78500 35.91900
H  29.70300 5.93000 36.29700
Mg 49.58500 47.68900 42.79900
C  46.33300 48.34200 41.40100
C  49.60000 44.77300 40.84500
C  52.82000 47.32600 43.52300
C  49.70900 51.06700 43.74900
N  48.15300 46.76300 41.25200
C  46.82800 47.12900 40.93700
C  46.17400 46.11000 39.95800
C  47.21500 44.95400 39.88700
C  48.41400 45.49900 40.71500
C  46.73100 43.50300 40.29600
C  45.64100 46.74500 38.59800
C  44.11000 46.48700 38.32000
H  43.50900 45.95500 37.02000
N  51.07000 46.28600 42.22300
C  50.88200 45.12000 41.50600
C  52.11600 44.41300 41.47500
C  53.04100 45.08100 42.32000
C  52.30800 46.26800 42.73500
C  52.32300 43.12600 40.72700
C  54.43300 44.62600 42.71800
O  54.92500 43.56800 42.21600
C  55.52700 45.35100 43.60800
N  51.08500 49.08600 43.50700
C  52.29800 48.55900 43.92000
C  52.99800 49.54100 44.85900
C  52.15300 50.88300 44.80700
C  50.91600 50.41200 43.94300
C  53.35800 49.05100 46.28800
C  52.88600 52.08100 44.03700
C  52.50500 53.53800 44.45500
N  48.25100 49.34700 42.73700
C  48.51700 50.63700 43.10800
C  47.33000 51.43500 42.84200
C  46.37500 50.54700 42.17600
C  47.02700 49.31500 42.13800
C  47.14000 52.88200 43.06200
C  45.04300 50.40600 41.57400
O  44.08700 51.18400 41.54600
C  44.93400 48.89400 41.29100
C  43.99000 48.18500 42.26600
O  44.17500 48.09600 43.46600
O  42.87900 47.82700 41.59100
C  41.93500 46.87500 42.09600
H  49.53800 43.78800 40.37700
H  53.80600 47.22600 43.98200
H  49.70400 52.05200 44.22100
H  45.29500 45.82500 40.53500
H  47.59300 44.96100 38.86500
H  45.65100 43.64900 40.25700
H  47.21900 43.25600 41.23800
H  47.12300 42.81800 39.54400
H  46.07900 46.22500 37.74600
H  45.85600 47.81400 38.57700
H  43.82500 47.53700 38.25500
H  43.64600 46.10800 39.23100
H  52.88200 43.42000 39.83900
H  51.36600 42.69800 40.43000
H  52.99800 42.43600 41.23300
H  55.60000 46.39500 43.30300
H  56.49700 44.89200 43.42000
H  55.34100 45.17000 44.66700
H  54.01100 49.62100 44.46300
H  51.79200 51.25900 45.76500
H  54.23700 49.57300 46.66600
H  53.49500 47.97100 46.22500
H  52.57600 49.22100 47.02700
H  52.60500 52.04900 42.98400
H  53.97000 51.96300 44.01000
H  51.96800 54.13100 43.71600
H  53.31800 54.10200 44.91400
H  51.84400 53.43400 45.31600
H  48.07600 53.38100 42.81300
H  46.84700 52.98200 44.10700
H  46.35300 53.37400 42.49100
H  44.61300 48.71000 40.26500
H  42.02400 46.53600 43.12800
H  41.74100 46.09900 41.35600
H  41.12700 47.60300 42.17000

