158

Mg 40.43800 9.91200 29.69800
C  42.35300 11.12900 32.26400
C  38.26300 8.52800 31.91200
C  38.73200 8.62200 27.06500
C  42.91200 11.00200 27.39500
N  40.51600 9.69300 31.88900
C  41.28900 10.40600 32.74600
C  40.73800 10.30800 34.19300
C  39.45000 9.32300 34.07200
C  39.33400 9.12600 32.50100
C  39.59200 7.93900 34.86600
C  40.48200 11.67800 34.96500
C  39.72300 11.53700 36.28900
H  40.39200 12.32800 37.49200
N  38.80500 8.62600 29.50800
C  38.04800 8.21700 30.55400
C  36.96800 7.43300 30.14500
C  36.96100 7.44600 28.69000
C  38.20400 8.24300 28.33700
C  36.07200 6.74000 31.14200
C  35.97100 6.88700 27.68700
O  36.16700 7.01000 26.45000
C  34.71300 6.27300 28.16800
N  40.70200 9.94500 27.48700
C  39.82700 9.36800 26.64500
C  40.21100 9.46100 25.19500
C  41.67400 10.16900 25.28500
C  41.80500 10.31400 26.79100
C  40.12600 8.08500 24.43100
C  41.92300 11.38100 24.24600
C  41.20800 12.63300 24.76500
N  42.25200 10.86200 29.78800
C  43.10100 11.32200 28.78700
C  44.25100 11.89300 29.41200
C  43.95000 11.95500 30.77100
C  42.74900 11.24600 30.92900
C  45.35700 12.29100 28.52000
C  44.37200 12.49100 32.05900
O  45.36900 13.09900 32.37300
C  43.29700 12.02900 33.08700
C  44.02900 11.44800 34.25600
O  44.34600 10.30200 34.35300
O  44.27800 12.38500 35.18300
C  45.00800 11.88000 36.38600
H  37.48600 8.25600 32.63000
H  38.23100 8.17500 26.20400
H  43.71700 11.25000 26.70000
H  41.48900 9.75700 34.75900
H  38.51700 9.84600 34.28300
H  40.40400 7.83800 35.58600
H  39.82800 7.16700 34.13300
H  38.60700 7.71500 35.27600
H  39.97300 12.31600 34.24200
H  41.42700 12.15000 35.23400
H  39.57500 10.49400 36.56900
H  38.72500 11.97400 36.28300
H  35.19500 7.31100 31.44500
H  36.59800 6.42200 32.04200
H  35.63500 5.84600 30.69600
H  34.08900 6.32500 27.27600
H  34.31800 6.81400 29.02800
H  35.05700 5.28500 28.47400
H  39.50600 10.13800 24.71300
H  42.43000 9.41300 25.07200
H  40.90900 7.97300 23.68000
H  39.21100 7.95500 23.85200
H  40.11400 7.32600 25.21300
H  41.45900 11.10600 23.29800
H  42.97900 11.50100 24.00300
H  40.32600 12.73400 24.13300
H  41.94400 13.43500 24.70400
H  40.78400 12.56400 25.76700
H  46.29200 12.35500 29.07800
H  45.18600 13.20700 27.95500
H  45.62300 11.58800 27.73000
H  42.84800 12.96600 33.41600
H  44.42200 11.02800 36.73000
H  45.01000 12.67700 37.13000
H  46.04300 11.70000 36.09400
Mg -1.04000 33.89400 27.17200
C  -2.95300 32.38800 29.66300
C  0.21800 35.93900 29.75400
C  0.18300 35.98200 24.89200
C  -2.74300 32.26000 24.83200
N  -1.42500 34.15500 29.39100
C  -2.17300 33.36700 30.23500
C  -2.08200 33.70800 31.76400
C  -1.19000 35.00700 31.62200
C  -0.85100 35.11800 30.14700
C  -1.82400 36.42400 32.13300
C  -1.77500 32.53700 32.77000
C  -0.80500 32.84600 33.89400
H  -1.12100 32.21400 35.25500
N  0.22400 35.56200 27.29700
C  0.68800 36.19100 28.41500
C  1.60400 37.26600 27.99200
C  1.57000 37.37200 26.59100
C  0.59800 36.29400 26.15700
C  2.24900 38.15500 28.97700
C  2.32200 38.23100 25.63600
O  2.30100 38.21000 24.42000
C  3.39700 39.07400 26.25800
N  -1.27000 34.11600 25.19800
C  -0.59500 34.97000 24.37400
C  -0.81300 34.72800 22.91300
C  -1.69800 33.43000 22.86200
C  -1.92200 33.18200 24.38900
C  -1.46900 35.89200 22.19100
C  -0.95000 32.29500 22.17300
C  0.01500 31.39000 22.96400
N  -2.53300 32.51300 27.19000
C  -3.11300 31.91800 26.10600
C  -4.06600 30.99400 26.53500
C  -4.02900 31.05400 27.94500
C  -3.11400 32.06600 28.33000
C  -4.99500 30.11300 25.70500
C  -4.60100 30.56700 29.19600
O  -5.52100 29.73400 29.41400
C  -3.76600 31.30500 30.35700
C  -4.86300 31.77800 31.25400
O  -5.43700 32.84700 31.08500
O  -5.01200 30.86600 32.35700
C  -5.93000 31.37400 33.35800
H  0.61100 36.52000 30.59100
H  0.45800 36.64800 24.07100
H  -3.13600 31.55200 24.09900
H  -3.07500 34.08000 32.01600
H  -0.21500 34.81100 32.06900
H  -2.78500 36.22400 32.60700
H  -1.84500 36.99500 31.20500
H  -1.18600 36.84400 32.91000
H  -1.29600 31.77500 32.15500
H  -2.67900 32.10800 33.20300
H  -0.80600 33.92600 34.03800
H  0.19400 32.56300 33.56300
H  2.31500 39.22400 28.77800
H  3.23700 37.71700 29.12100
H  1.85700 38.05000 29.98900
H  4.09900 38.44200 26.80300
H  2.74900 39.65700 26.91200
H  3.92200 39.79700 25.63400
H  0.17000 34.52000 22.49200
H  -2.63000 33.59100 22.32000
H  -1.46600 36.85300 22.70500
H  -2.50500 35.75700 21.87900
H  -0.91300 36.06300 21.26900
H  -0.33500 32.70400 21.37200
H  -1.78000 31.71400 21.76800
H  0.12900 31.68200 24.00800
H  0.91800 31.38200 22.35400
H  -0.41800 30.39000 22.99300
H  -5.98700 30.49000 25.95200
H  -4.89000 29.05500 25.94900
H  -4.74400 30.26700 24.65500
H  -3.12100 30.58400 30.85800
H  -6.84800 31.77200 32.92500
H  -5.42700 32.20900 33.84500
H  -6.27400 30.54000 33.97100

