158

Mg 46.73000 15.60400 28.72800
C  44.69400 15.19000 31.64000
C  48.78900 17.37400 30.49800
C  48.24500 16.24200 25.82600
C  44.05600 14.12900 26.82800
N  46.70200 16.20600 30.82800
C  45.86800 15.94500 31.82400
C  46.37000 16.43700 33.15300
C  47.52500 17.36300 32.68700
C  47.66600 17.03100 31.21100
C  47.28900 18.84600 32.87400
C  46.80200 15.29400 34.03700
C  46.50700 15.41700 35.52700
H  46.43100 16.81700 36.11600
N  48.35800 16.58800 28.20300
C  49.13000 17.19600 29.13400
C  50.17700 17.90600 28.42800
C  50.09400 17.55300 27.02700
C  48.87500 16.77200 26.96800
C  51.19300 18.72900 29.14000
C  50.91300 17.97800 25.81100
O  50.56400 17.70200 24.67300
C  52.16100 18.71900 25.98800
N  46.21300 15.13400 26.59200
C  47.11700 15.52600 25.58000
C  46.57200 15.04700 24.19300
C  45.17600 14.49100 24.58200
C  45.13800 14.54200 26.07300
C  46.55400 16.16100 23.05800
C  44.91100 13.02400 24.15200
C  45.92500 11.94000 24.57800
N  44.79500 14.78500 29.16600
C  43.85000 14.20300 28.24100
C  42.75500 13.67800 29.06000
C  43.07100 14.04100 30.36900
C  44.31700 14.69500 30.39600
C  41.51000 12.87700 28.65700
C  42.59700 13.93200 31.76400
O  41.53600 13.39800 32.22500
C  43.62800 14.72300 32.64300
C  42.96700 15.95800 33.20700
O  42.32900 16.81400 32.57800
O  42.96800 15.84600 34.59400
C  42.39100 16.88100 35.44000
H  49.45900 18.01100 31.07800
H  48.80400 16.44000 24.90900
H  43.28600 13.54900 26.31400
H  45.59700 17.04200 33.62700
H  48.52200 17.13000 33.06000
H  48.03200 19.17700 33.60000
H  46.34300 19.14000 33.32800
H  47.40900 19.29900 31.89000
H  47.85800 15.08200 33.86900
H  46.24600 14.41500 33.71000
H  47.36000 14.99300 36.05500
H  45.63100 14.82600 35.79700
H  51.27400 19.72300 28.70000
H  52.13100 18.17800 29.06700
H  51.04200 18.87600 30.21000
H  51.81200 19.63900 26.45800
H  52.72100 18.63700 25.05600
H  52.83000 18.21100 26.68300
H  47.27300 14.32200 23.77800
H  44.40000 15.15000 24.19400
H  45.53900 16.47800 22.81600
H  47.13200 15.95000 22.15800
H  46.95300 17.07000 23.50700
H  44.96800 13.08600 23.06500
H  43.88500 12.73800 24.38500
H  45.52900 11.12400 25.18200
H  46.76600 12.31600 25.16100
H  46.45300 11.50600 23.72900
H  41.43000 12.89200 27.57000
H  40.67000 13.34400 29.17200
H  41.73300 11.88800 29.05800
H  44.04600 14.16200 33.47900
H  43.04200 17.75500 35.46000
H  42.27600 16.51300 36.45900
H  41.48300 17.26900 34.97900
Mg -9.65500 40.55100 39.50600
C  -8.61700 37.38600 38.68300
C  -6.55300 41.71700 38.73100
C  -10.91900 43.65700 39.57200
C  -12.89400 39.23300 39.96300
N  -7.81200 39.57700 38.78400
C  -7.58300 38.24800 38.55600
C  -6.04500 38.00800 38.12900
C  -5.41900 39.41100 38.40400
C  -6.66300 40.29200 38.63800
C  -4.49800 39.48700 39.69900
C  -5.89300 37.45200 36.65400
C  -6.69700 38.26400 35.54400
H  -7.58500 37.42100 34.64000
N  -8.91200 42.45200 39.05500
C  -7.58500 42.72900 38.80800
C  -7.39300 44.13600 38.58000
C  -8.59300 44.78200 39.08800
C  -9.52600 43.66400 39.30600
C  -6.13400 44.77600 38.17900
C  -8.79300 46.23900 39.21400
O  -8.03400 47.03700 38.66000
C  -9.92100 46.75300 39.97000
N  -11.69800 41.30500 39.48000
C  -11.86000 42.60000 39.65100
C  -13.36700 42.92900 39.84800
C  -14.01300 41.53500 40.05800
C  -12.78700 40.58600 39.94800
C  -13.64400 43.81600 41.06200
C  -15.21400 41.11700 39.20000
C  -16.49500 40.71500 39.97300
N  -10.56600 38.69000 39.45600
C  -11.88900 38.35400 39.61300
C  -12.09300 36.93500 39.48300
C  -10.77900 36.45300 39.07700
C  -9.90000 37.61400 39.08100
C  -13.35900 36.14900 39.68100
C  -10.02600 35.27800 38.72900
O  -10.39600 34.10400 38.72300
C  -8.52100 35.85600 38.50000
C  -7.53800 35.05500 39.33700
O  -7.72100 34.90400 40.54300
O  -6.48300 34.48700 38.65800
C  -5.37500 34.03700 39.49000
H  -5.52500 42.08300 38.69200
H  -11.23600 44.67400 39.81000
H  -13.87200 38.75000 40.01100
H  -5.73100 37.23300 38.82700
H  -4.81500 39.72500 37.55200
H  -4.98600 40.13200 40.42900
H  -3.45600 39.71500 39.47300
H  -4.50700 38.45400 40.04700
H  -6.09400 36.38600 36.54900
H  -4.83900 37.55800 36.39900
H  -5.94800 38.59500 34.82500
H  -7.31300 39.06800 35.94600
H  -6.38400 45.56300 37.46700
H  -5.36200 44.04500 37.93800
H  -5.77400 45.31700 39.05400
H  -9.99000 46.16400 40.88500
H  -10.84400 46.59600 39.41200
H  -9.80400 47.82000 40.15700
H  -13.73900 43.34800 38.91300
H  -14.28900 41.38600 41.10200
H  -14.31100 43.42100 41.82800
H  -14.01000 44.80200 40.77500
H  -12.66600 43.89200 41.53600
H  -14.85400 40.28300 38.59800
H  -15.38000 41.92300 38.48500
H  -17.19600 41.50200 39.69400
H  -16.27700 40.62900 41.03700
H  -16.83100 39.79800 39.48700
H  -14.22700 36.29400 39.03900
H  -13.76300 36.53500 40.61700
H  -13.04600 35.10500 39.69900
H  -8.30500 35.57100 37.47000
H  -4.46800 34.22500 38.91600
H  -5.46300 32.97400 39.71500
H  -5.41400 34.54100 40.45500

