158

Mg 25.85300 0.66100 28.83900
C  27.75900 0.50100 31.74700
C  22.97400 1.06800 30.81200
C  24.08000 0.82100 26.03500
C  28.65000 -0.36600 27.06600
N  25.46300 0.52300 31.00300
C  26.38900 0.58400 32.04800
C  25.72300 0.92700 33.39600
C  24.17000 0.82000 33.09100
C  24.18100 0.76200 31.49500
C  23.43300 -0.35900 33.74500
C  26.11300 2.20300 34.04300
C  26.55500 2.17800 35.52600
H  26.05600 3.31200 36.45600
N  23.84100 0.85500 28.41600
C  22.84000 1.12100 29.36000
C  21.59500 1.30800 28.64800
C  21.84700 1.33400 27.27100
C  23.23500 0.99500 27.21300
C  20.25000 1.34800 29.38300
C  20.87400 1.65200 26.15900
O  21.08300 1.37200 24.95600
C  19.62400 2.38500 26.47400
N  26.26400 0.10100 26.85900
C  25.39600 0.44300 25.86300
C  26.10100 0.25500 24.48100
C  27.57300 0.11800 24.87800
C  27.48600 -0.05000 26.36600
C  25.55400 -0.81700 23.41900
C  28.42700 1.29400 24.34000
C  29.07600 0.95200 23.02800
N  27.79300 0.12000 29.25000
C  28.83900 -0.25500 28.42400
C  30.05600 -0.44900 29.11000
C  29.65200 -0.09300 30.47000
C  28.28700 0.24300 30.47900
C  31.35000 -0.95400 28.59100
C  30.13400 0.05100 31.80900
O  31.26600 -0.18700 32.32600
C  28.92700 0.52600 32.70200
C  28.82600 -0.49500 33.81600
O  28.54100 -1.68600 33.65300
O  29.20900 0.08800 35.04400
C  29.16200 -0.92200 36.16100
H  22.16400 1.36300 31.48300
H  23.61600 0.95100 25.05500
H  29.62000 -0.49900 26.58200
H  25.89200 0.05700 34.03200
H  23.65200 1.70400 33.46200
H  24.13300 -1.17200 33.93700
H  22.67700 -0.71100 33.04300
H  22.89300 -0.03600 34.63500
H  25.24100 2.85400 33.97300
H  26.90500 2.61000 33.41400
H  27.61500 2.42300 35.47200
H  26.39900 1.26200 36.09600
H  19.98600 2.39400 29.53600
H  20.27500 0.75300 30.29600
H  19.49000 0.93400 28.71900
H  19.84500 3.19900 27.16400
H  18.80800 1.72700 26.77300
H  19.24500 2.92000 25.60300
H  26.08000 1.15900 23.87300
H  27.87900 -0.79000 24.36000
H  24.66500 -1.20500 23.91500
H  26.13800 -1.68300 23.10800
H  25.14500 -0.44500 22.47900
H  29.29000 1.46100 24.98600
H  27.92900 2.23100 24.09100
H  29.12400 1.88700 22.47000
H  28.55600 0.22600 22.40300
H  30.12100 0.73000 23.24300
H  31.83500 -0.24300 27.92200
H  31.19000 -1.89100 28.05700
H  32.03400 -1.13900 29.42000
H  29.04200 1.51900 33.13600
H  28.19000 -1.14900 36.59900
H  29.83500 -0.57900 36.94600
H  29.61700 -1.84100 35.79100
Mg 40.77200 8.88500 29.84700
C  42.60300 10.46300 32.40100
C  38.68900 7.51500 32.29400
C  38.89800 7.78500 27.39400
C  43.32900 9.69100 27.64700
N  40.66300 9.10300 32.11700
C  41.44900 9.81400 32.91700
C  41.08800 9.65800 34.34700
C  39.85500 8.62600 34.37900
C  39.70600 8.31800 32.86700
C  40.14800 7.29900 35.05000
C  40.50900 11.02400 34.82200
C  39.95000 11.00500 36.30700
H  40.51600 12.00600 37.28700
N  39.03000 7.73500 29.82400
C  38.36200 7.24200 30.92200
C  37.22200 6.49100 30.43100
C  37.17400 6.73500 28.99400
C  38.32400 7.42900 28.65900
C  36.21900 5.72700 31.26500
C  36.05200 6.33900 27.92700
O  36.19100 6.44000 26.72800
C  34.74700 5.72600 28.39700
N  41.08200 8.70800 27.81900
C  40.09400 8.28600 26.97900
C  40.63600 8.31100 25.53300
C  42.08400 8.80400 25.64700
C  42.14700 9.08300 27.13700
C  40.56100 6.85400 24.84200
C  42.33200 9.99500 24.74300
C  41.64300 11.35800 25.00300
N  42.49200 9.95400 29.94500
C  43.38800 10.29200 28.93500
C  44.49600 11.06900 29.52500
C  44.18000 11.23000 30.87500
C  42.99200 10.51600 31.08200
C  45.81600 11.45200 28.96000
C  44.63600 11.78700 32.14300
O  45.69500 12.34400 32.39400
C  43.61100 11.40400 33.19300
C  44.34200 10.75300 34.26100
O  45.10600 9.79700 34.17900
O  43.91900 11.37100 35.44000
C  44.08500 10.62000 36.62000
H  38.05600 6.97100 32.99700
H  38.28800 7.39000 26.57800
H  44.18600 9.80600 26.98000
H  41.96800 9.45000 34.95500
H  38.87000 8.93600 34.72900
H  40.04700 6.53200 34.28200
H  39.33100 7.37500 35.76700
H  41.12800 7.36000 35.52200
H  39.72500 11.27100 34.10600
H  41.35300 11.69200 34.65000
H  40.22300 10.02900 36.70700
H  38.87600 11.18500 36.25900
H  36.10500 4.78200 30.73500
H  35.30500 6.29000 31.45800
H  36.49200 5.56100 32.30700
H  34.23800 5.27000 27.54800
H  34.22600 6.38300 29.09300
H  35.07900 4.84700 28.94900
H  40.10500 8.97100 24.84600
H  42.71600 7.96600 25.35500
H  40.65100 6.12300 25.64600
H  41.37200 6.59900 24.15900
H  39.62600 6.88300 24.28300
H  42.23100 9.60100 23.73200
H  43.38200 10.28000 24.68500
H  40.76300 11.05000 25.56800
H  41.20400 11.76000 24.09000
H  42.34800 12.12100 25.33300
H  45.47600 12.13900 28.18500
H  46.40200 10.61300 28.58700
H  46.38700 11.94600 29.74600
H  43.20100 12.37800 33.45800
H  43.81100 11.25600 37.46200
H  45.14800 10.38700 36.55700
H  43.35900 9.82700 36.43900

