158

Mg 2.04900 -0.91800 45.65700
C  5.27000 0.23000 44.52400
C  0.77100 1.70900 43.89800
C  -0.78200 -2.41300 45.87600
C  3.72400 -3.82800 46.85300
N  2.98600 0.71000 44.35400
C  4.26100 1.08200 44.11300
C  4.44500 2.44500 43.44600
C  3.04300 2.98600 43.64200
C  2.18600 1.74600 44.02000
C  2.94800 4.17600 44.65200
C  4.73100 2.31400 42.03000
C  6.08700 2.94400 41.57500
H  6.10300 3.37900 40.06100
N  0.16700 -0.32600 45.08500
C  -0.20400 0.77700 44.36800
C  -1.55100 0.81100 44.28500
C  -2.07800 -0.40200 44.83000
C  -0.86000 -1.11400 45.30900
C  -2.35200 1.98200 43.47000
C  -3.51300 -0.85300 44.85200
O  -4.29100 -0.09800 44.31400
C  -3.99600 -2.11400 45.41200
N  1.61100 -2.86300 46.04100
C  0.32000 -3.15600 46.21900
C  0.05000 -4.57100 46.79000
C  1.47300 -4.99100 47.10900
C  2.32600 -3.83800 46.68500
C  -0.95000 -4.65300 48.03300
C  1.92600 -6.30100 46.46900
C  2.32300 -7.35200 47.45800
N  4.11400 -1.59900 45.84300
C  4.60900 -2.84900 46.30600
C  6.07100 -2.79400 46.18800
C  6.29100 -1.59100 45.48800
C  5.10000 -0.96100 45.28300
C  7.01500 -3.83700 46.61700
C  7.38500 -0.85100 44.90000
O  8.57000 -1.11200 44.69500
C  6.75300 0.47400 44.42200
C  7.13400 1.46600 45.34500
O  6.94200 1.46800 46.57300
O  7.78700 2.45400 44.59300
C  8.06100 3.68500 45.41400
H  0.37700 2.62700 43.45600
H  -1.74400 -2.86100 46.13600
H  4.17200 -4.69400 47.34600
H  5.24900 2.86400 44.05100
H  2.64000 3.51100 42.77700
H  3.80500 4.85000 44.65000
H  2.84100 3.80700 45.67200
H  2.12000 4.85300 44.44200
H  4.10000 2.78300 41.27500
H  4.68000 1.25900 41.76300
H  6.97900 2.32500 41.67100
H  6.23300 3.75300 42.29100
H  -2.78000 1.69600 42.51000
H  -1.78100 2.87600 43.21900
H  -3.14600 2.35400 44.12000
H  -3.90100 -2.21600 46.49300
H  -3.48400 -2.94000 44.91700
H  -5.06700 -2.21900 45.23700
H  -0.55000 -5.27900 46.22000
H  1.58800 -4.94200 48.19100
H  -1.88100 -5.12900 47.72400
H  -1.19400 -3.66000 48.41000
H  -0.54800 -5.33500 48.78400
H  2.87200 -6.12900 45.95400
H  1.20800 -6.54700 45.68700
H  1.74700 -8.21900 47.13300
H  2.09800 -7.17000 48.50900
H  3.37600 -7.62300 47.38900
H  8.01200 -3.66100 46.21500
H  6.63400 -4.77700 46.21800
H  6.96400 -3.88200 47.70500
H  7.07000 0.63900 43.39200
H  8.30800 4.54200 44.78700
H  8.94700 3.29200 45.91300
H  7.23200 3.93500 46.07600
Mg 49.15600 46.16600 42.60000
C  45.71300 46.77200 41.85700
C  48.93300 43.28800 40.97700
C  52.56200 45.95100 42.73300
C  49.32300 49.51000 43.83400
N  47.53300 45.11800 41.64300
C  46.16600 45.48900 41.44100
C  45.40100 44.39900 40.61900
C  46.44600 43.22800 40.56400
C  47.74300 43.90700 41.11400
C  46.02200 41.98300 41.49700
C  45.06200 44.93100 39.20300
C  43.69100 44.36900 38.59600
H  43.86600 43.78000 37.15900
N  50.55600 44.77500 41.92300
C  50.25900 43.64700 41.31500
C  51.42000 42.79400 41.07000
C  52.52500 43.58500 41.55400
C  51.94700 44.84800 42.14500
C  51.32000 41.51100 40.31000
C  54.02400 43.10700 41.50600
O  54.35700 42.01000 41.11200
C  55.12600 44.00900 41.92300
N  50.76700 47.52700 43.26300
C  52.05800 47.21800 43.12500
C  53.00700 48.31000 43.68600
C  51.95800 49.48300 43.91700
C  50.61300 48.87900 43.53200
C  53.78900 47.78100 44.92900
C  52.28300 50.81900 43.25100
C  52.99400 51.87900 44.19500
N  47.82200 47.80300 42.81000
C  48.04400 49.08600 43.35700
C  46.81300 49.84600 43.29900
C  45.86800 48.95900 42.82500
C  46.55800 47.73100 42.47600
C  46.67400 51.35200 43.76200
C  44.42700 48.79400 42.52900
O  43.54600 49.61700 42.66300
C  44.30900 47.33300 41.81700
C  43.48700 46.40400 42.72300
O  43.78700 45.95500 43.81300
O  42.36700 45.95100 42.06500
C  41.42700 45.03100 42.64400
H  48.89500 42.33500 40.44500
H  53.64300 46.00200 42.88000
H  49.42000 50.54800 44.15600
H  44.53700 44.11700 41.22000
H  46.65200 42.80400 39.58100
H  44.96300 42.10800 41.72300
H  46.61300 41.98500 42.41200
H  46.12900 41.08700 40.88600
H  45.89500 44.65100 38.55900
H  44.91400 46.00800 39.12400
H  43.07500 45.26700 38.54200
H  43.19400 43.63200 39.22700
H  52.32200 41.18000 40.03700
H  50.71900 41.53600 39.40100
H  50.72700 40.74900 40.81600
H  54.97200 44.08000 43.00000
H  54.98100 44.97100 41.43300
H  56.12800 43.58300 41.87300
H  53.66600 48.53000 42.84500
H  51.76200 49.75400 44.95500
H  53.67500 48.46300 45.77100
H  54.83900 47.57000 44.72400
H  53.30900 46.87100 45.28600
H  51.35000 51.12100 42.77600
H  52.97400 50.55100 42.45200
H  53.20100 51.39800 45.15100
H  52.48600 52.83900 44.28100
H  53.99100 51.98900 43.76800
H  47.39500 51.75600 44.47200
H  45.68800 51.44000 44.21800
H  46.75400 52.04500 42.92500
H  43.84200 47.41800 40.83600
H  40.46000 44.97400 42.14400
H  41.38400 45.14600 43.72700
H  41.81700 44.02600 42.48700

