158

Mg 35.99900 49.57800 25.12200
C  36.47400 47.99300 28.24600
C  35.33700 52.45700 26.84200
C  35.70300 51.11400 22.19800
C  37.22300 46.86000 23.59600
N  35.88200 50.09900 27.20800
C  36.13000 49.37200 28.35200
C  35.75000 50.08800 29.64500
C  35.23400 51.49300 29.14700
C  35.49400 51.35200 27.62900
C  33.68900 51.73900 29.56000
C  36.95900 50.19500 30.64000
C  36.70200 49.57100 32.01500
H  35.28500 49.74400 32.68900
N  35.57700 51.52200 24.53500
C  35.36900 52.59100 25.46000
C  35.18600 53.74100 24.63600
C  35.24800 53.35000 23.30300
C  35.50000 51.96100 23.28600
C  34.73800 55.13400 25.22600
C  34.89700 54.20000 21.97000
O  34.86100 53.78000 20.81900
C  34.68400 55.67000 22.08200
N  36.31000 49.05700 23.25000
C  36.14900 49.87800 22.16200
C  36.41800 49.12200 20.89000
C  37.25800 47.88700 21.33700
C  36.73400 47.84200 22.79500
C  35.07300 48.77900 20.15300
C  38.79800 47.96100 21.24800
C  39.36400 46.84200 20.32000
N  36.43000 47.68400 25.70100
C  36.96900 46.67400 24.95100
C  37.26500 45.56000 25.78500
C  37.11400 46.07700 27.07400
C  36.60400 47.31200 26.98900
C  37.84200 44.24600 25.31500
C  37.26000 45.77500 28.48900
O  37.53500 44.70200 29.05100
C  36.75800 46.95800 29.25500
C  35.58700 46.46000 30.03800
O  34.47800 46.28400 29.55300
O  36.01300 46.11600 31.30200
C  34.92100 45.50200 32.12900
H  34.92100 53.35000 27.31500
H  35.72800 51.58000 21.21100
H  37.72800 46.07300 23.03200
H  34.89900 49.56200 30.07600
H  35.82500 52.26700 29.63800
H  32.95300 51.34800 28.85800
H  33.38600 52.77800 29.68600
H  33.63900 51.21600 30.51500
H  37.36400 51.18800 30.83700
H  37.77700 49.61000 30.21900
H  37.44400 50.00700 32.68300
H  36.97200 48.51900 31.92000
H  35.43600 55.79100 24.70600
H  34.72500 55.09100 26.31500
H  33.73700 55.35900 24.85900
H  33.69200 55.99700 22.39600
H  34.74700 56.09100 21.07900
H  35.47000 56.23400 22.58400
H  36.93900 49.73400 20.15400
H  36.90200 47.04100 20.74900
H  34.24800 49.26000 20.67700
H  34.86400 47.70900 20.17700
H  35.19700 49.14000 19.13200
H  39.22100 47.67300 22.21100
H  39.11400 48.95600 20.93700
H  39.75600 47.16400 19.35500
H  38.71800 45.96900 20.22800
H  40.14200 46.37300 20.92200
H  37.33500 43.50300 25.93100
H  38.90600 44.18400 25.54400
H  37.57200 44.11900 24.26700
H  37.58700 47.30600 29.87200
H  33.92200 45.80000 31.81400
H  34.96900 45.92400 33.13300
H  35.02400 44.41700 32.13200
Mg 17.27300 52.19500 26.38800
C  19.11700 50.46900 28.87900
C  14.87500 52.80500 28.91900
C  15.30000 53.27100 24.00100
C  19.57500 50.99500 24.14300
N  16.97200 51.41400 28.60700
C  17.96800 51.01100 29.42300
C  17.65000 51.25200 30.87500
C  16.16700 51.70500 30.83300
C  16.03000 52.05500 29.33400
C  14.95700 50.73100 31.22000
C  18.50800 52.31700 31.49000
C  18.70600 52.22800 33.04900
H  17.68700 51.50600 33.96300
N  15.30400 52.91300 26.43500
C  14.53800 53.18400 27.54100
C  13.36100 53.96000 27.10200
C  13.46000 54.05700 25.63600
C  14.73400 53.35800 25.28300
C  12.38500 54.59100 28.13100
C  12.72900 55.09600 24.68700
O  13.12900 55.30000 23.50000
C  11.52900 55.89300 25.13600
N  17.41300 52.23300 24.39800
C  16.46800 52.68100 23.54700
C  16.75800 52.44400 22.05400
C  18.25900 52.00800 22.19200
C  18.48100 51.76800 23.66300
C  15.83100 51.25700 21.54900
C  19.29200 52.95600 21.51700
C  19.08800 54.46200 21.79200
N  18.99200 50.83300 26.38800
C  19.84400 50.50200 25.37300
C  20.96000 49.76100 25.83300
C  20.76000 49.73100 27.23400
C  19.47500 50.31600 27.49100
C  22.03500 49.17800 24.95000
C  21.23800 49.19200 28.49500
O  22.16300 48.46300 28.74700
C  20.26200 49.79300 29.60100
C  19.85500 48.69300 30.52800
O  19.12100 47.74900 30.32400
O  20.53500 48.82900 31.73300
C  20.07800 48.01400 32.88000
H  14.26800 53.08900 29.78100
H  14.58000 53.54600 23.22700
H  20.33400 50.78100 23.38700
H  17.65600 50.34700 31.48200
H  15.89400 52.60300 31.38700
H  14.33800 51.15800 32.00900
H  15.36400 49.76900 31.53300
H  14.21200 50.54000 30.44800
H  18.03500 53.25700 31.20500
H  19.54000 52.25500 31.14400
H  18.63900 53.29100 33.28200
H  19.73200 51.86300 33.08100
H  11.57200 53.86700 28.18400
H  12.06100 55.61100 27.92500
H  12.93300 54.55800 29.07300
H  10.82300 55.22600 25.63200
H  11.11000 56.31800 24.22400
H  11.76000 56.74900 25.77000
H  16.63100 53.27600 21.36200
H  18.44800 51.03000 21.75000
H  16.49600 50.44700 21.84800
H  15.70000 51.54000 20.50500
H  14.86000 51.05200 22.00000
H  19.36200 52.64300 20.47500
H  20.28800 52.64200 21.82700
H  18.92200 54.99200 20.85400
H  19.92500 54.94500 22.29700
H  18.26800 54.63000 22.49000
H  21.46000 48.76200 24.12300
H  22.39800 48.32300 25.52200
H  22.82800 49.78100 24.51000
H  20.87000 50.37200 30.29600
H  20.29900 46.95300 32.76400
H  18.99000 47.97700 32.93800
H  20.60500 48.38900 33.75700

