158

Mg 42.08300 7.06800 30.54800
C  43.88700 9.23500 32.60300
C  39.87900 6.40900 33.10200
C  40.25600 5.34400 28.41900
C  44.32600 7.89200 27.94500
N  41.88400 7.88500 32.58900
C  42.71200 8.73900 33.22600
C  42.30200 8.82100 34.72700
C  41.05600 7.93400 34.81800
C  40.94600 7.25200 33.42500
C  40.97100 6.90000 35.92000
C  42.09500 10.25400 35.27100
C  41.05900 10.53300 36.42700
H  41.67100 11.34900 37.59100
N  40.41200 5.89000 30.73900
C  39.55100 5.84300 31.82700
C  38.43400 4.92300 31.51900
C  38.56600 4.55900 30.19000
C  39.76200 5.29400 29.69100
C  37.38400 4.49000 32.57000
C  37.76800 3.61400 29.35800
O  38.05400 3.36300 28.15600
C  36.72900 2.77700 29.90200
N  42.34500 6.65700 28.54900
C  41.40200 5.91000 27.86100
C  41.68000 5.78700 26.41200
C  42.77500 6.93900 26.28300
C  43.31500 7.04400 27.64500
C  42.14400 4.31800 25.96000
C  42.11200 8.29600 25.87300
C  42.12400 8.68100 24.36700
N  43.90400 8.19300 30.27500
C  44.64900 8.44900 29.13600
C  45.72900 9.35900 29.46800
C  45.44400 9.70500 30.85100
C  44.36200 8.97200 31.25600
C  46.82100 9.95000 28.59600
C  45.92000 10.47200 31.96200
O  46.80100 11.34400 32.05300
C  45.04000 10.06700 33.18300
C  45.78700 9.41000 34.27800
O  46.21200 8.28800 34.17100
O  45.78200 10.22700 35.36700
C  45.79900 9.41500 36.60000
H  39.15700 6.23000 33.90100
H  39.58400 4.87100 27.69900
H  45.04500 8.27400 27.21600
H  43.13700 8.31500 35.21100
H  40.14200 8.52200 34.90300
H  41.77200 7.09600 36.63300
H  40.96300 5.84800 35.63500
H  40.03600 7.15800 36.41800
H  41.83300 10.82200 34.37800
H  43.07500 10.64800 35.54100
H  40.59800 9.63700 36.84200
H  40.22200 10.95500 35.87100
H  36.59300 5.21100 32.36300
H  37.74400 4.68200 33.58100
H  37.06400 3.45800 32.42000
H  37.18700 1.92200 30.40000
H  36.07600 2.39900 29.11500
H  36.00800 3.28800 30.54100
H  40.78200 6.01300 25.83700
H  43.56600 6.70500 25.57100
H  42.58700 3.82200 26.82400
H  42.97500 4.38300 25.25900
H  41.27000 3.76800 25.61200
H  42.58700 9.11900 26.40700
H  41.04600 8.22000 26.08700
H  42.99200 8.27100 23.85100
H  42.22300 9.76300 24.27500
H  41.31000 8.29800 23.75200
H  47.72800 9.99400 29.19900
H  46.66200 10.96800 28.24000
H  46.96600 9.32400 27.71600
H  44.80200 11.07300 33.52900
H  45.37000 8.41400 36.60700
H  45.15600 10.08500 37.17100
H  46.77100 9.39100 37.09200
Mg 29.73300 58.61000 38.65600
C  26.74500 56.87700 38.04000
C  31.40900 55.98200 37.41500
C  32.41200 60.66700 38.37000
C  27.79300 61.47500 39.20100
N  29.09600 56.67800 37.87100
C  27.90800 56.15500 37.73800
C  27.94400 54.72000 37.23600
C  29.40500 54.34500 37.42900
C  30.01000 55.80200 37.65400
C  29.64800 53.42400 38.66200
C  27.56800 54.74500 35.72200
C  26.47300 53.87900 35.10400
H  25.68000 54.62900 34.06500
N  31.70800 58.31400 38.07900
C  32.19600 57.16800 37.55000
C  33.61900 57.32100 37.38500
C  33.96700 58.60200 37.76500
C  32.71000 59.28100 38.10000
C  34.50300 56.19900 36.73200
C  35.31700 59.25500 37.70000
O  36.20500 58.49800 37.36600
C  35.57300 60.63100 37.91900
N  30.09700 60.81800 38.82500
C  31.29400 61.36800 38.78900
C  31.20200 62.81800 38.85500
C  29.72200 63.14000 39.08600
C  29.16300 61.70100 39.09900
C  32.26200 63.50400 39.86200
C  29.08200 63.95900 37.87700
C  27.97800 64.99500 38.18500
N  27.72100 59.05500 38.83000
C  27.08100 60.21500 39.02900
C  25.63700 60.08200 39.01400
C  25.42600 58.71300 38.67000
C  26.78900 58.16800 38.55000
C  24.60200 61.14200 39.17900
C  24.47800 57.69800 38.33200
O  23.30000 57.65100 38.23600
C  25.28000 56.42900 37.95200
C  24.97100 55.17900 38.83500
O  25.43100 55.01900 39.92700
O  23.96500 54.45600 38.24700
C  23.22000 53.54900 39.08800
H  31.87000 55.11700 36.93400
H  33.29600 61.28600 38.20600
H  27.23400 62.41200 39.24800
H  27.24600 54.07800 37.77300
H  29.85200 53.86200 36.56000
H  28.69200 53.35600 39.18200
H  30.49200 53.64500 39.31400
H  29.83500 52.39300 38.36200
H  28.37800 54.45000 35.05500
H  27.45500 55.75500 35.32700
H  25.84100 53.76000 35.98400
H  26.87300 52.92400 34.76300
H  35.09700 56.66500 35.94500
H  33.92200 55.42000 36.23700
H  35.01200 55.71000 37.56300
H  36.65400 60.77400 37.89400
H  35.10200 60.78600 38.88900
H  34.94200 61.15200 37.19900
H  31.52000 63.03600 37.83500
H  29.54800 63.66500 40.02500
H  32.99900 64.17500 39.42100
H  32.86500 62.75000 40.36800
H  31.66500 64.04400 40.59700
H  28.61600 63.25600 37.18600
H  29.80200 64.47400 37.24100
H  28.29100 66.00600 37.92400
H  27.77600 65.13700 39.24600
H  27.09600 64.68500 37.62300
H  23.84500 60.74700 39.85600
H  24.24600 61.44400 38.19400
H  24.99400 61.99100 39.74000
H  25.15600 56.24400 36.88500
H  23.31700 52.51800 38.74800
H  22.19000 53.84100 39.29500
H  23.64200 53.54400 40.09300

