158

Mg 48.69300 35.74200 26.46200
C  46.90400 34.17000 28.87200
C  48.66300 38.68800 28.34800
C  50.60900 37.26900 24.08300
C  48.29700 33.07700 24.36300
N  47.99600 36.30600 28.39600
C  47.39900 35.43200 29.30200
C  47.35700 36.12900 30.64800
C  47.49700 37.64200 30.33200
C  48.00900 37.58900 28.88700
C  46.22800 38.60300 30.56900
C  48.46100 35.69400 31.63200
C  47.99000 35.31900 33.10800
H  46.92700 36.19600 33.77300
N  49.54600 37.64600 26.25400
C  49.39400 38.71100 27.08800
C  50.23600 39.78600 26.72800
C  50.94900 39.35500 25.59700
C  50.33800 38.04200 25.23500
C  50.37000 41.07600 27.50200
C  52.03200 40.06000 24.74700
O  52.51300 39.46300 23.78600
C  52.52700 41.40800 25.19100
N  49.15200 35.27600 24.40400
C  50.06500 36.05500 23.67700
C  50.28300 35.44600 22.30700
C  49.52800 34.08600 22.38700
C  48.96900 34.09100 23.77800
C  49.72800 36.40600 21.16700
C  50.56400 32.89200 22.15600
C  51.03100 32.74100 20.66700
N  47.72200 34.02300 26.50600
C  47.64100 33.02800 25.60200
C  46.91900 31.91300 26.15300
C  46.54400 32.31900 27.43800
C  47.00800 33.65600 27.55100
C  46.70900 30.61000 25.51000
C  45.93200 31.87200 28.69400
O  45.42600 30.82400 29.10100
C  46.03100 33.14900 29.59900
C  46.61900 32.68600 30.86700
O  47.83600 32.44300 31.06300
O  45.60300 32.37700 31.79500
C  46.07000 31.57700 32.97200
H  48.58300 39.47900 29.09600
H  51.28900 37.68200 23.33500
H  48.37200 32.14200 23.80400
H  46.41500 35.95300 31.16700
H  48.23700 38.10500 30.98400
H  45.38000 38.06600 30.99400
H  46.08300 39.11700 29.61900
H  46.48600 39.39600 31.27000
H  49.17600 36.49800 31.80500
H  48.99000 34.80600 31.28500
H  48.83500 35.39200 33.79300
H  47.68700 34.27300 33.13300
H  51.35500 41.53000 27.61300
H  49.93600 40.97400 28.49700
H  49.70000 41.86600 27.16100
H  51.83100 42.24200 25.09900
H  53.37800 41.62900 24.54700
H  52.88000 41.30800 26.21700
H  51.33900 35.20100 22.18600
H  48.71100 33.97500 21.67400
H  49.75300 37.49300 21.23400
H  48.72400 36.08700 20.88800
H  50.47500 36.28600 20.38200
H  50.20800 31.88100 22.35600
H  51.40100 33.06900 22.83200
H  50.98000 31.72300 20.28100
H  52.08400 33.00000 20.55300
H  50.45900 33.39500 20.01000
H  45.75300 30.18100 25.81100
H  47.44800 29.89100 25.86300
H  46.61800 30.63900 24.42400
H  45.10800 33.69600 29.79300
H  46.79600 32.15300 33.54500
H  46.67500 30.68200 32.83000
H  45.17800 31.24300 33.50100
Mg 35.40900 48.68400 24.67300
C  35.12800 47.04000 27.85600
C  34.07800 51.50400 26.05800
C  35.10300 49.79500 21.56000
C  36.70600 45.65400 23.46600
N  34.68600 49.19200 26.77300
C  34.72600 48.37600 27.87800
C  34.41700 49.14000 29.10200
C  34.04700 50.64000 28.53000
C  34.23900 50.44500 26.97800
C  32.63900 51.08500 28.75600
C  35.61200 49.09100 30.06400
C  35.27700 49.34200 31.59700
H  33.82600 49.64400 32.18600
N  34.70100 50.43100 23.96900
C  34.24900 51.52000 24.65700
C  33.81200 52.53200 23.75700
C  34.00800 52.00500 22.41400
C  34.65400 50.68500 22.61600
C  33.25200 53.79600 24.29300
C  33.45300 52.62900 21.14800
O  33.58400 52.10800 20.01300
C  32.55900 53.80800 21.14000
N  35.78100 47.76100 22.80800
C  35.63300 48.49900 21.66200
C  36.40000 47.84200 20.51700
C  37.17800 46.62900 21.13400
C  36.55900 46.64700 22.52500
C  35.43600 47.51000 19.36600
C  38.71500 46.81200 21.25700
C  39.51100 45.50800 21.12000
N  35.90200 46.73200 25.40700
C  36.38200 45.61900 24.80000
C  36.51400 44.51300 25.69500
C  35.96400 44.97400 26.84600
C  35.71100 46.38300 26.69100
C  36.92000 43.13300 25.30500
C  35.62700 44.63200 28.21300
O  35.71900 43.59500 28.89500
C  35.13700 45.91800 28.94300
C  33.86300 45.78600 29.82000
O  32.74100 46.23600 29.65500
O  34.25100 45.12400 30.98000
C  33.22000 44.86100 32.00100
H  33.60400 52.35700 26.54800
H  35.18800 50.26000 20.57600
H  37.25900 44.90000 22.90300
H  33.50200 48.87100 29.63000
H  34.80200 51.36100 28.84400
H  31.99800 50.23700 28.99900
H  32.16100 51.58600 27.91500
H  32.63900 51.62700 29.70200
H  36.25000 49.93100 29.78900
H  36.21600 48.18500 30.00400
H  35.94000 50.14300 31.92400
H  35.61900 48.51000 32.21200
H  33.28600 54.71200 23.70500
H  33.37500 54.03500 25.35000
H  32.23100 53.41500 24.25300
H  31.78500 53.64100 21.89000
H  32.07200 53.89800 20.16900
H  33.20500 54.66000 21.35200
H  37.07500 48.66300 20.27600
H  36.87000 45.70300 20.64800
H  34.75300 46.71600 19.66600
H  36.08400 47.25200 18.52800
H  34.81900 48.37700 19.13000
H  38.96500 47.11600 22.27400
H  39.12600 47.61000 20.63900
H  40.08200 45.38100 22.04000
H  40.08800 45.47800 20.19500
H  38.89200 44.61300 21.06600
H  36.85800 42.48400 26.17900
H  37.92200 43.14700 24.87600
H  36.28200 42.72600 24.52100
H  35.85900 46.18500 29.71400
H  32.72700 43.97300 31.60600
H  32.46600 45.64500 32.06500
H  33.60300 44.68400 33.00600

