158

Mg 36.44200 1.00500 29.69200
C  33.99100 2.04800 32.09800
C  38.71900 1.02400 32.18400
C  38.68000 0.45600 27.31200
C  33.95400 1.41000 27.13000
N  36.31800 1.47400 31.90500
C  35.22700 1.78000 32.64900
C  35.54400 1.74600 34.11400
C  37.11300 1.79000 34.19900
C  37.45400 1.37600 32.69300
C  37.68000 3.19200 34.61600
C  34.92900 0.56300 34.91200
C  34.28600 0.79300 36.31400
H  34.64200 2.16500 37.01300
N  38.46600 0.82000 29.68800
C  39.21600 0.76800 30.83800
C  40.57800 0.36200 30.50900
C  40.57500 0.18000 29.09100
C  39.19100 0.50200 28.65200
C  41.71300 0.33000 31.56900
C  41.60900 -0.30200 28.12900
O  41.44700 -0.49200 26.90200
C  42.88900 -0.81100 28.67600
N  36.22300 0.72500 27.54100
C  37.34700 0.60100 26.85600
C  37.13600 0.76700 25.36900
C  35.53800 0.80200 25.23300
C  35.20200 0.95600 26.69700
C  37.77700 2.16300 24.91500
C  34.78900 -0.36100 24.54000
C  34.39500 -1.54800 25.54200
N  34.37500 1.52900 29.61800
C  33.50100 1.58700 28.50700
C  32.19400 2.07900 28.96200
C  32.39300 2.26500 30.37800
C  33.67100 1.93100 30.73800
C  30.92100 2.37500 28.07800
C  31.61900 2.62200 31.54500
O  30.51000 3.01800 31.76500
C  32.70100 2.50700 32.72100
C  32.83400 3.85900 33.36000
O  33.49300 4.80700 32.96000
O  31.99000 3.82900 34.46600
C  31.56800 4.97200 35.18300
H  39.41800 0.78000 32.98700
H  39.41100 0.31500 26.51300
H  33.26700 1.64600 26.31500
H  35.17600 2.70700 34.47300
H  37.39000 1.08200 34.98000
H  37.51600 3.21300 35.69300
H  37.11200 3.93700 34.05900
H  38.72700 3.20000 34.31100
H  35.59700 -0.29000 35.03000
H  34.08400 0.22000 34.31500
H  34.52400 -0.09000 36.90700
H  33.21100 0.74100 36.14300
H  42.60400 0.78000 31.13200
H  41.84800 -0.70500 31.88200
H  41.56400 1.01800 32.40100
H  43.20600 -0.17600 29.50300
H  43.72500 -0.62400 28.00200
H  42.93800 -1.85100 28.99800
H  37.61600 -0.13800 24.99600
H  35.12100 1.69900 24.77700
H  37.07200 2.94200 25.20800
H  37.85100 2.11300 23.82900
H  38.78900 2.27200 25.30500
H  35.24200 -0.78100 23.64200
H  33.83300 0.05800 24.22500
H  34.56900 -2.55400 25.15900
H  33.34800 -1.58700 25.84000
H  35.01500 -1.55200 26.43900
H  30.89900 1.79300 27.15600
H  31.00700 3.40900 27.74500
H  30.06000 2.29300 28.74200
H  32.32500 1.79500 33.45500
H  30.50300 4.92200 35.40800
H  31.69900 5.88300 34.59900
H  32.10100 5.04100 36.13200
Mg 52.54100 23.72000 44.95200
C  49.60500 25.61000 44.48900
C  50.76600 20.84600 44.44400
C  55.43800 22.15500 44.38000
C  54.30200 26.68800 45.24200
N  50.39300 23.31900 44.24600
C  49.34400 24.19800 44.46700
C  48.07800 23.36400 44.56500
C  48.48800 21.84700 44.79800
C  50.02500 21.99700 44.46200
C  48.26100 21.44900 46.34300
C  47.18300 23.49400 43.28700
C  47.75000 22.82500 42.00100
H  47.57800 23.63000 40.72600
N  53.03200 21.83600 44.44800
C  52.14800 20.73300 44.33600
C  52.96800 19.51400 44.09300
C  54.33200 19.87700 44.00400
C  54.30300 21.34700 44.32900
C  52.26600 18.15500 44.02500
C  55.47700 18.81400 43.78200
O  55.25400 17.67900 43.48300
C  56.85700 19.24400 43.91700
N  54.62500 24.35600 44.65600
C  55.62600 23.50200 44.59000
C  57.05000 24.20600 44.56700
C  56.66800 25.72800 44.83700
C  55.10700 25.59400 44.98700
C  58.07400 23.66100 45.58800
C  57.11100 26.82300 43.78000
C  58.42500 26.73100 43.12600
N  52.09800 25.78500 44.91000
C  52.93400 26.84100 45.13400
C  52.06600 28.08600 45.17100
C  50.75700 27.63300 44.98900
C  50.84900 26.23900 44.67000
C  52.51500 29.49900 45.48000
C  49.33900 27.96500 44.94700
O  48.85700 29.07700 45.03800
C  48.53800 26.71600 44.57900
C  48.02000 27.08300 43.23400
O  48.63500 27.05900 42.19200
O  46.65800 27.25200 43.27500
C  45.94100 27.49300 42.01100
H  50.25000 19.92000 44.70300
H  56.27300 21.48500 44.16600
H  54.83900 27.63500 45.33600
H  47.43600 23.76300 45.35100
H  48.14300 21.07100 44.11500
H  48.25700 20.36000 46.37200
H  47.33500 21.91200 46.68600
H  49.08200 21.77000 46.98400
H  47.10100 24.54600 43.01000
H  46.12400 23.28400 43.43900
H  47.15700 21.94200 41.76400
H  48.78100 22.47300 42.04400
H  51.52300 18.20500 43.22900
H  51.75500 17.93600 44.96300
H  52.90700 17.29500 43.83100
H  57.50400 18.37500 43.80000
H  56.90600 19.71400 44.89900
H  57.09000 20.00500 43.17300
H  57.53300 24.08200 43.59800
H  57.01200 26.16400 45.77500
H  59.06400 23.90500 45.20200
H  58.01000 22.57300 45.62200
H  57.87400 24.13000 46.55100
H  57.20000 27.80000 44.25400
H  56.28100 26.86100 43.07400
H  59.15600 26.01000 43.49300
H  58.87400 27.72100 43.04300
H  58.31400 26.49900 42.06700
H  53.14900 29.71700 46.33900
H  51.72400 30.23900 45.59700
H  53.10000 29.81300 44.61500
H  47.72800 26.54200 45.28600
H  45.58400 28.52200 41.97800
H  45.10400 26.79400 42.03400
H  46.51800 27.38000 41.09300

