158

Mg 27.08700 49.05300 26.35900
C  24.79100 50.34100 28.90600
C  29.20800 48.02800 28.93500
C  29.13200 47.86900 24.12900
C  25.00900 50.45900 23.96300
N  26.97100 49.19200 28.66800
C  25.87700 49.66800 29.48700
C  26.19200 49.42600 30.99800
C  27.64700 48.83900 30.95100
C  27.98000 48.69600 29.45100
C  28.70800 49.69700 31.73200
C  25.16600 48.43900 31.67300
C  24.36200 49.04100 32.83400
H  24.19400 48.24700 34.11700
N  28.98500 48.20200 26.50400
C  29.68900 47.79500 27.62300
C  30.89000 47.09200 27.29600
C  30.84100 46.97000 25.84400
C  29.61300 47.67900 25.45600
C  31.87600 46.53300 28.29800
C  31.75000 46.34700 24.87000
O  31.60000 46.41300 23.62500
C  32.89700 45.65100 25.38200
N  27.13800 49.22200 24.27000
C  28.06700 48.55900 23.54600
C  27.65800 48.65700 21.98900
C  26.31500 49.39000 22.03900
C  26.08300 49.66300 23.51300
C  28.73000 49.37200 21.10600
C  25.19900 48.53600 21.38900
C  24.36400 47.51300 22.27000
N  25.27400 50.26600 26.36800
C  24.57100 50.72900 25.30200
C  23.38300 51.46700 25.79500
C  23.45500 51.41400 27.22100
C  24.56200 50.61100 27.52000
C  22.30000 52.04000 24.94900
C  22.74500 51.69700 28.46200
O  21.70300 52.27500 28.61500
C  23.66600 51.11100 29.63200
C  24.08200 52.21800 30.49200
O  24.78600 53.19800 30.16500
O  23.59500 52.01500 31.71400
C  24.06300 52.90900 32.78200
H  29.80600 47.63500 29.76000
H  29.64700 47.36500 23.30900
H  24.40800 50.88200 23.15500
H  26.12100 50.40600 31.46900
H  27.63500 47.85800 31.42600
H  28.22200 50.26400 32.52600
H  29.16000 50.42700 31.06200
H  29.51900 49.07800 32.11600
H  25.61300 47.49800 31.99300
H  24.50800 48.05300 30.89500
H  23.35600 49.12600 32.42200
H  24.63700 50.04700 33.15100
H  32.89000 46.79700 27.99700
H  31.92100 45.44500 28.33700
H  31.74600 46.85700 29.33100
H  33.59300 46.38200 25.79400
H  33.13300 44.95100 24.58000
H  32.58800 45.01900 26.21400
H  27.45100 47.62400 21.70800
H  26.34400 50.40000 21.62900
H  29.01100 48.71100 20.28500
H  29.66500 49.60600 21.61500
H  28.34100 50.29500 20.67700
H  25.57700 48.00400 20.51600
H  24.44300 49.09300 20.83500
H  23.33000 47.84700 22.34800
H  24.68200 47.29900 23.29000
H  24.42900 46.62300 21.64400
H  21.74900 51.39800 24.26200
H  22.77800 52.79800 24.32900
H  21.61100 52.34400 25.73700
H  23.04900 50.36000 30.12500
H  24.02900 53.93800 32.42300
H  25.11000 52.69200 32.99300
H  23.29500 52.84500 33.55200
Mg -10.55500 39.11700 39.74600
C  -9.78100 35.73100 39.63700
C  -7.11500 39.70000 39.17900
C  -11.29700 42.28500 39.55800
C  -13.86700 38.24400 40.43900
N  -8.60900 37.87800 39.45800
C  -8.59200 36.50600 39.51500
C  -7.14100 35.95400 39.19700
C  -6.30700 37.26700 39.47200
C  -7.39100 38.35600 39.39000
C  -5.59900 37.36000 40.84700
C  -7.05800 35.23600 37.81500
C  -7.41400 35.99900 36.48800
H  -8.76400 35.86300 35.86000
N  -9.42100 40.80100 39.28800
C  -8.03700 40.83300 39.10900
C  -7.67100 42.20200 38.81400
C  -8.78900 43.05700 39.00500
C  -9.91900 42.08300 39.35500
C  -6.25200 42.66300 38.67400
C  -8.86800 44.57800 38.92400
O  -7.91800 45.18500 38.42500
C  -10.07300 45.39300 39.33400
N  -12.39700 40.06000 39.88200
C  -12.42700 41.39800 39.74200
C  -13.78900 41.99700 39.95700
C  -14.65600 40.68900 40.36800
C  -13.57000 39.56600 40.20100
C  -13.94800 43.22400 40.92700
C  -15.89400 40.52800 39.44500
C  -17.12700 40.25700 40.23600
N  -11.63700 37.31000 39.96300
C  -12.99100 37.14300 40.30500
C  -13.23500 35.79300 40.38000
C  -12.03700 35.13900 40.06000
C  -11.09700 36.13900 39.76300
C  -14.51600 35.17400 40.71900
C  -11.48100 33.88600 39.89700
O  -12.06700 32.82800 39.97000
C  -9.89700 34.15900 39.55700
C  -9.06000 33.35800 40.45300
O  -9.21500 33.16200 41.66200
O  -8.00400 32.91700 39.80300
C  -6.83800 32.40900 40.51000
H  -6.06800 39.90500 38.94200
H  -11.62400 43.32700 39.55000
H  -14.94600 38.14100 40.56700
H  -7.11200 35.25100 40.02900
H  -5.47900 37.32700 38.76600
H  -6.04600 38.12900 41.47700
H  -4.53600 37.56600 40.71900
H  -5.66100 36.40300 41.36600
H  -7.59100 34.28600 37.80800
H  -6.05600 34.83000 37.67200
H  -6.72500 35.70900 35.69600
H  -7.14900 37.05500 36.54900
H  -6.12900 43.48400 37.96700
H  -5.63700 41.81500 38.37200
H  -5.97700 43.07900 39.64300
H  -10.25400 45.15100 40.38100
H  -10.98100 45.23200 38.75300
H  -9.83700 46.44400 39.16200
H  -14.08200 42.27400 38.94400
H  -14.98700 40.63700 41.40500
H  -14.93100 43.17000 41.39400
H  -13.89300 44.11100 40.29500
H  -13.11000 43.35700 41.61100
H  -15.74600 39.67100 38.78700
H  -15.97400 41.33900 38.72000
H  -16.93100 40.60700 41.24900
H  -17.37800 39.19600 40.25200
H  -17.98100 40.87400 39.95600
H  -14.97400 34.89700 39.76900
H  -15.15200 35.84000 41.30100
H  -14.38300 34.25300 41.28700
H  -9.79100 33.92000 38.49900
H  -6.37100 31.51700 40.09200
H  -7.16000 32.11800 41.51000
H  -6.09700 33.20300 40.59900

