158

Mg 25.00700 -6.38500 47.73800
C  26.23600 -3.56500 46.08000
C  22.13700 -6.20000 45.55600
C  24.15800 -9.38600 48.59200
C  28.00600 -6.65800 49.34700
N  24.34600 -5.15300 45.99700
C  25.00100 -3.99500 45.58000
C  24.28300 -3.29900 44.36700
C  22.87300 -3.95300 44.51200
C  23.10800 -5.15200 45.39100
C  21.68500 -3.07800 44.95300
C  25.04000 -3.66200 43.05000
C  25.48500 -2.44800 42.18100
H  24.72100 -2.35800 40.83000
N  23.31300 -7.59600 47.19000
C  22.25600 -7.35800 46.39400
C  21.27400 -8.42500 46.51100
C  21.81700 -9.39900 47.43100
C  23.21100 -8.86800 47.74300
C  19.98100 -8.45800 45.68500
C  21.11200 -10.63100 47.93600
O  20.00200 -10.80600 47.51700
C  21.66000 -11.61500 49.01800
N  25.95600 -7.84600 48.86400
C  25.37800 -8.99900 49.12900
C  26.26600 -9.97200 50.01500
C  27.54700 -9.02900 50.22400
C  27.21200 -7.78900 49.39700
C  25.56300 -10.35600 51.29900
C  28.87400 -9.78100 49.85900
C  29.34400 -9.85800 48.39300
N  26.80300 -5.34700 47.83900
C  27.82800 -5.50600 48.63800
C  28.66500 -4.34000 48.53200
C  28.11100 -3.54600 47.48700
C  26.94900 -4.23200 47.08400
C  29.98000 -4.17400 49.22300
C  28.20300 -2.38200 46.59800
O  29.11700 -1.54000 46.52300
C  26.90900 -2.32200 45.81200
C  26.00500 -1.24700 46.44700
O  26.27000 -0.01600 46.27600
O  24.92700 -1.70600 47.21500
C  24.05500 -0.75500 47.81900
H  21.27200 -6.09900 44.89800
H  23.86700 -10.41900 48.79500
H  28.93300 -6.66400 49.92500
H  24.16100 -2.22300 44.49100
H  22.60000 -4.25200 43.50000
H  21.74900 -1.99300 44.87600
H  21.52500 -3.28400 46.01100
H  20.78800 -3.38700 44.41600
H  24.39700 -4.24900 42.39400
H  25.88800 -4.29900 43.30000
H  26.55600 -2.42800 41.97700
H  25.27000 -1.49600 42.66500
H  19.74500 -9.43500 45.26200
H  20.17000 -7.85100 44.79900
H  19.14800 -8.06900 46.27000
H  22.50400 -12.14300 48.57500
H  20.92500 -12.37900 49.27100
H  21.88100 -11.02300 49.90600
H  26.50500 -10.81900 49.37200
H  27.55000 -8.72700 51.27100
H  24.72000 -9.75700 51.64600
H  26.23700 -10.42200 52.15400
H  25.29700 -11.40100 51.14200
H  28.67700 -10.79500 50.20800
H  29.69600 -9.35600 50.43600
H  30.35900 -9.49400 48.24000
H  28.66600 -9.27300 47.77200
H  29.27300 -10.89900 48.07600
H  29.79000 -4.32900 50.28500
H  30.44900 -3.19500 49.12800
H  30.66200 -4.98300 48.95700
H  27.14600 -2.12400 44.76700
H  23.56300 -1.19400 48.68700
H  23.22800 -0.50700 47.15200
H  24.51700 0.16700 48.17100
Mg 30.30100 59.37800 39.15700
C  27.18300 58.06200 38.25500
C  31.74900 56.53500 38.02100
C  33.15100 60.99400 39.44600
C  28.65900 62.49600 39.87200
N  29.55800 57.53200 38.21900
C  28.22000 57.20300 37.92300
C  28.18600 55.81100 37.20200
C  29.63100 55.22500 37.36700
C  30.36300 56.49300 37.94500
C  29.72100 53.94600 38.28400
C  27.67700 55.93800 35.71400
C  26.77600 54.79200 35.18100
H  25.87100 55.05400 33.98100
N  32.17400 58.86900 38.87300
C  32.64400 57.63200 38.42100
C  34.07900 57.60200 38.48700
C  34.52500 58.88500 38.90000
C  33.27400 59.66900 39.10100
C  34.82900 56.50100 37.97900
C  35.93600 59.21400 38.94100
O  36.78000 58.44600 38.57600
C  36.56500 60.45100 39.55200
N  30.82500 61.44200 39.60500
C  32.07100 61.81100 39.74400
C  32.22800 63.34300 40.03100
C  30.75000 63.73000 40.42400
C  30.03700 62.47900 39.85800
C  33.18400 63.82300 41.20200
C  30.26000 65.02300 39.61500
C  29.24200 65.93700 40.29900
N  28.36600 60.21100 39.06500
C  27.87800 61.44800 39.37500
C  26.47300 61.52700 39.28800
C  26.11000 60.19500 38.90100
C  27.33700 59.44200 38.75300
C  25.51800 62.63400 39.65400
C  25.09200 59.29100 38.50100
O  23.87800 59.52000 38.43000
C  25.71600 57.96100 38.11500
C  25.19700 56.83600 38.92000
O  25.18400 56.73200 40.14100
O  24.70700 55.87300 38.05000
C  24.34700 54.61100 38.75300
H  32.15700 55.56800 37.72000
H  34.13900 61.41500 39.64400
H  28.24100 63.47200 40.12900
H  27.43800 55.26200 37.77500
H  30.12100 55.01500 36.41500
H  28.77100 53.69400 38.75500
H  30.54400 54.09600 38.98300
H  29.99600 53.16900 37.57000
H  28.58900 55.92600 35.11600
H  27.09600 56.84500 35.54800
H  26.18700 54.68100 36.09100
H  27.40400 53.91100 35.05200
H  35.57300 56.80300 37.24100
H  34.22700 55.65800 37.64100
H  35.32900 56.14600 38.87900
H  37.53000 60.16700 39.97100
H  35.90300 60.75100 40.36400
H  36.55600 61.31300 38.88500
H  32.61000 63.76100 39.10000
H  30.61400 63.76300 41.50500
H  33.91000 63.01900 41.32800
H  32.74600 64.04200 42.17500
H  33.65000 64.67900 40.71300
H  29.73400 64.64800 38.73600
H  31.10700 65.58800 39.22700
H  29.26300 65.78200 41.37800
H  28.25600 65.61400 39.96400
H  29.55900 66.94400 40.03100
H  24.52200 62.27500 39.39600
H  25.93000 63.50600 39.14800
H  25.62300 62.72800 40.73500
H  25.47900 57.79600 37.06400
H  24.05600 53.88300 37.99700
H  23.44900 54.76400 39.35200
H  25.07700 54.15600 39.42200

