158

Mg 2.44100 -0.84900 43.23500
C  5.87200 0.01600 43.13200
C  1.71800 2.13000 41.83900
C  -0.74700 -1.98700 42.81700
C  3.47500 -4.13200 43.97800
N  3.74800 0.71800 42.43100
C  5.06200 0.96900 42.57000
C  5.40400 2.33800 42.08800
C  4.01300 3.13600 42.29800
C  3.08700 1.95500 42.19400
C  3.83800 4.00500 43.63000
C  5.78700 2.40500 40.54800
C  5.64000 1.10400 39.72900
H  6.38200 1.02400 38.41300
N  0.68800 -0.02000 42.40900
C  0.62300 1.26400 41.86300
C  -0.72800 1.56200 41.53000
C  -1.43900 0.39800 41.89500
C  -0.55000 -0.58600 42.40500
C  -1.17700 2.87700 40.91600
C  -2.99000 0.31800 41.88000
O  -3.64500 1.22500 41.35200
C  -3.70800 -0.73300 42.46200
N  1.47900 -2.80700 43.56100
C  0.13700 -3.03600 43.25200
C  -0.15000 -4.51500 43.03800
C  1.22500 -5.11100 43.45000
C  2.13400 -3.94700 43.67500
C  -1.39100 -5.04800 43.90300
C  1.72200 -6.12700 42.34800
C  1.72600 -7.63000 42.59200
N  4.26800 -1.88100 43.65400
C  4.48800 -3.16200 43.97500
C  5.87700 -3.34100 44.34300
C  6.51700 -2.12000 43.99800
C  5.49700 -1.24700 43.57500
C  6.65300 -4.60100 44.71800
C  7.79800 -1.39200 43.85300
O  8.96100 -1.70100 44.03300
C  7.37200 0.07100 43.28400
C  7.72500 1.19600 44.20000
O  8.55200 2.01900 43.95900
O  6.99500 1.15800 45.36500
C  7.21000 2.23800 46.28200
H  1.41800 3.14600 41.57700
H  -1.68800 -2.42000 42.47300
H  3.75900 -5.18300 44.06400
H  6.20800 2.71500 42.72000
H  3.88300 3.78200 41.43000
H  3.44600 5.01200 43.49000
H  4.72800 3.83700 44.23700
H  2.97500 3.59500 44.15400
H  6.76100 2.84500 40.33300
H  5.12400 3.11600 40.05500
H  4.59400 0.80200 39.66800
H  6.10100 0.31800 40.32800
H  -1.69400 2.68500 39.97600
H  -0.34300 3.55800 40.75200
H  -1.89100 3.42300 41.53300
H  -3.39100 -0.89400 43.49200
H  -3.77300 -1.62700 41.84100
H  -4.77700 -0.54000 42.54700
H  -0.31400 -4.60400 41.96500
H  1.15300 -5.70100 44.36300
H  -1.88000 -4.18300 44.35000
H  -1.13700 -5.71000 44.73200
H  -2.02700 -5.67700 43.28000
H  2.73100 -5.89600 42.00500
H  1.03400 -6.11600 41.50300
H  2.78200 -7.86900 42.71700
H  1.35700 -8.21800 41.75200
H  1.13600 -7.94600 43.45300
H  6.86100 -4.81200 45.76700
H  7.63200 -4.63500 44.23900
H  6.08300 -5.45500 44.35200
H  7.89300 0.25300 42.34400
H  6.41700 2.16700 47.02600
H  7.10500 3.17000 45.72700
H  8.14200 2.17600 46.84300
Mg 46.35400 34.87100 27.67100
C  44.92400 33.13000 30.33200
C  46.98300 37.53400 29.95300
C  47.85700 36.67100 25.17800
C  45.58000 32.34200 25.51300
N  46.10700 35.26500 29.87000
C  45.38900 34.43200 30.69600
C  45.46900 34.92600 32.09800
C  45.66300 36.49600 31.95000
C  46.28800 36.45600 30.49300
C  44.34200 37.33800 32.04800
C  46.67000 34.26700 32.85800
C  46.42800 33.99900 34.38200
H  45.42400 34.88300 35.13500
N  47.34600 36.77300 27.59700
C  47.44900 37.66000 28.63000
C  48.09200 38.85000 28.06800
C  48.46800 38.65100 26.74600
C  47.92100 37.28900 26.46400
C  48.50500 40.04600 28.86200
C  49.22600 39.54900 25.66600
O  49.35800 39.18100 24.48600
C  49.56200 40.96100 26.00800
N  46.62700 34.46400 25.61600
C  47.27500 35.35000 24.83400
C  47.35600 34.77800 23.38800
C  46.43400 33.47000 23.42200
C  46.16900 33.36200 24.91300
C  47.05600 35.85200 22.33500
C  47.01100 32.12200 22.78400
C  46.21400 31.42400 21.61600
N  45.52700 33.12500 27.85400
C  45.32900 32.16600 26.91800
C  44.82800 30.92700 27.53800
C  44.63300 31.32500 28.87700
C  45.09500 32.59100 29.05100
C  44.62800 29.62600 26.87600
C  44.19600 30.75900 30.16900
O  43.79600 29.68900 30.54200
C  44.14300 32.01800 31.05300
C  44.67800 31.71600 32.41000
O  45.72900 31.19000 32.69500
O  43.72400 32.00200 33.31400
C  43.88900 31.45100 34.67100
H  47.30400 38.27200 30.69100
H  48.29900 37.30900 24.41000
H  45.23500 31.51300 24.89200
H  44.54300 34.81500 32.66200
H  46.37000 37.04000 32.57600
H  43.58100 36.59100 32.27100
H  44.12800 37.85300 31.11100
H  44.39200 38.03300 32.88600
H  47.55400 34.90500 32.85000
H  47.01000 33.41900 32.26400
H  47.34500 34.32700 34.87100
H  46.37500 32.92900 34.58200
H  49.41400 39.66200 29.32600
H  47.84500 40.18500 29.71900
H  48.72100 40.94800 28.29000
H  50.30300 40.98400 26.80700
H  48.61600 41.43600 26.26700
H  50.05400 41.45700 25.17100
H  48.35600 34.41700 23.14600
H  45.47100 33.73800 22.98600
H  46.35800 35.49400 21.57900
H  47.94600 36.11700 21.76400
H  46.59100 36.78500 22.65200
H  47.25700 31.34600 23.50900
H  47.96400 32.37400 22.32000
H  46.84900 31.25900 20.74500
H  45.34400 31.94100 21.21200
H  45.91200 30.42800 21.93900
H  45.45300 29.35300 26.21800
H  43.74000 29.57600 26.24600
H  44.54600 28.79300 27.57400
H  43.08400 32.27300 31.08100
H  44.89800 31.18900 34.99000
H  43.31800 30.54200 34.86100
H  43.49900 32.20500 35.35500

