158

Mg 9.20600 48.76800 26.27200
C  7.10300 48.92600 28.99500
C  11.73800 49.99300 28.14300
C  11.15900 48.76300 23.51500
C  6.39400 48.12900 24.18800
N  9.30500 49.54600 28.30300
C  8.36300 49.40600 29.25800
C  8.82100 49.88400 30.66500
C  10.30000 50.44300 30.29700
C  10.45800 50.00400 28.80800
C  10.43200 51.96700 30.48700
C  8.78900 48.80900 31.81700
C  9.80400 48.66400 32.91300
H  9.54300 47.62200 34.04700
N  11.24300 49.21100 25.89400
C  12.09800 49.74100 26.82000
C  13.40300 49.84000 26.13800
C  13.27500 49.40400 24.81300
C  11.82200 49.08800 24.68500
C  14.67000 50.09600 26.90300
C  14.29500 49.15200 23.66600
O  14.01900 48.64600 22.52700
C  15.78400 49.41600 23.93500
N  8.79700 48.67200 24.11300
C  9.82600 48.51800 23.24800
C  9.26600 47.99200 21.85800
C  7.79400 47.71400 22.19800
C  7.60100 48.28400 23.53800
C  9.44400 49.05100 20.64700
C  7.43400 46.18000 22.02100
C  6.13300 45.97900 21.35000
N  7.17100 48.37800 26.46300
C  6.15800 48.17600 25.56100
C  4.87700 48.02500 26.29500
C  5.23300 48.26800 27.67000
C  6.61300 48.48100 27.70200
C  3.59200 47.94400 25.68100
C  4.64600 48.27800 29.04100
O  3.55000 48.00200 29.41900
C  5.84200 48.67100 29.93400
C  5.92500 47.60200 30.84000
O  6.59200 46.61000 30.67500
O  5.10300 47.77300 31.92000
C  4.96500 46.64700 32.90100
H  12.51400 50.33100 28.83300
H  11.78600 48.50400 22.65900
H  5.49100 47.83400 23.65000
H  8.28800 50.70200 31.14900
H  11.02600 49.87900 30.88300
H  9.41800 52.36600 30.51700
H  11.09500 52.56400 29.86100
H  10.85200 52.03500 31.49000
H  8.75100 47.76600 31.50100
H  7.88400 48.84500 32.42300
H  9.91500 49.62000 33.42500
H  10.71400 48.31800 32.42300
H  14.46300 49.90500 27.95600
H  15.10700 51.06900 26.67600
H  15.44700 49.37300 26.65600
H  16.41300 49.23700 23.06300
H  16.18700 48.73800 24.68700
H  15.82500 50.41100 24.37800
H  9.77100 47.09400 21.50300
H  7.09400 48.22800 21.53900
H  10.03500 49.91600 20.94600
H  8.60300 49.69500 20.39000
H  9.97200 48.66300 19.77500
H  7.30700 45.80300 23.03600
H  8.33100 45.72200 21.60200
H  5.61400 45.06600 21.64200
H  6.23600 45.91800 20.26700
H  5.44400 46.78900 21.58500
H  3.27400 46.91900 25.87500
H  3.81100 48.12400 24.62900
H  3.00000 48.75600 26.10300
H  5.53300 49.61300 30.38700
H  4.00600 46.27400 32.54000
H  4.83000 47.03400 33.91100
H  5.71300 45.85900 32.98200
Mg -11.71500 37.82700 42.03900
C  -9.10900 35.32800 41.33200
C  -9.76000 40.13200 40.67900
C  -14.33600 39.69100 42.32200
C  -13.73100 35.03000 43.06400
N  -9.56000 37.71500 41.04600
C  -8.74100 36.61100 40.82700
C  -7.68900 37.07200 39.82900
C  -7.66500 38.67200 39.99800
C  -9.09300 38.86000 40.60800
C  -6.55700 39.17400 41.02000
C  -7.80400 36.57700 38.34000
C  -6.53000 35.99500 37.75200
H  -5.63200 36.69900 36.75900
N  -11.96700 39.66700 41.59800
C  -11.01700 40.48600 41.09200
C  -11.51600 41.82400 41.08500
C  -12.85800 41.72400 41.52900
C  -13.13600 40.28100 41.78900
C  -10.79800 42.96400 40.49600
C  -13.82400 42.91500 41.64900
O  -13.35700 44.02400 41.37700
C  -15.27100 42.76600 42.01500
N  -13.85900 37.38000 42.40300
C  -14.73100 38.41900 42.61800
C  -16.14800 37.92400 42.98100
C  -15.90800 36.37900 43.29600
C  -14.37900 36.25100 42.91500
C  -16.77600 38.68800 44.12000
C  -16.72600 35.39400 42.46600
C  -18.07100 35.06500 42.98300
N  -11.53400 35.63100 42.27800
C  -12.37500 34.72400 42.73600
C  -11.68000 33.46500 42.88700
C  -10.48300 33.66300 42.27500
C  -10.38200 35.01500 41.94700
C  -12.30500 32.21500 43.57700
C  -9.24400 33.04700 41.97600
O  -8.91400 31.89600 42.25900
C  -8.26900 34.11000 41.25500
C  -7.00400 34.17400 42.06600
O  -6.81600 34.67600 43.15700
O  -6.06200 33.35900 41.39000
C  -4.96900 33.07300 42.28900
H  -9.11100 40.94400 40.34400
H  -15.16700 40.39200 42.41700
H  -14.32700 34.21900 43.48900
H  -6.75300 36.81500 40.32500
H  -7.67400 39.14900 39.01800
H  -6.87700 39.16200 42.06200
H  -6.21300 40.15900 40.70500
H  -5.64400 38.59900 41.17500
H  -7.91700 37.43000 37.67000
H  -8.65300 35.90700 38.20000
H  -6.84400 35.07700 37.25400
H  -5.83700 35.80900 38.57300
H  -11.02500 43.16900 39.45000
H  -9.73800 42.87000 40.73200
H  -10.95200 43.87700 41.07200
H  -15.74000 42.37500 41.11200
H  -15.61300 43.79900 42.07000
H  -15.36700 42.24800 42.96900
H  -16.84100 38.06900 42.15200
H  -16.17100 36.09900 44.31600
H  -17.75800 38.94800 43.72500
H  -16.18300 39.55600 44.40700
H  -16.92600 38.17100 45.06800
H  -16.15500 34.49400 42.23800
H  -16.83300 35.85500 41.48400
H  -18.07900 33.97500 42.98400
H  -18.74900 35.46700 42.23000
H  -18.25700 35.43500 43.99100
H  -11.88100 31.30900 43.14300
H  -13.38200 32.28100 43.42400
H  -12.26700 32.20600 44.66600
H  -8.08700 33.63900 40.29000
H  -5.36400 32.37100 43.02300
H  -4.54900 33.94100 42.79500
H  -4.11100 32.60800 41.80200

