158

Mg 16.48300 -2.57000 28.15900
C  15.89500 -0.44200 30.90300
C  17.83400 -4.81300 30.41900
C  17.66000 -4.42200 25.50700
C  15.29600 -0.35000 26.07500
N  16.91400 -2.61200 30.48300
C  16.52200 -1.63900 31.27900
C  16.86000 -2.04600 32.75000
C  17.77900 -3.32500 32.55000
C  17.46300 -3.65900 31.09200
C  19.29900 -2.96700 32.77600
C  15.61900 -2.45400 33.56900
C  15.36800 -1.65500 34.87600
H  16.66800 -1.19400 35.64700
N  17.51000 -4.44500 27.97300
C  17.84500 -5.22300 29.01700
C  18.38200 -6.47800 28.48500
C  18.24400 -6.42200 27.04400
C  17.77200 -5.03900 26.77300
C  18.88300 -7.57600 29.36200
C  18.58600 -7.47600 25.97500
O  18.38000 -7.27800 24.74700
C  19.24500 -8.77700 26.51900
N  16.55400 -2.33400 26.08700
C  17.07600 -3.22800 25.19000
C  16.95300 -2.72600 23.77400
C  15.88000 -1.62600 23.97800
C  15.80700 -1.46500 25.48400
C  18.27100 -2.18000 23.21400
C  14.40000 -1.77800 23.38300
C  13.11300 -1.97100 24.22000
N  15.71900 -0.76700 28.34100
C  15.26600 0.03800 27.38400
C  14.67600 1.17300 27.93800
C  14.87900 1.08200 29.34900
C  15.57500 -0.13900 29.48000
C  13.99300 2.29800 27.22800
C  14.68600 1.59300 30.67700
O  14.16800 2.63700 31.04500
C  15.37800 0.63600 31.72800
C  16.41700 1.48600 32.33200
O  17.58900 1.41800 32.03300
O  15.85300 2.42600 33.13500
C  16.70400 3.48900 33.67500
H  18.26400 -5.46800 31.17900
H  18.05000 -5.05300 24.70600
H  14.90400 0.44700 25.44000
H  17.39300 -1.20400 33.19200
H  17.74700 -4.13100 33.28400
H  19.51500 -1.96500 33.14600
H  19.86200 -3.15900 31.86200
H  19.66000 -3.54700 33.62400
H  15.46200 -3.53200 33.58700
H  14.88900 -2.05900 32.86200
H  14.91600 -2.25500 35.66500
H  14.69300 -0.88400 34.50600
H  18.50500 -8.58400 29.19600
H  18.42000 -7.44000 30.33900
H  19.95700 -7.51800 29.54300
H  20.04200 -8.52600 27.21900
H  19.72400 -9.31900 25.70400
H  18.50000 -9.43100 26.97300
H  16.51100 -3.54600 23.20800
H  16.16400 -0.67400 23.52700
H  18.95800 -1.83000 23.98500
H  18.10800 -1.30600 22.58300
H  19.01400 -2.77100 22.67800
H  14.38400 -2.57100 22.63400
H  14.19300 -0.84500 22.85900
H  12.74200 -1.02900 24.62500
H  13.31900 -2.51800 25.14000
H  12.44400 -2.55000 23.58400
H  12.98600 1.93900 27.01300
H  14.56400 2.51300 26.32500
H  13.95700 3.25100 27.75500
H  14.69800 0.28000 32.50200
H  16.09500 4.05200 34.38200
H  17.01800 4.17400 32.88700
H  17.59000 3.02200 34.10500
Mg -10.86100 40.07000 42.15900
C  -9.56700 36.83400 41.44700
C  -8.10600 41.39200 40.60500
C  -12.32700 43.02600 42.32700
C  -13.88100 38.52400 43.02500
N  -9.10300 39.15600 40.98600
C  -8.72800 37.86300 40.98600
C  -7.45600 37.71300 40.12900
C  -6.90000 39.19700 40.07900
C  -8.11100 39.97900 40.54700
C  -5.62300 39.49800 40.80700
C  -7.77300 36.98300 38.78400
C  -6.78600 35.90100 38.36100
H  -5.76200 36.34900 37.26000
N  -10.26700 41.99100 41.61400
C  -9.09000 42.30500 41.00900
C  -8.96000 43.67400 40.90100
C  -10.12600 44.23100 41.52500
C  -11.01800 43.09400 41.79700
C  -7.77000 44.36800 40.30300
C  -10.40300 45.68500 41.87600
O  -9.58500 46.55500 41.58500
C  -11.63600 46.22900 42.63500
N  -12.85100 40.65500 42.47000
C  -13.19000 41.94500 42.56400
C  -14.61500 42.23700 43.02800
C  -15.14300 40.74400 43.16800
C  -13.92200 39.92600 42.88800
C  -14.65200 43.00300 44.38000
C  -16.24000 40.40600 42.13700
C  -17.57800 39.88300 42.77900
N  -11.63500 38.10400 42.29600
C  -12.82000 37.64800 42.77300
C  -12.81400 36.16200 42.81700
C  -11.51900 35.83900 42.28100
C  -10.87700 37.05800 41.92700
C  -13.92600 35.14600 43.23200
C  -10.61700 34.78700 41.93300
O  -10.82200 33.55700 42.07500
C  -9.32000 35.34600 41.31800
C  -8.23800 34.86200 42.14900
O  -7.87100 35.30800 43.18100
O  -7.68400 33.76800 41.48000
C  -6.37100 33.36400 41.93700
H  -7.24300 41.86700 40.13300
H  -12.82900 43.99200 42.41200
H  -14.84800 38.16100 43.37800
H  -6.73200 37.19900 40.76000
H  -6.78300 39.37900 39.01100
H  -4.97800 38.62300 40.89400
H  -5.75000 39.84500 41.83300
H  -5.00300 40.23800 40.30100
H  -7.70400 37.77600 38.03900
H  -8.82200 36.68800 38.75900
H  -7.40400 35.04400 38.09600
H  -6.20900 35.56200 39.22100
H  -8.01900 44.88100 39.37400
H  -6.88300 43.75100 40.15800
H  -7.35900 45.01800 41.07600
H  -12.56300 46.27900 42.06400
H  -11.31800 47.22100 42.95800
H  -11.70000 45.58200 43.51000
H  -15.09400 42.87700 42.28800
H  -15.42400 40.48500 44.18900
H  -13.66900 43.29700 44.74900
H  -15.25300 42.44200 45.09500
H  -15.14600 43.97300 44.32400
H  -15.95100 39.69300 41.36600
H  -16.45300 41.29900 41.54900
H  -18.30300 39.67100 41.99300
H  -18.18500 40.60200 43.32800
H  -17.50700 38.92100 43.28500
H  -13.44200 34.39700 43.85800
H  -14.54500 34.91000 42.36700
H  -14.52700 35.68600 43.96400
H  -9.36700 34.81200 40.36900
H  -5.88400 32.61700 41.31000
H  -6.35200 33.09800 42.99400
H  -5.66700 34.19500 41.94500

