158

Mg 0.99500 7.75500 25.90100
C  1.83500 9.84300 28.52200
C  1.52400 5.01800 28.12100
C  1.21700 5.61100 23.31700
C  1.16600 10.46300 23.77000
N  1.55200 7.50900 28.06500
C  1.85000 8.54700 28.97600
C  1.89400 7.99000 30.35200
C  2.12400 6.44600 30.11900
C  1.70400 6.30000 28.67900
C  3.60000 6.04400 30.46200
C  0.61900 8.37900 31.08500
C  0.87800 8.81300 32.56600
H  2.09400 8.14600 33.17400
N  1.11400 5.68400 25.75500
C  1.24000 4.72000 26.74400
C  1.26900 3.31500 26.18600
C  1.30600 3.46600 24.71700
C  1.21200 4.93600 24.53400
C  1.40400 2.01700 26.96700
C  1.49600 2.41600 23.67800
O  1.48500 2.63700 22.47600
C  1.46200 0.99800 23.99800
N  1.08400 8.00300 23.89600
C  1.15500 6.97300 23.03900
C  1.09300 7.53000 21.51400
C  0.80200 8.99300 21.76800
C  0.96100 9.22500 23.24300
C  2.46600 7.30600 20.84700
C  -0.66400 9.49300 21.29100
C  -0.62100 10.92900 20.77100
N  1.23200 9.79900 26.08500
C  1.35500 10.75100 25.11500
C  1.53300 12.05600 25.78800
C  1.72700 11.72800 27.16000
C  1.61700 10.35600 27.24800
C  1.69100 13.46300 25.16100
C  2.06200 12.30300 28.44300
O  2.39300 13.44500 28.81800
C  1.92400 11.14100 29.41200
C  3.04300 11.12800 30.38700
O  4.16600 10.65900 30.22700
O  2.66800 11.93100 31.42800
C  3.72700 12.00400 32.49200
H  1.63400 4.15800 28.78600
H  1.26800 5.03200 22.39200
H  1.11600 11.36300 23.15400
H  2.82900 8.39600 30.73800
H  1.51900 5.87000 30.82000
H  4.17400 6.89000 30.83900
H  4.06800 5.73100 29.52800
H  3.52500 5.16300 31.09900
H  -0.08600 7.55600 31.20300
H  0.12600 9.14500 30.48600
H  0.03800 8.59500 33.22700
H  1.15200 9.86300 32.47400
H  0.70700 1.23000 26.68000
H  1.02800 2.27200 27.95800
H  2.47800 1.83800 27.00900
H  2.31600 0.79200 24.64400
H  1.43600 0.32200 23.14300
H  0.50000 0.68200 24.40100
H  0.31900 6.97000 20.98900
H  1.54400 9.61600 21.26800
H  2.51400 6.29700 20.43800
H  3.38900 7.47300 21.40200
H  2.50800 8.00500 20.01100
H  -1.39400 9.44900 22.09900
H  -0.94300 8.73000 20.56600
H  0.38600 11.33400 20.87500
H  -1.28000 11.61300 21.30500
H  -0.89600 10.92600 19.71600
H  1.16400 13.45100 24.20700
H  2.71800 13.82800 25.18600
H  1.12800 14.21300 25.71700
H  1.01900 11.33100 29.99000
H  3.15900 12.38800 33.33900
H  4.57800 12.66900 32.34800
H  4.11200 11.03100 32.79800
Mg 9.32600 3.45900 28.25800
C  11.00900 2.14200 31.12700
C  7.59700 5.61800 30.42900
C  7.70000 4.71000 25.66300
C  10.66000 0.87400 26.40500
N  9.33800 3.84900 30.54000
C  10.11800 3.19400 31.49800
C  9.84000 3.71500 32.90200
C  8.49200 4.59100 32.62000
C  8.38400 4.61500 31.11800
C  7.21700 4.13000 33.39300
C  11.02800 4.54600 33.41100
C  11.62900 4.07300 34.76100
H  10.64100 4.01200 35.97500
N  7.96900 5.00300 28.06600
C  7.42200 5.82800 29.02900
C  6.77400 6.96700 28.37500
C  6.76700 6.63300 26.99500
C  7.48300 5.41200 26.82200
C  6.05300 8.08400 29.19400
C  6.21500 7.48100 25.74100
O  6.36200 7.20100 24.52100
C  5.51600 8.81600 25.98500
N  9.09400 2.79700 26.27500
C  8.50500 3.55500 25.36200
C  8.52600 2.80900 23.96700
C  9.56000 1.70700 24.19900
C  9.71200 1.72800 25.68400
C  7.10600 2.35700 23.45500
C  10.89900 1.83600 23.26700
C  10.80200 1.20800 21.94900
N  10.55500 1.90000 28.63300
C  11.01700 0.91900 27.79500
C  11.83700 -0.03600 28.51900
C  11.92700 0.52800 29.78600
C  11.09300 1.64700 29.87500
C  12.51900 -1.21900 27.97400
C  12.58700 0.33500 31.10000
O  13.38300 -0.52500 31.48300
C  11.89000 1.31500 32.07800
C  11.13200 0.41700 33.03600
O  10.39900 -0.50200 32.74700
O  11.47800 0.77300 34.31700
C  10.65600 0.09000 35.36800
H  7.03100 6.36200 30.99300
H  7.15900 4.99100 24.75700
H  11.02900 -0.02100 25.90100
H  9.56100 2.86300 33.52200
H  8.86700 5.55700 32.95700
H  7.55900 3.52800 34.23500
H  6.60100 3.44200 32.81500
H  6.59500 4.99100 33.63800
H  10.88000 5.61900 33.29000
H  11.81500 4.31300 32.69400
H  12.36800 4.84600 34.97100
H  12.29300 3.21100 34.72100
H  5.02700 8.03700 28.83000
H  6.48900 9.03100 28.87500
H  6.19000 8.07200 30.27600
H  6.31000 9.44900 26.38200
H  4.77800 8.67200 26.77400
H  5.01200 9.25100 25.12200
H  8.98500 3.49400 23.25500
H  9.15500 0.70000 24.10000
H  6.82600 2.83600 22.51700
H  6.41900 2.70100 24.22800
H  7.02400 1.28000 23.30700
H  11.66600 1.37400 23.88900
H  11.15700 2.87900 23.08200
H  11.26800 0.22400 21.89000
H  11.19900 1.83200 21.14900
H  9.73100 1.08700 21.78800
H  13.29700 -0.80000 27.33500
H  11.83600 -1.82400 27.37800
H  12.91600 -1.85200 28.76800
H  12.68000 1.75600 32.68600
H  11.31400 -0.71300 35.69900
H  9.71900 -0.33700 35.01300
H  10.41600 0.79900 36.16100

