158

Mg 47.38700 16.57900 28.35600
C  45.48500 16.58900 31.35400
C  49.70000 18.57700 29.89000
C  48.92600 17.12900 25.42500
C  44.53600 15.31100 26.73500
N  47.50100 17.54500 30.34900
C  46.72300 17.23000 31.42800
C  47.32000 17.73800 32.80600
C  48.52800 18.59200 32.25200
C  48.60500 18.23600 30.74200
C  48.50300 20.13500 32.48200
C  47.84100 16.58500 33.81600
C  47.86100 16.94700 35.27600
H  47.40300 18.35300 35.62300
N  49.16100 17.56400 27.76400
C  50.00500 18.26600 28.57400
C  51.10100 18.78200 27.78200
C  50.99100 18.31100 26.50200
C  49.68500 17.59700 26.49100
C  52.24300 19.53400 28.52600
C  51.83100 18.50000 25.23000
O  51.49600 18.02500 24.14700
C  53.06800 19.24500 25.27000
N  46.87600 16.08100 26.35600
C  47.65600 16.45400 25.32100
C  46.99200 16.18400 23.95700
C  45.67400 15.37400 24.42700
C  45.67600 15.50500 25.91000
C  46.66100 17.50600 23.14300
C  45.52400 13.94600 23.77400
C  44.63200 13.87100 22.45800
N  45.42400 16.00900 28.90100
C  44.38600 15.51200 28.12700
C  43.25600 15.18000 29.02200
C  43.67100 15.56900 30.26700
C  44.98000 16.03400 30.14900
C  42.00500 14.67300 28.67800
C  43.22100 15.80000 31.62800
O  42.07700 15.65600 32.08900
C  44.37200 16.40200 32.43800
C  43.85300 17.69000 33.01500
O  44.12700 18.89400 32.66400
O  43.05200 17.33300 34.10300
C  42.53400 18.48000 34.92200
H  50.46400 19.18900 30.37400
H  49.36600 17.20200 24.42800
H  43.68500 14.88500 26.19900
H  46.62200 18.47500 33.20300
H  49.44000 18.27000 32.75400
H  47.52700 20.47800 32.82800
H  48.77600 20.62300 31.54700
H  49.35900 20.36700 33.11600
H  48.84100 16.31700 33.47700
H  47.10300 15.78300 33.78200
H  48.80500 16.69000 35.75500
H  47.17000 16.21800 35.70000
H  52.75400 18.72500 29.04600
H  51.83700 20.23500 29.25600
H  52.92300 20.08400 27.87500
H  53.40700 19.37900 24.24300
H  53.79700 18.67000 25.84200
H  52.87600 20.18200 25.79300
H  47.57300 15.50000 23.33800
H  44.78200 15.88100 24.06000
H  45.60900 17.78200 23.08100
H  46.98300 17.27500 22.12700
H  47.22100 18.40200 23.41000
H  45.04900 13.18500 24.39300
H  46.56200 13.63200 23.66700
H  44.82000 12.91200 21.97500
H  45.01700 14.53500 21.68400
H  43.55300 13.91500 22.61000
H  41.97700 14.68300 27.58800
H  41.12400 15.05300 29.19400
H  42.17400 13.62300 28.91700
H  44.63400 15.70500 33.23400
H  43.07500 18.56500 35.86500
H  41.48100 18.33600 35.16500
H  42.52600 19.42100 34.37200
Mg 26.82000 51.38000 25.20500
C  24.86900 52.59900 27.85300
C  28.94400 49.97500 27.64500
C  28.75600 50.44700 22.86800
C  24.59200 52.89400 23.06000
N  26.82600 51.22900 27.36300
C  25.91300 51.83500 28.22900
C  26.24700 51.58800 29.65500
C  27.68200 50.95800 29.62400
C  27.84400 50.63500 28.14100
C  28.88300 51.90100 29.99800
C  25.21200 50.60200 30.27100
C  24.66700 51.07500 31.54000
H  25.57200 51.67600 32.64500
N  28.73200 50.31300 25.21000
C  29.46100 49.89500 26.32600
C  30.68400 49.27700 25.84800
C  30.62800 49.45000 24.41300
C  29.30700 50.03800 24.09900
C  31.71100 48.67100 26.76700
C  31.73900 49.07800 23.32400
O  31.64300 49.17200 22.10500
C  33.04500 48.60400 23.86300
N  26.71900 51.73500 23.19000
C  27.67600 51.23400 22.45500
C  27.33900 51.35500 20.93500
C  25.96700 52.11100 21.00600
C  25.70100 52.30800 22.49700
C  28.40300 52.02100 20.07100
C  24.74300 51.31000 20.38400
C  23.91600 52.09200 19.36600
N  25.11600 52.58300 25.37500
C  24.28400 53.08100 24.41800
C  23.16600 53.80700 25.01900
C  23.38400 53.61000 26.39600
C  24.54200 52.87600 26.53300
C  22.14700 54.73200 24.44000
C  22.89200 54.03900 27.70000
O  21.93800 54.76000 27.98900
C  23.81200 53.31300 28.76300
C  24.38800 54.39600 29.63700
O  25.32300 55.07700 29.39700
O  23.59900 54.59100 30.82200
C  23.86400 55.78900 31.68400
H  29.57800 49.52700 28.41300
H  29.05000 49.92700 21.95400
H  23.92500 53.31800 22.30500
H  26.35100 52.53200 30.18900
H  27.78500 50.08800 30.27300
H  28.52000 52.77500 30.54000
H  29.38300 52.23800 29.09000
H  29.58200 51.32700 30.60700
H  25.59300 49.58400 30.34500
H  24.32900 50.41900 29.65900
H  24.16600 50.29400 32.11200
H  23.76000 51.66000 31.38600
H  31.73700 47.59100 26.62100
H  31.45000 48.92400 27.79500
H  32.66000 49.16300 26.55400
H  33.41100 49.50400 24.35700
H  33.75500 48.30800 23.09000
H  33.02800 47.76500 24.55800
H  27.30800 50.34600 20.52500
H  26.17300 53.10400 20.60500
H  27.99400 52.84000 19.47800
H  28.87800 51.31800 19.38800
H  29.15100 52.31300 20.80800
H  24.01900 50.99700 21.13600
H  25.05700 50.43600 19.81300
H  23.98600 51.64500 18.37500
H  24.24800 53.13000 19.35300
H  22.90100 52.24000 19.73600
H  22.24000 54.52600 23.37400
H  22.41500 55.76200 24.67700
H  21.12700 54.50600 24.74900
H  23.23400 52.57800 29.32300
H  24.86600 55.56800 32.05000
H  23.17000 55.86800 32.52100
H  23.92000 56.72600 31.13000

