158

Mg 44.06200 3.00600 47.46400
C  42.15900 5.79600 46.70500
C  41.29700 1.02800 47.36500
C  46.04800 0.31600 47.57200
C  46.95200 5.03900 47.17700
N  41.92300 3.39500 47.04300
C  41.40800 4.61600 46.72300
C  39.88700 4.42500 46.51200
C  39.61300 2.94400 46.91200
C  41.03600 2.40200 47.13300
C  38.68400 2.66100 48.11200
C  39.38700 4.63300 45.02200
C  37.98500 5.10700 44.63500
H  38.01400 5.99900 43.45500
N  43.73000 0.93600 47.39900
C  42.52200 0.31000 47.41700
C  42.72100 -1.03600 47.52900
C  44.11300 -1.34000 47.52400
C  44.73300 0.00100 47.52000
C  41.56400 -2.00000 47.72900
C  44.74100 -2.75700 47.61600
O  44.03700 -3.80300 47.65900
C  46.24100 -2.90200 47.73700
N  46.18800 2.71200 47.41300
C  46.74700 1.47400 47.54100
C  48.27500 1.56900 47.64100
C  48.57700 3.15500 47.74500
C  47.20100 3.64700 47.41300
C  48.97700 0.65100 48.69500
C  49.67100 3.55500 46.73000
C  49.09600 3.62600 45.25800
N  44.49800 5.00400 47.02300
C  45.71200 5.71200 47.04800
C  45.52600 7.11000 46.86500
C  44.14700 7.18400 46.74500
C  43.59300 5.89200 46.83000
C  46.62800 8.13300 46.76400
C  43.00500 8.03500 46.50900
O  42.93900 9.23900 46.25400
C  41.68600 7.23900 46.48700
C  40.78000 7.82000 47.62000
O  40.91000 7.39200 48.77700
O  39.87300 8.74400 47.21000
C  38.77500 8.97800 48.14600
H  40.40600 0.40200 47.45300
H  46.69800 -0.56200 47.56500
H  47.84000 5.67400 47.14700
H  39.35200 5.10000 47.18000
H  39.14900 2.41400 46.08100
H  38.09500 3.53000 48.40500
H  39.23800 2.17400 48.91500
H  38.01900 1.83700 47.85700
H  39.47400 3.67300 44.51300
H  40.13400 5.32000 44.62600
H  37.46100 5.49900 45.50600
H  37.55300 4.16000 44.31300
H  41.77700 -3.03700 47.47100
H  40.66800 -1.69300 47.19000
H  41.35200 -1.99100 48.79900
H  46.77600 -2.59300 46.83900
H  46.56400 -3.90900 48.00200
H  46.63000 -2.26800 48.53400
H  48.62800 1.20700 46.67500
H  48.70500 3.51400 48.76600
H  48.14200 0.12100 49.15400
H  49.40100 1.24800 49.50200
H  49.73400 0.02500 48.22300
H  50.54500 2.90400 46.72800
H  49.90100 4.57000 47.05500
H  48.67000 4.61000 45.06200
H  48.24300 2.95600 45.16100
H  49.87400 3.30300 44.56600
H  46.29400 9.08600 46.35400
H  47.44300 7.95200 46.06300
H  47.03700 8.38800 47.74100
H  41.31700 7.35300 45.46700
H  38.79700 9.93300 48.67100
H  38.67400 8.17200 48.87300
H  37.80500 8.86100 47.66400
Mg 46.59700 24.73200 28.02900
C  47.39900 27.16500 30.51100
C  45.85400 22.53300 30.44500
C  46.32900 22.32700 25.50800
C  47.68700 26.84400 25.61800
N  46.67600 24.80700 30.24900
C  46.82600 25.99900 31.01600
C  46.54800 25.73400 32.53700
C  45.94900 24.30800 32.39700
C  46.16100 23.80100 30.98200
C  46.47800 23.16600 33.29700
C  45.52500 26.71100 33.19500
C  45.81000 27.08300 34.63800
H  44.69300 27.04200 35.62400
N  46.09000 22.75100 28.06100
C  45.78400 21.98700 29.12400
C  45.53200 20.63900 28.72900
C  45.84600 20.50600 27.34000
C  46.14600 21.88900 26.89700
C  45.05000 19.55700 29.68900
C  45.92900 19.27500 26.44900
O  46.23500 19.21500 25.26800
C  45.77700 17.92800 27.13800
N  46.95500 24.56500 25.81400
C  46.57600 23.57200 24.98700
C  46.79700 23.92600 23.48000
C  46.98000 25.46200 23.63300
C  47.27100 25.62200 25.11200
C  47.95300 23.19700 22.86500
C  45.83500 26.31400 23.00700
C  44.33700 25.95900 23.42200
N  47.39500 26.57200 27.97000
C  47.76100 27.39300 26.93000
C  48.29100 28.63900 27.31900
C  48.14400 28.59300 28.73400
C  47.54900 27.32200 29.11400
C  48.77900 29.69000 26.45400
C  48.45700 29.27900 29.93800
O  48.93100 30.41000 30.10700
C  47.80400 28.50400 31.09200
C  48.85600 28.34900 32.16600
O  49.87100 27.64300 32.08200
O  48.44600 29.07700 33.29800
C  49.29600 28.86900 34.47600
H  45.36800 21.83100 31.12500
H  46.17100 21.50500 24.80800
H  47.82400 27.66700 24.91300
H  47.51800 25.67400 33.03000
H  44.86500 24.25200 32.49200
H  46.66400 23.51600 34.31300
H  47.21800 22.50700 32.84300
H  45.62700 22.50400 33.45300
H  44.48200 26.43500 33.04400
H  45.60100 27.67100 32.68300
H  46.29300 28.05000 34.49600
H  46.53500 26.43200 35.12700
H  44.25700 18.87000 29.39600
H  44.67400 20.07300 30.57200
H  45.92200 19.00100 30.03500
H  46.54900 17.92000 27.90700
H  46.15300 17.19700 26.42100
H  44.73400 17.84000 27.44400
H  45.91200 23.62000 22.92200
H  47.91400 25.78000 23.16900
H  48.09500 23.66900 21.89300
H  47.71000 22.14600 22.70900
H  48.77000 23.38000 23.56400
H  45.83600 26.22400 21.92100
H  46.03200 27.35100 23.27800
H  43.68400 25.74100 22.57700
H  43.93100 26.78500 24.00500
H  44.29100 25.09200 24.08200
H  48.14800 30.55300 26.67000
H  48.81100 29.60100 25.36800
H  49.81900 29.85000 26.74000
H  46.96300 29.04700 31.52500
H  48.99200 27.98500 35.03800
H  49.23000 29.74600 35.12100
H  50.37000 28.75200 34.33200

