158

Mg 44.14000 3.40300 47.50700
C  41.71400 5.88000 46.76300
C  41.55000 1.12200 47.19000
C  46.47800 0.95200 47.56800
C  46.57300 5.71200 46.76700
N  41.88600 3.57700 47.20300
C  41.09900 4.67400 46.91800
C  39.69200 4.28900 46.50100
C  39.64700 2.91400 47.21000
C  41.12200 2.48600 47.14100
C  39.08600 2.81200 48.60300
C  39.47100 4.32400 44.97600
C  38.31700 5.15900 44.41100
H  38.61700 6.41700 43.61300
N  44.06100 1.26600 47.40600
C  42.89000 0.50200 47.32800
C  43.28900 -0.82900 47.49000
C  44.72000 -0.90000 47.63600
C  45.17500 0.46600 47.53600
C  42.37600 -1.94500 47.34800
C  45.62900 -2.16000 47.65600
O  45.10600 -3.27100 47.65700
C  47.08400 -2.12600 47.52300
N  46.22900 3.35000 47.04200
C  47.00500 2.28000 47.25100
C  48.47700 2.60900 47.28400
C  48.52100 4.08100 46.97800
C  47.03800 4.42900 46.94500
C  49.12700 2.30000 48.65700
C  49.34200 4.61000 45.75200
C  50.75500 5.15800 46.02500
N  44.15500 5.45900 47.01500
C  45.25900 6.25200 46.76200
C  44.78000 7.59700 46.66600
C  43.40700 7.49400 46.61800
C  43.08500 6.18500 46.81500
C  45.55700 8.89500 46.45600
C  42.11000 8.26500 46.54800
O  41.82200 9.45500 46.59000
C  41.03600 7.16400 46.59600
C  40.08100 7.37000 47.68300
O  40.42100 7.40700 48.86900
O  38.74800 7.53600 47.28300
C  37.81300 7.56900 48.40100
H  40.74300 0.39500 47.08000
H  47.31000 0.28500 47.80100
H  47.38700 6.43900 46.71700
H  38.98500 5.03800 46.85800
H  39.16500 2.14000 46.61200
H  38.50500 3.66300 48.95800
H  39.90400 2.63800 49.30200
H  38.45500 1.92400 48.65900
H  39.19600 3.30400 44.70600
H  40.38100 4.48900 44.39900
H  37.64300 5.47600 45.20700
H  37.83000 4.37500 43.83100
H  41.39900 -1.66600 46.95300
H  42.15600 -2.44600 48.29100
H  42.77900 -2.74400 46.72600
H  47.49000 -1.46800 46.75500
H  47.53000 -3.12000 47.46900
H  47.39700 -1.78900 48.51100
H  49.06000 2.04600 46.55500
H  48.77800 4.67000 47.85800
H  48.37500 2.25300 49.44400
H  49.88100 3.07600 48.78900
H  49.78800 1.43600 48.59100
H  48.80700 5.16400 44.98100
H  49.53400 3.65000 45.27200
H  50.77900 5.16600 47.11500
H  50.92400 6.14600 45.59800
H  51.54400 4.47700 45.70800
H  46.31600 9.02300 47.22800
H  44.99100 9.81100 46.62300
H  46.17300 8.93400 45.55800
H  40.53900 7.21500 45.62800
H  37.62000 8.61000 48.65700
H  38.10500 6.94100 49.24300
H  36.85900 7.16700 48.05800
Mg 35.62200 2.17900 30.11300
C  33.22800 2.65900 32.72600
C  38.02800 2.69200 32.48500
C  37.92200 1.74300 27.77800
C  33.03400 1.73100 27.94600
N  35.65900 2.51100 32.44000
C  34.50000 2.64700 33.24400
C  34.95400 2.91800 34.71000
C  36.42700 3.28100 34.56300
C  36.74500 2.87200 33.06800
C  36.59300 4.80600 34.75200
C  34.60800 1.67100 35.65100
C  34.28200 1.96000 37.18300
H  35.02200 3.16300 37.82500
N  37.70000 2.15700 30.17500
C  38.51400 2.44200 31.24300
C  39.88600 2.23400 30.83700
C  39.89100 2.01200 29.43300
C  38.42000 1.99200 29.04000
C  41.04200 2.16700 31.84700
C  41.03500 1.78900 28.49700
O  40.96700 1.57100 27.32800
C  42.47000 2.00900 28.93800
N  35.51100 1.78200 28.22600
C  36.56900 1.69900 27.35300
C  36.17800 1.71400 25.94000
C  34.70200 1.31000 26.07300
C  34.36900 1.65300 27.53400
C  36.42700 3.02700 25.19600
C  34.38000 -0.21500 25.76100
C  33.47000 -0.42800 24.57500
N  33.58900 2.28200 30.17000
C  32.67800 2.10400 29.21100
C  31.35800 2.14800 29.73200
C  31.50200 2.37800 31.08900
C  32.87400 2.43800 31.33700
C  30.01700 2.11400 28.92000
C  30.74200 2.67600 32.33500
O  29.48600 2.69700 32.54100
C  31.88100 2.82000 33.46200
C  31.76500 4.17300 34.07600
O  31.55200 5.29200 33.62900
O  31.66800 3.95900 35.44000
C  31.52700 5.21700 36.28500
H  38.76300 2.92800 33.25700
H  38.57600 1.54400 26.92700
H  32.15100 1.65600 27.30700
H  34.46400 3.74400 35.22600
H  37.15200 2.68800 35.12000
H  35.65000 5.33600 34.61400
H  37.34100 5.19000 34.05900
H  36.98300 5.16100 35.70600
H  35.44400 0.99300 35.47600
H  33.70200 1.20700 35.26400
H  34.61500 1.10200 37.76700
H  33.19500 2.04400 37.19100
H  42.01500 2.54000 31.52600
H  41.09700 1.10400 32.08300
H  40.81000 2.61600 32.81200
H  42.72500 3.04300 29.16800
H  43.03400 1.75300 28.04100
H  42.70500 1.27100 29.70600
H  36.69300 0.98600 25.31400
H  33.97400 1.84200 25.46100
H  36.79100 2.73500 24.21100
H  37.16900 3.65800 25.68400
H  35.44700 3.50500 25.20500
H  33.89400 -0.83100 26.51800
H  35.30700 -0.73200 25.51400
H  33.07400 0.48800 24.13600
H  32.75000 -1.20500 24.83300
H  34.04700 -0.91000 23.78500
H  30.02200 3.05800 28.37500
H  29.05300 1.93900 29.39700
H  30.17800 1.23400 28.29700
H  31.80100 2.07000 34.24800
H  30.51900 5.63000 36.26800
H  32.24400 5.98300 35.99100
H  31.70800 5.03400 37.34500

