158

Mg 49.28000 44.55000 42.43800
C  46.24400 45.06500 40.67900
C  49.67800 41.58800 40.70600
C  52.62200 44.60400 43.07900
C  49.08800 47.88400 43.45900
N  48.13300 43.51500 40.80200
C  46.84100 43.85300 40.37100
C  46.40900 42.79200 39.34200
C  47.26400 41.59200 39.62100
C  48.42200 42.25500 40.45300
C  46.67900 40.37800 40.38200
C  46.47800 43.32400 37.90700
C  45.28900 43.08700 36.92900
H  45.27800 43.81300 35.60800
N  50.92800 43.26600 41.91600
C  50.86100 42.06300 41.29100
C  52.16800 41.33600 41.44100
C  53.00800 42.16000 42.18000
C  52.24000 43.40500 42.43800
C  52.43200 39.88800 40.93700
C  54.37100 41.74200 42.61800
O  54.75600 40.65900 42.20800
C  55.39400 42.58700 43.12600
N  50.69200 46.01500 43.15000
C  51.97800 45.78300 43.45400
C  52.66200 46.97800 44.21200
C  51.46900 48.04500 44.36400
C  50.34500 47.31300 43.62100
C  53.33500 46.57100 45.52100
C  51.72800 49.43800 43.66100
C  51.12600 50.66100 44.35700
N  47.87200 46.14200 42.36000
C  47.92900 47.43200 42.76000
C  46.74500 48.14900 42.47100
C  46.07000 47.28000 41.64800
C  46.77100 46.07200 41.61500
C  46.50000 49.53400 42.92000
C  44.94600 47.12700 40.75900
O  44.12700 47.97800 40.48700
C  44.91500 45.72400 40.16200
C  43.59900 45.12900 40.68200
O  42.70000 44.88400 39.94000
O  43.53000 45.02500 42.07000
C  42.24800 44.84800 42.64300
H  49.89100 40.55600 40.42100
H  53.65500 44.46300 43.40300
H  48.96800 48.84500 43.96200
H  45.39300 42.40400 39.40000
H  47.66300 41.19500 38.68700
H  46.90000 40.36000 41.44900
H  46.99300 39.44000 39.92400
H  45.60800 40.30200 40.19500
H  47.31300 42.84300 37.39800
H  46.60200 44.40300 37.80800
H  44.38000 43.21900 37.51700
H  45.31700 42.00300 36.81900
H  53.32700 39.83300 40.31600
H  51.68900 39.57300 40.20500
H  52.49600 39.23300 41.80600
H  55.11800 42.93000 44.12300
H  55.63600 43.43900 42.49100
H  56.30200 41.99400 43.23900
H  53.49700 47.34100 43.61300
H  51.25800 48.12600 45.43000
H  53.04700 47.20300 46.36100
H  54.41000 46.56500 45.34400
H  53.04200 45.56600 45.82700
H  51.41000 49.39700 42.61900
H  52.81700 49.46200 43.68200
H  51.79800 51.45900 44.67300
H  50.70400 50.37900 45.32100
H  50.38200 51.10400 43.69500
H  46.35100 50.28600 42.14500
H  47.30900 49.81300 43.59500
H  45.55500 49.46000 43.45900
H  44.83500 45.81600 39.07800
H  42.30000 44.20000 43.51800
H  41.51600 44.38200 41.98300
H  41.91000 45.87100 42.80300
Mg 0.22400 43.40900 25.74800
C  1.71400 43.53000 28.89000
C  -2.81900 42.68800 27.16900
C  -1.14100 42.75100 22.60300
C  3.41900 43.96800 24.24500
N  -0.39900 43.05900 27.79500
C  0.32000 43.28500 28.94800
C  -0.50900 43.05600 30.24300
C  -1.92100 42.71900 29.56500
C  -1.75000 42.82100 28.07500
C  -2.68200 41.47300 30.13000
C  -0.46400 44.34600 31.09600
C  -0.07200 44.02000 32.56300
H  -0.14800 42.51000 33.00100
N  -1.70500 42.87800 24.99900
C  -2.81300 42.74000 25.82300
C  -3.96200 42.57100 24.97600
C  -3.51900 42.53300 23.60700
C  -2.06600 42.69300 23.68100
C  -5.39200 42.35300 25.55500
C  -4.41900 42.46200 22.35600
O  -3.91600 42.28200 21.25100
C  -5.94600 42.53300 22.45300
N  1.08000 43.18200 23.78500
C  0.28200 42.95400 22.66900
C  1.13400 42.99100 21.41300
C  2.44200 43.76900 21.86400
C  2.36200 43.63300 23.39900
C  1.42700 41.59500 20.76500
C  2.67200 45.28000 21.57100
C  1.38500 46.09000 21.66800
N  2.15400 43.55200 26.37600
C  3.34900 43.81800 25.67700
C  4.38200 44.08700 26.68400
C  3.86700 43.91500 27.93800
C  2.46700 43.69100 27.73500
C  5.81900 44.54100 26.34600
C  4.14400 43.95000 29.34100
O  5.18700 44.16200 29.90200
C  2.82700 43.65200 29.98500
C  3.08200 42.30300 30.59100
O  2.73900 41.22500 30.15200
O  3.68900 42.54500 31.75100
C  4.21000 41.32000 32.44700
H  -3.78300 42.52100 27.65500
H  -1.53000 42.84100 21.58700
H  4.37200 44.24700 23.79200
H  -0.02100 42.16900 30.64800
H  -2.55300 43.57100 29.81200
H  -2.00300 40.93300 30.79000
H  -2.93500 40.81200 29.30100
H  -3.66200 41.78700 30.48900
H  -1.45400 44.80100 31.13400
H  0.27000 44.97700 30.59500
H  -0.48600 44.63800 33.36000
H  0.96800 44.34000 32.48800
H  -5.97200 43.17200 25.13000
H  -5.47000 42.69800 26.58600
H  -5.71500 41.35500 25.25700
H  -6.37600 41.64300 22.91400
H  -6.27700 42.69900 21.42800
H  -6.14900 43.46900 22.97300
H  0.52300 43.59900 20.74500
H  3.28500 43.32700 21.33200
H  2.38700 41.31400 20.33000
H  0.59300 41.54900 20.06500
H  1.17000 40.75700 21.41300
H  3.14900 45.38700 20.59700
H  3.30400 45.80800 22.28600
H  1.06000 46.27300 20.64400
H  1.59100 47.04700 22.14700
H  0.67000 45.58100 22.31500
H  6.40100 43.74500 25.88100
H  6.37800 44.66600 27.27300
H  5.79500 45.37500 25.64400
H  2.65500 44.45100 30.70600
H  4.65400 40.65000 31.71000
H  3.41900 40.77300 32.95900
H  4.95200 41.59400 33.19700

