158

Mg 25.69300 0.46600 29.44000
C  27.53300 0.44600 32.43800
C  22.79800 0.96000 31.33200
C  23.96700 0.44300 26.54200
C  28.65900 -0.17000 27.71100
N  25.18700 0.70200 31.68600
C  26.11900 0.64800 32.70100
C  25.47400 0.81600 34.02400
C  23.90700 0.83200 33.64700
C  23.93900 0.79700 32.13100
C  23.09800 -0.34500 34.31600
C  25.82100 2.20000 34.77000
C  26.09200 1.88600 36.23100
H  26.03500 2.99500 37.26400
N  23.63600 0.71100 29.04300
C  22.61400 0.98900 29.93900
C  21.50800 1.33600 29.17300
C  21.79200 1.04500 27.81900
C  23.16700 0.68700 27.72500
C  20.29900 1.91500 29.80000
C  20.87500 1.19900 26.66100
O  21.23200 0.98700 25.50300
C  19.41600 1.59500 26.92000
N  26.18600 0.02200 27.44600
C  25.31000 0.12800 26.44700
C  26.02600 -0.31700 25.11100
C  27.54300 -0.16400 25.44900
C  27.48400 -0.02700 26.91200
C  25.63100 -1.63300 24.47200
C  28.37000 0.97700 24.77900
C  29.79000 0.66000 24.39800
N  27.68100 0.02400 29.93600
C  28.83000 -0.10400 29.13900
C  29.99400 -0.34900 29.95900
C  29.50600 -0.08300 31.19700
C  28.09200 0.17200 31.14600
C  31.42100 -0.62800 29.44200
C  29.94500 0.05800 32.55700
O  31.07800 0.14500 33.03100
C  28.68100 0.37400 33.40300
C  28.50300 -0.61400 34.56200
O  27.84600 -1.62100 34.66400
O  29.25700 -0.16900 35.61200
C  29.07200 -0.80200 36.89100
H  21.90400 1.07300 31.95000
H  23.40600 0.50500 25.60700
H  29.55100 -0.49700 27.17200
H  25.62700 0.00100 34.73100
H  23.38300 1.75100 33.90800
H  22.49700 -0.90100 33.59700
H  22.44900 -0.00900 35.12400
H  23.78300 -1.05800 34.77600
H  25.13500 3.04700 34.74700
H  26.75800 2.59100 34.37300
H  27.12400 1.54100 36.28400
H  25.41500 1.12100 36.61200
H  20.38900 2.21200 30.84500
H  19.42800 1.26200 29.74000
H  20.00600 2.80000 29.23600
H  19.30700 2.63300 27.23400
H  19.23600 0.77900 27.62000
H  18.76100 1.35400 26.08200
H  25.74700 0.43200 24.37000
H  28.06300 -1.10500 25.26600
H  25.13300 -1.48700 23.51400
H  25.06600 -2.18100 25.22700
H  26.53700 -2.21000 24.28900
H  28.37100 1.73000 25.56600
H  27.90300 1.41000 23.89500
H  30.11100 -0.27900 24.84900
H  30.39400 1.41600 24.89900
H  29.91500 0.77600 23.32200
H  31.45200 -0.23500 28.42600
H  31.67300 -1.68100 29.57500
H  32.09600 -0.07900 30.09800
H  28.86100 1.36300 33.82400
H  29.80500 -0.35900 37.56600
H  29.09800 -1.89100 36.89100
H  28.08900 -0.53700 37.28000
Mg 49.19800 35.04900 26.77000
C  46.99300 33.79000 29.41800
C  49.57300 37.87400 28.88300
C  50.73400 36.65600 24.27200
C  47.93900 32.57500 24.70200
N  48.42600 35.57800 28.89500
C  47.65000 34.94200 29.81700
C  47.73600 35.59300 31.18600
C  48.26300 37.02900 30.81500
C  48.78200 36.84500 29.42800
C  47.29000 38.23900 30.96600
C  48.65700 34.80900 32.16200
C  48.39500 34.86300 33.68600
H  47.28800 35.84800 34.12900
N  50.16600 36.93200 26.64400
C  50.26900 37.89600 27.63900
C  51.01800 39.01600 27.08300
C  51.32200 38.75200 25.75800
C  50.79400 37.36100 25.46700
C  51.41100 40.23200 27.98100
C  51.97600 39.68400 24.73600
O  52.05500 39.26400 23.57800
C  52.31900 41.16000 24.98900
N  49.34900 34.63100 24.81500
C  50.06900 35.45500 23.91900
C  50.01800 34.73800 22.47900
C  49.36000 33.34700 22.79700
C  48.77100 33.55100 24.16900
C  49.28500 35.56400 21.46000
C  50.24300 31.98200 22.49000
C  49.54300 30.94000 21.62200
N  47.85300 33.42100 27.05700
C  47.49700 32.58800 25.99800
C  46.58100 31.64600 26.62500
C  46.24400 32.14800 27.90200
C  47.16100 33.16600 28.16800
C  45.96400 30.55000 25.79300
C  45.48600 31.93700 29.06900
O  44.61500 31.11500 29.25700
C  45.97700 32.96000 30.17200
C  46.57300 32.11100 31.26900
O  47.71900 31.62700 31.26700
O  45.72800 31.91200 32.31700
C  46.27900 30.99800 33.37200
H  49.76400 38.78300 29.45800
H  51.11500 37.24100 23.43200
H  47.51300 31.85600 24.00000
H  46.71500 35.59800 31.56800
H  49.08500 37.34500 31.45600
H  46.99100 38.76600 30.06100
H  47.88200 38.93400 31.56200
H  46.44400 37.93400 31.58200
H  49.65800 35.21200 32.01400
H  48.73900 33.77100 31.83900
H  49.28900 35.18500 34.22000
H  48.22300 33.85400 34.06100
H  51.58600 39.90700 29.00600
H  50.62500 40.98700 27.97700
H  52.26500 40.79600 27.60600
H  53.33600 41.28100 25.36400
H  51.68000 41.52000 25.79500
H  52.18300 41.73300 24.07300
H  51.07500 34.71600 22.21400
H  48.42800 33.24100 22.24200
H  49.98700 36.24900 20.98500
H  48.45300 36.11800 21.89500
H  48.79400 34.96400 20.69500
H  50.52000 31.52200 23.43800
H  51.21400 32.20100 22.04500
H  49.94000 30.86300 20.61000
H  48.47500 31.10700 21.48300
H  49.64200 29.98600 22.14200
H  45.28100 30.06500 26.49000
H  46.72000 29.85200 25.43300
H  45.41300 30.82700 24.89400
H  45.21700 33.47800 30.75700
H  45.42600 30.67100 33.96700
H  46.85300 31.66700 34.01200
H  46.81800 30.10800 33.04800

