158

Mg 23.65200 -5.08200 44.78900
C  25.89400 -2.68300 43.50600
C  21.29200 -3.72500 42.72600
C  21.77500 -7.81700 45.36600
C  26.32200 -6.53300 46.56000
N  23.68400 -3.47900 43.21400
C  24.61500 -2.53700 43.00600
C  24.17300 -1.43400 42.07900
C  22.58100 -1.66000 41.99800
C  22.50900 -3.05800 42.61900
C  21.74100 -0.71400 42.86700
C  24.99900 -1.38800 40.78900
C  24.89400 0.01200 40.10000
H  24.17800 0.03900 38.72800
N  21.78100 -5.70000 44.11600
C  20.96300 -4.94300 43.30700
C  19.73800 -5.62900 43.15700
C  19.77300 -6.87700 43.87400
C  21.15000 -6.86900 44.50400
C  18.55000 -4.98500 42.39300
C  18.71000 -7.96400 44.02000
O  17.54800 -7.67500 43.64700
C  18.94000 -9.40600 44.53900
N  24.05000 -7.00600 45.74000
C  23.05600 -7.97600 45.88900
C  23.50400 -9.06000 46.85400
C  24.94700 -8.62100 47.33600
C  25.12800 -7.33300 46.52700
C  22.63700 -9.39100 48.00700
C  26.11200 -9.69300 47.04100
C  26.13300 -10.83400 47.99600
N  25.67400 -4.70300 45.10600
C  26.64400 -5.34400 45.88800
C  27.89800 -4.69900 45.73000
C  27.68300 -3.65600 44.83700
C  26.36900 -3.71600 44.37900
C  29.14500 -4.94500 46.47400
C  28.25600 -2.52200 44.18100
O  29.42600 -2.10400 44.18000
C  27.18100 -1.84100 43.22700
C  26.94600 -0.44100 43.53500
O  26.47700 -0.09900 44.61100
O  27.28700 0.38800 42.52800
C  27.05600 1.83800 42.78300
H  20.44400 -3.26900 42.21100
H  21.06900 -8.52900 45.79900
H  27.13200 -6.96100 47.15500
H  24.27500 -0.47100 42.58000
H  22.22100 -1.49700 40.98300
H  20.67200 -0.87900 42.72700
H  21.86900 0.32200 42.55200
H  21.98400 -0.82800 43.92300
H  24.57800 -2.10200 40.08100
H  26.02300 -1.74200 40.90700
H  25.92700 0.27500 39.87100
H  24.42100 0.73700 40.76100
H  17.61600 -5.29600 42.86000
H  18.47600 -5.27200 41.34400
H  18.46800 -3.89800 42.39400
H  17.99900 -9.90700 44.31300
H  19.20400 -9.58300 45.58200
H  19.81000 -9.80700 44.02000
H  23.46600 -10.00300 46.30900
H  24.91300 -8.40000 48.40300
H  22.45800 -8.57600 48.70800
H  23.11900 -10.18300 48.58000
H  21.62600 -9.58200 47.64400
H  27.02500 -9.11400 46.89700
H  25.85100 -10.17400 46.09900
H  26.12400 -11.74400 47.39600
H  25.25800 -10.82900 48.64500
H  26.99800 -10.75400 48.65500
H  29.46300 -5.98700 46.44300
H  28.84200 -4.74300 47.50100
H  29.85900 -4.15800 46.23100
H  27.60700 -1.90100 42.22500
H  27.83600 2.24600 43.42500
H  26.01400 1.99200 43.06500
H  27.10500 2.33300 41.81300
Mg 44.61200 4.75900 46.65900
C  42.84300 7.88300 46.75600
C  41.68700 3.28800 45.69300
C  46.32900 2.12200 45.64500
C  47.55400 6.61400 47.09800
N  42.50300 5.52200 46.27400
C  41.97600 6.76300 46.45500
C  40.47900 6.83800 46.12600
C  40.15300 5.31500 45.94100
C  41.55300 4.62600 46.02000
C  39.18700 4.77800 47.05900
C  40.28400 7.68100 44.78100
C  41.42500 7.47500 43.70200
H  40.88500 7.41300 42.23400
N  44.09700 2.94400 45.80500
C  42.80600 2.45400 45.54000
C  42.88600 1.06100 45.13000
C  44.24100 0.76900 45.09600
C  44.94900 1.94400 45.56000
C  41.70900 0.26100 44.73500
C  44.80900 -0.57700 44.69200
O  44.05300 -1.38700 44.24100
C  46.28000 -0.82100 44.55200
N  46.60100 4.51300 46.29400
C  47.03800 3.25900 46.07900
C  48.59600 3.08800 46.16100
C  49.06000 4.42900 46.65700
C  47.69000 5.29000 46.65200
C  49.13000 1.88500 46.97000
C  50.35200 5.02700 45.93600
C  51.70200 4.83600 46.68900
N  45.10100 6.82100 47.17200
C  46.35500 7.38200 47.22300
C  46.19200 8.82900 47.40100
C  44.81400 9.04500 47.35100
C  44.21700 7.76600 47.04500
C  47.31900 9.81600 47.59800
C  43.86200 10.07800 47.24400
O  43.92700 11.28800 47.33200
C  42.58100 9.37300 47.00800
C  41.86200 9.58900 48.30300
O  41.95500 8.87600 49.29200
O  41.02700 10.59900 48.18700
C  40.34700 10.89400 49.38500
H  40.76500 2.89000 45.26500
H  46.99400 1.26300 45.53300
H  48.52300 7.04100 47.36200
H  39.97500 7.32200 46.96200
H  39.72700 5.05100 44.97300
H  39.73600 4.33000 47.88700
H  38.48200 4.03300 46.69300
H  38.56900 5.59300 47.43600
H  40.54300 8.68800 45.10600
H  39.30800 7.59800 44.30400
H  42.04400 6.58600 43.82400
H  42.15800 8.28200 43.69200
H  41.70600 0.11500 43.65500
H  40.78500 0.73100 45.07300
H  41.64800 -0.68100 45.27900
H  46.28300 -1.78600 44.04600
H  46.86500 -0.84200 45.47200
H  46.62000 -0.02000 43.89500
H  49.00600 2.98100 45.15700
H  49.44300 4.32600 47.67300
H  48.31500 1.36500 47.47300
H  49.89500 2.06400 47.72500
H  49.65800 1.09600 46.43500
H  50.24000 6.10000 45.78100
H  50.48400 4.69600 44.90600
H  52.41200 4.51600 45.92600
H  51.66900 4.14700 47.53300
H  52.12000 5.81700 46.91700
H  46.79900 10.75800 47.42300
H  48.07000 9.61400 46.83300
H  47.70500 9.96000 48.60700
H  41.99800 9.83700 46.21300
H  39.49700 11.53600 49.15200
H  40.80300 11.51900 50.15300
H  39.92000 10.02400 49.88500

