158

Mg 40.29400 9.58800 28.43600
C  41.82600 10.41100 31.41300
C  37.89800 7.81500 30.31700
C  38.92300 8.47500 25.58000
C  42.95900 10.74300 26.67500
N  39.86800 9.30800 30.61800
C  40.62500 9.78100 31.64700
C  39.89100 9.51900 32.99000
C  38.71300 8.47700 32.59300
C  38.84000 8.50100 31.11200
C  38.94000 7.01600 33.17600
C  39.40000 10.84900 33.68500
C  39.66900 10.87200 35.28800
H  40.05000 12.17800 35.83300
N  38.59600 8.38000 27.96100
C  37.78900 7.73800 28.86200
C  36.73300 7.02200 28.16400
C  36.97900 7.27600 26.79500
C  38.19100 8.04700 26.69200
C  35.59300 6.24100 28.81600
C  36.19200 6.78500 25.58400
O  36.49300 7.11800 24.45300
C  34.82500 6.20900 25.76800
N  40.90300 9.59300 26.43200
C  40.11500 9.07100 25.45900
C  40.84800 9.31900 24.05400
C  42.00800 10.41100 24.43400
C  41.94100 10.24600 25.93300
C  41.48600 8.04000 23.39500
C  41.75000 11.92900 23.97300
C  40.65800 12.71100 24.73800
N  42.11500 10.26900 28.92600
C  43.05400 10.79700 28.10700
C  44.12200 11.31700 28.96500
C  43.60500 11.19300 30.22500
C  42.43300 10.60900 30.16300
C  45.36000 11.90500 28.43600
C  43.89900 11.55800 31.58900
O  44.82400 12.15000 32.15500
C  42.73700 11.06900 32.42400
C  43.13300 10.04800 33.45200
O  43.81100 9.04300 33.22800
O  42.80900 10.47600 34.73400
C  43.11000 9.37600 35.67600
H  37.20600 7.31000 30.99500
H  38.60800 8.11500 24.59900
H  43.80100 11.25100 26.20000
H  40.61800 9.00800 33.62100
H  37.71200 8.79000 32.89000
H  37.95300 6.76600 33.56600
H  39.62300 6.94700 34.02300
H  39.24900 6.28700 32.42700
H  38.33400 10.90800 33.46600
H  39.86000 11.69500 33.17300
H  40.42200 10.15700 35.62100
H  38.69200 10.62800 35.70600
H  35.60200 5.18500 28.54700
H  34.59000 6.61400 28.60800
H  35.64200 6.21000 29.90500
H  34.44800 6.06600 24.75500
H  34.20700 6.92900 26.30400
H  34.69000 5.35000 26.42400
H  40.18100 9.71800 23.29000
H  43.00300 10.10400 24.11000
H  41.17800 7.13000 23.91000
H  42.57600 8.03700 23.41000
H  41.26100 8.02000 22.32900
H  41.45200 11.76300 22.93800
H  42.68900 12.47600 24.06500
H  40.49300 12.27900 25.72500
H  39.69200 12.75500 24.23400
H  41.05900 13.69000 24.99900
H  45.30800 12.27900 27.41400
H  46.12100 11.13000 28.52500
H  45.59000 12.71200 29.13200
H  42.15900 11.87300 32.87800
H  44.15800 9.07700 35.67500
H  42.52100 8.48200 35.47300
H  42.91600 9.66600 36.70900
Mg 47.15200 16.22700 28.51800
C  45.15900 15.88600 31.34700
C  49.55100 17.89900 30.41700
C  48.94600 16.87500 25.62900
C  44.41900 15.17800 26.62700
N  47.29200 16.74800 30.61500
C  46.38100 16.47400 31.59000
C  46.86600 16.99500 32.93800
C  48.10900 17.78100 32.57300
C  48.39100 17.47500 31.11000
C  48.11100 19.34500 32.84900
C  47.06400 15.76600 33.97400
C  46.34500 15.96900 35.34900
H  46.63400 17.29200 36.18200
N  49.10100 17.09400 28.10700
C  49.92600 17.68300 29.01700
C  51.23700 17.83700 28.39100
C  51.08800 17.61400 27.01700
C  49.65400 17.13800 26.83700
C  52.45500 18.36600 29.24600
C  52.12600 17.78600 25.86400
O  51.93800 17.36200 24.75500
C  53.44600 18.63000 26.09300
N  46.79200 16.06400 26.43300
C  47.64600 16.33400 25.40000
C  46.99500 16.00500 24.00700
C  45.64800 15.27100 24.46800
C  45.56200 15.57300 25.89200
C  46.91200 17.30400 23.18600
C  45.74400 13.71700 24.32100
C  45.55800 13.18600 22.86200
N  45.17300 15.70500 28.86900
C  44.14900 15.25600 28.00700
C  42.92700 14.88500 28.74300
C  43.32100 15.12400 30.05200
C  44.66700 15.55900 30.11500
C  41.63100 14.41300 28.26200
C  42.79400 15.05500 31.36000
O  41.68300 14.83800 31.78600
C  44.05900 15.58000 32.30000
C  43.56900 16.84600 32.95100
O  43.58700 18.00200 32.53900
O  42.94200 16.55100 34.09700
C  42.09400 17.52600 34.84800
H  50.22200 18.40200 31.11600
H  49.40300 17.05500 24.65300
H  43.61300 14.79200 26.00000
H  46.15500 17.70300 33.36400
H  48.99600 17.43800 33.10700
H  48.77700 19.49600 33.69900
H  47.10000 19.64700 33.12500
H  48.49000 19.81300 31.94100
H  48.13500 15.82800 34.16500
H  46.88500 14.75800 33.60000
H  46.53500 15.11600 36.00100
H  45.26200 15.90600 35.24700
H  53.14100 19.00300 28.68800
H  53.07800 17.47800 29.34800
H  52.23100 18.70800 30.25600
H  54.05700 17.95000 26.68600
H  53.24200 19.54800 26.64400
H  53.83000 18.87300 25.10300
H  47.70700 15.29000 23.59400
H  44.83900 15.74400 23.91100
H  45.91000 17.53800 22.82600
H  47.71800 17.25900 22.45400
H  47.15900 18.13200 23.85000
H  44.98800 13.23200 24.93900
H  46.66800 13.30800 24.72800
H  46.42100 12.59100 22.56400
H  45.49400 14.03800 22.18400
H  44.69900 12.53100 22.71900
H  41.44200 14.98100 27.35200
H  40.87600 14.73900 28.97700
H  41.71000 13.33200 28.14200
H  44.29900 14.85400 33.07700
H  41.85200 18.47500 34.37000
H  42.57700 17.79700 35.78600
H  41.24300 16.89300 35.09800

