158

Mg 17.11600 -1.97700 28.14200
C  16.03100 0.09000 30.96800
C  19.18300 -3.56400 30.34400
C  18.25500 -3.58400 25.55900
C  15.02500 0.01000 26.13500
N  17.66300 -1.58400 30.44500
C  16.99800 -0.85100 31.36100
C  17.41800 -1.31200 32.79000
C  18.75100 -2.16600 32.50700
C  18.58600 -2.42200 30.98100
C  20.12300 -1.63800 32.74600
C  16.26200 -2.01100 33.54600
C  15.91100 -1.38600 34.94600
H  17.10800 -0.79600 35.71700
N  18.42500 -3.46900 27.98900
C  19.14900 -4.02200 28.99900
C  19.94800 -5.12300 28.44600
C  19.63700 -5.19600 27.08500
C  18.75300 -4.02600 26.85600
C  20.81100 -6.10300 29.30700
C  20.03100 -6.27000 25.98200
O  19.47500 -6.19700 24.86400
C  21.23700 -7.13800 26.17100
N  16.70400 -1.82200 26.12400
C  17.37500 -2.62400 25.20300
C  16.85500 -2.35100 23.73700
C  15.62900 -1.39700 23.98400
C  15.74200 -0.97300 25.48600
C  17.99100 -1.69400 22.86400
C  14.24700 -2.11800 23.62500
C  13.61300 -1.62300 22.29100
N  15.85100 -0.32900 28.50200
C  15.04500 0.30500 27.53300
C  14.36200 1.42200 28.19400
C  14.70500 1.36100 29.50900
C  15.56600 0.24300 29.68000
C  13.59300 2.47500 27.60900
C  14.49300 1.99000 30.79700
O  13.82900 2.93500 31.14500
C  15.27100 1.16500 31.76700
C  16.17100 2.02700 32.54400
O  17.26100 2.44300 32.08400
O  15.61900 2.32800 33.76500
C  16.44500 3.17600 34.59400
H  19.68000 -4.19000 31.08900
H  18.58900 -4.10300 24.65900
H  14.38500 0.65900 25.53300
H  17.65400 -0.43200 33.38800
H  18.67700 -3.14300 32.98600
H  20.67800 -1.51700 31.81500
H  20.79600 -2.27200 33.32300
H  20.09700 -0.63000 33.16000
H  16.55700 -3.04700 33.71300
H  15.37700 -2.11000 32.91800
H  15.45900 -2.19400 35.52100
H  15.18000 -0.57900 34.89000
H  21.82400 -5.87400 28.97700
H  20.54900 -7.16100 29.31200
H  20.70700 -5.78900 30.34600
H  20.93100 -8.18300 26.22000
H  21.94000 -6.82200 26.94200
H  21.76800 -6.94200 25.23900
H  16.53800 -3.30500 23.31300
H  15.83100 -0.50700 23.38700
H  17.65500 -0.89100 22.20800
H  18.50600 -2.43400 22.25200
H  18.70900 -1.27500 23.57000
H  13.58500 -1.89400 24.46100
H  14.41600 -3.19400 23.64500
H  12.52700 -1.53400 22.32100
H  13.96800 -2.35100 21.56100
H  14.00000 -0.64700 21.99600
H  12.57400 2.08800 27.61500
H  13.96600 2.56100 26.58900
H  13.57100 3.39900 28.18700
H  14.53600 0.72200 32.43900
H  17.46300 2.86200 34.36000
H  16.14600 3.09100 35.63900
H  16.33800 4.19100 34.21200
Mg 42.70200 41.30800 26.19000
C  41.61700 43.74300 28.58600
C  43.69500 39.35600 28.72400
C  43.89500 39.17400 23.82800
C  42.38300 43.88700 23.83300
N  42.82100 41.59900 28.47000
C  42.18700 42.61800 29.22800
C  42.09200 42.22400 30.73200
C  42.79200 40.82800 30.74300
C  43.19900 40.57300 29.21500
C  43.92600 40.43500 31.68000
C  40.69900 42.15800 31.26600
C  40.35200 43.10400 32.42900
H  39.82100 42.41900 33.69600
N  43.61100 39.48700 26.25600
C  43.86100 38.84200 27.36700
C  44.40600 37.54500 27.02400
C  44.46200 37.43200 25.62700
C  44.00200 38.76600 25.15200
C  44.84300 36.50100 28.03300
C  45.01900 36.35300 24.71800
O  45.05400 36.42600 23.47600
C  45.37300 35.00400 25.31400
N  43.21700 41.53100 24.16400
C  43.56800 40.43500 23.38800
C  43.58100 40.79000 21.87900
C  42.85000 42.18400 21.90500
C  42.76400 42.58700 23.39100
C  45.00600 40.87000 21.30500
C  41.42300 42.15200 21.15200
C  40.19500 41.55800 21.85500
N  42.20000 43.46100 26.18700
C  42.03100 44.26800 25.11400
C  41.43800 45.53900 25.48500
C  41.26200 45.38500 26.89800
C  41.66300 44.07700 27.24200
C  41.20800 46.64600 24.55200
C  40.74000 45.96500 28.12300
O  40.09200 47.00800 28.28100
C  40.95900 44.89600 29.27600
C  41.87300 45.56500 30.22300
O  43.11800 45.56300 30.16100
O  41.10600 46.10200 31.23300
C  41.76000 46.74000 32.41300
H  43.96800 38.66800 29.52700
H  43.94600 38.42000 23.04000
H  42.18200 44.60500 23.03600
H  42.72300 42.86900 31.34400
H  42.09500 39.99100 30.78100
H  44.81300 40.11900 31.13000
H  43.76700 39.56100 32.31200
H  44.00500 41.24400 32.40600
H  40.44100 41.13400 31.53500
H  40.12500 42.41100 30.37400
H  39.69300 43.94100 32.19800
H  41.32900 43.52600 32.66600
H  44.64500 36.69700 29.08700
H  45.92000 36.34200 27.97900
H  44.53000 35.47500 27.84300
H  46.11800 35.18800 26.08800
H  45.90300 34.41600 24.56400
H  44.44500 34.52500 25.62400
H  43.10500 40.00900 21.28600
H  43.44400 42.98500 21.46500
H  45.74800 40.38900 21.94300
H  45.42100 41.79800 20.91300
H  44.92300 40.21400 20.43800
H  41.50900 41.58900 20.22300
H  41.00800 43.12900 20.90400
H  40.33800 40.94400 22.74400
H  39.64600 40.92600 21.15700
H  39.68400 42.44200 22.23800
H  42.24300 46.89500 24.31600
H  40.51400 47.39200 24.93800
H  40.81800 46.33700 23.58200
H  39.98000 44.78700 29.74100
H  41.63900 46.02700 33.22800
H  41.20300 47.63800 32.68200
H  42.83300 46.92500 32.36200

