158

Mg 24.20400 -4.43900 45.27800
C  26.57900 -2.04300 44.02200
C  21.93100 -3.09400 43.26400
C  22.52200 -7.29000 45.57400
C  27.13900 -6.03100 46.73300
N  24.23000 -2.73100 43.80000
C  25.27600 -1.86100 43.54900
C  24.85600 -0.80800 42.39700
C  23.25900 -0.95200 42.45100
C  23.07200 -2.30900 43.18500
C  22.55300 0.16800 43.20500
C  25.38100 -1.25800 40.98300
C  25.91500 -0.09000 39.92600
H  25.52400 -0.25900 38.37800
N  22.37400 -5.04800 44.69500
C  21.58300 -4.33300 43.84900
C  20.27700 -4.94100 43.88300
C  20.45000 -6.20400 44.51900
C  21.83500 -6.28500 44.94600
C  19.01600 -4.46700 43.09700
C  19.35800 -7.28800 44.66600
O  18.23400 -7.13600 44.16600
C  19.56800 -8.62600 45.41800
N  24.77200 -6.37500 46.00000
C  23.86200 -7.38100 46.04900
C  24.32800 -8.61300 46.82100
C  25.83800 -8.28000 47.06600
C  25.96600 -6.79400 46.58000
C  23.42300 -8.94200 48.05200
C  26.83300 -9.18400 46.32000
C  28.25100 -9.34600 46.87400
N  26.39100 -4.12600 45.48100
C  27.41000 -4.78600 46.18700
C  28.67300 -4.16500 46.06100
C  28.38900 -3.07100 45.23500
C  27.01100 -3.10100 44.85000
C  29.95600 -4.61200 46.68500
C  28.88100 -1.83200 44.62100
O  29.93800 -1.26200 44.70700
C  27.81700 -1.29900 43.65500
C  27.68800 0.21600 43.66900
O  27.14800 0.89400 44.58500
O  28.35100 0.74000 42.56100
C  28.18400 2.16800 42.28600
H  21.15600 -2.80500 42.55000
H  22.03200 -8.26100 45.66600
H  27.95100 -6.55800 47.23800
H  25.21700 0.20300 42.58400
H  22.85100 -1.04200 41.44500
H  22.58800 1.03100 42.53900
H  22.98700 0.24300 44.20200
H  21.49500 -0.07700 43.29400
H  24.54100 -1.73200 40.47500
H  26.16900 -2.01000 41.02800
H  27.00000 -0.12500 40.02500
H  25.48000 0.85000 40.26700
H  18.75000 -5.12500 42.26900
H  19.32900 -3.57000 42.56200
H  18.19200 -4.35000 43.80100
H  19.85700 -8.30800 46.42000
H  20.29600 -9.22800 44.87400
H  18.66800 -9.23300 45.51400
H  24.26100 -9.47300 46.15400
H  26.11500 -8.05800 48.09700
H  23.98800 -9.15500 48.96000
H  22.70600 -9.72600 47.80800
H  22.69700 -8.21400 48.41300
H  27.02700 -8.77300 45.32900
H  26.45100 -10.19200 46.15700
H  29.03900 -9.05600 46.17900
H  28.40200 -10.36200 47.23800
H  28.48500 -8.73000 47.74200
H  30.71700 -3.83200 46.69700
H  30.39500 -5.53400 46.30600
H  29.84100 -4.71900 47.76400
H  28.19000 -1.66100 42.69700
H  27.74800 2.80300 43.05600
H  27.54100 2.25200 41.40900
H  29.12600 2.69200 42.12600
Mg 16.65000 -0.33900 28.26200
C  15.59400 1.76100 30.97300
C  18.51800 -2.10400 30.53600
C  18.16000 -1.88700 25.78700
C  15.26200 2.04600 26.08200
N  16.94500 -0.27100 30.56400
C  16.35000 0.68800 31.41100
C  16.70300 0.35300 32.90600
C  17.84400 -0.74300 32.63700
C  17.76700 -1.08900 31.15400
C  19.35200 -0.46000 33.05000
C  15.57700 -0.03200 33.91000
C  15.58200 0.74000 35.23400
H  16.95500 1.15400 35.84400
N  17.89000 -1.96500 28.18400
C  18.63600 -2.56500 29.17800
C  19.44800 -3.65000 28.64900
C  19.14000 -3.72800 27.29800
C  18.33100 -2.49200 26.99000
C  20.40000 -4.57000 29.41500
C  19.48600 -4.73600 26.27500
O  18.96900 -4.78700 25.13300
C  20.38800 -6.03900 26.59700
N  16.58400 -0.08100 26.21500
C  17.36600 -0.79900 25.38900
C  17.32800 -0.33300 23.91500
C  16.25700 0.90000 24.03300
C  15.97400 0.94900 25.57400
C  18.81200 0.17000 23.49500
C  14.98000 0.67800 23.17800
C  14.34300 1.91000 22.46200
N  15.58200 1.50700 28.40800
C  15.04100 2.32400 27.43700
C  14.26800 3.35900 28.03700
C  14.46000 3.22700 29.44400
C  15.28100 2.05400 29.63700
C  13.47000 4.45700 27.36600
C  14.14900 3.70600 30.80300
O  13.54600 4.65200 31.15700
C  14.81200 2.71000 31.82000
C  15.77700 3.49600 32.52600
O  16.88800 3.83500 32.22600
O  15.15200 3.87500 33.70000
C  15.87700 4.86600 34.53200
H  19.18500 -2.72600 31.13600
H  18.71700 -2.40200 25.00100
H  14.76700 2.74200 25.40100
H  17.10400 1.29900 33.26800
H  17.54000 -1.64300 33.17000
H  19.52000 0.48600 33.56600
H  20.01400 -0.47200 32.18400
H  19.73000 -1.31500 33.61100
H  15.84600 -1.04600 34.20700
H  14.60100 -0.12900 33.43500
H  15.20700 0.01800 35.95800
H  14.92000 1.60500 35.25000
H  19.90300 -5.48500 29.73500
H  20.67700 -4.10300 30.36000
H  21.32800 -4.81400 28.89700
H  19.99300 -6.53200 27.48500
H  21.37300 -5.62900 26.82100
H  20.35600 -6.79300 25.81000
H  16.99800 -1.20200 23.34600
H  16.72200 1.85200 23.77900
H  19.50300 0.38200 24.31000
H  18.70100 1.10500 22.94600
H  19.25400 -0.60800 22.87300
H  14.24100 0.29100 23.88000
H  15.21200 0.03800 22.32700
H  14.90900 2.74500 22.87500
H  13.29200 2.06400 22.70700
H  14.48200 1.87100 21.38200
H  12.40000 4.26800 27.29000
H  13.92200 4.68200 26.40000
H  13.55800 5.40200 27.90000
H  14.06100 2.31300 32.50300
H  16.45900 5.66300 34.06900
H  16.52500 4.53600 35.34400
H  15.08500 5.42000 35.03700

