158

Mg 3.30700 -0.37800 43.98200
C  6.25700 1.57000 44.14400
C  1.71400 2.33300 42.57700
C  0.61800 -2.34700 43.68600
C  5.10500 -3.09400 45.14800
N  4.06000 1.62300 43.21400
C  5.22600 2.23000 43.48600
C  5.27500 3.69500 42.99500
C  3.72900 4.01400 42.94700
C  3.06700 2.59200 42.91100
C  3.32300 4.95200 44.11400
C  6.03500 3.97900 41.64300
C  6.51700 2.64400 40.89600
H  7.02900 2.94600 39.49700
N  1.42200 -0.01800 43.19900
C  0.91300 1.12700 42.62600
C  -0.57400 0.93000 42.33500
C  -0.90900 -0.35600 42.74000
C  0.36600 -1.00300 43.21300
C  -1.44100 2.00500 41.72200
C  -2.31000 -0.90000 42.73300
O  -3.23300 -0.14300 42.41300
C  -2.82200 -2.29400 43.18900
N  2.97000 -2.49200 44.10300
C  1.72200 -3.01700 44.13200
C  1.76500 -4.53500 44.41400
C  3.24000 -4.82200 44.82300
C  3.83100 -3.42000 44.65300
C  0.60400 -5.09700 45.26200
C  4.05400 -5.86700 43.94400
C  4.69900 -6.91000 44.77800
N  5.32300 -0.80700 44.47200
C  5.91400 -1.88100 44.98900
C  7.29500 -1.66900 45.42300
C  7.45200 -0.29900 45.13300
C  6.24500 0.19200 44.51800
C  8.15800 -2.67900 46.16900
C  8.36700 0.85500 45.19300
O  9.48900 0.87400 45.67000
C  7.61400 2.09500 44.54700
C  7.58000 3.26600 45.48100
O  8.45400 4.10800 45.53500
O  6.53800 3.19100 46.34300
C  6.57200 4.08300 47.49900
H  1.05200 3.13200 42.23700
H  -0.23000 -3.01500 43.52300
H  5.59700 -4.00300 45.50000
H  5.80600 4.18800 43.80900
H  3.53100 4.56600 42.02800
H  3.12800 4.46700 45.07000
H  2.56200 5.65500 43.77500
H  4.18300 5.57800 44.34900
H  6.99200 4.48500 41.76900
H  5.41000 4.60400 41.00600
H  5.79000 1.83800 40.79800
H  7.36400 2.27000 41.47100
H  -2.03300 2.47800 42.50600
H  -2.02000 1.78900 40.82400
H  -0.73400 2.75300 41.36400
H  -2.69700 -2.34700 44.27100
H  -2.33100 -3.13200 42.69300
H  -3.87000 -2.39500 42.90700
H  1.56000 -5.02600 43.46300
H  3.28400 -5.19000 45.84800
H  0.98400 -5.99200 45.75300
H  -0.24800 -5.29200 44.61000
H  0.38800 -4.38200 46.05600
H  4.81100 -5.36900 43.33800
H  3.49600 -6.37200 43.15600
H  3.95300 -7.21300 45.51200
H  5.60300 -6.50700 45.23500
H  4.95400 -7.86800 44.32500
H  7.90900 -2.76800 47.22700
H  9.11200 -2.15200 46.17000
H  8.32700 -3.66100 45.72600
H  8.26900 2.44500 43.74900
H  5.97200 4.98300 47.37200
H  7.57000 4.41800 47.78100
H  6.28400 3.45800 48.34400
Mg 16.87600 -3.01900 28.20800
C  16.06200 -0.80100 30.88300
C  18.97200 -4.77700 30.35100
C  18.53600 -4.58000 25.62200
C  15.76100 -0.58700 26.03700
N  17.50600 -2.79700 30.38000
C  16.88900 -1.92100 31.30100
C  17.27300 -2.27700 32.74500
C  18.48600 -3.28900 32.52400
C  18.26200 -3.68200 31.01900
C  19.96700 -2.80200 32.98000
C  16.10100 -2.81400 33.63700
C  16.18100 -2.43900 35.16300
H  17.50100 -2.21700 35.82400
N  18.35100 -4.59000 27.98000
C  19.06400 -5.15300 28.98300
C  19.94500 -6.16700 28.51100
C  19.68900 -6.20200 27.11000
C  18.74400 -5.10500 26.87300
C  20.82900 -7.05900 29.43300
C  20.27900 -7.05600 26.06500
O  19.81800 -7.08400 24.93500
C  21.35200 -8.07400 26.40800
N  17.02500 -2.68700 26.13500
C  17.75500 -3.47500 25.29100
C  17.62900 -2.99700 23.85800
C  16.67400 -1.70500 23.99800
C  16.49400 -1.65500 25.44600
C  18.96000 -2.62200 23.07300
C  15.29600 -1.85400 23.26700
C  14.69600 -0.58300 22.67200
N  15.90900 -1.19900 28.39500
C  15.36200 -0.39900 27.35800
C  14.51800 0.66600 27.92600
C  14.80800 0.51100 29.30000
C  15.61400 -0.63800 29.57400
C  13.84600 1.70800 27.08900
C  14.69800 1.17200 30.58400
O  14.14600 2.29100 30.80900
C  15.44900 0.26400 31.67800
C  16.44900 1.18100 32.34300
O  17.61600 1.39500 32.02200
O  15.88500 1.83000 33.43700
C  16.67200 2.93800 34.00500
H  19.60400 -5.26000 31.09900
H  19.02000 -4.95600 24.71900
H  15.77700 0.32700 25.43900
H  17.68900 -1.37400 33.19300
H  18.33400 -4.16100 33.15900
H  20.27200 -3.39100 33.84500
H  19.82800 -1.77900 33.32900
H  20.68700 -3.08900 32.21300
H  15.90100 -3.88400 33.56500
H  15.20900 -2.29200 33.29100
H  15.62200 -3.08900 35.83500
H  15.57200 -1.53700 35.10400
H  21.82900 -6.66600 29.24900
H  20.88000 -8.10000 29.11300
H  20.59700 -6.98500 30.49500
H  22.15200 -7.62100 26.99400
H  21.87600 -8.55100 25.57800
H  20.84300 -8.86800 26.95400
H  17.07200 -3.75700 23.31000
H  17.23400 -0.78700 23.81900
H  18.80600 -1.76600 22.41600
H  19.30800 -3.47600 22.49200
H  19.81000 -2.37400 23.70800
H  14.60500 -2.15800 24.05200
H  15.37700 -2.62400 22.49900
H  15.00300 -0.59400 21.62600
H  15.17300 0.21700 23.23900
H  13.60900 -0.52700 22.72500
H  14.14200 2.70700 27.40900
H  12.78200 1.71400 27.32400
H  13.98700 1.55800 26.01800
H  14.66600 -0.03800 32.37300
H  16.42700 3.88500 33.52500
H  17.75300 2.79700 33.98900
H  16.37000 2.89100 35.05100

