158

Mg 9.41300 47.99600 26.17500
C  7.19100 47.80500 28.76800
C  11.91700 49.09100 28.38000
C  11.42100 48.51900 23.58700
C  6.81200 47.23700 23.98200
N  9.52500 48.29400 28.33400
C  8.51000 48.17600 29.19300
C  8.89400 48.56600 30.66700
C  10.35100 49.18400 30.43000
C  10.63400 48.85900 28.97900
C  10.48500 50.71000 30.84000
C  8.93700 47.32500 31.57700
C  9.73000 47.37100 32.91200
H  9.00600 47.08100 34.30300
N  11.38200 48.77500 26.02000
C  12.33100 49.07400 27.00300
C  13.55200 49.38500 26.44500
C  13.42600 49.21500 25.01200
C  12.01800 48.79100 24.81500
C  14.71500 49.67300 27.31800
C  14.49800 49.39600 23.90700
O  14.34200 49.27600 22.70700
C  15.82500 49.91700 24.36800
N  9.08000 47.90000 24.00400
C  10.12300 48.12700 23.15700
C  9.70100 47.92300 21.64800
C  8.34600 47.14100 21.85200
C  7.96700 47.52900 23.35300
C  9.45100 49.29700 20.91100
C  8.39800 45.64000 21.48300
C  8.46200 45.24400 19.95400
N  7.47400 47.59500 26.24100
C  6.49600 47.34900 25.27900
C  5.17100 47.14600 25.90800
C  5.39800 47.32700 27.27200
C  6.77900 47.66500 27.40600
C  3.88500 46.79000 25.19300
C  4.79500 47.32300 28.57200
O  3.60900 47.08100 28.89400
C  5.90900 47.56500 29.61300
C  6.05500 46.28500 30.44100
O  6.73300 45.33500 30.17200
O  5.38100 46.42600 31.61400
C  5.51300 45.32500 32.62000
H  12.57300 49.38100 29.20400
H  12.03200 48.52700 22.68200
H  6.00900 46.88900 23.32900
H  8.22900 49.24900 31.19600
H  11.00200 48.64800 31.12000
H  10.62700 51.35300 29.97100
H  11.37500 50.77000 31.46600
H  9.55800 51.08100 31.27800
H  9.27400 46.39600 31.11700
H  7.88600 47.30900 31.86500
H  10.18200 48.35400 33.04200
H  10.48400 46.58500 32.89500
H  15.06900 50.70300 27.30300
H  15.45800 48.95000 26.97900
H  14.61700 49.50200 28.39000
H  16.41000 50.19900 23.49300
H  16.12600 49.09500 25.01900
H  15.62900 50.81200 24.95700
H  10.24100 47.14000 21.11500
H  7.59000 47.63700 21.24200
H  10.04000 49.20400 19.99800
H  9.82500 50.07400 21.57800
H  8.42800 49.56100 20.64200
H  7.39400 45.32100 21.76400
H  9.11700 45.06200 22.06400
H  9.06100 45.92900 19.35400
H  7.48500 45.24800 19.47000
H  8.90600 44.25000 19.90500
H  3.24600 46.17400 25.82500
H  4.32300 46.21700 24.37600
H  3.34600 47.64800 24.79000
H  5.71800 48.45400 30.21400
H  5.15700 45.61400 33.60900
H  6.58200 45.11300 32.60800
H  4.89800 44.47400 32.33000
Mg -10.42000 16.68000 42.95200
C  -7.06200 17.41700 43.39700
C  -11.00400 20.24300 42.45000
C  -13.75100 16.13300 42.39300
C  -9.79400 13.40000 42.84600
N  -9.23000 18.55200 42.84400
C  -7.86200 18.55800 43.11800
C  -7.28500 19.98300 42.82800
C  -8.57700 20.83700 42.90500
C  -9.69800 19.83000 42.72700
C  -8.75900 21.53500 44.26700
C  -6.56800 19.93900 41.44400
C  -5.20500 20.70400 41.50300
H  -4.09700 20.05700 40.70400
N  -12.17000 18.02600 42.46800
C  -12.19800 19.41100 42.42300
C  -13.55700 19.77200 42.19300
C  -14.35700 18.63600 42.03100
C  -13.43100 17.51900 42.26300
C  -13.87300 21.24700 42.06000
C  -15.82500 18.54600 41.65800
O  -16.49000 19.56200 41.69500
C  -16.60700 17.20400 41.33200
N  -11.61400 15.05900 42.64400
C  -12.98200 15.03900 42.62600
C  -13.54500 13.65600 42.66300
C  -12.22900 12.77000 42.47100
C  -11.13800 13.78400 42.64400
C  -14.38000 13.28100 44.02900
C  -12.10300 12.16300 41.02700
C  -11.36300 10.83100 40.99700
N  -8.77600 15.51300 43.07800
C  -8.64400 14.16900 43.12800
C  -7.22600 13.85100 43.38100
C  -6.58900 15.11800 43.50400
C  -7.58000 16.09900 43.25700
C  -6.61500 12.45100 43.49200
C  -5.30400 15.77200 43.66000
O  -4.23400 15.25100 43.78800
C  -5.57000 17.28300 43.58000
C  -5.02600 17.86500 44.83500
O  -5.44400 17.58000 45.93600
O  -4.05600 18.77100 44.58900
C  -3.77200 19.68900 45.68300
H  -11.15200 21.32200 42.37800
H  -14.80400 15.85400 42.31800
H  -9.43200 12.37000 42.82100
H  -6.67000 20.10100 43.72000
H  -8.67000 21.51700 42.05800
H  -9.16600 20.79600 44.95700
H  -9.49600 22.32900 44.14600
H  -7.85200 21.93000 44.72400
H  -7.18200 20.53700 40.77000
H  -6.51600 18.91400 41.07700
H  -4.83200 20.91400 42.50500
H  -5.56200 21.66800 41.14200
H  -14.59700 21.53200 41.29700
H  -13.09700 21.92300 41.70100
H  -14.33800 21.61000 42.97600
H  -17.45400 17.55500 40.74300
H  -16.96300 16.82600 42.29000
H  -16.07500 16.44600 40.75700
H  -14.20800 13.36800 41.84600
H  -12.08300 11.98700 43.21500
H  -14.22000 12.37100 44.60700
H  -15.40600 13.28700 43.66000
H  -14.33200 14.09000 44.75800
H  -11.62100 12.90700 40.39200
H  -13.10400 11.88600 40.69700
H  -12.13400 10.06200 40.96800
H  -10.60500 10.70800 41.77000
H  -10.82100 10.71700 40.05800
H  -7.24500 11.76100 42.93100
H  -6.50300 12.06700 44.50600
H  -5.62200 12.39800 43.04500
H  -5.19500 17.80800 42.70100
H  -4.22100 20.60900 45.30800
H  -2.70500 19.87800 45.80000
H  -4.17600 19.50300 46.67800

