158

Mg 25.93800 -6.13500 47.19200
C  27.34300 -3.14700 46.05200
C  23.27300 -5.52200 44.97500
C  24.83900 -9.21100 47.88000
C  29.05000 -6.75600 48.84700
N  25.46800 -4.52200 45.60300
C  26.11700 -3.39700 45.31900
C  25.44900 -2.50600 44.21500
C  23.99600 -3.20900 44.24800
C  24.29600 -4.52200 44.92200
C  22.85200 -2.40600 44.89600
C  26.19700 -2.78300 42.87600
C  26.71700 -1.64900 41.96000
H  25.87000 -1.35600 40.72300
N  24.30900 -7.26800 46.47200
C  23.30200 -6.80900 45.68300
C  22.22600 -7.73200 45.73200
C  22.63200 -8.77200 46.52900
C  23.99200 -8.47600 46.98900
C  20.82400 -7.47000 45.06900
C  21.60300 -9.94900 46.77700
O  20.51400 -10.09400 46.34000
C  22.06300 -11.00800 47.63300
N  26.76800 -7.65900 48.30100
C  26.11000 -8.90100 48.41800
C  26.90600 -9.94500 49.26100
C  28.24600 -9.11400 49.61500
C  28.05600 -7.78200 48.78200
C  26.19900 -10.54700 50.50400
C  29.57400 -9.85500 49.12700
C  30.77300 -9.84000 50.20000
N  27.84100 -5.15800 47.40700
C  28.95800 -5.49500 48.12200
C  29.86300 -4.38400 48.13900
C  29.24500 -3.44900 47.36700
C  28.02600 -3.98600 46.92600
C  31.19100 -4.53900 48.74500
C  29.33200 -2.10800 46.96800
O  30.16400 -1.22400 47.21900
C  28.15600 -1.85000 45.89200
C  27.43200 -0.57100 46.22200
O  27.34200 0.37600 45.46900
O  26.86600 -0.65500 47.44700
C  25.92100 0.36300 47.83600
H  22.39600 -5.43000 44.33000
H  24.46700 -10.21600 48.08800
H  29.98600 -7.03200 49.33700
H  25.35800 -1.44700 44.45700
H  23.52400 -3.42500 43.28900
H  22.42600 -2.88800 45.77600
H  22.07600 -2.41300 44.13100
H  23.23800 -1.42500 45.17100
H  25.48800 -3.38600 42.30800
H  27.02100 -3.46200 43.09600
H  27.72400 -1.82100 41.58100
H  26.92800 -0.67700 42.40700
H  20.13800 -7.41700 45.91500
H  20.64100 -8.29400 44.38000
H  20.92400 -6.56100 44.47700
H  23.04100 -11.24700 47.21600
H  21.41400 -11.87200 47.49000
H  22.23400 -10.86500 48.70000
H  27.11600 -10.74000 48.54600
H  28.27400 -8.84200 50.67000
H  26.18700 -11.63400 50.57300
H  25.12900 -10.34700 50.46500
H  26.49600 -10.03100 51.41700
H  29.86600 -9.41300 48.17400
H  29.32400 -10.87600 48.83800
H  31.68100 -10.09100 49.65200
H  30.62800 -10.61500 50.95300
H  30.94100 -8.85800 50.64200
H  31.93600 -4.76900 47.98300
H  31.23700 -5.26700 49.55400
H  31.51100 -3.53500 49.02200
H  28.54900 -1.71100 44.88400
H  26.12400 0.52900 48.89400
H  24.90200 -0.01700 47.91100
H  25.96300 1.26700 47.22800
Mg 41.54800 41.20100 26.75000
C  40.79400 43.38800 29.47400
C  42.61800 38.90400 29.05000
C  42.65600 39.28800 24.21800
C  40.77300 43.82600 24.55600
N  41.70500 41.13900 29.06700
C  41.16800 42.13900 29.89700
C  41.36900 41.57500 31.37300
C  42.11300 40.15100 31.29700
C  42.17500 40.04100 29.73100
C  43.37900 39.99300 32.03700
C  40.06500 41.59900 32.13000
C  40.20400 41.40400 33.63600
H  39.54600 42.50600 34.52300
N  42.45900 39.31800 26.61400
C  42.81900 38.52900 27.67100
C  43.43400 37.27600 27.14600
C  43.45700 37.34100 25.72400
C  42.80300 38.70900 25.45000
C  43.96100 36.18600 28.07500
C  44.04600 36.32300 24.75000
O  44.04600 36.55300 23.50100
C  44.89100 35.14000 25.17200
N  41.80300 41.58900 24.71700
C  42.14900 40.55900 23.87900
C  41.97400 40.99900 22.46100
C  41.11700 42.31500 22.50000
C  41.23000 42.58300 24.01900
C  43.32000 41.37100 21.61900
C  39.63700 42.27400 22.02000
C  38.81700 41.06400 22.45600
N  40.95000 43.19500 26.93000
C  40.74300 44.21100 25.89000
C  40.44600 45.45800 26.49900
C  40.28500 45.13200 27.91000
C  40.72700 43.76900 28.11600
C  40.13100 46.72900 25.84100
C  39.84100 45.73200 29.22300
O  39.44100 46.86800 29.53000
C  40.14000 44.54600 30.24500
C  41.16200 45.22200 31.13900
O  42.20000 45.65700 30.70200
O  40.80000 45.31700 32.46300
C  41.85400 45.97200 33.38600
H  42.97000 38.19800 29.80600
H  43.08800 38.73900 23.37900
H  40.37700 44.63500 23.93800
H  42.09300 42.27100 31.79600
H  41.43500 39.33200 31.54100
H  43.87500 40.94400 32.23200
H  43.99900 39.36200 31.39900
H  43.28000 39.44900 32.97700
H  39.48500 40.74400 31.78300
H  39.59300 42.58000 32.08400
H  41.27000 41.25000 33.80900
H  39.75000 40.45600 33.92300
H  44.97600 35.90900 27.78900
H  43.35600 35.30400 27.86100
H  43.95300 36.36800 29.14900
H  44.97400 34.39200 24.38400
H  44.33100 34.70400 25.99900
H  45.86700 35.58800 25.35900
H  41.57200 40.18500 21.85600
H  41.56200 43.14600 21.95100
H  44.15400 40.93100 22.16700
H  43.46600 42.44500 21.50400
H  43.35100 41.04500 20.57900
H  39.65300 42.26500 20.93000
H  39.05800 43.15900 22.28300
H  38.63400 40.51200 21.53400
H  37.87600 41.31000 22.94700
H  39.43600 40.40100 23.06200
H  40.31100 46.70600 24.76600
H  40.74200 47.53400 26.24900
H  39.08800 46.96000 26.05700
H  39.22300 44.45000 30.82500
H  42.02100 45.30200 34.22900
H  41.52400 46.94900 33.73900
H  42.81500 46.06300 32.88000

