158

Mg 42.92900 4.16000 47.64200
C  40.89700 6.98400 47.40900
C  40.07700 2.21600 47.60800
C  44.90800 1.44200 47.06800
C  45.71900 6.24500 47.33500
N  40.72300 4.55500 47.46500
C  40.11500 5.77300 47.49100
C  38.53300 5.63300 47.77900
C  38.39800 4.11500 47.85000
C  39.80500 3.58000 47.69500
C  37.77900 3.51100 49.13500
C  37.58600 6.33300 46.69900
C  38.04400 5.95500 45.26600
H  38.41400 7.03700 44.29600
N  42.52100 2.09500 47.48500
C  41.28400 1.50500 47.40400
C  41.38800 0.09100 47.11900
C  42.79600 -0.13300 46.91200
C  43.48700 1.14800 47.20500
C  40.32300 -0.93800 47.12500
C  43.37500 -1.55700 46.54700
O  42.69700 -2.51500 46.35600
C  44.91100 -1.75700 46.32200
N  45.01100 3.89300 47.19600
C  45.63600 2.63600 47.17700
C  47.16100 2.75600 47.25400
C  47.41400 4.25800 47.38900
C  45.97400 4.87400 47.38300
C  47.83400 1.87000 48.39400
C  48.47100 4.82900 46.37600
C  49.94300 4.97800 46.88000
N  43.26500 6.21600 47.31700
C  44.41000 6.86600 47.26100
C  44.14100 8.29800 47.21100
C  42.73700 8.39000 47.22500
C  42.27600 7.09000 47.31000
C  45.15600 9.41500 47.14200
C  41.60100 9.29500 47.22800
O  41.52500 10.54500 47.20900
C  40.32100 8.42000 47.31500
C  39.47400 8.99600 48.42400
O  39.45200 8.68400 49.64600
O  38.56600 9.88600 47.85600
C  37.66800 10.49300 48.76800
H  39.12200 1.68800 47.64600
H  45.60200 0.59900 47.06500
H  46.61600 6.86600 47.29300
H  38.33700 6.24600 48.65900
H  38.01600 3.68600 46.92400
H  37.40100 4.32300 49.75600
H  38.55400 3.11600 49.79200
H  36.91700 2.86700 48.96400
H  37.68800 7.41300 46.80400
H  36.56500 6.08200 46.98700
H  37.16400 5.40300 44.93600
H  38.82000 5.18900 45.24900
H  40.59700 -1.83700 47.67800
H  40.27900 -1.17300 46.06200
H  39.35500 -0.56400 47.45700
H  45.50200 -1.90100 47.22600
H  45.26900 -0.94500 45.68900
H  44.97700 -2.78400 45.96300
H  47.60200 2.38700 46.32800
H  47.63900 4.50100 48.42800
H  48.55900 2.46100 48.95500
H  48.41900 1.06900 47.94200
H  47.19900 1.43800 49.16700
H  48.00100 5.71700 45.95400
H  48.54400 4.14600 45.52900
H  50.01400 4.57900 47.89100
H  50.25900 6.01900 46.95700
H  50.62200 4.41800 46.23700
H  44.57200 10.30900 46.92300
H  45.93400 9.26300 46.39400
H  45.56500 9.58600 48.13700
H  39.79400 8.64200 46.38700
H  37.04500 9.81900 49.35700
H  36.93800 11.12400 48.26100
H  38.19600 11.10300 49.50100
Mg 47.11600 24.72200 28.82600
C  47.86300 27.32600 31.00000
C  45.81900 22.98500 31.60100
C  46.60000 22.14700 26.77800
C  48.93600 26.37000 26.26800
N  46.82100 25.09000 31.01200
C  47.15900 26.29600 31.62600
C  46.66500 26.27500 33.07700
C  46.58900 24.73300 33.30700
C  46.44600 24.18300 31.91900
C  47.76700 24.02000 33.91400
C  45.30300 26.94900 33.34400
C  45.37400 27.97400 34.56900
H  45.82800 27.61900 36.03800
N  46.29200 22.82300 29.12100
C  45.73700 22.31100 30.26600
C  45.09100 21.02800 29.92700
C  45.25000 20.83900 28.52800
C  46.11200 21.95500 28.07200
C  44.43600 20.20000 30.94400
C  44.71700 19.72000 27.58000
O  45.05500 19.61200 26.42300
C  43.93100 18.69100 28.21100
N  47.85900 24.26700 26.81600
C  47.37100 23.12800 26.19500
C  47.93800 23.05100 24.73200
C  48.56900 24.44200 24.50100
C  48.48000 25.13800 25.92100
C  48.91500 21.90700 24.34200
C  47.84900 25.37500 23.40000
C  48.77900 26.04400 22.37500
N  48.16800 26.49100 28.64000
C  48.76300 27.02800 27.51100
C  49.31800 28.38800 27.89000
C  48.97500 28.49100 29.26500
C  48.25300 27.35100 29.65100
C  49.92300 29.40000 26.94400
C  49.16400 29.35500 30.43300
O  49.77700 30.38000 30.60700
C  48.43600 28.55700 31.60700
C  49.43000 28.29500 32.69900
O  50.39800 27.55300 32.80800
O  48.97600 29.04200 33.75700
C  49.64800 28.91000 35.09100
H  45.27200 22.52600 32.42700
H  46.55800 21.33200 26.05200
H  49.45300 26.95800 25.50600
H  47.45600 26.66300 33.71900
H  45.80200 24.38600 33.97700
H  47.80700 22.96100 33.65700
H  47.75400 24.08400 35.00200
H  48.72400 24.39600 33.55400
H  44.60800 26.16500 33.64600
H  44.98200 27.54700 32.49100
H  44.35300 28.33800 34.68900
H  46.03100 28.75400 34.18500
H  44.06900 20.77500 31.79400
H  45.18800 19.57700 31.42900
H  43.62800 19.62400 30.49200
H  43.00300 19.14200 28.56400
H  44.51300 18.29100 29.04100
H  43.75200 17.95800 27.42500
H  47.12200 22.88400 24.02900
H  49.60700 24.48300 24.17100
H  49.58100 22.27300 23.56100
H  48.31500 21.05200 24.03100
H  49.49500 21.62300 25.22000
H  47.37000 26.19500 23.93500
H  47.00100 24.85100 22.95900
H  48.98500 27.07700 22.65600
H  48.37700 25.97200 21.36400
H  49.76500 25.58200 22.33100
H  49.46900 30.35900 27.19300
H  49.67200 29.19100 25.90400
H  51.00500 29.46700 27.05400
H  47.65600 29.27200 31.86800
H  48.83000 28.60000 35.74100
H  49.99600 29.87400 35.46100
H  50.47000 28.19600 35.15100

