158

Mg -0.78700 34.17200 27.62600
C  -2.91500 32.77300 29.96000
C  0.66800 36.00600 30.29800
C  0.63600 36.39600 25.36600
C  -2.41300 32.56400 25.04800
N  -1.22400 34.48800 29.79000
C  -2.07700 33.72800 30.54700
C  -1.86600 33.98900 32.02000
C  -0.95200 35.30300 32.06400
C  -0.38500 35.19100 30.66600
C  -1.56600 36.73500 32.35000
C  -1.25100 32.76400 32.78900
C  -1.91500 32.38300 34.13200
H  -0.99800 32.35700 35.37300
N  0.59700 35.76700 27.77000
C  1.03800 36.34300 28.93200
C  1.93700 37.45200 28.62200
C  1.89300 37.62200 27.24500
C  0.97500 36.59200 26.73400
C  2.71200 38.26400 29.68700
C  2.66100 38.62900 26.33500
O  2.71300 38.70900 25.11900
C  3.48500 39.69200 27.07800
N  -0.93200 34.48400 25.56700
C  -0.21100 35.43200 24.81800
C  -0.46800 35.25100 23.29000
C  -1.31400 33.96300 23.17100
C  -1.62900 33.68000 24.68900
C  -1.17900 36.53600 22.72800
C  -0.70500 32.74200 22.32600
C  -1.68100 31.97800 21.43500
N  -2.37100 32.95500 27.47800
C  -2.89800 32.34400 26.38800
C  -3.85600 31.35900 26.87800
C  -3.84900 31.51900 28.29600
C  -3.03100 32.53200 28.59800
C  -4.62200 30.30700 26.05300
C  -4.37000 30.97100 29.41200
O  -5.12500 30.01000 29.49800
C  -3.83800 31.74700 30.72100
C  -4.94800 32.43400 31.48100
O  -5.70600 33.29500 31.04900
O  -5.05100 31.86000 32.69900
C  -5.88500 32.53100 33.70400
H  1.21800 36.48400 31.11200
H  1.10600 37.10900 24.68500
H  -2.87600 32.05500 24.20100
H  -2.83100 34.31200 32.40900
H  -0.13300 35.10700 32.75600
H  -0.73900 37.33800 32.72300
H  -2.28900 36.73400 33.16600
H  -2.13600 37.17800 31.53300
H  -0.20900 33.04200 32.94900
H  -1.28000 31.91700 32.10400
H  -2.50300 31.47900 33.97200
H  -2.68800 33.11300 34.37000
H  3.76400 38.18900 29.41200
H  2.50000 37.86500 30.67900
H  2.32000 39.28100 29.69400
H  2.91000 40.36300 27.71600
H  3.84200 40.38300 26.31500
H  4.29200 39.11300 27.52500
H  0.46700 35.22500 22.73000
H  -2.32700 34.16400 22.82300
H  -1.26700 37.37900 23.41300
H  -2.17400 36.26700 22.37400
H  -0.61700 36.90600 21.87000
H  -0.58300 31.98300 23.09800
H  0.24300 32.98200 21.84300
H  -1.31100 32.04800 20.41200
H  -2.65900 32.43500 21.28700
H  -1.74400 30.94000 21.76000
H  -4.24400 30.20400 25.03600
H  -5.68200 30.56000 26.05500
H  -4.62600 29.34000 26.55700
H  -3.25600 30.99400 31.25200
H  -6.34500 31.73300 34.28600
H  -6.73000 33.05700 33.26000
H  -5.24000 33.11900 34.35700
Mg -12.12300 16.78700 40.49200
C  -8.89300 15.47600 40.13000
C  -10.70200 19.90200 40.22600
C  -15.19600 18.03200 40.21000
C  -13.38900 13.55600 40.53600
N  -10.04500 17.65700 40.08300
C  -8.90800 16.90000 39.99700
C  -7.59400 17.80000 40.00200
C  -8.18800 19.28100 40.14300
C  -9.71200 18.96100 40.18800
C  -7.73800 20.20600 41.32800
C  -6.76800 17.69900 38.67100
C  -5.36500 17.08700 38.73400
H  -4.80700 15.73200 38.17200
N  -12.85600 18.74400 40.11600
C  -12.11400 19.84900 40.05800
C  -13.08800 20.95100 39.82700
C  -14.37400 20.42100 39.78400
C  -14.23200 18.99800 40.01900
C  -12.54500 22.34000 39.67000
C  -15.57400 21.21400 39.56000
O  -15.51600 22.43800 39.34800
C  -16.95400 20.56300 39.47600
N  -14.01500 15.87200 40.24900
C  -15.14200 16.60200 40.31100
C  -16.40500 15.74900 40.42700
C  -15.86200 14.34000 40.26500
C  -14.27400 14.58100 40.51800
C  -17.13100 15.99700 41.81800
C  -16.08200 13.60000 38.84600
C  -17.51100 13.31800 38.51300
N  -11.38000 14.90600 40.31300
C  -11.98800 13.66700 40.50600
C  -11.06500 12.61500 40.48700
C  -9.79000 13.22900 40.26300
C  -10.04700 14.65900 40.22700
C  -11.47100 11.19500 40.62800
C  -8.35200 13.08600 40.19300
O  -7.67400 12.08000 40.34800
C  -7.74700 14.49000 40.14300
C  -6.82000 14.53100 41.26400
O  -7.09900 14.99800 42.34000
O  -5.55100 14.18000 40.89000
C  -4.57300 14.35500 41.96300
H  -10.23500 20.88300 40.12100
H  -16.23300 18.36500 40.13800
H  -13.80200 12.54500 40.55600
H  -6.99400 17.51000 40.86400
H  -8.10000 19.88400 39.24000
H  -8.60100 20.45500 41.94600
H  -7.40000 21.11900 40.83800
H  -6.95800 19.67900 41.87800
H  -6.74800 18.61700 38.08300
H  -7.29200 17.05300 37.96700
H  -5.11500 17.15500 39.79300
H  -4.63000 17.75800 38.29000
H  -13.08800 22.92200 38.92500
H  -11.53100 22.36200 39.26900
H  -12.49400 22.93700 40.58000
H  -16.80800 19.75000 38.76400
H  -17.73900 21.25300 39.17000
H  -17.20400 20.24700 40.48900
H  -17.06800 16.04200 39.61200
H  -16.18800 13.63700 41.03200
H  -18.05400 16.57500 41.86300
H  -16.41300 16.29000 42.58300
H  -17.55700 15.02800 42.08100
H  -15.39100 12.78000 38.65100
H  -15.68600 14.36500 38.17700
H  -17.69900 12.24500 38.49000
H  -17.82900 13.60100 37.50900
H  -18.18500 13.81100 39.21400
H  -11.84800 10.76200 39.70100
H  -12.11100 10.91400 41.46400
H  -10.46500 10.79300 40.75200
H  -7.14500 14.60000 39.24000
H  -4.40200 15.43000 42.02400
H  -3.58100 13.99200 41.69400
H  -4.83300 13.98500 42.95400

