158

Mg 35.95300 50.09000 26.23400
C  35.57400 48.07100 29.13100
C  35.04300 52.81500 28.18200
C  36.40600 51.98400 23.59100
C  36.71400 47.13400 24.46500
N  35.46700 50.38800 28.30900
C  35.42300 49.44800 29.30200
C  35.42600 50.14900 30.69400
C  34.69400 51.51900 30.35300
C  35.08100 51.59300 28.84900
C  33.19000 51.56500 30.59000
C  36.79400 50.28600 31.34800
C  36.76100 50.09400 32.86400
H  35.48700 50.15900 33.66600
N  35.77500 52.10900 25.90500
C  35.40700 53.07300 26.83700
C  35.42600 54.33300 26.28800
C  35.94200 54.21800 24.91200
C  36.10400 52.74900 24.71200
C  34.95100 55.48700 27.05200
C  36.28200 55.28400 23.83700
O  36.63400 54.93800 22.73200
C  36.05400 56.73300 24.18000
N  36.27900 49.58900 24.29900
C  36.53900 50.57600 23.39100
C  36.84600 49.97900 22.03200
C  37.34000 48.56500 22.43500
C  36.64500 48.33500 23.77600
C  35.57200 50.07600 21.13000
C  38.85300 48.35100 22.52600
C  39.44500 47.26600 21.67700
N  36.13400 47.97300 26.68700
C  36.41800 46.91300 25.87000
C  36.42400 45.71800 26.64100
C  36.18300 46.10700 27.89400
C  35.94500 47.46600 27.90100
C  36.72400 44.34500 26.17400
C  36.01700 45.68000 29.26500
O  36.10500 44.57400 29.72400
C  35.63400 46.95200 30.16000
C  34.37100 46.75900 30.92700
O  33.22200 47.03500 30.57800
O  34.60000 46.13300 32.16100
C  33.41200 45.76700 32.87600
H  34.58200 53.53300 28.86300
H  36.77100 52.63400 22.79400
H  36.96700 46.22800 23.90900
H  34.77700 49.49700 31.27900
H  35.06500 52.32300 30.98800
H  32.88100 50.66000 31.11200
H  32.73200 51.64000 29.60400
H  32.82000 52.36900 31.22600
H  37.34500 51.17900 31.05500
H  37.42500 49.51500 30.90500
H  37.46200 50.72500 33.40900
H  37.14700 49.07700 32.92500
H  35.74800 55.90800 27.66400
H  34.10400 55.22500 27.68700
H  34.59400 56.27400 26.38800
H  36.47000 57.29000 23.34100
H  36.69800 57.00500 25.01700
H  35.01000 57.03700 24.25900
H  37.74000 50.44500 21.61600
H  36.94500 47.87100 21.69200
H  35.23900 51.10100 20.96700
H  34.64500 49.56300 21.38700
H  35.87700 49.72700 20.14400
H  39.13200 48.32400 23.57900
H  39.34700 49.23800 22.13100
H  40.02700 46.71400 22.41500
H  39.96600 47.62200 20.78800
H  38.67600 46.56500 21.35200
H  37.13200 44.43500 25.16700
H  35.85400 43.69400 26.08700
H  37.46800 44.02600 26.90400
H  36.48600 47.17200 30.80300
H  33.62500 45.12300 33.72900
H  32.59000 45.35600 32.28800
H  32.99800 46.62700 33.40200
Mg -9.51200 17.90200 42.53600
C  -6.04700 17.36600 42.12600
C  -8.95100 21.25300 41.81900
C  -12.85600 18.22800 42.18800
C  -9.90600 14.41600 42.23500
N  -7.65700 19.13200 42.03900
C  -6.43400 18.70800 41.96600
C  -5.44500 19.88000 41.68100
C  -6.27800 21.15300 41.78100
C  -7.72400 20.48800 41.94000
C  -5.91700 22.20300 42.91700
C  -4.53700 19.82100 40.39100
C  -5.06700 18.96800 39.28400
H  -4.31100 18.87700 37.92900
N  -10.67400 19.51400 42.20600
C  -10.30700 20.83000 41.87200
C  -11.48600 21.73400 41.71100
C  -12.60800 20.88400 41.87400
C  -12.08000 19.45800 42.15900
C  -11.32900 23.20800 41.29400
C  -14.03800 21.38700 41.93400
O  -14.19500 22.63100 41.74900
C  -15.22700 20.51000 42.08300
N  -11.20100 16.48600 42.02500
C  -12.48000 16.89400 42.25000
C  -13.46800 15.67700 42.33400
C  -12.44100 14.49100 42.53800
C  -11.09100 15.10800 42.23400
C  -14.61100 15.64100 43.41900
C  -12.65500 13.18800 41.81500
C  -12.70900 11.94600 42.74700
N  -8.25500 16.17000 42.31400
C  -8.56100 14.85000 42.28800
C  -7.26700 14.00600 42.25600
C  -6.24800 15.00500 42.24300
C  -6.92500 16.22900 42.25300
C  -7.21000 12.49900 42.29400
C  -4.79200 15.22500 42.18000
O  -3.85100 14.48400 41.93800
C  -4.62100 16.79000 42.25200
C  -3.72300 17.24700 43.44300
O  -2.65900 17.89100 43.36500
O  -4.41300 16.97300 44.66500
C  -3.92000 17.71500 45.82600
H  -8.72900 22.30500 41.63000
H  -13.94300 18.31000 42.12400
H  -9.93300 13.32400 42.22000
H  -4.77200 19.75000 42.52900
H  -6.31900 21.72100 40.85200
H  -4.96900 22.06900 43.43700
H  -6.71400 22.26400 43.65800
H  -6.00900 23.14800 42.38100
H  -3.51700 19.51500 40.62400
H  -4.62400 20.81100 39.94500
H  -6.05900 19.38000 39.10000
H  -5.11900 17.96000 39.69500
H  -10.54000 23.32400 40.55100
H  -11.14900 23.72500 42.23700
H  -12.17100 23.74100 40.85300
H  -15.31400 19.91100 42.99000
H  -15.24600 19.88400 41.19100
H  -16.17900 21.04000 42.04200
H  -13.95500 15.53500 41.37000
H  -12.47700 14.35200 43.61800
H  -15.59100 15.90000 43.01700
H  -14.45200 16.40800 44.17700
H  -14.66300 14.69200 43.95100
H  -11.84700 13.01900 41.10300
H  -13.61200 13.37100 41.32400
H  -13.73800 11.59900 42.66000
H  -12.55200 12.12100 43.81200
H  -12.11800 11.12200 42.34600
H  -7.77000 11.98100 41.51600
H  -7.67200 12.29400 43.26000
H  -6.15300 12.23300 42.30400
H  -3.97200 17.02100 41.40700
H  -2.84200 17.58500 45.92700
H  -4.57800 17.51500 46.67200
H  -3.96200 18.79500 45.68600

