158

Mg 1.74400 -1.30200 43.61500
C  5.36000 -0.91800 43.69500
C  1.51400 1.86700 42.36200
C  -1.45900 -1.96000 43.09200
C  2.36200 -4.48100 44.83100
N  3.28700 0.21800 42.99500
C  4.68700 0.16300 43.08100
C  5.32500 1.42700 42.40700
C  4.05600 2.35400 42.09500
C  2.83600 1.44400 42.56100
C  4.01500 3.68400 42.77300
C  6.25900 1.13300 41.26600
C  5.99200 -0.14600 40.42600
H  5.23500 0.10400 39.05100
N  0.23500 -0.23900 42.90600
C  0.34100 1.11600 42.56300
C  -0.98700 1.60700 42.29900
C  -1.93500 0.53000 42.40800
C  -1.08700 -0.61200 42.85000
C  -1.30300 3.08900 41.99000
C  -3.43800 0.57500 42.15000
O  -3.86600 1.63900 41.75700
C  -4.42400 -0.53300 42.47400
N  0.70100 -3.07900 43.57600
C  -0.61200 -3.05800 43.44000
C  -1.27300 -4.32600 43.85600
C  -0.13600 -4.92400 44.74000
C  1.10500 -4.16700 44.33700
C  -2.70200 -4.37200 44.37800
C  0.05400 -6.45900 44.55100
C  0.17300 -7.29800 45.80500
N  3.45900 -2.51800 44.19300
C  3.53300 -3.79400 44.69700
C  4.88200 -4.19100 45.01600
C  5.61700 -3.07100 44.62700
C  4.73300 -2.12200 44.13700
C  5.22600 -5.61400 45.50100
C  7.04000 -2.61300 44.47800
O  8.10900 -3.12700 44.80800
C  6.89000 -1.14200 43.87300
C  7.30600 -0.14200 44.92400
O  6.64400 0.14100 45.88000
O  8.49000 0.46400 44.44900
C  8.77600 1.80700 45.00500
H  1.36400 2.89100 42.01300
H  -2.46800 -2.30400 42.85400
H  2.39700 -5.39100 45.43400
H  5.92500 1.93900 43.16000
H  4.02800 2.51500 41.01800
H  3.50400 4.38100 42.10900
H  5.02700 4.00800 43.01200
H  3.45700 3.73900 43.70800
H  7.29200 1.12000 41.61300
H  6.11700 2.01400 40.64000
H  5.52800 -1.02000 40.88500
H  6.99100 -0.53300 40.22200
H  -1.35000 3.20800 40.90700
H  -0.49100 3.62300 42.48400
H  -2.21500 3.33700 42.53400
H  -4.53400 -1.31500 41.72300
H  -5.33500 -0.10100 42.88800
H  -3.92000 -0.96100 43.34100
H  -1.24000 -4.97800 42.98300
H  -0.34600 -4.57200 45.75100
H  -3.22300 -3.42000 44.27000
H  -2.80700 -4.89300 45.32900
H  -3.21300 -5.19100 43.87200
H  0.93000 -6.76300 43.97800
H  -0.78400 -6.92600 44.03500
H  0.29200 -8.36400 45.60900
H  -0.72600 -7.30000 46.42100
H  0.94500 -6.83000 46.41500
H  5.26500 -6.37800 44.72400
H  4.51100 -6.01500 46.21900
H  6.17100 -5.58300 46.04200
H  7.45200 -1.07700 42.94100
H  9.06000 2.46200 44.18200
H  9.70500 1.66700 45.55800
H  8.01300 2.35200 45.56100
Mg 1.61600 42.56000 25.86500
C  4.07100 42.41800 28.43700
C  -0.72900 41.74800 28.17000
C  -0.64400 42.72400 23.30400
C  4.20300 42.91500 23.52400
N  1.72600 41.90900 27.97100
C  2.76500 42.16900 28.87700
C  2.37600 41.90700 30.29900
C  0.88400 41.48500 30.15900
C  0.57900 41.68400 28.64700
C  0.43700 40.11400 30.76300
C  2.72700 43.11700 31.28500
C  1.70500 43.47300 32.36400
H  1.30800 42.30700 33.38100
N  -0.42100 42.32100 25.76100
C  -1.24400 41.96100 26.78100
C  -2.65800 42.03600 26.38400
C  -2.65200 42.35600 24.95100
C  -1.18300 42.43400 24.61100
C  -3.80300 41.83600 27.34900
C  -3.81200 42.50000 23.97900
O  -3.59400 42.80000 22.80800
C  -5.30200 42.55600 24.53500
N  1.75400 42.63400 23.67600
C  0.72000 42.76700 22.87300
C  1.15600 42.97800 21.41000
C  2.67300 43.27000 21.56200
C  2.91100 42.84000 22.99600
C  0.72300 41.86100 20.43700
C  3.06900 44.75700 21.14300
C  2.90600 45.81900 22.26600
N  3.71700 42.56400 25.92100
C  4.62600 42.72400 24.91600
C  5.99200 42.79200 25.44000
C  5.82000 42.71700 26.83600
C  4.41000 42.53200 27.09600
C  7.25900 43.06800 24.67200
C  6.49400 42.74500 28.07200
O  7.68400 42.99500 28.13000
C  5.41000 42.48300 29.11700
C  5.74200 41.32200 30.03300
O  5.64800 40.10900 29.70400
O  6.08100 41.83500 31.28700
C  6.34600 40.82200 32.26100
H  -1.55000 41.57100 28.86800
H  -1.31600 42.86900 22.45500
H  4.97400 43.13400 22.78200
H  2.94300 41.03800 30.63300
H  0.36900 42.26000 30.72800
H  -0.19400 39.56100 30.06800
H  -0.09700 40.41200 31.66600
H  1.29000 39.45700 30.93000
H  3.06000 44.04700 30.82300
H  3.64900 42.86600 31.80900
H  0.76300 43.81200 31.93300
H  2.22500 44.20700 32.98000
H  -4.58300 41.18200 26.95900
H  -4.14200 42.83400 27.62900
H  -3.49000 41.62000 28.37100
H  -5.54200 41.56800 24.92600
H  -5.96100 42.82900 23.71100
H  -5.38800 43.29300 25.33400
H  0.68600 43.88800 21.03600
H  3.15200 42.52400 20.92800
H  -0.23300 41.41500 20.70800
H  1.39500 41.00400 20.39300
H  0.74400 42.36700 19.47200
H  2.43400 45.08000 20.31800
H  4.07300 44.73100 20.71900
H  3.84300 46.37500 22.29500
H  2.66900 45.54200 23.29300
H  2.18400 46.53200 21.86900
H  6.98300 43.69400 23.82300
H  7.75400 42.14900 24.35800
H  8.01700 43.55500 25.28500
H  5.50300 43.37400 29.73900
H  5.59400 40.03400 32.22300
H  6.10000 41.29600 33.21100
H  7.39900 40.56300 32.37800

