158

Mg 48.17300 16.72500 28.92000
C  46.23100 16.39900 31.93400
C  50.29000 18.52800 30.63800
C  49.48500 17.48700 26.08500
C  45.41400 15.27300 27.19800
N  48.24200 17.38900 31.00700
C  47.45400 17.03500 32.07700
C  48.01200 17.56000 33.44800
C  49.11300 18.56700 32.84900
C  49.19800 18.16700 31.40000
C  48.83600 20.07200 32.97600
C  48.62700 16.47300 34.38000
C  48.16200 16.48600 35.89800
H  47.76000 17.84700 36.54200
N  49.73900 17.71800 28.44600
C  50.59400 18.32000 29.29500
C  51.77200 18.75900 28.63300
C  51.56900 18.49900 27.30000
C  50.22200 17.86300 27.22600
C  53.07400 19.11400 29.35400
C  52.49900 18.84100 26.12400
O  52.25400 18.51400 25.00800
C  53.81700 19.44600 26.26400
N  47.48200 16.53700 26.90400
C  48.27500 16.86100 25.86500
C  47.72600 16.46800 24.46000
C  46.47500 15.60800 24.92200
C  46.46800 15.80300 26.42900
C  47.34900 17.62900 23.70000
C  46.47200 14.10500 24.51500
C  45.85800 13.66600 23.13200
N  46.20200 15.91500 29.41900
C  45.20700 15.42300 28.56800
C  44.08300 15.01300 29.42700
C  44.46800 15.29400 30.70400
C  45.73100 15.82300 30.68800
C  42.70900 14.53400 28.97600
C  44.05100 15.27100 32.12600
O  43.03700 14.88400 32.64300
C  45.14600 15.97100 32.92300
C  44.49100 17.04500 33.69300
O  44.24200 18.11200 33.19000
O  44.01000 16.56600 34.95600
C  43.16200 17.53600 35.73800
H  51.00700 19.12500 31.20600
H  50.04200 17.73100 25.17700
H  44.56500 14.72000 26.79000
H  47.22700 18.16400 33.90200
H  50.09100 18.50700 33.32600
H  49.59200 20.58800 33.56900
H  47.87800 20.20900 33.47700
H  48.85700 20.46500 31.96000
H  49.71200 16.57500 34.35700
H  48.38300 15.52200 33.90700
H  48.91500 16.02300 36.53700
H  47.27400 15.85800 35.96800
H  53.87200 18.43200 29.06000
H  52.98800 19.01900 30.43600
H  53.37700 20.14100 29.14500
H  53.71700 20.25500 26.98700
H  54.20000 19.67100 25.26800
H  54.61400 18.77600 26.58700
H  48.60800 15.97300 24.05400
H  45.56000 16.06700 24.54800
H  46.34100 17.56900 23.29100
H  48.03600 17.67800 22.85400
H  47.47900 18.55300 24.26400
H  46.16900 13.59500 25.42900
H  47.54500 13.94400 24.41800
H  46.50700 13.08300 22.47900
H  45.35100 14.51000 22.66600
H  45.06400 12.93400 23.28000
H  42.25700 15.21100 28.25100
H  42.06500 14.40700 29.84700
H  42.75400 13.54000 28.53200
H  45.81600 15.34300 33.51100
H  42.12400 17.37400 35.44600
H  43.45700 18.56900 35.55500
H  43.14700 17.28500 36.79900
Mg -1.38400 34.90900 28.06500
C  -3.13500 33.05400 30.35500
C  0.24300 36.54800 30.84900
C  -0.16300 37.02800 25.94600
C  -3.31900 33.35500 25.51400
N  -1.60400 34.91100 30.36400
C  -2.32900 33.99000 31.06100
C  -1.88500 33.91400 32.51200
C  -1.04500 35.21200 32.70000
C  -0.74900 35.58500 31.22100
C  -1.79100 36.33300 33.45700
C  -1.18300 32.55400 32.82700
C  -1.79400 31.56000 33.90400
H  -1.13700 31.44800 35.25200
N  -0.01200 36.46000 28.35500
C  0.57400 36.92600 29.50800
C  1.51000 37.95400 29.13100
C  1.36200 38.20500 27.68600
C  0.30900 37.26100 27.26600
C  2.53500 38.54000 30.11200
C  2.04300 39.22200 26.76800
O  1.77100 39.36100 25.59500
C  3.14900 40.10500 27.31500
N  -1.82100 35.26800 26.06800
C  -1.16900 36.20400 25.43600
C  -1.58900 36.20800 23.91200
C  -2.32700 34.92500 23.66800
C  -2.54100 34.51900 25.16400
C  -2.29800 37.43200 23.41100
C  -1.58300 33.82000 22.82300
C  -1.22600 34.25900 21.41200
N  -2.82000 33.46500 27.90500
C  -3.50800 32.88900 26.80000
C  -4.29600 31.76000 27.17800
C  -4.14400 31.83100 28.55800
C  -3.32000 32.86700 28.94700
C  -5.09400 30.84900 26.29800
C  -4.61800 31.15500 29.77400
O  -5.42700 30.22900 29.96600
C  -4.07400 32.00400 30.95500
C  -5.32200 32.40100 31.68500
O  -6.25900 33.09700 31.22400
O  -5.23000 31.98600 32.95500
C  -6.31100 32.42100 33.95400
H  0.79300 36.93600 31.70900
H  0.26500 37.55800 25.09300
H  -3.89000 32.83200 24.74400
H  -2.82700 33.98000 33.05600
H  -0.06900 35.03800 33.15400
H  -1.69400 36.21600 34.53600
H  -2.86200 36.29600 33.26000
H  -1.42900 37.30900 33.13300
H  -0.14900 32.66500 33.15400
H  -1.04300 31.99000 31.90500
H  -1.83800 30.53800 33.52600
H  -2.85000 31.74900 34.09600
H  3.52900 38.42800 29.67700
H  2.45700 38.10400 31.10800
H  2.46500 39.62300 30.21300
H  2.83000 40.74400 28.13800
H  3.55300 40.66900 26.47400
H  3.96400 39.52900 27.75400
H  -0.69300 36.06400 23.30900
H  -3.29500 35.02200 23.17700
H  -2.08600 38.32900 23.99200
H  -3.36100 37.28200 23.22400
H  -1.93500 37.71100 22.42200
H  -1.89800 32.78200 22.92700
H  -0.63900 33.74000 23.36400
H  -1.98100 33.68100 20.87900
H  -0.20600 34.03700 21.09800
H  -1.49300 35.31500 21.37900
H  -6.02400 31.23100 25.87600
H  -5.32100 29.89700 26.77800
H  -4.50700 30.67300 25.39600
H  -3.56400 31.25500 31.56000
H  -5.75900 32.89600 34.76500
H  -6.79200 31.46300 34.15300
H  -7.07000 33.07200 33.52000

