158

Mg 8.60200 48.62600 25.21200
C  6.79800 48.75000 28.15900
C  11.36800 50.07000 26.94400
C  10.45400 48.23500 22.54000
C  5.73000 47.67700 23.52300
N  8.96100 49.52600 27.26200
C  8.05200 49.36700 28.29400
C  8.65400 50.01100 29.55600
C  9.91700 50.66700 28.98800
C  10.14200 50.07900 27.66000
C  9.79800 52.23400 28.99600
C  8.96200 48.86700 30.62100
C  10.08000 49.07300 31.63700
H  9.87800 48.52200 33.07700
N  10.61200 49.09200 24.80900
C  11.52300 49.70700 25.55300
C  12.81000 49.77900 24.85400
C  12.66300 49.11800 23.61800
C  11.20200 48.73500 23.65800
C  13.98700 50.44500 25.46600
C  13.65300 48.78900 22.56600
O  13.38500 48.16100 21.55600
C  15.09900 49.15900 22.70500
N  8.13600 48.05900 23.36700
C  9.10000 47.86000 22.38400
C  8.53800 47.30300 21.13400
C  7.08500 46.98200 21.49500
C  6.97200 47.60900 22.84900
C  8.84000 48.15900 19.92100
C  6.80800 45.43100 21.60800
C  7.94200 44.54100 22.15400
N  6.66400 48.20700 25.64800
C  5.61300 47.89000 24.88000
C  4.43000 47.76300 25.67600
C  4.87900 47.94800 26.97700
C  6.23200 48.32600 26.90400
C  3.10800 47.24600 25.21200
C  4.39000 47.96400 28.38500
O  3.33000 47.62200 28.89000
C  5.72300 48.38200 29.16200
C  6.16200 47.14800 29.93200
O  6.75900 46.22600 29.43900
O  5.92800 47.25400 31.26100
C  6.44100 46.18100 32.08800
H  12.25800 50.42300 27.46900
H  11.03100 47.97400 21.65000
H  4.85000 47.36700 22.95600
H  8.00700 50.75400 30.02300
H  10.87900 50.64400 29.49900
H  9.85800 52.54200 27.95200
H  10.59300 52.72700 29.55500
H  8.84300 52.65200 29.31500
H  8.91200 47.89700 30.12600
H  8.07300 48.86500 31.25200
H  10.63700 50.01000 31.65500
H  10.83200 48.35700 31.30500
H  14.57400 50.92900 24.68600
H  14.74000 49.78100 25.89100
H  13.80400 51.21900 26.21200
H  15.08600 50.22600 22.48000
H  15.66100 48.63000 21.93500
H  15.59200 48.94000 23.65200
H  9.15800 46.40900 21.06500
H  6.49100 47.58300 20.80700
H  7.83800 48.41600 19.57800
H  9.39800 47.48200 19.27500
H  9.38500 49.08300 20.11600
H  6.56500 45.16800 20.57900
H  5.91900 45.23800 22.20800
H  8.52200 45.07200 22.91000
H  8.47800 44.06200 21.33500
H  7.45800 43.72400 22.69000
H  2.98300 47.51200 24.16200
H  2.42100 47.71000 25.91900
H  3.05200 46.15800 25.23100
H  5.58700 49.25100 29.80600
H  5.96100 46.49800 33.01400
H  7.52500 46.10500 32.17300
H  6.04500 45.20000 31.82600
Mg 0.48400 42.98200 25.40300
C  1.78300 43.01300 28.63700
C  -2.40100 41.67800 26.79000
C  -0.63400 42.03200 22.32300
C  3.61400 43.54800 24.10300
N  -0.25700 42.38000 27.55000
C  0.37900 42.70100 28.71600
C  -0.51200 42.41500 29.94200
C  -1.85900 41.96000 29.32300
C  -1.49600 42.01800 27.77600
C  -2.43200 40.59900 29.82200
C  -0.62000 43.77200 30.84300
C  0.09500 43.74100 32.13000
H  -0.75200 43.68400 33.43500
N  -1.31300 42.10600 24.65100
C  -2.36800 41.64900 25.34100
C  -3.42600 41.36800 24.40600
C  -2.90900 41.41500 23.08500
C  -1.54800 41.88100 23.32000
C  -4.76400 41.01200 24.88200
C  -3.56100 41.15700 21.73100
O  -3.02400 41.32200 20.59200
C  -4.99000 40.80900 21.55600
N  1.33400 42.83200 23.52800
C  0.68400 42.39200 22.40100
C  1.55400 42.48300 21.11000
C  2.88400 43.13900 21.60100
C  2.60500 43.16300 23.16700
C  1.83300 41.12300 20.41400
C  3.07700 44.46600 20.86500
C  2.22100 45.64900 21.34300
N  2.27600 43.32100 26.17900
C  3.47500 43.58200 25.50100
C  4.53600 43.79700 26.46900
C  3.88800 43.61500 27.69900
C  2.50700 43.24600 27.47000
C  5.96300 44.10900 26.17900
C  4.12000 43.61600 29.21700
O  5.05500 43.88000 29.89100
C  2.73600 43.21100 29.80500
C  2.93000 42.02800 30.62300
O  2.44700 40.92900 30.40500
O  3.32500 42.38300 31.89400
C  2.91600 41.47900 33.04300
H  -3.38400 41.35400 27.13600
H  -0.95000 41.87200 21.29000
H  4.61600 43.72300 23.70600
H  -0.09900 41.57100 30.49600
H  -2.62000 42.69100 29.59800
H  -2.56700 40.02400 28.90600
H  -3.33900 40.74600 30.40900
H  -1.66300 40.11500 30.42500
H  -1.65300 44.09100 30.98200
H  -0.23700 44.55500 30.18800
H  0.60800 44.70200 32.16600
H  0.93300 43.04300 32.14700
H  -5.56000 41.29100 24.19100
H  -4.87700 41.49900 25.85100
H  -4.79500 39.92900 24.99900
H  -5.53200 41.71000 21.84200
H  -5.17700 39.99800 22.26100
H  -5.34000 40.47000 20.58200
H  0.99000 43.10100 20.41200
H  3.76400 42.50900 21.47400
H  1.89100 40.32600 21.15600
H  2.79000 41.15900 19.89200
H  1.12200 40.87900 19.62400
H  2.73900 44.30300 19.84200
H  4.13600 44.72100 20.82100
H  1.48800 45.31200 22.07600
H  1.65300 46.07800 20.51800
H  2.83100 46.49500 21.66100
H  6.17500 45.17700 26.20900
H  6.22000 43.94500 25.13300
H  6.68000 43.71000 26.89700
H  2.40200 44.08400 30.36600
H  3.90600 41.05500 33.21100
H  2.13800 40.76600 32.77200
H  2.67900 41.99000 33.97700

