158

Mg 25.95700 0.66000 29.21100
C  27.73400 0.59600 32.15100
C  23.15000 0.81600 31.05200
C  24.21600 0.60700 26.38600
C  28.96300 -0.03300 27.42300
N  25.50300 0.58600 31.42900
C  26.39500 0.74400 32.46100
C  25.73400 0.91500 33.78900
C  24.17000 0.94200 33.37600
C  24.27900 0.83800 31.85200
C  23.25100 -0.15300 34.10800
C  26.23600 2.24800 34.42200
C  26.84000 2.08600 35.84300
H  26.26900 2.93500 36.95800
N  23.97300 0.78400 28.80500
C  22.93700 0.76000 29.71300
C  21.68000 0.83400 28.96700
C  21.96200 0.76100 27.57600
C  23.40000 0.74000 27.53700
C  20.39800 1.09300 29.71500
C  21.01200 0.84600 26.40600
O  21.37500 0.95900 25.23400
C  19.56600 0.76100 26.63000
N  26.46300 0.22800 27.14800
C  25.53800 0.38300 26.16500
C  26.24800 0.36900 24.85600
C  27.79000 0.36600 25.16700
C  27.74100 0.15500 26.64600
C  25.82200 -0.81000 23.91400
C  28.56800 1.68700 24.79800
C  28.69700 2.04600 23.23300
N  27.98500 0.28200 29.60700
C  29.04800 -0.02600 28.86100
C  30.14100 -0.35700 29.71100
C  29.77000 -0.05500 31.05700
C  28.41900 0.30100 30.91700
C  31.48200 -0.61100 29.26000
C  30.19300 0.09500 32.41600
O  31.30300 -0.03700 32.99900
C  28.86200 0.45900 33.25700
C  28.49900 -0.65100 34.05600
O  27.93200 -1.67800 33.69600
O  29.01900 -0.41700 35.32400
C  29.16400 -1.55500 36.26200
H  22.32600 0.95600 31.75500
H  23.73100 0.62000 25.40700
H  29.91900 -0.16700 26.91400
H  25.81000 0.02300 34.41100
H  23.68100 1.86100 33.70000
H  22.31600 0.24400 34.50200
H  23.77100 -0.53700 34.98600
H  22.98400 -1.03900 33.53200
H  25.40700 2.95400 34.37900
H  27.06400 2.67600 33.85800
H  27.89200 2.35800 35.76300
H  26.77200 1.09900 36.30200
H  19.64200 0.30800 29.67800
H  19.97700 2.01400 29.31300
H  20.49600 1.25700 30.78800
H  19.07500 0.50100 25.69200
H  19.16800 1.69000 27.03700
H  19.35000 -0.10200 27.26000
H  25.97600 1.29600 24.35100
H  28.30600 -0.51400 24.78300
H  26.66200 -1.43100 23.60000
H  25.43600 -0.41700 22.97400
H  24.93600 -1.27900 24.34200
H  29.57300 1.75500 25.21400
H  28.03100 2.48300 25.31400
H  28.01200 1.46600 22.61500
H  29.72900 1.89900 22.91200
H  28.32200 3.06500 23.13800
H  31.53600 -0.69300 28.17500
H  31.96900 -1.42000 29.80500
H  32.08600 0.27400 29.46000
H  28.95700 1.33400 33.89900
H  29.18300 -2.54800 35.81400
H  28.33000 -1.64100 36.95900
H  30.12000 -1.33400 36.73700
Mg -5.38100 25.13100 25.94400
C  -3.86700 26.67600 28.66800
C  -6.80400 22.89200 28.15300
C  -7.09300 23.78000 23.39600
C  -3.66400 27.14700 23.77800
N  -5.32200 24.80600 28.12800
C  -4.74500 25.65800 29.06000
C  -5.13900 25.27300 30.54300
C  -5.66600 23.78300 30.24600
C  -5.94500 23.83400 28.78300
C  -4.74600 22.64000 30.82200
C  -6.28100 26.17700 31.14400
C  -5.94900 26.68400 32.55700
H  -6.90100 26.34100 33.66700
N  -6.76900 23.55700 25.70800
C  -7.29800 22.77800 26.80800
C  -8.43700 21.92300 26.39200
C  -8.56900 22.16300 25.01400
C  -7.48500 23.23300 24.65300
C  -9.09100 21.02900 27.38400
C  -9.47800 21.64200 23.87700
O  -9.36700 22.10100 22.72800
C  -10.36600 20.38700 24.13700
N  -5.17000 25.30700 23.90200
C  -6.07700 24.67800 23.04600
C  -5.74100 24.99000 21.59300
C  -4.70800 26.24200 21.70600
C  -4.42200 26.19500 23.18600
C  -5.33500 23.72700 20.76500
C  -5.27800 27.61000 21.12600
C  -4.93600 27.93800 19.62800
N  -4.01900 26.57200 26.13800
C  -3.33900 27.27700 25.16500
C  -2.46000 28.27300 25.72400
C  -2.69800 28.12200 27.12600
C  -3.61300 27.00800 27.32400
C  -1.57200 29.20700 24.97600
C  -2.32000 28.67700 28.49000
O  -1.65700 29.62200 28.95200
C  -3.11400 27.67800 29.47800
C  -2.09300 27.00800 30.28500
O  -1.21100 26.22700 29.78400
O  -2.06200 27.54900 31.56800
C  -0.92500 27.20700 32.37600
H  -7.19500 22.14300 28.84500
H  -7.72300 23.62200 22.51800
H  -3.05400 27.81200 23.16300
H  -4.36300 25.18400 31.30300
H  -6.65700 23.59900 30.66200
H  -3.84000 22.55400 30.22200
H  -5.36400 21.74200 30.83300
H  -4.52100 22.85000 31.86800
H  -7.27100 25.72200 31.16800
H  -6.19300 27.08500 30.54800
H  -6.19000 27.74700 32.54900
H  -4.92100 26.44700 32.83100
H  -9.38100 21.53100 28.30700
H  -8.31700 20.30300 27.63200
H  -9.97300 20.50800 27.01100
H  -9.71700 19.70100 24.68100
H  -10.69000 20.09400 23.13800
H  -11.14400 20.82000 24.76500
H  -6.70000 25.34900 21.21800
H  -3.78200 25.96400 21.20300
H  -5.40600 22.87100 21.43700
H  -4.30400 23.82400 20.42500
H  -6.06300 23.78500 19.95600
H  -4.86900 28.39100 21.76700
H  -6.35900 27.72900 21.20000
H  -4.06400 27.39300 19.26500
H  -4.71500 29.00400 19.57900
H  -5.78100 27.64700 19.00300
H  -2.09000 29.96000 24.38200
H  -0.83100 28.57700 24.48400
H  -0.96400 29.72300 25.72000
H  -3.74200 28.25700 30.15600
H  -1.28800 26.59500 33.20100
H  -0.70100 28.16800 32.84000
H  -0.03700 26.77600 31.91300

