158

Mg -1.94400 17.49600 26.39000
C  -2.21800 15.14400 29.02100
C  -2.59700 20.03300 28.60700
C  -2.18600 19.53100 23.82000
C  -1.92400 14.67000 24.15500
N  -2.48600 17.51700 28.57200
C  -2.35400 16.43700 29.47200
C  -2.50400 17.03300 30.92100
C  -2.65500 18.60200 30.73500
C  -2.58200 18.74800 29.19300
C  -3.98300 19.14500 31.41200
C  -1.26100 16.71000 31.76100
C  -1.05500 17.50600 33.04300
H  -0.66300 16.66700 34.28600
N  -2.14600 19.49700 26.24000
C  -2.36200 20.35300 27.28500
C  -2.40100 21.77100 26.74400
C  -2.27000 21.58500 25.32900
C  -2.24500 20.16400 25.07100
C  -2.44100 22.99400 27.59200
C  -2.10400 22.60100 24.28000
O  -2.23200 22.39300 23.08200
C  -1.80800 24.00400 24.77900
N  -2.17000 17.07500 24.25300
C  -1.98700 18.19300 23.48100
C  -1.96300 17.79400 22.00300
C  -1.65300 16.27000 22.09700
C  -1.86200 15.93800 23.57400
C  -3.23400 18.25200 21.27500
C  -0.25600 15.85500 21.56200
C  -0.19200 15.18200 20.14800
N  -2.07200 15.37000 26.44900
C  -2.06200 14.37000 25.51800
C  -2.13300 13.05100 26.05200
C  -2.14000 13.20700 27.45600
C  -2.10200 14.71900 27.66000
C  -2.37600 11.82400 25.30700
C  -2.19700 12.63100 28.81000
O  -2.10600 11.47200 29.22800
C  -2.27000 13.85000 29.80100
C  -1.15000 13.58100 30.72900
O  -0.03200 13.96900 30.53200
O  -1.64100 13.05600 31.83400
C  -0.62800 12.63100 32.82100
H  -2.81700 20.83900 29.31000
H  -2.26400 20.20100 22.96200
H  -1.73800 13.88900 23.41500
H  -3.41600 16.60900 31.34200
H  -1.76800 19.13200 31.08200
H  -3.64500 19.97600 32.03000
H  -4.62100 18.36000 31.81900
H  -4.58600 19.60900 30.63100
H  -0.41700 16.79800 31.07700
H  -1.27200 15.66800 32.08100
H  -1.90000 18.14400 33.29900
H  -0.23200 18.21100 32.93400
H  -2.47600 22.77700 28.66000
H  -3.27000 23.67500 27.39900
H  -1.55800 23.58700 27.35400
H  -0.90700 23.84100 25.37100
H  -2.67700 24.42700 25.28200
H  -1.64400 24.58000 23.86900
H  -1.16200 18.39600 21.57400
H  -2.48800 15.74000 21.64000
H  -3.91700 18.83900 21.89000
H  -3.67900 17.27600 21.08200
H  -3.03900 18.85700 20.38900
H  0.15000 15.18500 22.31900
H  0.29400 16.79500 21.50700
H  0.26800 14.20100 20.26900
H  0.46700 15.79000 19.52800
H  -1.18500 15.09900 19.70700
H  -1.51500 11.25600 24.95400
H  -2.96300 12.15500 24.45000
H  -2.96600 11.27900 26.04300
H  -3.21600 13.83600 30.34100
H  0.23100 12.13600 32.36900
H  -0.93600 11.95200 33.61600
H  -0.32600 13.55400 33.31700
Mg 43.47800 4.30300 48.51000
C  40.95900 6.68900 47.47700
C  41.06700 1.93100 48.07600
C  46.03800 2.11400 48.45100
C  45.73000 6.85300 48.29500
N  41.29300 4.32500 47.70500
C  40.43600 5.37900 47.34000
C  39.02100 4.87400 47.12300
C  39.03700 3.31900 47.56000
C  40.55100 3.15800 47.76200
C  38.29800 2.99800 48.92200
C  38.53500 5.05000 45.66000
C  37.54300 6.15200 45.20700
H  37.90200 6.91200 43.89000
N  43.51700 2.25000 48.46800
C  42.40800 1.47800 48.34200
C  42.88600 0.07400 48.35200
C  44.27000 0.11600 48.48000
C  44.71000 1.52400 48.39300
C  41.94500 -1.13800 48.36900
C  45.06600 -1.10200 48.76100
O  44.54400 -2.18200 48.85000
C  46.51600 -1.09100 49.05400
N  45.61300 4.46400 48.27000
C  46.43000 3.41700 48.36700
C  47.92100 3.89800 48.53900
C  47.83800 5.45300 48.43600
C  46.34700 5.63700 48.34300
C  48.52700 3.35500 49.87400
C  48.67300 6.14400 47.22000
C  50.12600 6.69400 47.54000
N  43.43400 6.30800 48.02700
C  44.40400 7.26200 48.03800
C  43.90200 8.61400 47.78700
C  42.54500 8.36900 47.69500
C  42.32400 7.03800 47.75200
C  44.66600 9.84000 47.75700
C  41.25400 9.08400 47.49000
O  40.99700 10.25900 47.40900
C  40.19700 7.95400 47.35900
C  39.29400 8.12300 48.48600
O  39.08200 7.37000 49.44300
O  38.46400 9.18300 48.19800
C  37.38700 9.39200 49.13500
H  40.33000 1.17400 47.80200
H  46.83700 1.37000 48.48200
H  46.55400 7.56900 48.26000
H  38.31700 5.39400 47.77300
H  38.69800 2.60700 46.80700
H  38.98700 2.82000 49.74700
H  37.62400 2.15600 48.76300
H  37.62000 3.80000 49.21200
H  38.14100 4.12900 45.23000
H  39.36500 5.20400 44.97000
H  37.45100 6.94500 45.95000
H  36.55500 5.72900 45.02500
H  40.94900 -0.69700 48.32400
H  42.15800 -1.66500 49.29900
H  42.21200 -1.86300 47.59900
H  46.92900 -1.11500 48.04500
H  46.81500 -1.93500 49.67500
H  46.79800 -0.24300 49.67800
H  48.55800 3.46000 47.77100
H  48.11600 5.95800 49.36200
H  48.84900 4.09900 50.60300
H  49.35600 2.73500 49.52900
H  47.82100 2.77500 50.46800
H  48.15700 7.01400 46.81400
H  48.72500 5.45600 46.37600
H  50.90300 6.18200 46.97100
H  50.21300 6.51300 48.61100
H  50.13200 7.76300 47.32700
H  44.46300 10.31700 46.79800
H  45.72600 9.58900 47.73000
H  44.40800 10.50800 48.57800
H  39.71300 8.07600 46.39000
H  36.68800 8.56400 49.25200
H  36.70500 10.21600 48.92500
H  37.80900 9.57200 50.12400

