158

Mg 49.98300 45.71700 42.97100
C  46.69300 46.11700 41.61200
C  50.27300 42.83800 41.06500
C  53.32900 45.82700 43.17200
C  49.88100 49.18000 43.85300
N  48.61300 44.63300 41.51100
C  47.34300 44.96400 41.13500
C  46.77300 44.02600 40.10600
C  47.90200 42.88700 40.03100
C  49.00900 43.49900 40.94700
C  47.38400 41.44600 40.51200
C  46.66200 44.80900 38.72900
C  45.24800 44.87800 38.20300
H  45.00000 44.10100 36.94900
N  51.49900 44.31400 42.62200
C  51.41500 43.21800 41.81700
C  52.71100 42.51200 41.91600
C  53.53000 43.26600 42.74400
C  52.83400 44.54600 42.89100
C  52.94500 41.16700 41.19900
C  54.89800 42.86500 43.20200
O  55.40500 41.83900 42.81700
C  55.81200 43.85400 43.92900
N  51.31000 47.32300 43.30400
C  52.66900 46.99200 43.50500
C  53.45500 48.19900 43.97100
C  52.43000 49.26300 44.37200
C  51.14200 48.56900 43.77600
C  54.69900 48.01900 44.98600
C  52.68000 50.60000 43.72900
C  52.74400 51.79700 44.65100
N  48.55000 47.20400 43.10200
C  48.66300 48.58300 43.43500
C  47.28700 49.17600 43.39500
C  46.50000 48.20600 42.69500
C  47.34100 47.05800 42.44400
C  46.83400 50.61300 43.77300
C  45.15700 47.96100 42.19500
O  44.12500 48.63500 42.22200
C  45.19700 46.56100 41.61100
C  44.27000 45.64300 42.29800
O  44.51600 44.92200 43.29000
O  42.97500 45.70600 41.71200
C  41.97800 44.73900 42.26800
H  50.41400 41.97400 40.41300
H  54.42000 45.86300 43.20300
H  49.87700 50.18200 44.28600
H  45.75200 43.75900 40.37900
H  48.34600 42.73300 39.04700
H  47.74100 40.61000 39.91100
H  46.30400 41.44600 40.65800
H  47.91600 41.26000 41.44500
H  47.26000 44.23300 38.02300
H  47.00900 45.83500 38.85400
H  45.03000 45.92300 37.98000
H  44.46900 44.53900 38.88600
H  52.12800 40.88100 40.53600
H  53.14600 40.33300 41.87200
H  53.87500 41.14500 40.63200
H  56.57000 43.40900 44.57300
H  55.17000 44.54600 44.47500
H  56.21000 44.40900 43.08000
H  53.88500 48.42600 42.99600
H  52.26800 49.41800 45.43900
H  54.90600 46.97300 45.21200
H  54.32000 48.49300 45.89100
H  55.64400 48.45800 44.66500
H  51.87900 50.81200 43.01900
H  53.59300 50.55400 43.13500
H  53.70200 52.24300 44.38400
H  52.71300 51.47500 45.69200
H  51.97300 52.51700 44.37800
H  45.77500 50.77400 43.97500
H  47.23100 51.22700 42.96500
H  47.38400 50.83100 44.68800
H  44.77300 46.63900 40.61000
H  42.39300 43.77000 42.54600
H  41.15900 44.65400 41.55500
H  41.48100 45.15500 43.14400
Mg 1.53700 41.93400 25.35000
C  2.45700 42.00800 28.70900
C  -1.29400 40.23700 26.51600
C  0.81200 40.99200 22.16900
C  4.79200 42.61700 24.32900
N  0.58600 41.40100 27.46700
C  1.16500 41.62000 28.63600
C  0.19700 41.26000 29.78600
C  -0.97700 40.46000 29.01400
C  -0.47000 40.58100 27.57800
C  -1.27300 39.00900 29.46400
C  -0.26900 42.40900 30.64800
C  -0.19300 42.28400 32.19700
H  -0.59700 40.91900 32.79700
N  -0.09700 40.97900 24.51000
C  -1.16600 40.44000 25.15100
C  -2.13200 40.13200 24.10100
C  -1.51300 40.27000 22.87800
C  -0.20100 40.80500 23.10600
C  -3.49600 39.68200 24.51600
C  -2.23600 40.07300 21.51300
O  -1.71700 40.21800 20.44000
C  -3.59400 39.39900 21.42500
N  2.62700 41.73700 23.54300
C  2.09700 41.36500 22.33600
C  3.04600 41.65100 21.17000
C  4.16700 42.50100 21.96100
C  3.87600 42.21800 23.34700
C  3.50400 40.45400 20.35200
C  4.31100 44.02100 21.62700
C  2.97600 44.81600 21.32600
N  3.20300 42.33500 26.27800
C  4.50000 42.62600 25.74400
C  5.35900 42.99000 26.86600
C  4.62500 42.63300 28.00900
C  3.30000 42.32300 27.61000
C  6.76100 43.34500 26.78400
C  4.67500 42.66100 29.47700
O  5.62100 42.97400 30.19600
C  3.32600 42.17200 29.96600
C  3.52900 40.88000 30.61000
O  3.99500 39.92600 30.01600
O  3.23000 40.96700 31.92100
C  3.54200 39.78800 32.63400
H  -2.18800 39.73300 26.88700
H  0.52400 40.59700 21.19300
H  5.75000 42.98800 23.95900
H  0.69700 40.57500 30.47100
H  -1.89400 41.03200 28.87300
H  -0.63900 38.67900 30.28700
H  -1.00800 38.31600 28.66500
H  -2.29000 38.85500 29.82600
H  -1.29200 42.64800 30.35700
H  0.33100 43.29600 30.44500
H  -0.87800 43.04200 32.57600
H  0.77900 42.53700 32.62000
H  -3.70600 39.83400 25.57500
H  -3.42200 38.60800 24.34500
H  -4.23400 40.18400 23.89100
H  -4.35600 40.17500 21.35600
H  -3.81300 38.60500 22.13900
H  -3.55100 38.91300 20.45100
H  2.49800 42.27400 20.46300
H  5.07600 42.01700 21.60500
H  2.94500 39.57000 20.65800
H  4.57000 40.23300 20.41200
H  3.26200 40.59400 19.29900
H  4.80400 44.01500 20.65500
H  4.89200 44.66100 22.29100
H  2.11200 44.15500 21.39000
H  3.15000 45.32700 20.37900
H  2.87400 45.55800 22.11800
H  6.90300 44.29000 27.30800
H  7.22400 43.56100 25.82200
H  7.32300 42.54600 27.26900
H  2.96100 42.92900 30.66000
H  4.46800 39.35100 32.25900
H  2.75600 39.06900 32.40100
H  3.52700 39.91900 33.71600

