158

Mg 36.89100 50.45900 27.24400
C  37.01500 48.31800 29.83300
C  35.22400 52.78600 29.25000
C  36.13200 52.33000 24.51400
C  37.77000 47.72000 25.14900
N  36.30600 50.53400 29.19100
C  36.61500 49.60000 30.14800
C  36.31300 50.00900 31.62000
C  35.33700 51.20700 31.30800
C  35.66300 51.56300 29.80100
C  33.81400 50.98500 31.58100
C  37.63900 50.34700 32.38200
C  37.85200 49.86100 33.76500
H  36.92400 50.27100 34.79800
N  35.88100 52.33500 26.92900
C  35.32700 53.15200 27.91900
C  34.79400 54.38300 27.29800
C  35.17700 54.29900 25.89800
C  35.70100 52.92600 25.73200
C  34.25000 55.66800 28.08700
C  34.82300 55.30200 24.79200
O  35.21300 55.13300 23.60500
C  34.04500 56.64800 25.08400
N  36.87700 50.07700 25.10800
C  36.61400 51.02700 24.19800
C  36.93600 50.49400 22.71800
C  37.47100 49.05800 22.96800
C  37.36100 48.93900 24.52700
C  35.76900 50.70800 21.78900
C  38.94700 48.80500 22.43600
C  39.06900 47.61100 21.43000
N  37.44100 48.47500 27.44600
C  37.73300 47.50800 26.53100
C  38.01000 46.24300 27.18000
C  37.70900 46.50700 28.52500
C  37.30000 47.85500 28.57900
C  38.25500 44.90100 26.54000
C  37.66300 45.88500 29.85900
O  37.92500 44.75200 30.35300
C  37.19600 47.06400 30.76200
C  36.05300 46.61900 31.56300
O  35.03400 46.12700 31.11700
O  36.34200 46.81100 32.90600
C  35.27700 46.33600 33.76800
H  34.77100 53.48700 29.95400
H  36.01300 52.93300 23.61200
H  38.07700 46.90500 24.49000
H  35.82100 49.18400 32.13600
H  35.69600 52.00600 31.95700
H  33.28800 50.99300 30.62700
H  33.46900 51.81400 32.19900
H  33.55000 50.05000 32.07500
H  37.86000 51.41100 32.46300
H  38.33900 49.83900 31.71800
H  38.85600 50.13400 34.09000
H  37.94100 48.77500 33.73400
H  33.17300 55.83500 28.06100
H  34.81500 56.50400 27.67400
H  34.53600 55.64000 29.13800
H  32.96900 56.52900 25.20900
H  34.02800 57.22300 24.15800
H  34.52500 57.35200 25.76400
H  37.76000 51.15700 22.45200
H  36.73200 48.31300 22.67400
H  34.91900 50.78300 22.46800
H  35.67300 49.94300 21.01900
H  35.92800 51.66900 21.30000
H  39.66000 48.67600 23.25000
H  39.26800 49.68200 21.87400
H  39.15900 47.99900 20.41600
H  38.07200 47.17000 21.44000
H  39.86000 46.93800 21.76300
H  37.62000 44.90700 25.65400
H  37.86300 44.15200 27.22800
H  39.31300 44.72900 26.34000
H  38.09000 47.16100 31.37800
H  35.10600 45.26000 33.80300
H  34.33000 46.82600 33.54000
H  35.53200 46.50400 34.81400
Mg -4.03500 25.21900 25.52100
C  -2.98500 26.69100 28.63400
C  -6.06700 23.12200 27.41900
C  -4.88400 23.71600 22.78000
C  -1.55300 27.13600 23.88000
N  -4.44600 24.89100 27.89000
C  -3.95900 25.64800 28.92100
C  -4.37400 25.14300 30.26400
C  -5.40400 24.04300 29.88300
C  -5.25400 23.96000 28.33000
C  -5.18800 22.56900 30.43200
C  -5.11800 26.26400 31.07300
C  -5.38600 26.10100 32.58100
H  -4.90300 24.82300 33.33000
N  -5.39400 23.77600 25.11600
C  -6.15700 23.04400 26.01800
C  -7.15900 22.32500 25.24300
C  -6.71900 22.37800 23.86200
C  -5.65500 23.35000 23.88100
C  -8.38600 21.65100 25.82200
C  -7.33400 21.73400 22.62900
O  -7.10000 22.11000 21.50300
C  -8.26000 20.58500 22.82400
N  -3.26700 25.37300 23.67700
C  -3.78800 24.59700 22.67900
C  -3.00100 24.62000 21.40300
C  -2.00600 25.81600 21.68400
C  -2.24500 26.14900 23.16000
C  -2.26900 23.26800 21.15100
C  -2.27500 27.07100 20.86000
C  -1.17500 27.47700 19.83800
N  -2.57600 26.59600 26.05700
C  -1.67500 27.33100 25.29600
C  -0.93000 28.26100 26.13800
C  -1.33900 28.05200 27.41900
C  -2.34000 26.99300 27.39800
C  0.05500 29.29500 25.62300
C  -1.23200 28.56300 28.81000
O  -0.53100 29.43300 29.29800
C  -2.28500 27.67800 29.57000
C  -1.45100 27.10700 30.66500
O  -0.52100 26.29400 30.61100
O  -1.87400 27.60900 31.86300
C  -1.24500 27.04100 33.09100
H  -6.69100 22.34100 27.85900
H  -5.19400 23.33100 21.80700
H  -0.82700 27.74400 23.33600
H  -3.55900 24.80000 30.90000
H  -6.45100 24.33900 29.82000
H  -4.88900 21.80100 29.71900
H  -6.09500 22.23300 30.93500
H  -4.46000 22.67500 31.23600
H  -6.03100 26.57800 30.56500
H  -4.47600 27.14400 31.02500
H  -6.45600 26.13100 32.78500
H  -4.87800 26.98100 32.97800
H  -9.23200 21.82900 25.15700
H  -8.80000 22.19700 26.66900
H  -8.26500 20.59800 26.07700
H  -9.23400 21.04300 22.99400
H  -8.10200 19.90700 23.66300
H  -8.16600 19.98700 21.91700
H  -3.73900 24.90000 20.65200
H  -0.98500 25.47200 21.52000
H  -2.78800 22.46400 21.67300
H  -1.19100 23.28700 21.30700
H  -2.34000 22.89500 20.12900
H  -2.38600 27.93800 21.51100
H  -3.26400 27.05000 20.40200
H  -0.63800 28.32300 20.26800
H  -1.46700 27.74900 18.82400
H  -0.46900 26.65400 19.72000
H  0.51800 28.90000 24.71900
H  0.87900 29.43200 26.32400
H  -0.55300 30.09200 25.19400
H  -3.10000 28.24000 30.02700
H  -1.75700 27.45800 33.95800
H  -0.19500 27.32400 33.16500
H  -1.34100 25.95700 33.02000

