158

Mg 35.62000 2.89800 29.81900
C  33.24500 3.60500 32.26800
C  37.98900 2.69600 32.47000
C  38.15000 2.65000 27.51000
C  33.26300 3.25000 27.34800
N  35.58400 3.25200 32.09700
C  34.46900 3.39600 32.88400
C  34.80700 3.40100 34.36200
C  36.31100 3.30400 34.39500
C  36.64100 3.04100 32.90500
C  37.03200 4.56100 34.97100
C  34.15900 2.23200 35.21600
C  33.72000 2.67800 36.55900
H  34.67900 3.63300 37.40500
N  37.68100 2.55400 29.97700
C  38.46700 2.51100 31.14400
C  39.87600 2.19900 30.81400
C  39.99100 2.23900 29.37100
C  38.58600 2.42600 28.88200
C  40.96000 1.90500 31.92500
C  41.17700 2.05100 28.42500
O  41.17000 1.94800 27.21800
C  42.49400 2.02500 29.11700
N  35.68800 2.97000 27.73100
C  36.86000 2.87000 27.04400
C  36.55100 3.16600 25.52500
C  35.04200 3.40500 25.43600
C  34.63400 3.20400 26.93800
C  37.32100 4.28400 24.85600
C  34.34100 2.45500 24.46000
C  34.16500 1.00700 24.84900
N  33.61900 3.40500 29.73100
C  32.75100 3.38900 28.71500
C  31.43800 3.76500 29.18100
C  31.62000 3.81000 30.57200
C  32.91100 3.51300 30.87400
C  30.14400 4.09700 28.37800
C  30.86500 4.09900 31.79700
O  29.68500 4.39000 31.95700
C  31.94700 3.97300 33.05500
C  31.99400 5.36200 33.57500
O  32.26700 6.30200 32.84500
O  31.63900 5.42000 34.91900
C  32.00200 6.65400 35.58300
H  38.69400 2.64400 33.30300
H  38.92200 2.76700 26.74700
H  32.62000 3.64800 26.56000
H  34.44100 4.36900 34.70600
H  36.73700 2.49800 34.99200
H  36.49400 5.19000 35.68000
H  37.47800 5.25400 34.25800
H  37.86900 4.07400 35.47200
H  34.90900 1.44200 35.23900
H  33.36200 1.67900 34.71800
H  33.42700 1.87700 37.23700
H  32.88700 3.34700 36.34300
H  41.36500 0.89800 31.82600
H  40.51000 1.93000 32.91700
H  41.77400 2.62400 31.83200
H  42.63500 2.95700 29.66300
H  43.30700 1.86900 28.40800
H  42.50100 1.15800 29.77900
H  36.69400 2.33800 24.83100
H  34.71700 4.39700 25.12300
H  36.64500 5.07200 24.52400
H  37.70100 3.92400 23.90000
H  38.14100 4.74700 25.40500
H  34.68900 2.61900 23.44000
H  33.29700 2.75800 24.38000
H  33.15200 0.64400 24.67700
H  34.43600 0.87200 25.89600
H  34.89200 0.43200 24.27500
H  30.27500 3.98800 27.30100
H  29.69300 5.06400 28.60000
H  29.27500 3.44600 28.47300
H  31.58200 3.16300 33.68700
H  32.46700 6.32500 36.51300
H  31.12200 7.24600 35.83800
H  32.81700 7.13400 35.04200
Mg 41.18400 8.86900 29.39300
C  43.04200 10.03200 32.05900
C  38.89200 7.63400 31.70900
C  39.27100 7.69800 26.89600
C  43.71700 9.71100 27.12200
N  41.15800 8.70800 31.70400
C  41.91600 9.38000 32.56900
C  41.30500 9.41500 34.01300
C  40.17200 8.34300 33.83000
C  40.01000 8.24500 32.30800
C  40.44000 6.92400 34.39400
C  40.78300 10.81100 34.36700
C  39.86200 10.88300 35.67600
H  40.30300 11.82600 36.80800
N  39.32000 7.80900 29.37000
C  38.55400 7.45000 30.37400
C  37.33500 6.86600 29.89900
C  37.34800 7.05800 28.46400
C  38.65400 7.51800 28.24400
C  36.20200 6.34900 30.82000
C  36.28300 6.86900 27.45300
O  36.55500 6.99100 26.27200
C  34.86900 6.60600 27.92600
N  41.50600 8.69400 27.33700
C  40.51300 8.15600 26.49400
C  41.09600 8.05600 25.02600
C  42.33000 8.92300 25.08300
C  42.50700 9.17800 26.57900
C  41.28500 6.54300 24.58800
C  42.28100 10.17000 24.28100
C  41.65100 11.44700 24.87400
N  43.04000 9.69800 29.47800
C  43.96400 10.05400 28.50100
C  45.02200 10.83400 29.05000
C  44.67800 10.87000 30.44900
C  43.44800 10.10900 30.65200
C  46.13400 11.46100 28.31800
C  45.19500 11.25300 31.79000
O  46.23800 11.80300 32.01200
C  44.08400 10.80200 32.83500
C  44.80400 9.95900 33.84000
O  45.14800 8.81600 33.70000
O  44.82300 10.61100 34.99800
C  45.22900 9.89500 36.25000
H  38.24500 7.31700 32.53000
H  38.69800 7.58500 25.97300
H  44.50400 10.00700 26.42500
H  42.10400 9.01500 34.63700
H  39.24400 8.71900 34.26100
H  40.83600 6.34700 33.55900
H  39.64700 6.45700 34.97900
H  41.37200 7.05800 34.94400
H  40.27200 11.28300 33.52800
H  41.64900 11.43600 34.58400
H  39.68500 9.87800 36.05900
H  38.96500 11.42200 35.37100
H  36.56800 6.00800 31.78800
H  35.70900 5.45900 30.42600
H  35.38300 7.05300 30.96700
H  34.85500 5.56600 28.25100
H  34.13400 6.73200 27.13100
H  34.53000 7.36600 28.63000
H  40.32100 8.54500 24.43500
H  43.11600 8.35500 24.58400
H  40.78800 5.81700 25.23200
H  42.35900 6.36100 24.55700
H  40.85400 6.41100 23.59600
H  41.86200 10.10000 23.27700
H  43.30200 10.41800 23.99100
H  42.20300 11.76100 25.76000
H  40.60300 11.20500 25.05000
H  41.68000 12.22900 24.11500
H  45.74600 11.81000 27.36100
H  46.83300 10.66000 28.07500
H  46.61300 12.27500 28.86100
H  43.58200 11.68600 33.23000
H  44.46300 10.18300 36.97000
H  46.29800 10.02000 36.42200
H  45.04000 8.83600 36.07500

