158

Mg 47.20300 24.86100 27.80000
C  48.20200 27.21900 30.30300
C  46.65600 22.59800 30.26000
C  46.47600 22.83700 25.34800
C  48.25900 27.31700 25.36700
N  47.44500 24.94500 30.12200
C  47.82900 25.98800 30.91700
C  47.73300 25.58300 32.39500
C  47.23000 24.12000 32.32200
C  47.09800 23.82800 30.84600
C  48.10600 23.04200 33.12300
C  46.94100 26.71400 33.26100
C  45.91100 26.35200 34.39800
H  45.94900 27.21100 35.72000
N  46.67000 22.90000 27.79700
C  46.53000 22.12100 28.95600
C  46.09000 20.82300 28.50200
C  45.84400 20.89200 27.08000
C  46.37900 22.22300 26.66400
C  45.75600 19.58300 29.44000
C  45.25200 19.84400 26.12800
O  45.00200 20.09700 24.96300
C  44.97600 18.44100 26.59100
N  47.15400 25.17800 25.67900
C  46.81400 24.10700 24.92400
C  47.25400 24.41100 23.48600
C  47.44600 25.96400 23.43200
C  47.66000 26.19400 24.93300
C  48.59000 23.61900 23.12900
C  46.10400 26.61900 22.99400
C  46.23600 27.96800 22.33800
N  48.06400 26.92100 27.71600
C  48.42600 27.75900 26.68400
C  48.93200 28.96800 27.27100
C  48.74100 28.87900 28.68700
C  48.28400 27.53700 28.87900
C  49.47100 30.18300 26.55000
C  48.93100 29.55300 29.94000
O  49.48200 30.66800 30.13300
C  48.51800 28.48600 31.01700
C  49.69900 28.25200 31.95900
O  50.56900 27.40300 31.82000
O  49.61700 29.11400 32.96800
C  50.56300 28.97200 34.08200
H  46.48700 21.77000 30.95000
H  46.19600 22.16200 24.53600
H  48.70700 28.02900 24.67000
H  48.75400 25.61400 32.77700
H  46.35300 23.96700 32.95000
H  47.58000 22.53600 33.93300
H  48.99600 23.51900 33.53400
H  48.28800 22.32900 32.31900
H  46.40700 27.38100 32.58300
H  47.76400 27.31700 33.64400
H  46.16300 25.34300 34.72400
H  44.91500 26.47800 33.97500
H  44.68200 19.39900 29.41700
H  45.99500 19.65500 30.50100
H  46.29100 18.70900 29.06700
H  44.16300 18.35200 27.31100
H  45.94100 18.15200 27.00800
H  44.71600 17.78700 25.75900
H  46.50900 24.04300 22.78000
H  48.29900 26.26600 22.82400
H  49.27300 23.68600 23.97500
H  49.03900 24.03400 22.22700
H  48.33800 22.56500 23.00700
H  45.52000 26.62300 23.91400
H  45.62600 25.93900 22.28900
H  46.03300 27.70700 21.30000
H  47.26600 28.32100 22.40200
H  45.58700 28.71700 22.79200
H  49.12200 31.01000 27.16700
H  49.17600 30.48900 25.54600
H  50.55600 30.17400 26.65400
H  47.66500 28.93200 31.52800
H  49.98100 28.78600 34.98500
H  51.02800 29.94100 34.26500
H  51.31200 28.21200 33.85700
Mg 47.01400 34.85900 26.14900
C  45.73700 33.29600 29.08900
C  47.28300 37.71800 28.11900
C  48.00900 36.44900 23.44600
C  46.51700 31.90000 24.43900
N  46.62100 35.40300 28.34200
C  46.25200 34.59900 29.39300
C  46.31200 35.29000 30.72700
C  46.66000 36.76200 30.40900
C  46.97700 36.60400 28.88100
C  45.71000 37.77400 30.96100
C  47.51200 34.56400 31.54000
C  47.52000 34.52000 33.06700
H  46.33600 35.23700 33.70200
N  47.48800 36.81100 25.78900
C  47.50800 37.85100 26.73100
C  47.93000 39.12600 26.05700
C  48.34900 38.62700 24.71400
C  47.86500 37.26500 24.57200
C  48.18200 40.38600 26.83400
C  49.09200 39.47100 23.68200
O  49.44500 39.02800 22.57800
C  49.51600 40.85900 24.05200
N  47.01400 34.29100 24.22800
C  47.66600 35.09600 23.28200
C  48.14500 34.34900 22.04900
C  47.67100 32.85500 22.32200
C  47.03100 33.04000 23.69400
C  47.70900 34.89200 20.66100
C  48.87000 31.76300 22.37000
C  49.25200 30.99000 21.10100
N  46.25100 33.00500 26.57500
C  46.13400 31.86400 25.77000
C  45.51600 30.79800 26.53000
C  45.23400 31.32300 27.81600
C  45.75200 32.67000 27.82500
C  45.16900 29.39500 25.93900
C  44.67000 31.11800 29.06100
O  43.98000 30.16700 29.35700
C  44.91200 32.43000 29.94100
C  45.44300 31.80900 31.18200
O  46.36900 31.01400 31.30600
O  44.50700 31.99900 32.17800
C  44.72400 31.44800 33.56900
H  47.26700 38.66400 28.66400
H  48.35000 36.91800 22.52100
H  46.37700 30.98700 23.85600
H  45.37500 35.13300 31.26000
H  47.56200 37.13100 30.89700
H  45.20400 38.17000 30.08000
H  46.22800 38.63300 31.38800
H  45.07100 37.28400 31.69500
H  48.35300 35.16600 31.19700
H  47.71000 33.53300 31.24800
H  48.45000 34.70200 33.60500
H  47.32000 33.45400 33.17200
H  47.91700 41.23000 26.19600
H  49.23100 40.28800 27.11400
H  47.68500 40.51800 27.79500
H  48.67800 41.55500 24.10700
H  50.12700 41.22600 23.22700
H  50.22700 40.89000 24.87700
H  49.23400 34.36300 22.10000
H  46.88500 32.49200 21.66100
H  46.72500 35.36000 20.67700
H  47.76300 34.14700 19.86700
H  48.43800 35.67100 20.43900
H  48.77600 31.12700 23.24900
H  49.81800 32.29600 22.45200
H  50.26100 31.18000 20.73600
H  48.57900 31.35200 20.32300
H  49.18400 29.91300 21.25500
H  45.02000 28.64300 26.71300
H  46.10000 29.07800 25.46900
H  44.30000 29.38800 25.28000
H  43.96000 32.89600 30.19200
H  43.80300 31.17000 34.08000
H  45.17300 32.25200 34.15300
H  45.49900 30.68600 33.65400

