158

Mg 29.43200 58.69200 41.73700
C  26.35300 57.18700 40.32000
C  31.00200 55.87800 40.16400
C  32.16900 60.31700 41.78600
C  27.41900 61.53800 42.19600
N  28.76900 56.80000 40.40800
C  27.53500 56.51900 39.97000
C  27.49400 55.20500 39.11600
C  28.83400 54.52500 39.60200
C  29.59300 55.84800 40.01600
C  28.77400 53.56000 40.80700
C  27.38700 55.43400 37.57300
C  26.45300 54.53300 36.74200
H  25.53600 55.24000 35.67000
N  31.42400 58.09300 41.22100
C  31.86200 56.92000 40.63700
C  33.28300 57.01800 40.59100
C  33.70200 58.34700 41.08900
C  32.41100 58.93300 41.38500
C  34.20300 55.97200 40.11300
C  35.03100 58.94400 41.19400
O  35.98600 58.26400 40.84100
C  35.36700 60.22300 41.72000
N  29.76300 60.59600 41.95800
C  30.99800 61.01700 42.10900
C  31.02800 62.51100 42.49300
C  29.56300 62.96600 42.48300
C  28.85400 61.61500 42.25200
C  31.86000 62.84800 43.78300
C  29.18400 63.96200 41.34300
C  28.33900 65.21600 41.76900
N  27.21900 59.25000 41.57700
C  26.58100 60.41200 41.86900
C  25.18200 60.25500 41.63300
C  25.00400 59.01100 41.06500
C  26.31400 58.38700 41.03400
C  24.08400 61.28500 41.86800
C  24.07200 58.12300 40.33300
O  22.89000 58.15700 40.06200
C  24.90000 56.93600 39.99800
C  24.49400 55.71800 40.77600
O  24.84500 55.42900 41.91000
O  23.54400 55.08500 40.00600
C  23.16500 53.73200 40.32800
H  31.64600 55.07700 39.79500
H  33.06000 60.89800 42.03200
H  26.79000 62.41800 42.34200
H  26.69000 54.53700 39.42400
H  29.36500 54.05500 38.77400
H  27.75300 53.21600 40.97100
H  29.14300 54.16600 41.63400
H  29.56300 52.84500 40.57400
H  28.35500 55.35600 37.07900
H  27.09100 56.47300 37.43000
H  25.75300 53.98100 37.36900
H  27.05500 53.76400 36.25800
H  34.03400 55.04500 40.66000
H  35.27700 56.15300 40.14400
H  33.89800 55.70500 39.10100
H  35.10600 60.99300 40.99400
H  36.45600 60.21500 41.77900
H  34.96600 60.43200 42.71100
H  31.43500 62.99400 41.60400
H  29.35100 63.43400 43.44400
H  32.46800 62.02000 44.14600
H  31.24100 63.21900 44.60000
H  32.60600 63.63300 43.65800
H  28.62200 63.46400 40.55300
H  30.02300 64.36500 40.77500
H  28.88200 66.12000 41.49200
H  28.19700 65.23000 42.85000
H  27.35600 65.23400 41.29700
H  23.98500 61.59700 42.90700
H  23.13500 60.85400 41.55100
H  24.28300 62.23500 41.37100
H  24.70900 56.79800 38.93400
H  23.09600 53.16100 39.40200
H  22.16300 53.77300 40.75600
H  23.91900 53.25500 40.95400
Mg -2.45000 33.96400 26.92900
C  -3.92200 32.11100 29.67500
C  -0.88000 35.88700 29.39200
C  -1.43300 35.99400 24.52800
C  -4.11000 31.89600 24.73800
N  -2.43600 33.94800 29.36300
C  -3.01200 33.07000 30.18200
C  -2.62900 33.48200 31.64100
C  -1.79400 34.75000 31.49900
C  -1.63500 34.84600 29.94500
C  -2.27800 36.09700 32.23500
C  -1.90400 32.37900 32.51300
C  -2.48400 32.05200 33.89000
H  -1.48600 32.00200 35.04600
N  -1.32000 35.65200 26.92000
C  -0.71500 36.20800 28.01200
C  -0.06200 37.42200 27.55000
C  -0.18300 37.51700 26.17300
C  -0.93700 36.33300 25.80600
C  0.57700 38.32900 28.51700
C  0.49000 38.57300 25.30700
O  0.35600 38.59000 24.09000
C  1.21200 39.61400 25.89500
N  -2.66300 33.94200 24.87900
C  -2.13900 34.86800 24.08500
C  -2.34600 34.43000 22.51700
C  -3.03200 33.01500 22.64600
C  -3.31300 32.96100 24.16500
C  -3.22800 35.33700 21.63800
C  -2.13100 31.88200 22.13200
C  -2.40800 31.48500 20.63700
N  -3.64900 32.36300 27.14700
C  -4.33300 31.61300 26.14800
C  -5.05400 30.49300 26.70800
C  -4.92300 30.71600 28.07600
C  -4.08800 31.82300 28.37500
C  -5.89900 29.46600 26.06000
C  -5.38600 30.18800 29.36200
O  -6.14000 29.26100 29.65200
C  -4.67400 31.11600 30.44700
C  -5.69800 31.68100 31.29800
O  -6.51800 32.53200 30.97000
O  -5.65000 31.06700 32.52000
C  -6.66600 31.45000 33.57100
H  -0.37400 36.49200 30.14700
H  -1.07100 36.59400 23.69100
H  -4.40900 31.10100 24.05100
H  -3.55600 33.74400 32.15000
H  -0.76400 34.60200 31.82400
H  -2.71200 36.85100 31.57900
H  -1.47200 36.57100 32.79700
H  -3.09700 35.90100 32.92700
H  -0.88200 32.72300 32.67100
H  -1.86100 31.51400 31.85200
H  -2.89300 31.05600 33.71700
H  -3.37800 32.58200 34.21800
H  1.62800 38.04700 28.58200
H  0.19000 38.27600 29.53400
H  0.49100 39.40700 28.37900
H  1.72500 40.14200 25.09200
H  1.93100 39.32200 26.66100
H  0.49200 40.37900 26.18500
H  -1.31800 34.32800 22.17000
H  -4.05600 33.01100 22.27200
H  -4.15400 34.90100 21.26200
H  -2.68500 35.61100 20.73300
H  -3.50200 36.30500 22.05800
H  -2.19300 30.98700 22.75000
H  -1.12000 32.24400 22.31800
H  -1.50000 31.69500 20.07000
H  -3.21200 32.15300 20.32800
H  -2.66800 30.42800 20.60500
H  -5.31200 28.55800 25.92100
H  -6.38700 29.76600 25.13300
H  -6.69600 29.31900 26.78900
H  -4.09100 30.38500 31.00800
H  -7.50000 32.04600 33.20200
H  -6.28700 32.02500 34.41600
H  -7.04500 30.52600 34.00800

