158

Mg -1.93400 17.19900 26.24300
C  -2.14200 14.92500 28.97000
C  -2.47600 19.84700 28.54600
C  -2.37800 19.23900 23.66500
C  -2.44500 14.44000 24.20600
N  -2.04400 17.36700 28.50200
C  -2.07000 16.32000 29.39100
C  -2.41200 16.88100 30.84100
C  -2.49000 18.44800 30.66500
C  -2.35800 18.58700 29.11600
C  -3.84700 19.09800 31.13000
C  -1.37900 16.38800 31.91500
C  -1.08900 17.32800 33.08600
H  -0.41100 16.75000 34.21300
N  -2.27400 19.17700 26.13300
C  -2.44500 20.12700 27.15500
C  -2.55800 21.40500 26.60400
C  -2.40000 21.31400 25.16600
C  -2.35500 19.85300 24.92800
C  -2.88300 22.61300 27.44600
C  -2.61400 22.32200 24.09200
O  -2.62100 22.12900 22.88700
C  -2.82500 23.68700 24.49200
N  -2.46300 16.86400 24.17200
C  -2.46700 17.87000 23.30200
C  -2.63400 17.44700 21.83600
C  -2.63500 15.89200 22.04300
C  -2.51400 15.69200 23.60300
C  -3.96800 18.00400 21.29800
C  -1.56900 15.18400 21.29900
C  -1.78300 15.21900 19.76200
N  -2.31300 15.14500 26.45800
C  -2.32500 14.15200 25.55700
C  -2.40000 12.84500 26.11700
C  -2.29200 13.10800 27.52700
C  -2.27700 14.50200 27.64900
C  -2.69300 11.54400 25.41100
C  -2.27800 12.48600 28.80800
O  -2.20800 11.28100 29.05900
C  -2.26300 13.69100 29.83100
C  -1.20900 13.30800 30.78300
O  -0.02500 13.45600 30.58600
O  -1.83900 12.78100 31.91900
C  -0.92100 12.35700 32.96900
H  -2.65800 20.60800 29.30800
H  -2.48400 19.85300 22.76800
H  -2.52700 13.66200 23.44400
H  -3.35700 16.36000 30.99600
H  -1.72200 18.96000 31.24500
H  -4.46500 19.37600 30.27600
H  -3.58100 20.01800 31.65000
H  -4.33600 18.38000 31.78900
H  -0.54400 16.14100 31.26100
H  -1.78100 15.46700 32.33900
H  -1.95100 17.94700 33.33400
H  -0.37400 18.10200 32.80900
H  -3.92400 22.88600 27.27300
H  -2.32600 23.50400 27.15600
H  -2.81100 22.48400 28.52600
H  -2.96500 24.36600 23.65100
H  -1.90100 24.00500 24.97300
H  -3.68300 23.76500 25.16000
H  -1.82600 17.81600 21.20500
H  -3.64700 15.52400 21.87100
H  -4.17400 18.91700 21.85800
H  -4.69900 17.19800 21.25000
H  -3.69500 18.37800 20.31200
H  -1.31900 14.14900 21.53100
H  -0.67100 15.78500 21.43600
H  -1.17900 16.04200 19.37800
H  -2.83200 15.45400 19.58100
H  -1.45800 14.33500 19.21400
H  -2.09200 11.41700 24.51100
H  -3.74400 11.64600 25.13900
H  -2.48200 10.66200 26.01500
H  -3.25100 13.76900 30.28600
H  -0.26000 13.19000 33.20800
H  -0.36100 11.49900 32.59600
H  -1.52400 12.27400 33.87300
Mg 36.30100 48.98700 25.45400
C  36.38000 47.19900 28.50800
C  35.35800 51.85900 27.20200
C  35.63200 50.45400 22.48900
C  37.35100 46.10200 23.77200
N  35.66300 49.37400 27.57300
C  35.91600 48.53000 28.63900
C  35.80000 49.28400 29.94000
C  35.24400 50.68600 29.47000
C  35.42200 50.67000 27.97500
C  33.79500 51.15400 29.85500
C  37.20100 49.29500 30.72200
C  37.23100 49.04900 32.27300
H  35.86900 48.84800 32.94500
N  35.60100 50.88500 24.93300
C  35.39200 51.96700 25.78900
C  35.13000 53.19900 25.02500
C  35.08800 52.81200 23.64300
C  35.40500 51.25600 23.57900
C  34.83600 54.60400 25.63600
C  34.85000 53.64600 22.41400
O  34.83300 53.12300 21.30600
C  34.48400 55.02900 22.48100
N  36.33500 48.33000 23.45100
C  36.08100 49.17800 22.40600
C  36.42400 48.43400 21.07000
C  36.97200 47.04000 21.45300
C  36.94900 47.18600 23.01100
C  35.16600 48.29600 20.07500
C  38.34200 46.74300 20.89400
C  39.57900 47.34100 21.59100
N  36.75100 46.99800 25.97300
C  37.28900 46.00000 25.17300
C  37.48500 44.84900 26.07600
C  37.23200 45.33200 27.39100
C  36.81400 46.67500 27.27600
C  37.78400 43.44000 25.49200
C  37.12000 44.92300 28.82700
O  37.32000 43.83300 29.27400
C  36.56500 46.11600 29.57900
C  35.24400 45.73400 30.20300
O  34.17100 45.94800 29.63100
O  35.31700 45.14700 31.41300
C  34.02900 44.91300 32.10500
H  35.13300 52.76900 27.76100
H  35.52100 50.97200 21.53400
H  37.58400 45.21600 23.17700
H  35.00600 48.82500 30.53000
H  35.87800 51.49800 29.82500
H  33.98300 51.97100 30.55100
H  33.25600 50.31300 30.29400
H  33.22500 51.66100 29.07700
H  37.74300 50.21700 30.50800
H  37.81500 48.53700 30.23600
H  37.68000 49.91800 32.75500
H  37.89500 48.22400 32.52900
H  33.76000 54.76700 25.68700
H  35.36300 55.39500 25.10200
H  35.25400 54.62300 26.64300
H  34.40800 55.42100 21.46700
H  35.36900 55.47600 22.93200
H  33.59900 55.15300 23.10500
H  37.12000 49.03000 20.48000
H  36.22400 46.28200 21.22000
H  34.29800 48.51200 20.69700
H  35.17100 47.32400 19.58000
H  35.17300 49.10700 19.34700
H  38.30900 47.09700 19.86300
H  38.48700 45.66300 20.87800
H  39.27500 48.00400 22.40100
H  40.12500 47.90400 20.83500
H  40.28000 46.53200 21.79500
H  38.29100 43.45200 24.52800
H  36.85300 42.96000 25.19000
H  38.29400 42.82700 26.23500
H  37.30800 46.38900 30.32900
H  33.15800 45.34100 31.60900
H  34.13200 45.52600 33.00000
H  33.82600 43.88600 32.40700

