158

Mg -1.38800 34.62600 26.04400
C  -3.08700 32.84200 28.54800
C  -0.11000 36.79800 28.39400
C  -0.34000 36.74200 23.63100
C  -2.97100 32.59000 23.61700
N  -1.51500 34.69000 28.22200
C  -2.16800 33.77800 29.06300
C  -1.71300 34.07800 30.56300
C  -0.89600 35.44200 30.43500
C  -0.82300 35.68200 28.92900
C  -1.43200 36.57100 31.32000
C  -0.99000 32.91100 31.30400
C  -1.65000 32.48000 32.64500
H  -0.77000 32.60700 33.95900
N  -0.26100 36.52000 25.98500
C  0.06200 37.19100 27.09600
C  0.72200 38.45700 26.66000
C  0.63600 38.50100 25.26500
C  -0.01200 37.24200 24.88200
C  1.24300 39.55200 27.65600
C  1.33700 39.47200 24.32800
O  1.46100 39.23000 23.09900
C  1.94700 40.72400 24.87300
N  -1.56300 34.62400 23.93200
C  -1.03100 35.57200 23.18700
C  -1.18700 35.28400 21.66300
C  -1.87600 33.85600 21.64600
C  -2.14800 33.66700 23.16700
C  -2.00000 36.30200 20.85600
C  -0.94700 32.76300 21.11300
C  0.30800 32.44900 21.86200
N  -2.85000 33.17600 25.98600
C  -3.36400 32.38200 24.93000
C  -4.23500 31.43900 25.44700
C  -4.12600 31.51000 26.88700
C  -3.30000 32.61700 27.12600
C  -5.13500 30.49000 24.61300
C  -4.71200 31.01700 28.07600
O  -5.35600 30.00900 28.25700
C  -3.90700 31.75300 29.15700
C  -4.92000 32.16700 30.23400
O  -6.05500 32.68300 30.09300
O  -4.49200 31.66500 31.40500
C  -5.45400 31.61000 32.53700
H  0.28500 37.43900 29.18500
H  -0.10800 37.50100 22.88000
H  -3.35100 31.95900 22.81100
H  -2.54000 34.33500 31.22400
H  0.07700 35.09100 30.77800
H  -2.23400 36.19600 31.95700
H  -1.80500 37.38900 30.70500
H  -0.65800 37.04100 31.92700
H  0.02000 33.26000 31.52100
H  -1.00400 32.08700 30.59000
H  -2.20000 31.53900 32.63700
H  -2.39900 33.21200 32.94700
H  2.30800 39.52700 27.42700
H  1.10800 39.24600 28.69400
H  0.65900 40.44400 27.42900
H  2.77200 40.44800 25.53100
H  1.07600 41.22900 25.29000
H  2.32400 41.22400 23.98100
H  -0.20600 35.28600 21.18800
H  -2.75800 33.89700 21.00600
H  -3.03800 36.07400 20.61300
H  -1.55700 36.47000 19.87400
H  -2.00800 37.21700 21.44800
H  -0.58000 33.03600 20.12300
H  -1.52500 31.84600 21.00000
H  0.43600 33.04800 22.76400
H  1.19100 32.74700 21.29700
H  0.34000 31.38400 22.09400
H  -5.29600 30.93900 23.63300
H  -6.08700 30.37300 25.13000
H  -4.76100 29.46900 24.54100
H  -3.18200 31.03200 29.53600
H  -4.91300 31.95200 33.41900
H  -5.90300 30.64300 32.76200
H  -6.16400 32.42200 32.38400
Mg -11.24800 16.31800 42.55000
C  -8.02000 16.96600 42.89300
C  -11.97100 19.44000 41.65000
C  -14.42000 15.37900 42.24000
C  -10.40400 12.81800 42.40300
N  -10.17200 17.96100 42.05400
C  -8.79600 18.00000 42.31000
C  -8.32500 19.41700 42.05300
C  -9.62700 20.25700 41.82500
C  -10.67500 19.17400 41.85800
C  -9.92700 21.38400 42.86100
C  -7.34800 19.57000 40.83600
C  -6.20200 20.56500 40.93600
H  -4.90600 20.00200 40.39100
N  -13.04400 17.29600 42.07200
C  -13.12900 18.59500 41.76700
C  -14.50400 18.98800 41.57700
C  -15.26300 17.79500 41.74700
C  -14.29100 16.75400 41.96400
C  -14.97700 20.42300 41.40800
C  -16.77800 17.73600 41.58000
O  -17.42700 18.76500 41.35400
C  -17.56300 16.49200 41.81800
N  -12.28000 14.32300 42.18200
C  -13.57300 14.28400 42.39800
C  -13.97900 12.85600 42.71100
C  -12.77700 12.12500 42.07600
C  -11.69400 13.11300 42.18900
C  -14.22200 12.43400 44.13300
C  -13.06300 11.56900 40.73000
C  -13.51800 10.07500 40.63600
N  -9.56200 15.11000 42.77600
C  -9.40200 13.68900 42.75100
C  -7.99500 13.42000 43.03700
C  -7.43600 14.70100 43.19200
C  -8.44600 15.68800 43.06600
C  -7.30100 12.04300 43.12000
C  -6.17500 15.50800 43.55600
O  -5.01700 15.10900 43.83600
C  -6.64000 16.98400 43.36800
C  -6.50200 17.71800 44.64200
O  -7.08800 17.36000 45.63300
O  -5.72800 18.84700 44.51700
C  -5.36900 19.36600 45.85500
H  -12.21300 20.49500 41.50800
H  -15.45400 15.07700 42.41700
H  -10.24900 11.74000 42.47600
H  -7.83100 19.77200 42.95700
H  -9.76800 20.76600 40.87100
H  -10.40200 20.98100 43.75500
H  -10.55300 22.15300 42.40900
H  -9.06700 21.93300 43.24500
H  -7.87500 19.90500 39.94200
H  -6.99700 18.57000 40.58200
H  -5.99200 20.73000 41.99200
H  -6.41900 21.52200 40.46100
H  -14.14600 21.12600 41.34600
H  -15.55900 20.58500 42.31500
H  -15.49200 20.58400 40.46100
H  -18.64100 16.65600 41.81100
H  -17.24300 16.17400 42.81000
H  -17.30500 15.73200 41.08100
H  -14.91300 12.68700 42.17600
H  -12.54000 11.25900 42.69400
H  -15.22700 12.03600 44.27000
H  -14.00900 13.21000 44.86700
H  -13.60100 11.59400 44.44600
H  -12.11800 11.57900 40.18700
H  -13.81900 12.23200 40.30900
H  -13.11800 9.65900 41.56000
H  -13.22300 9.50600 39.75500
H  -14.60600 10.12300 40.58000
H  -8.10500 11.30800 43.16500
H  -6.76100 11.97200 44.06400
H  -6.73000 11.79300 42.22500
H  -5.83800 17.41500 42.76800
H  -4.87600 18.64100 46.50200
H  -6.22600 19.84100 46.33300
H  -4.60800 20.12400 45.67000

