158

Mg 25.45900 1.55300 29.49700
C  27.64700 1.02400 32.29700
C  22.85100 1.67600 31.63200
C  23.46900 1.50200 26.82400
C  28.15800 0.73400 27.38900
N  25.26200 1.30700 31.73700
C  26.34800 1.20200 32.70800
C  25.79500 1.47100 34.14400
C  24.24900 1.48500 33.90800
C  24.07600 1.41900 32.33100
C  23.42500 0.43200 34.67000
C  26.45900 2.62600 34.82700
C  27.06900 2.27000 36.23300
H  26.95800 3.45000 37.23900
N  23.41000 1.53600 29.26100
C  22.50400 1.59200 30.31000
C  21.19100 1.60600 29.70900
C  21.33700 1.46800 28.30000
C  22.80700 1.43500 28.03400
C  19.91700 1.74300 30.61100
C  20.23800 1.38600 27.21800
O  20.47100 1.10000 26.04100
C  18.77900 1.61200 27.57400
N  25.80700 1.28500 27.37400
C  24.83900 1.38100 26.48400
C  25.35900 1.14000 25.07300
C  26.90500 1.07500 25.22700
C  26.94300 0.97400 26.76400
C  24.75500 -0.25500 24.51900
C  27.76100 2.31700 24.75500
C  29.04200 2.00300 24.04200
N  27.54700 1.10300 29.68400
C  28.45200 0.84200 28.74900
C  29.75000 0.62100 29.40100
C  29.48000 0.73800 30.76700
C  28.12900 0.96600 30.88300
C  31.03200 0.27400 28.76300
C  30.01600 0.77000 32.09500
O  31.15400 0.48400 32.51400
C  28.85300 1.00000 33.10400
C  28.84900 -0.18300 34.04000
O  28.16300 -1.17100 33.93600
O  29.61100 0.17200 35.13900
C  29.30300 -0.62600 36.29600
H  22.10800 2.03200 32.34800
H  22.81200 1.39200 25.95900
H  28.99500 0.40700 26.76900
H  26.03800 0.56800 34.70500
H  23.74300 2.40700 34.19500
H  22.63400 0.71400 35.36500
H  23.97900 -0.19500 35.37000
H  23.04100 -0.21300 33.87900
H  25.75500 3.45900 34.85100
H  27.26900 3.01400 34.20900
H  28.11900 2.03900 36.04900
H  26.59400 1.44100 36.75900
H  20.18400 1.54300 31.64900
H  19.21900 1.03500 30.16400
H  19.48800 2.73500 30.47300
H  18.48700 0.80900 28.25100
H  18.13900 1.79400 26.71100
H  18.72400 2.57000 28.09000
H  25.03300 2.00600 24.49600
H  27.41900 0.22800 24.77100
H  24.28800 -0.04500 23.55700
H  24.08800 -0.65300 25.28400
H  25.60700 -0.89300 24.28200
H  28.06100 2.89100 25.63200
H  27.21600 2.98100 24.08400
H  29.01700 2.50700 23.07600
H  29.14400 0.94500 23.80100
H  29.85500 2.34500 24.68300
H  30.77900 0.08300 27.72000
H  31.39700 -0.70900 29.06100
H  31.81900 1.00500 28.94600
H  29.04700 1.79700 33.82200
H  28.40600 -0.22900 36.77000
H  29.96200 -0.47900 37.15100
H  29.31900 -1.69700 36.09400
Mg 6.14200 53.66900 41.76700
C  5.40800 50.19900 41.54700
C  9.10900 53.11100 40.34500
C  6.53200 57.03900 41.44800
C  2.85400 54.17600 42.92900
N  7.03100 51.88700 40.91100
C  6.64000 50.57000 41.00300
C  7.77400 49.62900 40.56400
C  8.97100 50.53600 40.81600
C  8.38300 51.98000 40.63000
C  9.78800 50.39100 42.14100
C  7.64500 49.12300 39.09300
C  7.34700 50.26400 38.06900
H  6.15600 50.25800 37.29700
N  7.65100 54.93800 41.12900
C  8.86700 54.49100 40.50700
C  9.78500 55.65000 40.30700
C  8.98800 56.80900 40.57700
C  7.61900 56.27600 41.07200
C  11.21900 55.44500 39.79500
C  9.48200 58.18500 40.43600
O  10.55800 58.33500 39.93500
C  8.71200 59.43300 40.90200
N  4.82300 55.33800 42.11000
C  5.29400 56.67900 42.01100
C  4.16900 57.67400 42.40000
C  2.99200 56.78100 42.89300
C  3.53000 55.35400 42.62000
C  4.60800 58.78700 43.41000
C  1.55200 56.99000 42.17200
C  0.25000 56.92400 42.95900
N  4.47400 52.46400 42.30000
C  3.22300 52.79700 42.81500
C  2.52700 51.63700 43.20600
C  3.33100 50.57200 42.62200
C  4.50400 51.17700 42.09800
C  1.26800 51.41400 43.90200
C  3.40900 49.09700 42.47000
O  2.66800 48.15800 42.80500
C  4.69700 48.79900 41.61200
C  4.24800 48.32000 40.39800
O  3.39700 48.78800 39.69400
O  4.88200 47.13400 40.07200
C  4.64400 46.45300 38.76800
H  10.15700 53.00700 40.05500
H  6.53900 58.12800 41.36500
H  1.85500 54.30700 43.35000
H  7.71400 48.77900 41.24400
H  9.67300 50.40100 39.99300
H  9.55100 49.50200 42.72500
H  9.64900 51.17300 42.88800
H  10.83400 50.28500 41.85600
H  6.91600 48.31400 39.12200
H  8.56700 48.59800 38.84300
H  8.26500 50.33300 37.48500
H  7.22600 51.21300 38.59000
H  11.77400 56.37400 39.93400
H  11.35200 55.14400 38.75600
H  11.78200 54.87500 40.53400
H  7.75600 59.47600 40.38000
H  9.22800 60.38500 41.02300
H  8.54300 59.17000 41.94600
H  3.76600 58.09500 41.47900
H  2.89200 56.91900 43.97000
H  5.64900 58.66200 43.70700
H  4.12100 58.63100 44.37300
H  4.19300 59.74800 43.10500
H  1.43500 56.25900 41.37100
H  1.50900 57.96200 41.68000
H  0.45900 57.14600 44.00600
H  -0.15900 55.91400 42.93700
H  -0.56000 57.59700 42.68000
H  1.22800 51.70100 44.95200
H  0.97200 50.37300 43.76900
H  0.49000 52.00800 43.42300
H  5.24300 48.09400 42.23900
H  5.55000 46.21900 38.20900
H  3.89500 46.96600 38.16500
H  4.11900 45.55700 39.09900

