158

Mg 24.35800 -4.77600 45.83600
C  26.69600 -2.61400 44.34800
C  21.94900 -3.63400 43.73200
C  22.41600 -7.38900 47.01300
C  26.92700 -5.98000 47.87600
N  24.39000 -3.36300 44.20500
C  25.41100 -2.56300 43.74300
C  24.99700 -1.75200 42.52500
C  23.48200 -1.75400 42.67000
C  23.20000 -2.99000 43.60400
C  22.83000 -0.49200 43.28700
C  25.66700 -2.24600 41.23600
C  26.23500 -1.13000 40.31900
H  25.74400 -1.20400 38.78800
N  22.46500 -5.48800 45.41900
C  21.60600 -4.81000 44.51000
C  20.36000 -5.48600 44.46600
C  20.42700 -6.56000 45.37900
C  21.79300 -6.52900 46.01000
C  19.29900 -4.86400 43.57600
C  19.24000 -7.50700 45.76500
O  18.15700 -7.39200 45.20900
C  19.31500 -8.55900 46.88500
N  24.68300 -6.53600 47.11500
C  23.65300 -7.35400 47.58400
C  24.17300 -8.43800 48.54300
C  25.55000 -7.87900 48.93300
C  25.70400 -6.69700 47.98100
C  23.23300 -8.82600 49.75800
C  26.68600 -8.93800 48.76600
C  27.47000 -9.33000 50.07200
N  26.37400 -4.35500 46.16200
C  27.33200 -4.96900 47.03200
C  28.58000 -4.29900 46.75200
C  28.36900 -3.37500 45.75000
C  27.02800 -3.42700 45.40500
C  29.89900 -4.79300 47.43900
C  29.04600 -2.42100 44.87300
O  30.22600 -2.07000 44.75200
C  27.95300 -1.91900 43.88100
C  27.90500 -0.41700 43.79000
O  27.46400 0.34000 44.63400
O  28.48800 0.00700 42.59600
C  28.24700 1.43500 42.31100
H  21.15900 -3.20100 43.11500
H  21.77100 -8.21400 47.32300
H  27.85200 -6.32500 48.34300
H  25.24600 -0.69200 42.55400
H  23.11600 -1.89800 41.65400
H  21.85200 -0.80900 43.65100
H  22.44100 0.14700 42.49300
H  23.42700 0.04600 44.02300
H  24.85400 -2.76600 40.72900
H  26.38700 -2.98900 41.58000
H  27.32200 -1.19500 40.29100
H  26.13600 -0.09300 40.64000
H  18.45800 -5.54400 43.44300
H  19.79000 -4.63600 42.63000
H  19.04000 -3.91600 44.04900
H  18.35200 -9.02200 47.09600
H  19.57900 -8.07000 47.82300
H  19.99200 -9.38600 46.66900
H  24.34800 -9.34700 47.96700
H  25.48800 -7.50200 49.95400
H  23.21300 -9.91100 49.86500
H  22.20600 -8.56100 49.50600
H  23.44700 -8.37600 50.72800
H  27.51500 -8.44000 48.26400
H  26.40200 -9.79500 48.15500
H  27.05200 -10.29200 50.37100
H  27.21000 -8.64900 50.88200
H  28.54800 -9.32300 49.91200
H  30.20200 -5.73500 46.98200
H  29.87600 -4.99500 48.51000
H  30.72200 -4.15400 47.11900
H  28.27700 -2.37300 42.94500
H  27.29300 1.83800 42.65100
H  28.29400 1.68100 41.25000
H  29.05400 2.04900 42.71100
Mg -2.09200 34.31700 26.63000
C  -3.98800 32.50800 28.88500
C  -0.94000 36.25300 29.26000
C  -0.56500 36.41700 24.42400
C  -3.57300 32.56600 23.98200
N  -2.61600 34.52200 28.73900
C  -3.25800 33.55300 29.45600
C  -3.12100 33.84000 30.97800
C  -2.36800 35.18600 31.04800
C  -1.95400 35.37700 29.58100
C  -3.16900 36.40700 31.46800
C  -2.21800 32.69900 31.61000
C  -2.93800 31.68700 32.65100
H  -2.45400 31.80900 34.17300
N  -0.89900 36.11000 26.83400
C  -0.39700 36.63200 28.03300
C  0.37700 37.76500 27.67500
C  0.31100 38.04100 26.28900
C  -0.40300 36.81600 25.77600
C  0.97600 38.69600 28.60400
C  0.90400 39.14500 25.42400
O  0.59500 39.22900 24.21900
C  1.81900 40.26500 25.95900
N  -2.29400 34.61100 24.41700
C  -1.37800 35.44500 23.80000
C  -1.49800 35.18700 22.26400
C  -2.36300 33.86800 22.16500
C  -2.75600 33.62300 23.59000
C  -2.02000 36.48800 21.49700
C  -1.69000 32.65000 21.61100
C  -0.51200 32.12300 22.40300
N  -3.50200 32.88700 26.42500
C  -3.95600 32.20600 25.28800
C  -4.77600 31.11800 25.67100
C  -4.84000 31.23800 27.08100
C  -4.03800 32.28300 27.48200
C  -5.45000 30.09000 24.82600
C  -5.42400 30.65900 28.26500
O  -6.30400 29.75100 28.46800
C  -4.72000 31.38100 29.50800
C  -5.86400 31.75700 30.47000
O  -6.41600 32.85700 30.47400
O  -5.91400 30.91100 31.48400
C  -6.97700 31.10700 32.48900
H  -0.47800 36.79000 30.09100
H  -0.01700 37.00100 23.68200
H  -4.04600 32.01500 23.16700
H  -4.11800 33.85300 31.41900
H  -1.55000 35.11600 31.76500
H  -3.03300 36.62900 32.52600
H  -4.19000 36.45200 31.08800
H  -2.61100 37.20800 30.98300
H  -1.39500 33.13800 32.17500
H  -1.75000 32.12500 30.81000
H  -2.87600 30.65100 32.31700
H  -4.00600 31.89900 32.61800
H  2.05300 38.79900 28.47200
H  0.90600 38.28600 29.61200
H  0.28000 39.52900 28.50500
H  1.07800 40.93500 26.39600
H  2.32700 40.75700 25.13000
H  2.58200 39.94700 26.66900
H  -0.58600 35.10000 21.67400
H  -3.20300 33.93900 21.47400
H  -1.25900 37.11500 21.03300
H  -2.45400 37.08400 22.29900
H  -2.76200 36.21500 20.74600
H  -1.21100 32.92200 20.67000
H  -2.46100 31.89400 21.46500
H  0.35600 31.93000 21.77200
H  -0.80400 31.17800 22.86000
H  -0.07500 32.75900 23.17300
H  -4.71400 29.75100 24.09700
H  -6.25300 30.49300 24.20900
H  -5.83200 29.28500 25.45400
H  -4.09800 30.68700 30.07300
H  -7.78000 31.74000 32.11100
H  -6.46400 31.62900 33.29700
H  -7.30400 30.10400 32.76100

