158

Mg 8.57400 3.50100 27.62500
C  9.99700 1.98300 30.43500
C  6.36800 5.23400 29.75800
C  6.72600 4.46200 24.95300
C  10.25900 1.14900 25.59300
N  8.20100 3.52400 29.76800
C  9.01200 2.96500 30.75700
C  8.73000 3.48100 32.19000
C  7.42000 4.33200 31.91400
C  7.28200 4.38100 30.38900
C  6.18100 3.94100 32.88300
C  9.86800 4.31400 32.87500
C  9.57300 5.23700 34.06500
H  10.17900 4.67700 35.34200
N  6.90700 4.90900 27.35300
C  6.19000 5.47800 28.34700
C  5.28200 6.46900 27.74800
C  5.35500 6.23100 26.25700
C  6.29500 5.07100 26.15200
C  4.35100 7.38300 28.60500
C  4.57900 6.87800 25.18700
O  4.74400 6.61600 24.01500
C  3.63800 7.98700 25.45100
N  8.57400 3.04200 25.66300
C  7.84700 3.62400 24.64000
C  8.18200 3.15800 23.23500
C  9.40100 2.21500 23.50200
C  9.41600 2.09300 25.00300
C  6.98700 2.32900 22.55700
C  10.84500 2.68500 23.01500
C  11.45400 1.92600 21.85300
N  9.84900 1.84500 27.90800
C  10.50200 0.95000 26.99800
C  11.38600 0.06300 27.74500
C  11.14300 0.47300 29.06700
C  10.23100 1.53200 29.11800
C  12.19100 -1.08100 27.24000
C  11.55700 0.18100 30.36300
O  12.27000 -0.75700 30.75900
C  10.88100 1.16900 31.30900
C  10.15400 0.44000 32.36600
O  9.21300 -0.32500 32.20000
O  10.60500 0.89300 33.56200
C  10.03300 0.37300 34.83500
H  5.67100 5.90900 30.25800
H  6.26000 4.83200 24.03700
H  10.68300 0.39800 24.92300
H  8.45100 2.64800 32.83500
H  7.67800 5.37200 32.11400
H  6.39800 3.27600 33.71900
H  5.59300 3.27500 32.25000
H  5.71800 4.81900 33.33300
H  10.29800 4.94000 32.09300
H  10.61500 3.58700 33.19400
H  8.49800 5.28700 34.23900
H  9.92500 6.25700 33.91000
H  4.67100 8.42200 28.68100
H  4.22300 7.13600 29.65900
H  3.31200 7.37200 28.27400
H  3.19200 8.39800 24.54500
H  4.11200 8.81200 25.98200
H  2.85700 7.72900 26.16600
H  8.53400 4.02400 22.67600
H  9.18300 1.24800 23.05000
H  6.04000 2.46600 23.08100
H  7.08600 1.27700 22.28700
H  6.83700 2.82400 21.59700
H  11.56600 2.67000 23.83200
H  10.78700 3.72600 22.69900
H  10.69600 1.39600 21.27600
H  12.14400 1.14500 22.17300
H  11.92900 2.69100 21.23700
H  12.34000 -0.93700 26.17000
H  11.82000 -2.10200 27.32700
H  13.17800 -1.06500 27.70300
H  11.46700 1.93800 31.81200
H  9.13500 -0.23100 34.70500
H  9.66100 1.18200 35.46300
H  10.77500 -0.20600 35.38500
Mg 45.95700 4.72100 48.19800
C  44.23500 7.62700 47.31600
C  43.11800 2.95300 47.46700
C  47.71600 1.75100 48.48700
C  48.91900 6.63400 48.52700
N  43.99400 5.26400 47.30600
C  43.45300 6.51100 47.07700
C  41.97600 6.50800 46.57200
C  41.65200 5.01900 46.82100
C  43.01200 4.35900 47.16400
C  40.57900 4.60800 47.92900
C  41.73700 7.01000 45.12200
C  40.67100 8.05500 44.73400
H  39.54000 7.66100 43.71600
N  45.50000 2.68200 48.05600
C  44.27900 2.15900 47.73600
C  44.32700 0.73900 47.87900
C  45.68700 0.34100 48.18500
C  46.36400 1.63300 48.32200
C  43.19900 -0.25000 47.72600
C  46.29900 -1.06800 48.28400
O  45.61100 -2.06800 48.28300
C  47.77400 -1.28000 48.41900
N  48.08200 4.22100 48.51700
C  48.52700 2.94000 48.52400
C  50.02600 2.93200 48.84700
C  50.47100 4.50500 48.66400
C  49.08500 5.19000 48.63300
C  50.39300 2.43800 50.29600
C  51.31800 4.96400 47.47700
C  52.56100 5.84500 47.65300
N  46.52600 6.74700 48.15400
C  47.77400 7.40900 48.27100
C  47.57700 8.80200 48.16000
C  46.23300 8.98000 47.82200
C  45.62900 7.68000 47.80200
C  48.65200 9.80200 48.15000
C  45.23300 9.90000 47.30000
O  45.30300 11.12300 47.07100
C  43.81600 9.07500 47.03200
C  42.72500 9.53800 47.90500
O  42.53600 9.11900 49.02100
O  42.02800 10.51100 47.27700
C  40.79500 10.96700 47.95800
H  42.18700 2.38400 47.41700
H  48.34100 0.89300 48.74500
H  49.87600 7.15700 48.59000
H  41.46100 7.17400 47.26400
H  41.24100 4.58600 45.91000
H  39.74000 4.09000 47.46500
H  40.14800 5.56200 48.23400
H  41.03100 4.12800 48.79700
H  41.52000 6.18500 44.44300
H  42.74400 7.37900 44.92400
H  41.30600 8.82000 44.28700
H  40.37100 8.47300 45.69500
H  42.74900 -0.41600 48.70400
H  43.52900 -1.24900 47.44100
H  42.49500 0.08900 46.96600
H  48.02600 -2.34000 48.46500
H  47.93400 -0.88300 49.42100
H  48.22900 -0.79400 47.55600
H  50.44200 2.33300 48.03700
H  51.01200 4.76900 49.57300
H  51.31000 2.98200 50.52300
H  50.51700 1.35500 50.29100
H  49.59700 2.68200 51.00000
H  50.67700 5.65500 46.93000
H  51.54800 4.11800 46.83000
H  52.89000 5.94700 48.68700
H  52.31200 6.88800 47.45700
H  53.41200 5.51600 47.05700
H  48.39000 10.70300 48.70400
H  48.93800 10.02800 47.12300
H  49.57000 9.35500 48.53200
H  43.48800 9.16200 45.99600
H  40.68800 10.48900 48.93100
H  39.99900 10.70000 47.26300
H  40.94200 12.04400 48.04200

