158

Mg 41.70100 40.69200 26.35100
C  40.95200 43.10300 28.89600
C  42.11400 38.33700 29.00100
C  42.68600 38.46600 24.14000
C  41.66800 43.16600 24.03300
N  41.42300 40.71000 28.77500
C  41.13300 41.78200 29.52500
C  40.97900 41.37200 30.98500
C  41.39200 39.81600 30.98000
C  41.69100 39.57300 29.49600
C  42.61200 39.41100 31.88200
C  39.54800 41.69000 31.41500
C  39.25700 42.74800 32.53700
H  38.49400 42.38500 33.89200
N  42.26900 38.66700 26.51800
C  42.48000 37.93300 27.66600
C  43.02800 36.63100 27.32500
C  43.20000 36.66000 25.91500
C  42.69800 37.95800 25.43500
C  43.34100 35.61400 28.29700
C  43.96300 35.65300 25.07500
O  44.10800 35.83000 23.85900
C  44.58300 34.33100 25.61700
N  42.21800 40.83100 24.40800
C  42.43700 39.74600 23.64800
C  42.45900 40.13600 22.02400
C  41.84800 41.51600 22.10900
C  41.97600 41.88400 23.55800
C  43.85400 39.94900 21.41800
C  40.39600 41.52300 21.55100
C  39.29200 40.80900 22.41200
N  41.29600 42.69200 26.39300
C  41.35700 43.59800 25.35400
C  41.14800 44.89600 25.84700
C  40.92100 44.71800 27.24800
C  41.04100 43.39300 27.51600
C  40.98300 46.19000 25.00000
C  40.54500 45.48300 28.43000
O  40.21700 46.67600 28.55500
C  40.59400 44.50100 29.55300
C  41.63200 45.07900 30.53800
O  42.75600 45.44000 30.25900
O  41.02900 45.17900 31.79500
C  41.82500 45.70800 32.85100
H  42.01800 37.65100 29.84500
H  43.00400 37.79100 23.34200
H  41.37200 43.85400 23.23900
H  41.59700 41.96400 31.66000
H  40.55300 39.13400 31.11300
H  43.42400 38.93800 31.33100
H  42.20000 38.69000 32.58800
H  42.95000 40.34400 32.33300
H  39.12600 40.76100 31.79900
H  38.92800 41.88300 30.54000
H  38.63100 43.55100 32.14700
H  40.22000 43.06800 32.93600
H  44.41400 35.47200 28.42600
H  42.84400 34.68900 28.00500
H  42.98800 35.96000 29.26900
H  44.88100 33.67400 24.80000
H  43.80000 33.87400 26.22200
H  45.44900 34.69600 26.17000
H  41.74800 39.52100 21.47200
H  42.37200 42.21300 21.45400
H  44.50600 39.99500 22.29000
H  44.12400 40.72100 20.69700
H  43.77800 39.08000 20.76500
H  40.41100 40.94300 20.62800
H  40.10200 42.54100 21.29500
H  39.49900 39.74800 22.55200
H  38.39900 40.94700 21.80300
H  39.08200 41.35400 23.33300
H  40.92400 47.11500 25.57300
H  40.07500 46.19300 24.39700
H  41.70000 46.23000 24.18000
H  39.61600 44.43900 30.03100
H  42.51300 46.47700 32.49900
H  42.40300 44.92900 33.34700
H  41.10700 46.20400 33.50400
Mg 17.09900 52.72500 26.30800
C  18.69800 51.03100 28.99900
C  14.66700 53.85900 28.50000
C  15.68200 54.05600 23.65100
C  19.61200 51.43800 24.19800
N  16.72500 52.42500 28.46600
C  17.52000 51.65800 29.35800
C  16.94200 51.79100 30.81400
C  15.53600 52.38700 30.50400
C  15.66500 53.05500 29.11300
C  14.37100 51.43400 30.50100
C  17.84200 52.63800 31.75600
C  17.99600 51.96400 33.14600
H  17.14000 52.35500 34.34600
N  15.44100 53.86200 26.07800
C  14.58600 54.28800 27.07800
C  13.57500 55.10000 26.54100
C  13.90200 55.25700 25.14200
C  15.06600 54.35400 24.88000
C  12.46800 55.72500 27.32700
C  13.15200 55.98400 24.06800
O  13.38200 55.94900 22.87200
C  11.98300 56.83600 24.44000
N  17.57400 52.72400 24.18800
C  16.73300 53.32400 23.29600
C  17.19100 53.01100 21.82100
C  18.61900 52.40100 22.05800
C  18.60100 52.12100 23.51200
C  16.26500 52.12300 21.00100
C  19.83200 53.36500 21.68500
C  20.58300 53.01400 20.34000
N  18.75000 51.45100 26.48600
C  19.70400 51.12800 25.54300
C  20.69600 50.22300 26.18100
C  20.35000 50.24600 27.57900
C  19.18900 50.96200 27.71200
C  21.96100 49.64300 25.50000
C  20.73700 49.67500 28.92600
O  21.66700 48.97400 29.22800
C  19.69600 50.26800 29.88200
C  19.05400 49.17000 30.56000
O  18.19200 48.44600 30.04400
O  19.51800 49.06800 31.88600
C  18.96500 48.10000 32.78800
H  13.90700 54.21900 29.19700
H  15.06000 54.39800 22.82100
H  20.32600 50.94900 23.53200
H  16.74600 50.78900 31.19800
H  15.33300 53.26000 31.12500
H  13.62400 51.73200 31.23700
H  14.67400 50.41300 30.73300
H  13.77700 51.31400 29.59500
H  17.40900 53.63100 31.87200
H  18.78200 52.84900 31.24500
H  19.06800 51.96300 33.34600
H  17.77700 50.89700 33.09400
H  11.48300 55.44500 26.95400
H  12.62000 56.80400 27.31800
H  12.44700 55.34900 28.35000
H  11.12200 56.23100 24.72300
H  11.69000 57.46600 23.60000
H  12.17100 57.42400 25.33800
H  17.26900 53.92700 21.23500
H  18.74900 51.45400 21.53400
H  15.78500 51.41900 21.68000
H  16.87200 51.59900 20.26200
H  15.54100 52.76900 20.50400
H  20.58000 53.46600 22.47100
H  19.36800 54.33000 21.47900
H  20.89300 53.98600 19.95600
H  19.84900 52.47600 19.74000
H  21.47000 52.39900 20.49100
H  22.28200 50.42400 24.81100
H  21.73000 48.72000 24.96700
H  22.65600 49.37300 26.29400
H  20.22100 50.91700 30.58200
H  19.45100 47.12500 32.75100
H  17.87600 48.10500 32.73800
H  19.18100 48.36400 33.82300

