158

Mg 44.25800 4.00800 47.60200
C  42.19300 6.73800 47.10400
C  41.65700 1.94800 46.77900
C  46.35400 1.36400 47.43400
C  47.02200 6.22700 47.75900
N  42.21700 4.35500 47.00300
C  41.63100 5.50700 46.80600
C  40.20400 5.36300 46.35200
C  39.92400 3.84200 46.47000
C  41.39400 3.31600 46.73400
C  39.17500 3.38800 47.76400
C  40.07200 5.88900 44.89300
C  38.70500 6.56600 44.43100
H  38.16400 5.98400 43.06700
N  43.99300 1.91100 47.38000
C  42.86200 1.27900 47.11100
C  42.98400 -0.06700 47.13200
C  44.35700 -0.29600 47.36600
C  44.95200 1.01900 47.50800
C  41.89900 -1.09200 46.86100
C  45.00700 -1.61900 47.28000
O  44.21500 -2.58100 47.05900
C  46.42900 -1.96700 47.42600
N  46.36100 3.85800 47.29900
C  46.96600 2.62800 47.43600
C  48.51300 2.84000 47.86600
C  48.75900 4.34200 47.94200
C  47.30600 4.83200 47.60400
C  48.91300 2.07500 49.14900
C  49.87000 4.92700 47.02700
C  51.17100 5.38000 47.81500
N  44.60800 6.03300 47.36400
C  45.80200 6.79100 47.51000
C  45.43100 8.19700 47.48400
C  44.04500 8.22400 47.39600
C  43.57300 6.91000 47.34900
C  46.24500 9.38800 47.64100
C  42.89600 9.08800 47.28900
O  42.83900 10.34300 47.15200
C  41.60900 8.17300 47.13200
C  40.71700 8.54800 48.31400
O  40.63800 7.96600 49.38800
O  39.80900 9.55300 47.89100
C  38.70900 9.74900 48.85600
H  40.72600 1.39000 46.65700
H  46.97400 0.46600 47.47100
H  47.83500 6.91700 47.99600
H  39.63300 5.97700 47.04900
H  39.42100 3.31600 45.65900
H  38.50300 2.54200 47.61500
H  38.58300 4.22100 48.14300
H  39.93400 3.22100 48.52900
H  40.29100 5.11900 44.15300
H  40.85100 6.64600 44.80800
H  38.79400 7.64800 44.33700
H  37.93300 6.32800 45.16300
H  42.04100 -2.02500 47.40600
H  41.74000 -1.28000 45.79900
H  40.94000 -0.70700 47.20800
H  47.00100 -1.50500 46.62100
H  46.50900 -3.04000 47.24500
H  46.83300 -1.90100 48.43600
H  49.20300 2.37800 47.16000
H  48.99800 4.58900 48.97600
H  48.91200 1.03200 48.83300
H  48.15400 2.17500 49.92600
H  49.87200 2.39900 49.55400
H  49.42900 5.73000 46.43600
H  50.10600 4.15400 46.29500
H  52.05200 4.85200 47.44900
H  50.99200 5.30000 48.88800
H  51.34600 6.40900 47.50300
H  45.85800 10.05100 48.41500
H  46.22600 9.78400 46.62600
H  47.24300 9.10200 47.97100
H  41.10700 8.55100 46.24200
H  38.05900 8.87600 48.81300
H  38.12300 10.63000 48.59700
H  39.16600 10.00200 49.81300
Mg -1.94000 34.23600 26.85800
C  -3.41000 32.50400 29.49800
C  -0.95800 36.58700 29.07800
C  -1.25400 36.14900 24.21900
C  -3.58600 31.89500 24.61900
N  -2.23900 34.59600 29.00000
C  -2.72000 33.66900 29.93200
C  -2.32300 34.08300 31.38400
C  -1.41900 35.31600 31.20200
C  -1.60200 35.54200 29.67300
C  -1.66500 36.57800 32.04600
C  -1.70100 32.86500 32.19700
C  -2.39000 32.42700 33.51000
H  -1.60900 32.53200 34.90100
N  -1.16500 36.06900 26.66300
C  -0.90900 36.92000 27.77900
C  -0.35800 38.19000 27.20300
C  -0.28400 37.99300 25.77900
C  -0.96100 36.69600 25.48400
C  0.47300 39.27200 27.96400
C  0.34400 38.89300 24.68900
O  0.28600 38.60900 23.43900
C  1.03300 40.07700 24.98600
N  -2.43000 34.10100 24.64500
C  -1.91700 34.96100 23.82400
C  -2.05500 34.40400 22.35300
C  -2.58800 33.00000 22.48700
C  -2.94400 33.00200 24.00000
C  -2.90200 35.20100 21.37900
C  -1.48700 31.94100 22.10600
C  -0.34000 31.91500 23.06300
N  -3.21700 32.54800 27.02600
C  -3.70300 31.67600 26.05500
C  -4.45700 30.58600 26.71700
C  -4.40500 30.87600 28.09600
C  -3.52700 32.03000 28.18800
C  -5.26900 29.57400 26.08700
C  -4.81600 30.53100 29.37400
O  -5.57800 29.60000 29.69600
C  -4.22500 31.54400 30.29000
C  -5.26300 32.27500 31.08100
O  -6.02300 33.12200 30.66900
O  -5.21000 31.69300 32.34500
C  -6.31900 32.11800 33.22100
H  -0.40600 37.24800 29.75000
H  -0.94500 36.71700 23.33900
H  -4.08000 31.15200 23.99000
H  -3.21800 34.46100 31.87900
H  -0.41400 34.98900 31.46900
H  -1.71600 37.49000 31.45000
H  -0.96900 36.56700 32.88500
H  -2.65000 36.52600 32.50900
H  -0.66600 33.03000 32.49700
H  -1.63700 31.98500 31.55800
H  -2.70700 31.38400 33.50600
H  -3.26700 33.07300 33.54000
H  0.16500 40.25300 27.60200
H  1.55200 39.25400 27.81500
H  0.34800 39.26500 29.04700
H  1.79300 40.20000 25.75800
H  0.40300 40.96600 24.96700
H  1.56000 40.43500 24.10200
H  -1.03600 34.50500 21.97900
H  -3.39400 32.74300 21.79900
H  -3.52500 35.85500 21.99000
H  -3.50600 34.63600 20.66900
H  -2.31700 35.92700 20.81600
H  -1.06200 32.16500 21.12700
H  -1.91500 30.94000 22.15100
H  -0.51200 31.43500 24.02600
H  0.00500 32.90800 23.35100
H  0.47300 31.34500 22.61300
H  -4.84400 29.20400 25.15400
H  -6.32500 29.82800 25.99400
H  -5.17700 28.74100 26.78300
H  -3.44000 31.09500 30.89900
H  -5.92900 32.56200 34.13600
H  -6.81800 31.18600 33.48900
H  -6.93700 32.91100 32.80100

