158

Mg 9.72700 48.37600 25.63700
C  7.93000 48.62600 28.64500
C  12.50000 49.52300 27.21500
C  11.27900 48.30200 22.72400
C  6.60500 47.49900 23.94800
N  10.09700 49.03900 27.62000
C  9.28300 48.96500 28.72600
C  10.06600 49.29000 29.89300
C  11.31900 50.03400 29.37300
C  11.28900 49.53500 27.96900
C  11.17700 51.56900 29.46900
C  10.31300 48.17600 30.90700
C  9.72200 48.47200 32.24600
H  9.79000 47.29700 33.22300
N  11.71300 48.70300 25.09200
C  12.72600 49.07700 25.88200
C  13.96900 49.11000 25.15800
C  13.60000 48.88000 23.76400
C  12.14900 48.62500 23.80300
C  15.30500 49.26300 25.93400
C  14.45900 48.87600 22.59200
O  14.02900 48.59600 21.43700
C  15.94200 49.04600 22.79600
N  8.97200 48.01400 23.66400
C  9.91200 48.00900 22.59100
C  9.15900 47.80900 21.22200
C  7.84700 47.14100 21.80100
C  7.78000 47.63900 23.18400
C  8.82000 49.02600 20.34400
C  7.85500 45.56400 21.76600
C  8.93800 44.85100 22.61800
N  7.67300 48.21600 26.11200
C  6.52800 47.80000 25.35600
C  5.33900 47.87600 26.20200
C  5.84600 48.15400 27.50800
C  7.29200 48.33700 27.40200
C  3.86500 47.69700 25.81900
C  5.49100 48.29100 28.93400
O  4.48300 48.08600 29.56000
C  6.82500 48.66700 29.68100
C  7.06300 47.57300 30.68400
O  7.49700 46.47900 30.49000
O  6.60300 47.95200 31.92200
C  6.48700 46.90200 32.99200
H  13.35200 49.88100 27.79700
H  11.68800 48.40400 21.71700
H  5.69900 47.08600 23.49900
H  9.42500 50.02500 30.37800
H  12.21200 49.94900 29.99100
H  10.44700 51.97800 30.16700
H  11.02600 51.97200 28.46800
H  12.14500 52.03600 29.65100
H  11.37400 48.09400 31.14200
H  9.97800 47.18400 30.60400
H  8.82500 49.09100 32.22200
H  10.40400 49.21400 32.66100
H  15.88700 48.37500 25.68800
H  15.17200 49.40600 27.00600
H  15.82300 50.16000 25.59400
H  16.55700 48.78400 21.93600
H  16.22500 48.32900 23.56700
H  16.15300 50.06400 23.12400
H  9.80800 47.14800 20.64700
H  7.01000 47.56900 21.24900
H  9.44500 49.87500 20.62100
H  7.79700 49.38600 20.46100
H  9.06600 48.87800 19.29300
H  8.12400 45.34800 20.73200
H  6.86700 45.17200 22.00700
H  9.55900 45.56700 23.15700
H  9.52100 44.20000 21.96800
H  8.50100 44.20800 23.38200
H  3.56900 48.10100 24.85000
H  3.30000 48.25000 26.56900
H  3.54800 46.66200 25.94500
H  6.74300 49.62500 30.19400
H  7.03700 47.15100 33.89900
H  6.69200 45.90500 32.60300
H  5.43400 47.02400 33.24700
Mg -11.92100 37.91000 42.38400
C  -9.67700 35.36900 41.78700
C  -9.95100 39.88200 40.34700
C  -14.34700 40.28800 42.51500
C  -14.16300 35.71200 43.82200
N  -10.09000 37.62700 41.15400
C  -9.29900 36.50200 41.06600
C  -8.21400 36.60800 39.97000
C  -8.09300 38.12400 39.70900
C  -9.46600 38.61700 40.40500
C  -6.87600 38.95700 40.27800
C  -8.65000 35.81500 38.67700
C  -7.70200 34.67400 38.28900
H  -6.53100 34.99500 37.32000
N  -12.02200 39.94100 41.71400
C  -11.11500 40.47500 40.85500
C  -11.52700 41.84600 40.54600
C  -12.83400 42.00600 41.11600
C  -13.11200 40.77600 41.90800
C  -10.65800 42.72700 39.71100
C  -13.76800 43.19600 40.90400
O  -13.47800 44.02700 40.05700
C  -15.13900 43.44600 41.63300
N  -14.00300 37.91100 42.89900
C  -14.72100 39.03900 42.94400
C  -16.10800 38.72800 43.55900
C  -16.07200 37.23900 43.82600
C  -14.66600 36.90600 43.49900
C  -16.26900 39.60600 44.85100
C  -17.06200 36.36700 42.96500
C  -18.33900 35.91400 43.67000
N  -12.01600 35.93100 42.72700
C  -12.85600 35.24300 43.49900
C  -12.25700 33.92400 43.79300
C  -11.06100 33.93800 43.08800
C  -10.92500 35.17900 42.45200
C  -12.85400 32.80800 44.66500
C  -9.81100 33.21300 42.83800
O  -9.43000 32.13900 43.24600
C  -8.82900 34.09400 41.90900
C  -7.50600 34.26300 42.49100
O  -6.57700 33.47400 42.21100
O  -7.30500 35.45300 43.12200
C  -6.00200 35.69600 43.67600
H  -9.36500 40.45100 39.62300
H  -15.08800 41.03000 42.81900
H  -14.79700 35.00500 44.36000
H  -7.22600 36.25900 40.27300
H  -8.18600 38.35800 38.64800
H  -6.22400 39.35200 39.49900
H  -6.25100 38.24300 40.81400
H  -7.20700 39.81400 40.86500
H  -8.79500 36.43600 37.79300
H  -9.65300 35.43800 38.87300
H  -8.19800 33.85200 37.77200
H  -7.10500 34.23200 39.08600
H  -10.87600 43.76600 39.95800
H  -10.84500 42.50000 38.66100
H  -9.64300 42.53000 40.05600
H  -15.79100 42.57500 41.56700
H  -15.63000 44.33600 41.23900
H  -14.97500 43.63600 42.69300
H  -16.81700 38.90200 42.75000
H  -16.31100 37.08900 44.87900
H  -16.60100 39.00800 45.70000
H  -16.93200 40.44000 44.61800
H  -15.29600 40.03000 45.09900
H  -16.47500 35.50700 42.64300
H  -17.27400 36.87300 42.02300
H  -18.34300 34.83000 43.78100
H  -19.21600 36.15200 43.06700
H  -18.43700 36.29000 44.68800
H  -13.93400 32.90400 44.55600
H  -12.67900 32.88000 45.73800
H  -12.44600 31.87900 44.26600
H  -8.69000 33.56300 40.96700
H  -5.42200 36.47100 43.17500
H  -5.39800 34.79100 43.75200
H  -6.19600 36.15900 44.64300

