158

Mg 17.43000 52.39500 25.30700
C  19.27800 51.01700 28.01300
C  14.83500 52.98400 27.49600
C  15.82700 53.81000 22.84400
C  20.08600 51.45700 23.24900
N  17.08000 51.78400 27.46500
C  18.06000 51.51400 28.40900
C  17.67200 51.92900 29.82700
C  16.10000 51.91800 29.65000
C  15.92400 52.26100 28.09700
C  15.32900 50.68300 30.16200
C  18.38200 53.17900 30.35800
C  18.60200 53.20900 31.89500
H  17.82600 52.36800 32.84200
N  15.59100 53.20900 25.21800
C  14.69100 53.46200 26.19900
C  13.65900 54.36000 25.68500
C  13.82300 54.40800 24.28700
C  15.17400 53.84200 24.06600
C  12.64500 55.03700 26.56600
C  12.84000 54.93400 23.20900
O  13.03900 55.00000 21.99900
C  11.53300 55.56900 23.68200
N  17.88400 52.56600 23.36700
C  17.03600 53.22700 22.47800
C  17.64300 53.40200 21.07600
C  19.00100 52.57600 21.21900
C  19.00700 52.15800 22.66800
C  16.66300 52.99800 19.91300
C  20.24400 53.40000 20.71300
C  20.76700 54.46200 21.66000
N  19.29700 51.38000 25.54200
C  20.22800 51.05600 24.57100
C  21.34800 50.41200 25.23700
C  21.04200 50.38800 26.65800
C  19.77500 50.96300 26.73700
C  22.62900 50.00000 24.60200
C  21.58300 50.08100 27.91900
O  22.61000 49.47400 28.23100
C  20.45400 50.53800 28.84500
C  20.21300 49.35700 29.69100
O  19.76000 48.30700 29.31800
O  20.40100 49.66400 31.03300
C  19.95600 48.66800 31.97600
H  14.15400 53.26600 28.30100
H  15.18100 54.36900 22.16400
H  21.00700 51.26600 22.69400
H  17.87300 51.07400 30.47100
H  15.78800 52.71600 30.32400
H  15.77800 50.25100 31.05600
H  15.14700 49.97100 29.35700
H  14.37900 51.01700 30.57700
H  17.77400 54.07400 30.22700
H  19.25400 53.37500 29.73500
H  18.54700 54.24000 32.24500
H  19.60900 52.79800 31.96700
H  12.83400 56.10900 26.51400
H  12.72700 54.75300 27.61500
H  11.61700 54.81300 26.27800
H  11.60000 56.49500 24.25200
H  11.01200 54.75400 24.18400
H  10.92900 55.87400 22.82800
H  17.85200 54.45500 20.89100
H  18.81500 51.65600 20.66400
H  15.71900 52.79200 20.41600
H  16.98300 52.11100 19.36600
H  16.76300 53.85400 19.24600
H  19.97900 53.95600 19.81400
H  21.00200 52.67500 20.41800
H  20.59900 54.12600 22.68300
H  20.32600 55.45000 21.52500
H  21.84300 54.60200 21.55900
H  22.84200 50.63200 23.74000
H  22.51900 48.99800 24.18800
H  23.39500 50.09100 25.37200
H  20.96900 51.33000 29.39000
H  20.71800 47.89300 31.89000
H  18.94300 48.33400 31.75400
H  19.88900 48.97400 33.02000
Mg 10.12700 48.60400 24.79000
C  7.85500 48.83600 27.44100
C  12.54100 49.81600 26.81300
C  12.15500 48.39800 22.08600
C  7.31400 47.96600 22.68000
N  10.12600 49.30000 26.83100
C  9.15100 49.12800 27.80200
C  9.59200 49.61600 29.24100
C  10.84300 50.38900 28.75100
C  11.27100 49.80400 27.37900
C  10.72900 51.95700 28.66500
C  9.93800 48.47400 30.22600
C  9.52800 48.71100 31.66600
H  9.59700 47.58000 32.75600
N  12.11500 48.87600 24.56100
C  12.97700 49.37700 25.51900
C  14.37400 49.20900 24.99100
C  14.23600 48.78900 23.64200
C  12.76500 48.71900 23.33300
C  15.56700 49.52400 25.81900
C  15.30400 48.44700 22.59800
O  15.06500 47.97500 21.51900
C  16.70300 48.71800 22.99300
N  9.80800 48.32100 22.66800
C  10.81000 48.19700 21.80400
C  10.24800 47.63200 20.40000
C  8.76300 47.41800 20.73400
C  8.59400 47.96200 22.10100
C  10.48100 48.41100 19.17400
C  8.30300 45.86600 20.48100
C  8.35800 44.91100 21.71200
N  7.97000 48.44700 24.99700
C  7.05400 48.21700 24.02600
C  5.74800 48.34100 24.65800
C  5.94700 48.57500 25.96500
C  7.37000 48.66700 26.13500
C  4.49100 48.05100 24.04200
C  5.35100 48.75600 27.25800
O  4.17100 48.75100 27.56200
C  6.60000 48.91600 28.28900
C  6.56300 47.79600 29.19300
O  7.08100 46.73500 28.98200
O  5.86500 48.10100 30.26900
C  5.44500 47.02000 31.11000
H  13.35100 50.15600 27.46200
H  12.74100 48.25600 21.17500
H  6.45900 47.69300 22.05800
H  8.91200 50.34300 29.68400
H  11.65400 50.07500 29.40800
H  9.78000 52.13500 29.17000
H  10.58400 52.22200 27.61700
H  11.62400 52.51800 28.93400
H  11.02500 48.47600 30.30700
H  9.70400 47.46700 29.87900
H  8.60300 49.28600 31.62600
H  10.30500 49.38400 32.02700
H  16.12600 48.59500 25.92200
H  15.27500 49.75700 26.84300
H  16.21400 50.34400 25.50600
H  16.82100 49.76000 23.29100
H  17.35100 48.67600 22.11800
H  17.13900 48.10600 23.78300
H  10.74100 46.66000 20.40500
H  8.11700 48.03300 20.10800
H  9.53400 48.84700 18.85600
H  10.80700 47.81600 18.32100
H  11.19700 49.20300 19.39000
H  8.99200 45.50400 19.71800
H  7.27000 45.95500 20.14600
H  7.35900 44.64600 22.05800
H  8.99900 45.38000 22.45700
H  8.86400 43.95800 21.55100
H  4.61100 47.05000 23.62700
H  4.17800 48.84600 23.36500
H  3.76300 47.91900 24.84200
H  6.60400 49.83100 28.88200
H  5.46900 47.32900 32.15500
H  6.16800 46.21500 30.97600
H  4.41300 46.75000 30.88700

