158

Mg 25.30800 1.58000 29.23300
C  27.50100 1.17000 32.07100
C  22.70100 1.91100 31.39300
C  23.51400 1.94800 26.47100
C  28.13200 0.85200 27.25300
N  25.10500 1.42900 31.52500
C  26.09200 1.40200 32.45500
C  25.55700 1.57800 33.87300
C  23.99400 1.76200 33.60100
C  23.90300 1.76100 32.03700
C  23.01500 0.70300 34.26400
C  26.33200 2.61800 34.78700
C  25.42000 3.32400 35.71900
H  25.97400 4.07400 36.95000
N  23.33100 1.92200 28.95200
C  22.36300 1.87500 29.97100
C  21.11100 1.89000 29.27600
C  21.32700 1.97400 27.89300
C  22.76400 1.97700 27.71000
C  19.84800 1.96200 30.00000
C  20.34200 1.95300 26.75800
O  20.61900 2.18100 25.57900
C  18.84200 1.48900 27.03200
N  25.79800 1.45900 27.20500
C  24.87800 1.79300 26.19400
C  25.47400 1.67400 24.77200
C  27.00400 1.39900 25.07600
C  27.01200 1.15900 26.58800
C  24.89800 0.49400 23.84700
C  27.93600 2.66300 24.71700
C  27.75700 3.86500 25.53100
N  27.39900 1.06400 29.53600
C  28.40700 0.74400 28.63100
C  29.56300 0.38800 29.34800
C  29.29700 0.56300 30.65900
C  27.97000 0.97400 30.75100
C  30.86700 0.09900 28.67800
C  29.84100 0.45300 31.94100
O  30.90900 -0.04400 32.27900
C  28.72000 0.99100 32.98700
C  28.48400 -0.02900 34.09800
O  27.60500 -0.89400 34.06100
O  29.29600 0.12600 35.16800
C  29.03000 -0.73500 36.26800
H  21.81100 2.04500 32.01100
H  22.95200 2.08500 25.54500
H  28.95100 0.56500 26.59000
H  25.77400 0.65800 34.41600
H  23.65700 2.71600 34.00800
H  22.45600 0.15200 33.50800
H  22.19800 1.06400 34.88900
H  23.49900 0.00400 34.94500
H  26.87300 3.32500 34.15900
H  27.12000 1.99200 35.20500
H  24.53100 2.75700 35.99800
H  25.03100 4.09600 35.05600
H  19.13400 2.57700 29.45200
H  20.02300 2.48800 30.93800
H  19.47700 0.93700 30.02800
H  18.67500 0.80900 27.86700
H  18.49900 1.15000 26.05400
H  18.20200 2.35800 27.18400
H  25.19400 2.56700 24.21400
H  27.40500 0.47000 24.67000
H  24.24600 -0.09300 24.49400
H  25.71000 -0.07700 23.39600
H  24.40400 1.00900 23.02400
H  27.68300 2.95900 23.69900
H  28.94000 2.23900 24.74500
H  27.24200 3.61400 26.45800
H  27.23200 4.68100 25.03500
H  28.67800 4.32300 25.89200
H  30.82000 -0.91100 28.27100
H  31.65100 0.13400 29.43400
H  31.01000 0.74000 27.80900
H  28.97400 1.96400 33.40800
H  28.01000 -0.57300 36.61700
H  29.72500 -0.43300 37.05200
H  29.23100 -1.77100 35.99600
Mg 16.45700 51.10200 26.61200
C  18.58100 49.87900 29.12700
C  14.42800 52.20100 29.24400
C  14.52800 52.63000 24.32900
C  18.58700 50.02100 24.09200
N  16.48900 50.91000 28.95000
C  17.50100 50.43000 29.72600
C  17.29800 50.57600 31.23900
C  15.76400 51.00800 31.22600
C  15.56700 51.42200 29.72900
C  14.86800 49.78000 31.55200
C  18.20100 51.63700 31.96000
C  18.90700 51.09300 33.18100
H  18.25300 51.36200 34.46200
N  14.70100 52.20200 26.79100
C  14.08100 52.63900 27.98200
C  12.96600 53.46500 27.65600
C  12.92400 53.54500 26.18500
C  14.02100 52.75400 25.70200
C  11.94400 53.95200 28.73800
C  11.91100 54.21700 25.28500
O  11.93400 54.19200 24.04700
C  10.88400 55.00500 25.92400
N  16.47800 51.19100 24.43300
C  15.57400 51.96100 23.72100
C  15.78100 51.78000 22.19800
C  17.17000 51.01100 22.15000
C  17.45800 50.77300 23.60000
C  14.50700 51.06700 21.54500
C  18.33700 51.76000 21.46900
C  19.24000 50.77900 20.60900
N  18.13200 50.07000 26.53100
C  18.92300 49.70200 25.43800
C  20.08400 49.02800 26.02900
C  19.97300 49.03900 27.43800
C  18.76500 49.75100 27.68100
C  21.13500 48.39500 25.23500
C  20.60700 48.68100 28.66600
O  21.70800 48.06400 28.81700
C  19.75700 49.16500 29.82700
C  19.33000 48.13900 30.77700
O  18.31500 47.46000 30.76200
O  20.22900 48.02800 31.86600
C  19.92400 47.01300 32.91100
H  13.87000 52.53500 30.12100
H  14.03300 53.28900 23.61200
H  19.23300 49.65400 23.29100
H  17.43500 49.56100 31.61300
H  15.62500 51.85300 31.90100
H  13.95800 50.22400 31.95700
H  15.27500 48.96200 32.14700
H  14.67700 49.35000 30.56800
H  17.60400 52.47900 32.31100
H  18.97300 52.05900 31.31700
H  19.87300 51.58200 33.30800
H  19.11900 50.03600 33.02400
H  11.11200 53.27600 28.93300
H  11.59300 54.97300 28.58800
H  12.37100 53.92800 29.74000
H  10.09200 55.15800 25.19200
H  11.28800 55.93800 26.31800
H  10.44700 54.39800 26.71800
H  15.79000 52.72800 21.66100
H  16.99900 50.00200 21.77600
H  13.76500 50.95700 22.33600
H  14.84600 50.13700 21.08600
H  14.03800 51.75300 20.84000
H  19.08200 52.17500 22.14800
H  17.96600 52.60800 20.89300
H  19.08300 50.78200 19.53100
H  19.23700 49.77200 21.02600
H  20.29000 51.04600 20.73000
H  22.02300 48.20200 25.83800
H  21.49100 48.95000 24.36700
H  20.77100 47.39400 25.00200
H  20.28100 49.82900 30.51400
H  18.86400 46.85800 33.11500
H  20.37400 47.35700 33.84300
H  20.43000 46.11400 32.56000

