158

Mg 40.33000 9.57400 29.85500
C  42.33600 10.83400 32.39300
C  38.39700 8.26500 32.21200
C  38.47300 8.34100 27.37800
C  42.68500 10.76800 27.57200
N  40.44600 9.40300 32.02500
C  41.21400 10.10000 32.89500
C  40.90500 9.87400 34.40700
C  39.63400 8.91400 34.23000
C  39.46600 8.87400 32.70200
C  39.71800 7.54200 34.85900
C  40.58500 11.24400 35.14500
C  40.12700 11.06100 36.60500
H  40.93100 11.68800 37.74300
N  38.60200 8.51200 29.77800
C  37.95700 8.03200 30.85100
C  36.79600 7.25500 30.42700
C  36.74400 7.29600 29.03600
C  37.98100 8.06800 28.64200
C  35.78800 6.61300 31.34400
C  35.73700 6.82200 28.05900
O  35.88300 7.04800 26.85500
C  34.50400 6.11200 28.53700
N  40.57300 9.57900 27.76000
C  39.63000 9.00400 26.99700
C  39.81200 9.44600 25.52400
C  41.29700 10.17000 25.53900
C  41.54400 10.14500 27.05100
C  39.74200 8.22800 24.56400
C  41.45000 11.54800 24.82700
C  40.61600 12.74400 25.29300
N  42.16900 10.42200 29.93000
C  42.99500 10.85200 28.92600
C  44.20200 11.54900 29.52900
C  43.88600 11.61700 30.88400
C  42.71600 10.90100 31.05900
C  45.37200 12.09200 28.79000
C  44.36000 12.06700 32.19000
O  45.41200 12.64100 32.44800
C  43.39700 11.50100 33.21700
C  44.09500 10.53400 34.06100
O  44.34600 9.38100 33.80200
O  44.37800 11.03900 35.31200
C  45.22800 10.26800 36.19500
H  37.67600 7.77500 32.87000
H  37.79300 8.28000 26.52600
H  43.29500 11.19400 26.77300
H  41.66600 9.30200 34.93700
H  38.76800 9.29000 34.77500
H  40.74300 7.40500 35.20600
H  39.38600 6.80600 34.12700
H  39.20700 7.55400 35.82200
H  39.77800 11.68700 34.56200
H  41.48100 11.86600 35.16200
H  40.18300 10.01500 36.90900
H  39.11800 11.45600 36.72200
H  35.92700 6.80700 32.40700
H  36.03800 5.56300 31.19100
H  34.77000 6.74700 30.97900
H  33.93400 5.69700 27.70600
H  33.89900 6.89500 28.99500
H  34.67600 5.35000 29.29600
H  39.12400 10.25400 25.27500
H  41.97700 9.45100 25.08200
H  40.05900 7.28900 25.01700
H  40.26700 8.47200 23.64000
H  38.67900 8.12300 24.35100
H  41.10000 11.41600 23.80300
H  42.50900 11.75400 24.67100
H  41.22700 13.47400 25.82300
H  39.89300 12.31500 25.98600
H  40.12600 13.30300 24.49600
H  45.73300 11.25000 28.20000
H  46.23000 12.39400 29.39000
H  45.06900 12.90400 28.12800
H  42.98600 12.33800 33.78000
H  44.79500 9.27800 36.33700
H  45.19300 10.79100 37.15100
H  46.30400 10.14900 36.07100
Mg 46.78200 17.10400 29.05100
C  45.23500 16.40900 32.11500
C  49.07000 18.95900 30.61000
C  47.90600 17.87300 26.05500
C  43.82200 15.65600 27.49800
N  46.99700 17.73800 31.12000
C  46.33600 17.29900 32.24500
C  47.06700 17.66900 33.47100
C  48.32100 18.48500 32.98400
C  48.14000 18.37100 31.47400
C  48.35300 19.98700 33.33800
C  47.54400 16.49500 34.40200
C  46.85200 16.52500 35.83700
H  46.99800 17.73900 36.70500
N  48.35400 18.21400 28.36100
C  49.16500 18.89100 29.19700
C  50.14400 19.57900 28.37800
C  49.88800 19.27900 26.95300
C  48.69400 18.42900 27.04800
C  51.34100 20.46000 28.83700
C  50.73700 19.60200 25.69600
O  50.36900 19.07300 24.63800
C  51.88200 20.67000 25.71500
N  46.09700 16.52200 27.06400
C  46.76700 17.08800 26.02400
C  46.07100 16.80800 24.59100
C  44.74500 16.15700 25.08800
C  44.89500 16.17100 26.70900
C  45.94400 18.05800 23.60900
C  44.50800 14.71400 24.53400
C  45.32500 13.56400 25.32200
N  44.95700 16.14900 29.59900
C  43.88300 15.64100 28.84300
C  42.87900 15.23700 29.78900
C  43.42300 15.39200 31.04800
C  44.64200 15.99100 30.86400
C  41.51700 14.74900 29.50900
C  43.09000 15.21200 32.39800
O  42.02400 14.82400 32.91300
C  44.23100 15.94500 33.20600
C  43.62700 17.10300 33.93700
O  43.50300 18.20500 33.47700
O  43.23700 16.64200 35.15100
C  42.54300 17.51700 35.97500
H  49.83900 19.57400 31.08100
H  48.38300 18.02300 25.08400
H  42.86100 15.43200 27.03100
H  46.46900 18.38700 34.03200
H  49.26800 17.97800 33.16800
H  49.38300 20.28300 33.53400
H  47.66300 20.23500 34.14400
H  48.07900 20.58100 32.46600
H  48.62500 16.55300 34.53500
H  47.31000 15.60100 33.82300
H  47.44000 15.77300 36.36200
H  45.80500 16.22300 35.82700
H  52.26700 20.07600 28.41000
H  51.35800 20.21100 29.89800
H  51.10800 21.50600 28.63900
H  51.62900 21.52100 26.34700
H  51.74800 20.91400 24.66100
H  52.87600 20.33000 26.00500
H  46.71400 16.14200 24.01600
H  43.86500 16.74800 24.83700
H  46.14000 17.82200 22.56300
H  46.70700 18.79900 23.84300
H  44.93200 18.44900 23.71700
H  44.74100 14.72000 23.46900
H  43.44200 14.54000 24.67900
H  46.11900 13.16700 24.69000
H  44.65700 12.77800 25.67600
H  45.87300 13.89700 26.20300
H  40.99900 15.42800 28.83100
H  41.16200 14.56600 30.52300
H  41.52200 13.77100 29.02800
H  44.66900 15.14200 33.80000
H  41.53000 17.69000 35.61200
H  43.07600 18.46800 35.99300
H  42.62700 17.09900 36.97800

