158

Mg 27.47400 50.69800 26.91100
C  25.47400 51.70400 29.63200
C  30.02400 49.81600 29.03100
C  29.49300 50.01300 24.26100
C  24.92300 51.81700 24.78600
N  27.61400 50.74500 29.05700
C  26.71700 51.01500 30.02200
C  27.15600 50.74700 31.43500
C  28.67000 50.31100 31.21100
C  28.80100 50.21900 29.60600
C  29.69900 51.17200 31.82100
C  26.30800 49.59600 32.01800
C  25.24300 49.96400 33.05600
H  25.15400 49.11000 34.37300
N  29.45100 49.87900 26.66500
C  30.34200 49.62100 27.66600
C  31.60100 49.11300 27.14800
C  31.52900 49.47400 25.72600
C  30.11800 49.89900 25.45800
C  32.72400 48.40600 28.01400
C  32.70400 49.57900 24.75500
O  32.53000 50.06500 23.67300
C  34.08200 49.12700 25.09900
N  27.29200 51.04300 24.82400
C  28.16800 50.45400 23.91400
C  27.59200 50.44700 22.51100
C  26.06000 50.79700 22.75400
C  26.11600 51.35000 24.17500
C  28.33700 51.35100 21.42100
C  25.01900 49.66400 22.56300
C  23.64700 50.01900 21.94500
N  25.58900 51.54000 27.02700
C  24.68600 52.01300 26.11300
C  23.55600 52.63600 26.76100
C  23.83900 52.57400 28.14600
C  25.03500 51.88500 28.26200
C  22.44000 53.44000 26.16400
C  23.29700 52.84600 29.48900
O  22.22600 53.36100 29.75700
C  24.27800 52.33700 30.46500
C  24.78400 53.47500 31.29300
O  25.51600 54.40900 30.84000
O  24.30600 53.38100 32.57300
C  24.76100 54.48400 33.44200
H  30.82400 49.47000 29.68900
H  30.00900 49.77000 23.33000
H  24.09800 51.93900 24.08100
H  27.06600 51.71200 31.93300
H  28.96600 49.31100 31.52600
H  30.74100 50.87800 31.94900
H  29.30600 51.40200 32.81100
H  29.62500 52.12800 31.30300
H  27.00000 48.94900 32.55700
H  25.81800 49.13800 31.15900
H  24.32000 49.87500 32.48300
H  25.37100 51.03200 33.23000
H  32.25400 48.00000 28.90900
H  33.44700 49.15400 28.34000
H  33.12200 47.65600 27.33100
H  34.71600 49.21100 24.21600
H  34.10100 48.07200 25.37300
H  34.56900 49.74000 25.85700
H  27.50000 49.39600 22.23700
H  25.72800 51.64400 22.15300
H  29.15800 51.91800 21.86100
H  27.69800 52.03600 20.86300
H  28.76800 50.76400 20.61000
H  24.90800 49.13200 23.50800
H  25.43500 48.90100 21.90400
H  22.90300 49.32300 22.33200
H  23.74000 49.91500 20.86400
H  23.30900 51.03600 22.14600
H  21.47300 53.08500 26.52100
H  22.38600 53.35000 25.07900
H  22.58400 54.49500 26.39700
H  23.91900 51.53800 31.11300
H  25.83200 54.60900 33.60200
H  24.39400 54.48300 34.46900
H  24.46700 55.45400 33.04200
Mg 17.61500 52.41100 26.48200
C  19.31900 50.98700 29.12800
C  15.15300 53.29300 28.75900
C  15.66900 53.39300 23.91800
C  19.88200 51.04000 24.17500
N  17.25200 52.04900 28.66200
C  18.17600 51.57400 29.56700
C  17.73800 51.79100 31.04600
C  16.24900 52.20600 30.88700
C  16.16900 52.59500 29.37200
C  15.27800 51.01400 31.32900
C  18.63500 52.70500 31.89000
C  18.95900 52.27400 33.25500
H  17.81200 51.59800 34.11700
N  15.69900 53.31000 26.32400
C  14.87000 53.54500 27.39000
C  13.61800 54.19200 26.87300
C  13.74700 54.32500 25.42800
C  15.12900 53.72100 25.13700
C  12.47100 54.57200 27.75400
C  12.75600 54.82000 24.32100
O  12.94000 54.75900 23.04600
C  11.52700 55.56300 24.68000
N  17.72700 52.18300 24.32000
C  16.85400 52.77300 23.54000
C  17.25000 52.57000 22.02300
C  18.59600 51.85400 22.07800
C  18.81100 51.74800 23.59700
C  16.20000 51.96100 21.04000
C  19.70400 52.72800 21.41600
C  20.76100 51.86200 20.66000
N  19.26800 51.26900 26.58100
C  20.09200 50.79700 25.60400
C  21.15400 49.96700 26.17000
C  20.94800 50.07400 27.57600
C  19.67900 50.80400 27.80100
C  22.17900 49.17300 25.40900
C  21.46700 49.58800 28.91000
O  22.43600 48.90600 29.23200
C  20.43300 50.28000 29.97600
C  19.88000 49.22100 30.83300
O  18.97600 48.44600 30.54500
O  20.35100 49.29200 32.12100
C  20.02300 48.20200 32.97800
H  14.40300 53.64500 29.47100
H  15.13200 53.84600 23.08200
H  20.50100 50.63900 23.36900
H  17.87300 50.78400 31.44200
H  16.12100 53.10200 31.49300
H  15.87100 50.28500 31.88200
H  14.76900 50.49400 30.51800
H  14.53700 51.38300 32.03700
H  18.17500 53.69300 31.86700
H  19.59800 52.95400 31.44500
H  19.42400 53.08700 33.81300
H  19.70700 51.48100 33.23300
H  12.69300 54.33600 28.79400
H  11.54500 54.07200 27.47000
H  12.29200 55.64700 27.79300
H  11.75400 56.22500 25.51600
H  10.81700 54.83300 25.06800
H  11.04300 56.01500 23.81500
H  17.37000 53.59300 21.66800
H  18.60400 50.86200 21.62800
H  15.64800 52.73800 20.51000
H  15.35700 51.48900 21.54500
H  16.62700 51.21100 20.37400
H  20.11300 53.38000 22.18800
H  19.21400 53.34700 20.66500
H  20.78800 50.86500 21.09900
H  21.78200 52.23900 20.72100
H  20.43300 51.81600 19.62100
H  22.54500 49.81600 24.60900
H  21.80500 48.20700 25.07200
H  22.89700 48.86300 26.16800
H  20.94300 51.14400 30.40200
H  19.16000 48.50400 33.57200
H  20.71600 47.87600 33.75400
H  19.65300 47.27100 32.54800

