158

Mg -1.08900 7.31800 26.31900
C  -0.00500 9.38100 28.97500
C  -0.87500 4.62500 28.62200
C  -1.59300 5.17900 23.82800
C  -0.34700 9.93000 24.15700
N  -0.45700 7.04200 28.56500
C  -0.33900 8.06300 29.44400
C  -0.40500 7.61200 30.93900
C  -0.38300 6.02700 30.74500
C  -0.52400 5.84700 29.20500
C  0.63800 5.16700 31.55600
C  -1.70200 8.16000 31.65000
C  -1.75900 8.09600 33.22900
H  -0.44300 7.63500 33.87000
N  -1.19100 5.17500 26.29200
C  -1.09500 4.25200 27.30700
C  -1.38800 2.93100 26.78800
C  -1.59100 3.05700 25.35500
C  -1.50300 4.55800 25.06700
C  -1.55500 1.63500 27.59000
C  -1.94200 1.99900 24.32400
O  -2.17300 2.30400 23.19000
C  -1.70900 0.52400 24.73100
N  -0.95400 7.53600 24.23300
C  -1.34800 6.48100 23.40900
C  -1.56700 7.09000 21.89900
C  -1.06000 8.59800 22.10600
C  -0.81500 8.70700 23.59300
C  -0.76400 6.37800 20.71200
C  -1.88800 9.71200 21.44500
C  -3.04600 10.29800 22.22400
N  -0.38100 9.32400 26.45000
C  -0.13800 10.23600 25.51900
C  0.47500 11.41900 26.07800
C  0.45400 11.17300 27.46400
C  0.00400 9.83100 27.60400
C  0.82000 12.78500 25.34000
C  0.83600 11.59300 28.83500
O  1.38900 12.60200 29.25900
C  0.42300 10.51200 29.80000
C  1.57600 10.25800 30.67300
O  2.45300 9.46100 30.40000
O  1.51000 11.12700 31.75200
C  2.68100 11.11000 32.69600
H  -0.95700 3.75500 29.27600
H  -1.84800 4.57500 22.95500
H  -0.22600 10.67400 23.36700
H  0.50700 7.90300 31.46000
H  -1.30500 5.62000 31.16100
H  1.06500 5.76000 32.36500
H  1.53100 4.84800 31.01700
H  0.24700 4.28300 32.05900
H  -2.54300 7.65200 31.17900
H  -1.77000 9.19500 31.31400
H  -2.54100 7.46900 33.65700
H  -1.86400 9.14200 33.51600
H  -2.43500 1.12300 27.19900
H  -1.74600 1.96100 28.61300
H  -0.67900 0.99400 27.48900
H  -1.41300 -0.11700 23.90100
H  -2.58000 0.17600 25.28500
H  -0.86300 0.50100 25.41700
H  -2.61200 7.11400 21.59200
H  -0.05400 8.67600 21.69400
H  -1.54300 6.03500 20.03100
H  -0.22200 5.50300 21.07000
H  -0.14900 7.05600 20.12000
H  -2.38900 9.26000 20.58900
H  -1.30800 10.51000 20.98100
H  -4.03300 10.07500 21.81900
H  -2.88600 11.37500 22.28300
H  -2.97600 9.91800 23.24300
H  1.43200 12.48800 24.48900
H  1.41200 13.31400 26.08800
H  -0.09800 13.31800 25.09200
H  -0.41000 11.04000 30.26500
H  2.55700 12.00900 33.29900
H  3.61600 11.19400 32.14300
H  2.60000 10.16500 33.23300
Mg 35.13700 1.87300 29.47300
C  32.95900 2.82400 32.03100
C  37.68700 1.62400 31.69100
C  37.19000 1.53600 26.91700
C  32.45100 2.49100 27.22600
N  35.22600 2.15400 31.59600
C  34.19100 2.47800 32.43400
C  34.67900 2.32500 33.93100
C  36.24400 2.06900 33.82000
C  36.42400 1.88800 32.29100
C  37.21700 3.06700 34.48400
C  33.87700 1.22500 34.67500
C  33.49500 1.63100 36.13400
H  34.38000 2.73600 36.81900
N  37.17200 1.62200 29.37000
C  38.06000 1.49500 30.33800
C  39.35400 1.22600 29.81600
C  39.29700 1.47200 28.42400
C  37.84500 1.61300 28.17400
C  40.53400 1.02500 30.68000
C  40.37000 1.44900 27.40200
O  40.16100 1.73400 26.24600
C  41.73300 1.16500 27.85900
N  34.80900 2.05200 27.35000
C  35.83700 1.65000 26.57600
C  35.43000 1.43200 25.12700
C  33.85900 1.71900 25.15300
C  33.66600 2.17100 26.62200
C  36.20100 2.38600 24.08300
C  32.90000 0.67100 24.55300
C  32.50600 -0.50800 25.56000
N  33.08500 2.52500 29.57000
C  32.15500 2.72500 28.56000
C  30.96900 3.20700 29.12900
C  31.19800 3.35600 30.51600
C  32.51100 2.82300 30.74000
C  29.71200 3.57900 28.38100
C  30.67300 3.67000 31.78900
O  29.60300 4.21600 32.04000
C  31.80100 3.36700 32.89500
C  32.21600 4.69600 33.43000
O  32.73000 5.68200 32.78600
O  32.05400 4.67400 34.81900
C  32.19900 5.97000 35.51200
H  38.45500 1.35400 32.41800
H  37.94700 1.23100 26.19200
H  31.53500 2.57600 26.63800
H  34.50300 3.27400 34.43700
H  36.51400 1.11900 34.28200
H  37.86500 3.55600 33.75600
H  37.86600 2.60700 35.22900
H  36.62300 3.82400 34.99600
H  34.47900 0.31700 34.71100
H  32.96500 1.04300 34.10800
H  33.34600 0.71900 36.71300
H  32.44400 1.91900 36.09100
H  41.21500 1.87500 30.69400
H  41.07400 0.17200 30.26900
H  40.28400 0.70400 31.69100
H  42.10700 1.97800 28.48100
H  42.52200 0.96700 27.13300
H  41.55200 0.25300 28.42700
H  35.63400 0.40000 24.84000
H  33.58700 2.53700 24.48700
H  35.51300 3.01600 23.52000
H  36.77300 1.87300 23.31000
H  36.92600 2.96800 24.65300
H  33.41600 0.32800 23.65700
H  31.95600 1.10600 24.22500
H  31.42000 -0.47900 25.47100
H  32.93500 -0.38200 26.55400
H  32.82300 -1.48800 25.20400
H  29.85300 3.95800 27.36900
H  29.27100 4.33100 29.03400
H  29.07200 2.70400 28.26800
H  31.47300 2.73800 33.72200
H  31.50900 5.98200 36.35500
H  31.97100 6.84600 34.90500
H  33.22400 6.14000 35.84000

