158

Mg 24.50500 -5.74400 46.05500
C  26.51900 -3.52800 44.25100
C  21.83500 -4.73700 44.12100
C  22.77800 -8.43900 47.17200
C  27.36500 -6.75700 47.91100
N  24.31700 -4.35500 44.30800
C  25.22300 -3.54400 43.77400
C  24.56300 -2.68700 42.66100
C  23.02600 -3.00300 42.84200
C  23.03400 -4.11500 43.81900
C  21.99700 -1.90100 43.32800
C  25.13800 -3.02000 41.24400
C  25.71000 -1.83100 40.37000
H  25.21100 -1.69800 38.89800
N  22.57900 -6.50600 45.62900
C  21.65700 -5.96400 44.83300
C  20.44100 -6.79500 44.91800
C  20.76400 -7.93400 45.71300
C  22.05900 -7.62000 46.25000
C  19.30600 -6.58900 44.05800
C  19.85500 -9.14400 45.93600
O  18.75600 -9.25200 45.34600
C  20.38000 -10.35600 46.74700
N  24.97200 -7.33200 47.40600
C  24.02900 -8.31600 47.72500
C  24.62800 -9.27200 48.77400
C  26.08300 -8.83100 48.92900
C  26.18800 -7.56900 48.06000
C  23.81600 -9.25200 50.11300
C  27.07900 -10.00600 48.63200
C  27.56800 -10.75300 49.88800
N  26.58000 -5.15000 46.21800
C  27.59100 -5.72300 46.98900
C  28.79900 -5.07000 46.63300
C  28.46300 -4.22600 45.56500
C  27.09100 -4.32200 45.33700
C  30.13300 -5.20300 47.29400
C  28.89000 -3.28300 44.56900
O  30.05300 -2.87000 44.41000
C  27.68300 -2.83400 43.71300
C  27.51500 -1.33400 43.81400
O  26.84500 -0.65600 44.58000
O  28.30500 -0.85000 42.80600
C  28.56300 0.57800 42.63400
H  20.98800 -4.36600 43.54100
H  22.39000 -9.39800 47.52200
H  28.22500 -7.14600 48.46000
H  24.72000 -1.61400 42.76600
H  22.65200 -3.41800 41.90500
H  21.17800 -1.78200 42.61800
H  22.48600 -0.92700 43.31700
H  21.62800 -2.10300 44.33300
H  24.37500 -3.40200 40.56600
H  25.87100 -3.81400 41.38200
H  26.77800 -2.01000 40.24500
H  25.68200 -0.88200 40.90500
H  19.20300 -5.54000 43.78000
H  18.41900 -6.92400 44.59400
H  19.40800 -7.25600 43.20200
H  20.54800 -9.95400 47.74600
H  21.35900 -10.63100 46.35300
H  19.67500 -11.18800 46.77000
H  24.45300 -10.27900 48.39600
H  26.20900 -8.35400 49.90100
H  24.45300 -8.99200 50.95800
H  23.42900 -10.24000 50.36400
H  22.95400 -8.59500 49.99000
H  27.92600 -9.59900 48.07900
H  26.55500 -10.66700 47.94200
H  26.95100 -11.63600 50.05300
H  27.51300 -10.12300 50.77600
H  28.55900 -11.12000 49.62200
H  30.84200 -4.65700 46.67200
H  30.26900 -6.28200 47.21700
H  30.13600 -4.82000 48.31400
H  27.78700 -3.17400 42.68300
H  29.64400 0.68800 42.54600
H  28.13100 1.32100 43.30500
H  28.22700 0.84900 41.63300
Mg 54.46500 24.50700 44.64800
C  52.04300 26.77500 43.91400
C  52.57300 21.91100 43.66100
C  57.26400 22.50600 44.73000
C  56.54700 27.22000 45.77600
N  52.62700 24.48200 43.54000
C  51.76700 25.46600 43.43100
C  50.42100 24.89800 42.86500
C  50.51000 23.41900 43.45500
C  52.00400 23.22500 43.56100
C  49.78400 23.09800 44.83700
C  50.55000 24.84700 41.30600
C  49.30800 25.16400 40.55500
H  48.85300 24.34300 39.37200
N  54.87300 22.47000 44.05400
C  53.90800 21.51200 43.77100
C  54.48800 20.23000 43.63300
C  55.88500 20.45700 43.89500
C  56.07400 21.85500 44.23200
C  53.72200 18.98100 43.29400
C  56.99300 19.38500 43.88800
O  56.69000 18.23600 43.49300
C  58.42100 19.57800 44.16200
N  56.60300 24.79400 44.97500
C  57.50500 23.79500 45.11600
C  58.88200 24.21500 45.59200
C  58.70800 25.74900 45.81100
C  57.22000 25.94500 45.42000
C  59.50700 23.49400 46.81000
C  59.65900 26.66100 44.92800
C  60.06100 28.08300 45.42100
N  54.33000 26.59000 44.89800
C  55.22300 27.53300 45.46100
C  54.43900 28.80000 45.54200
C  53.24500 28.61600 44.90600
C  53.21800 27.21200 44.61400
C  55.05300 30.09400 46.09500
C  51.92100 29.12900 44.47800
O  51.50700 30.25200 44.56500
C  51.13800 28.01100 43.74000
C  50.92900 28.44900 42.36600
O  51.65800 28.29900 41.41200
O  49.63000 28.92400 42.25100
C  48.90400 29.09600 40.93900
H  51.83300 21.13800 43.44500
H  58.15700 21.91800 44.95400
H  57.23900 27.95200 46.19900
H  49.58600 25.45200 43.29400
H  50.05300 22.67700 42.80000
H  50.54300 22.52900 45.37500
H  48.97200 22.42500 44.56000
H  49.33200 23.98300 45.28500
H  50.86500 23.85100 40.99500
H  51.29400 25.54500 40.92400
H  49.21600 26.18600 40.18800
H  48.49200 25.22300 41.27600
H  53.89100 18.21200 44.04800
H  53.92300 18.68800 42.26400
H  52.67100 19.26600 43.34600
H  58.82400 20.25100 43.40500
H  58.84300 18.57400 44.12600
H  58.50100 20.00600 45.16100
H  59.43600 23.95300 44.69000
H  58.74900 25.99700 46.87100
H  58.86900 22.65900 47.09800
H  59.37400 24.06600 47.72900
H  60.55000 23.22800 46.63900
H  59.10200 26.78400 44.00000
H  60.58400 26.14300 44.67300
H  59.75500 28.82200 44.68000
H  61.12800 28.07400 45.64700
H  59.41500 28.25500 46.28100
H  54.81800 29.99200 47.15400
H  54.43200 30.87900 45.66200
H  56.09300 30.36800 45.91600
H  50.15100 27.82400 44.16400
H  48.13900 28.32600 40.83700
H  49.50100 29.07100 40.02700
H  48.46200 30.09200 40.90200

