158

Mg 1.64300 41.94300 26.05800
C  3.53900 42.06100 28.97300
C  -1.09200 41.12300 27.89400
C  0.26200 41.12200 23.28400
C  4.73500 42.59400 24.25300
N  1.27300 41.60900 28.25100
C  2.17000 41.95900 29.21200
C  1.37100 41.92400 30.56700
C  -0.09800 41.49700 30.25100
C  -0.02400 41.46600 28.70200
C  -0.41100 40.06400 30.78600
C  1.49400 43.24800 31.37600
C  1.60500 43.16300 32.89300
H  1.23000 41.89600 33.63600
N  -0.24100 41.21600 25.64200
C  -1.23400 40.84500 26.51400
C  -2.30700 40.31500 25.71200
C  -1.90900 40.26100 24.36900
C  -0.59500 40.90200 24.36800
C  -3.66400 39.88900 26.29100
C  -2.65500 39.75800 23.15900
O  -2.15300 39.66800 22.04600
C  -4.08000 39.30200 23.19700
N  2.39200 41.89000 23.98900
C  1.53500 41.55400 23.06700
C  2.14700 41.79800 21.67100
C  3.44700 42.55200 21.99700
C  3.57800 42.37000 23.48800
C  2.36600 40.47800 20.80800
C  3.39600 44.05600 21.62300
C  4.23800 44.47900 20.44900
N  3.69000 42.28900 26.45900
C  4.77600 42.57600 25.68600
C  5.93200 42.66300 26.50600
C  5.53000 42.46800 27.79500
C  4.15700 42.19900 27.73700
C  7.40000 42.91900 26.00900
C  5.91700 42.37500 29.21000
O  6.97100 42.44100 29.81500
C  4.57700 42.20900 30.02900
C  4.73400 41.04100 30.91700
O  4.49100 39.90900 30.54600
O  5.00200 41.42200 32.24000
C  5.19700 40.39200 33.18800
H  -2.00800 41.16100 28.48600
H  -0.29200 40.88700 22.37300
H  5.62000 42.91700 23.70100
H  1.92800 41.12200 31.04900
H  -0.86300 42.19500 30.59000
H  0.25600 39.81400 31.61200
H  -0.18900 39.36900 29.97700
H  -1.43800 39.85400 31.08900
H  0.62000 43.83900 31.10100
H  2.32600 43.83500 30.98800
H  1.03700 43.95700 33.37900
H  2.68100 43.26600 33.03600
H  -3.70700 40.17600 27.34100
H  -3.79200 38.80600 26.26300
H  -4.42300 40.43400 25.73000
H  -4.76600 40.14700 23.26300
H  -4.25700 38.69800 24.08600
H  -4.24700 38.80100 22.24300
H  1.46200 42.44000 21.11700
H  4.35800 42.13300 21.57000
H  1.50700 39.84300 21.02500
H  3.28700 39.96300 21.08100
H  2.42300 40.82800 19.77700
H  3.68200 44.72300 22.43600
H  2.35900 44.37300 21.51000
H  4.98400 45.21300 20.75300
H  3.55000 44.90700 19.72000
H  4.76500 43.61800 20.03800
H  7.74200 43.87300 26.41100
H  7.42400 42.97800 24.92100
H  7.99300 42.15500 26.51100
H  4.49800 43.11800 30.62500
H  6.22700 40.03800 33.14200
H  4.58200 39.49700 33.09100
H  4.82000 40.74900 34.14600
Mg -1.82300 34.17700 25.94000
C  -3.16800 32.58200 28.66300
C  -0.51700 36.65100 28.13900
C  -0.59200 35.89700 23.31900
C  -3.95800 32.48100 23.87300
N  -2.06100 34.68800 28.12200
C  -2.47600 33.73600 29.01000
C  -2.17400 34.18400 30.44900
C  -1.47600 35.57000 30.26200
C  -1.34100 35.67600 28.75000
C  -2.36900 36.68000 30.73200
C  -1.46500 33.06800 31.32300
C  -2.15900 32.58400 32.59500
H  -1.26100 32.53200 33.85100
N  -0.48800 35.87300 25.77200
C  -0.06700 36.71800 26.78700
C  0.98400 37.58200 26.23400
C  1.02800 37.33100 24.87100
C  -0.04700 36.39200 24.57700
C  1.82900 38.53100 27.05200
C  1.96200 38.00100 23.79300
O  1.69500 37.99900 22.57000
C  3.20400 38.68200 24.24300
N  -2.35500 34.34000 23.94700
C  -1.67100 35.05200 23.00700
C  -2.12500 34.75400 21.57600
C  -3.12200 33.54000 21.76300
C  -3.16900 33.41200 23.30800
C  -2.81400 35.93900 20.89200
C  -2.67500 32.21500 21.03600
C  -1.61600 31.32400 21.74700
N  -3.31700 32.82400 26.20700
C  -4.06600 32.14300 25.25200
C  -4.74200 30.97400 25.97300
C  -4.44000 31.16400 27.27000
C  -3.58500 32.24700 27.38700
C  -5.54800 29.86200 25.40500
C  -4.58300 30.55900 28.53100
O  -5.07700 29.51800 28.86800
C  -3.85000 31.53000 29.57600
C  -4.97300 32.00600 30.49300
O  -5.81000 32.88800 30.37200
O  -4.98600 31.15700 31.49600
C  -5.90500 31.24300 32.61500
H  -0.07400 37.28100 28.91300
H  -0.16800 36.47000 22.49100
H  -4.52700 31.77300 23.26800
H  -3.13700 34.42200 30.90000
H  -0.53300 35.63100 30.80400
H  -2.45600 37.47800 29.99500
H  -1.82800 37.15300 31.55100
H  -3.33100 36.47600 31.20200
H  -0.48200 33.39900 31.65800
H  -1.15800 32.20300 30.73500
H  -2.51800 31.57800 32.37800
H  -2.97200 33.27600 32.81600
H  1.43500 38.68600 28.05700
H  1.80200 39.56400 26.70700
H  2.85800 38.17400 27.01100
H  3.78200 38.11100 24.97000
H  2.82900 39.58600 24.72400
H  3.73400 39.08500 23.38000
H  -1.25600 34.55500 20.94900
H  -4.14600 33.78300 21.47900
H  -2.79200 36.72500 21.64700
H  -3.78800 35.72700 20.45100
H  -2.13400 36.31700 20.12900
H  -2.18800 32.69100 20.18500
H  -3.60500 31.78100 20.66800
H  -1.36300 31.55100 22.78300
H  -0.69300 31.32900 21.16800
H  -2.12100 30.35800 21.75600
H  -5.27500 28.93800 25.91600
H  -5.28500 29.77100 24.35200
H  -6.62900 29.92900 25.52200
H  -3.20800 30.89900 30.19000
H  -5.97500 30.26500 33.09200
H  -6.83900 31.72300 32.32100
H  -5.38400 31.92700 33.28500

