158

Mg 17.44600 -1.91800 28.19500
C  16.22700 -0.01100 30.81100
C  19.31800 -3.71000 30.51300
C  18.72600 -3.68600 25.66300
C  15.42100 -0.07300 25.99700
N  17.90400 -1.62900 30.43900
C  17.09200 -0.93500 31.33300
C  17.35000 -1.47000 32.80300
C  18.54600 -2.40600 32.63000
C  18.57500 -2.62000 31.06300
C  19.87800 -1.95300 33.42900
C  16.02000 -1.97700 33.45300
C  15.82200 -1.35500 34.83700
H  17.00200 -0.89300 35.69700
N  18.91900 -3.39400 28.10600
C  19.42500 -4.09600 29.09100
C  20.15900 -5.33700 28.64800
C  19.90200 -5.34700 27.22600
C  19.14300 -4.10200 26.95900
C  20.67400 -6.45200 29.53400
C  20.25000 -6.40600 26.22900
O  19.59300 -6.63100 25.21100
C  21.36200 -7.39600 26.52900
N  17.26700 -1.74200 26.15500
C  17.88400 -2.56900 25.29300
C  17.42900 -2.48200 23.81300
C  16.33600 -1.30600 23.87400
C  16.28500 -1.01600 25.42500
C  18.55600 -2.27000 22.74000
C  14.87800 -1.45000 23.35800
C  14.10100 -2.81200 23.53100
N  16.12700 -0.29400 28.28700
C  15.35600 0.32600 27.35500
C  14.49100 1.27200 27.94700
C  14.79000 1.16500 29.26500
C  15.82500 0.18700 29.46400
C  13.44400 2.12400 27.42800
C  14.37900 1.69000 30.60000
O  13.60900 2.55900 30.95600
C  15.38800 0.94700 31.60000
C  16.07200 2.07500 32.30600
O  16.71700 3.03800 31.80500
O  16.08200 1.81200 33.68700
C  16.79000 2.84700 34.38700
H  19.79700 -4.33200 31.27200
H  19.15800 -4.25200 24.83600
H  14.63300 0.52100 25.53000
H  17.64000 -0.53100 33.27500
H  18.13300 -3.30200 33.09200
H  19.81100 -0.88500 33.63700
H  20.78700 -1.96500 32.82900
H  19.96800 -2.36600 34.43400
H  16.08200 -3.04600 33.65700
H  15.17100 -1.68700 32.83300
H  15.38300 -2.13200 35.46300
H  15.09600 -0.54100 34.82500
H  20.17300 -7.39900 29.33300
H  20.43900 -6.18000 30.56300
H  21.76200 -6.49300 29.48600
H  22.13700 -6.80900 27.02200
H  21.69300 -7.69900 25.53600
H  21.07800 -8.23700 27.16000
H  16.81400 -3.36100 23.61600
H  16.77600 -0.37800 23.50900
H  18.53600 -1.30400 22.23700
H  18.55200 -3.04800 21.97700
H  19.46900 -2.16300 23.32600
H  14.96100 -1.20600 22.29900
H  14.20800 -0.69700 23.77300
H  13.03700 -2.63600 23.69000
H  14.42100 -3.47300 24.33700
H  14.26100 -3.32100 22.58100
H  12.81400 1.48700 26.80600
H  13.84800 2.77000 26.64900
H  12.93800 2.61200 28.26100
H  14.68400 0.55600 32.33500
H  16.48300 3.86800 34.15700
H  17.85400 2.71600 34.18700
H  16.58600 2.51200 35.40300
Mg 43.30500 42.44400 26.20300
C  41.84300 44.71700 28.72200
C  44.21400 40.48700 28.81500
C  44.39900 40.33500 23.90600
C  42.21800 44.76600 23.81200
N  43.10600 42.68000 28.48900
C  42.46800 43.60400 29.27900
C  42.54800 43.26800 30.77200
C  43.63400 42.09100 30.76400
C  43.68800 41.71700 29.26800
C  44.97000 42.46100 31.38200
C  41.19700 42.69200 31.14700
C  40.68600 43.05700 32.59900
H  41.75100 43.27300 33.78900
N  44.18400 40.63400 26.33700
C  44.37600 39.96100 27.49100
C  44.91600 38.67000 27.12400
C  44.86100 38.55200 25.77100
C  44.48500 39.85100 25.28100
C  45.48200 37.65500 28.02500
C  45.14700 37.30100 24.86700
O  45.13800 37.41000 23.63100
C  45.18800 35.90500 25.32000
N  43.51200 42.63500 24.22200
C  43.90700 41.57700 23.45900
C  43.81900 41.95600 21.97400
C  43.01300 43.27100 21.93800
C  42.85300 43.59900 23.43900
C  45.22600 41.97300 21.30800
C  41.64900 43.19300 21.19100
C  40.69400 42.12800 21.85400
N  42.37200 44.39400 26.23700
C  42.09200 45.18300 25.14700
C  41.64000 46.44400 25.60300
C  41.44600 46.34500 26.98800
C  41.91800 45.04000 27.35800
C  41.35400 47.70200 24.83400
C  41.02400 46.96100 28.21300
O  40.49300 48.04300 28.31600
C  41.16500 45.87400 29.33400
C  42.05100 46.49100 30.40900
O  43.24800 46.68200 30.19900
O  41.38000 46.68000 31.59800
C  42.23300 47.03000 32.70000
H  44.62300 39.92200 29.65500
H  44.56100 39.63200 23.08600
H  41.84800 45.26500 22.91400
H  42.80500 44.13500 31.38000
H  43.38500 41.13500 31.22600
H  45.84200 42.34300 30.73900
H  45.16100 41.86900 32.27700
H  45.01500 43.51300 31.66400
H  41.21800 41.61200 30.99800
H  40.51800 43.23200 30.48700
H  39.93200 42.32200 32.88000
H  40.08100 43.96300 32.61000
H  45.69900 38.13100 28.98100
H  46.42600 37.26300 27.64700
H  44.65500 36.97400 28.23000
H  45.52500 35.16900 24.59000
H  44.25800 35.61500 25.81100
H  46.00600 35.87800 26.04000
H  43.32200 41.13600 21.45700
H  43.69200 43.97000 21.45000
H  46.12400 42.14200 21.90200
H  45.18500 42.76200 20.55800
H  45.28700 41.06700 20.70500
H  41.81300 42.74600 20.21100
H  41.20000 44.17200 21.02400
H  41.12900 41.63900 22.72600
H  40.27000 41.29600 21.29300
H  39.72300 42.55400 22.10600
H  41.45000 47.50100 23.76700
H  42.04500 48.51000 25.07200
H  40.43700 48.23400 25.08800
H  40.14500 45.72200 29.68600
H  42.86600 46.18200 32.96100
H  41.52400 47.30500 33.48100
H  42.91300 47.84100 32.44200

