158

Mg 44.25500 5.01800 47.63300
C  42.25100 7.64100 46.78100
C  41.42100 2.88700 47.29200
C  46.31800 2.30500 47.40900
C  47.08100 7.15400 47.30600
N  42.07600 5.29900 47.16800
C  41.52600 6.48000 46.80000
C  40.03100 6.36600 46.51700
C  39.72300 4.90400 46.92700
C  41.20900 4.31000 47.07600
C  38.77600 4.67600 48.12100
C  39.62300 6.54800 44.98100
C  38.78100 7.84900 44.70800
H  38.70000 8.47400 43.29900
N  43.93100 2.97000 47.44100
C  42.75600 2.29000 47.39500
C  43.03300 0.85300 47.17500
C  44.40700 0.70100 47.16900
C  44.93000 1.99900 47.37300
C  41.99100 -0.17100 46.93800
C  45.17100 -0.69100 46.95400
O  44.49600 -1.72100 46.63800
C  46.64300 -0.85500 47.09600
N  46.38400 4.76700 47.38600
C  46.97500 3.54600 47.46000
C  48.51900 3.69100 47.63500
C  48.63200 5.20500 47.95800
C  47.29500 5.78700 47.58400
C  49.29700 2.81700 48.65200
C  49.88600 5.86100 47.30700
C  50.67000 7.03300 47.99600
N  44.65000 6.96200 47.29200
C  45.82300 7.72800 47.18300
C  45.51900 9.08700 46.88700
C  44.11900 9.10800 46.70700
C  43.67600 7.80400 46.92500
C  46.48800 10.21900 46.84700
C  43.03800 9.99600 46.53400
O  42.85400 11.17200 46.36600
C  41.74100 9.09000 46.62700
C  40.81000 9.54500 47.71800
O  40.63700 9.01600 48.83200
O  40.01000 10.58700 47.23100
C  39.06400 11.05900 48.27000
H  40.56900 2.26000 47.02300
H  47.07500 1.51900 47.42500
H  47.93300 7.83800 47.32100
H  39.53300 7.17500 47.05100
H  39.27100 4.27900 46.15700
H  38.27800 5.55700 48.52800
H  39.43300 4.28700 48.89800
H  38.05500 3.89700 47.87600
H  39.12800 5.69300 44.51900
H  40.54000 6.61500 44.39500
H  39.29400 8.62700 45.27200
H  37.81100 7.73900 45.19300
H  42.00200 -0.88100 47.76500
H  42.21000 -0.81000 46.08100
H  41.01500 0.27700 46.75200
H  47.28900 -0.45400 46.31600
H  46.81700 -1.92700 47.18700
H  46.98200 -0.37100 48.01200
H  48.83300 3.52100 46.60500
H  48.78000 5.26900 49.03600
H  49.69800 1.97300 48.09000
H  48.58500 2.38900 49.35800
H  50.08500 3.36300 49.17000
H  49.68600 6.07000 46.25600
H  50.54500 4.99300 47.29600
H  50.99400 7.74500 47.23700
H  51.55800 6.62900 48.48200
H  50.00600 7.54100 48.69600
H  46.95900 10.31200 45.86800
H  47.36800 10.05800 47.47000
H  46.05800 11.09400 47.33500
H  41.29700 9.15700 45.63300
H  38.72100 12.05300 47.98200
H  39.49000 11.19400 49.26400
H  38.22900 10.36200 48.34300
Mg 46.77200 25.66700 28.07100
C  47.90000 27.58900 30.66500
C  46.33400 23.01200 30.30600
C  46.36100 23.63600 25.36700
C  48.03900 28.06400 25.82000
N  47.09800 25.26700 30.25600
C  47.39600 26.29400 31.10000
C  47.15000 25.95800 32.58500
C  46.87800 24.44200 32.46200
C  46.76600 24.23200 30.92900
C  47.99300 23.53600 33.10200
C  45.97800 26.68700 33.31200
C  46.38700 27.58900 34.56300
H  45.39300 27.58100 35.70900
N  46.27300 23.65600 27.87400
C  46.24100 22.69100 28.91700
C  45.80500 21.45400 28.36100
C  45.81200 21.62300 26.90400
C  46.20100 23.03200 26.62300
C  45.52000 20.18000 29.16000
C  45.48000 20.62900 25.77800
O  45.73700 20.83400 24.59400
C  44.96700 19.25500 26.07500
N  47.13400 25.74900 25.89300
C  46.80800 24.86200 24.97200
C  46.92700 25.31300 23.56600
C  47.36800 26.82200 23.73600
C  47.55600 26.90200 25.28800
C  47.82100 24.36800 22.65500
C  46.45900 27.92000 23.11900
C  47.27000 29.06800 22.30600
N  47.85900 27.38700 28.12200
C  48.27900 28.28900 27.16400
C  48.99900 29.40900 27.80100
C  48.81900 29.20800 29.16800
C  48.10800 27.97400 29.30100
C  49.65200 30.56400 27.03100
C  48.98500 29.86200 30.41900
O  49.44600 30.94200 30.67800
C  48.33700 28.82700 31.49200
C  49.38800 28.53600 32.45700
O  50.45300 28.03700 32.21100
O  49.07900 29.12500 33.63800
C  50.02900 29.06000 34.68100
H  46.21900 22.19900 31.02600
H  46.06400 23.03000 24.50800
H  48.39200 28.80500 25.09900
H  48.10700 26.10900 33.08500
H  45.90300 24.19300 32.88100
H  47.55100 22.84900 33.82300
H  48.71600 24.12500 33.66500
H  48.44400 22.94900 32.30200
H  45.23500 25.96600 33.65100
H  45.55300 27.31400 32.52800
H  46.56700 28.63300 34.30500
H  47.36500 27.16300 34.78800
H  45.70800 20.21800 30.23300
H  46.07100 19.36500 28.69100
H  44.46300 19.97400 28.98900
H  45.81700 18.80000 26.58300
H  44.61000 18.73100 25.18800
H  44.07600 19.28000 26.70300
H  45.90500 25.36900 23.19100
H  48.40700 26.84900 23.40600
H  48.80700 24.36100 23.11800
H  47.97800 24.85900 21.69500
H  47.51200 23.33000 22.53000
H  45.99100 28.38000 23.98900
H  45.66700 27.57700 22.45400
H  46.80700 29.39000 21.37300
H  48.32400 28.80100 22.22800
H  47.13700 29.88200 23.01800
H  49.01500 31.40400 26.75600
H  50.34100 30.17100 26.28300
H  50.34900 30.87000 27.81100
H  47.51400 29.39300 31.92900
H  49.62400 28.33200 35.38500
H  50.12200 30.03800 35.15300
H  51.03300 28.67800 34.49500

