158

Mg 1.49800 -2.93300 45.07300
C  4.90600 -1.98200 44.28700
C  0.49900 -0.35400 42.90700
C  -1.55800 -4.04100 45.39500
C  2.78600 -5.42100 46.96300
N  2.57300 -1.48600 43.55900
C  3.88800 -1.21000 43.53400
C  4.14300 -0.01800 42.65500
C  2.72400 0.56800 42.35300
C  1.88500 -0.49000 43.00900
C  2.59100 1.98400 42.94000
C  5.01000 -0.43300 41.42400
C  6.10000 0.54300 40.99900
H  5.88500 1.39200 39.71900
N  -0.22700 -2.27300 44.23700
C  -0.47500 -1.21600 43.37800
C  -1.89900 -1.11800 43.17000
C  -2.49200 -2.24500 43.79900
C  -1.41800 -2.93700 44.49800
C  -2.65000 -0.10300 42.37600
C  -4.01500 -2.51800 43.75400
O  -4.86700 -1.79800 43.24200
C  -4.60200 -3.75800 44.40000
N  0.78900 -4.53600 45.87500
C  -0.52200 -4.80400 45.96500
C  -0.78300 -6.09200 46.76100
C  0.57800 -6.46200 47.42300
C  1.45600 -5.43000 46.69400
C  -1.93800 -6.04200 47.83100
C  1.03700 -7.97500 47.16200
C  1.44700 -8.66700 48.46300
N  3.41800 -3.68800 45.53500
C  3.78900 -4.63900 46.42900
C  5.22000 -4.77300 46.50900
C  5.67800 -3.69800 45.80800
C  4.56600 -3.10700 45.12600
C  6.00300 -5.87400 47.23900
C  6.83600 -2.99400 45.35500
O  8.00200 -3.13100 45.67100
C  6.40000 -1.74600 44.54500
C  6.51500 -0.50200 45.43400
O  5.76300 -0.35900 46.37800
O  7.47500 0.37500 44.97700
C  7.50200 1.71900 45.61300
H  0.14700 0.50100 42.32500
H  -2.54700 -4.43600 45.63800
H  3.24100 -6.12700 47.66100
H  4.80400 0.61600 43.24700
H  2.59800 0.54300 41.27100
H  3.52400 2.36600 43.35400
H  1.79000 2.13500 43.66400
H  2.46100 2.74100 42.16600
H  4.33700 -0.29600 40.57700
H  5.47200 -1.39300 41.65400
H  6.98300 -0.05000 40.76400
H  6.43500 1.21500 41.79000
H  -3.25700 0.45700 43.08800
H  -3.30500 -0.42700 41.56800
H  -2.02500 0.62300 41.85600
H  -4.55700 -3.58300 45.47500
H  -3.96100 -4.56800 44.05200
H  -5.58900 -3.90000 43.96000
H  -1.04800 -6.70800 45.90200
H  0.57500 -6.34400 48.50600
H  -2.32200 -5.02900 47.95200
H  -1.63600 -6.47600 48.78500
H  -2.67200 -6.66300 47.31600
H  1.77700 -7.98900 46.36100
H  0.25500 -8.58800 46.71400
H  1.54300 -7.94500 49.27400
H  2.36200 -9.19700 48.19800
H  0.79400 -9.47600 48.79000
H  5.66900 -5.69800 48.26200
H  7.07300 -5.75200 47.07500
H  5.75900 -6.89400 46.94200
H  6.94700 -1.56600 43.61900
H  7.76700 2.46800 44.86700
H  8.16200 1.69600 46.48100
H  6.52300 1.93300 46.04100
Mg 36.61900 49.42400 25.50300
C  36.92200 47.65300 28.44200
C  35.08300 52.03600 27.22800
C  35.95400 51.08100 22.57700
C  37.84300 46.73800 23.69900
N  35.85700 49.75200 27.58000
C  36.33300 48.94700 28.62900
C  35.92500 49.47100 29.99200
C  35.14500 50.74100 29.56000
C  35.33900 50.88900 28.03800
C  33.64100 50.87900 29.95500
C  37.18600 49.83000 30.86300
C  37.07500 49.29400 32.32700
H  35.66400 49.27200 33.02200
N  35.82500 51.31500 24.98700
C  35.31100 52.23500 25.85100
C  35.05400 53.47100 25.21000
C  35.15100 53.21900 23.84100
C  35.70400 51.85100 23.72200
C  34.52100 54.67000 25.93800
C  34.86400 54.07000 22.64000
O  34.97600 53.60100 21.52000
C  34.36200 55.45500 22.69600
N  36.77400 48.94000 23.46500
C  36.45500 49.78900 22.44600
C  36.81000 49.08800 21.06100
C  37.54400 47.79700 21.43400
C  37.41700 47.81300 22.98700
C  35.65900 48.93100 20.15900
C  39.01200 47.81400 20.92800
C  40.16200 48.52600 21.78600
N  37.22300 47.51200 25.92200
C  37.71400 46.55600 25.09000
C  37.96600 45.42800 25.94800
C  37.79800 45.80800 27.29800
C  37.24400 47.01600 27.20800
C  38.53600 44.19200 25.40500
C  37.86900 45.44400 28.62900
O  38.20700 44.41700 29.22100
C  37.31600 46.62700 29.51500
C  36.15400 46.14000 30.35000
O  34.95900 46.23200 30.09000
O  36.70000 45.70700 31.59400
C  35.71300 45.30400 32.60500
H  34.73800 52.78200 27.94800
H  35.71600 51.46600 21.58400
H  38.23200 45.87300 23.15800
H  35.28600 48.80700 30.57500
H  35.59300 51.61500 30.03100
H  33.43700 51.72800 30.60700
H  33.40500 49.91900 30.41400
H  33.04700 51.12200 29.07400
H  37.32400 50.89700 31.03700
H  38.06400 49.36600 30.41400
H  37.77600 49.80200 32.98900
H  37.45400 48.27400 32.40000
H  35.02800 54.87900 26.88100
H  33.52800 54.33100 26.23200
H  34.30800 55.61000 25.42900
H  35.16400 56.00800 23.18400
H  33.43000 55.55200 23.25300
H  34.19400 55.85700 21.69600
H  37.62700 49.66800 20.63000
H  36.97500 46.97200 21.00500
H  35.93600 49.16000 19.13100
H  34.82500 49.55000 20.48900
H  35.23000 47.93000 20.21600
H  38.99400 48.15500 19.89300
H  39.45900 46.84700 20.70000
H  39.69800 48.93600 22.68300
H  40.65800 49.39300 21.34900
H  40.99100 47.89300 22.10200
H  39.51600 44.29700 24.94000
H  37.80200 43.91900 24.64700
H  38.51600 43.43200 26.18600
H  37.99700 46.96500 30.29600
H  35.55500 44.22800 32.67700
H  34.68400 45.65600 32.53200
H  36.08200 45.63100 33.57700

