158

Mg 17.99900 -2.48100 27.14600
C  17.03400 -0.69100 29.91800
C  20.09500 -4.31100 29.23900
C  19.23500 -3.94800 24.35700
C  16.06600 -0.29300 25.16700
N  18.50100 -2.49700 29.32100
C  17.98100 -1.65000 30.20100
C  18.40600 -2.09000 31.60200
C  19.63400 -3.07900 31.39400
C  19.46900 -3.29800 29.89400
C  21.06500 -2.54700 31.77600
C  17.21300 -2.72300 32.38300
C  16.89000 -2.15500 33.74900
H  18.15900 -1.77400 34.51500
N  19.52400 -3.95400 26.89400
C  20.25000 -4.53900 27.86800
C  21.04400 -5.60000 27.22800
C  20.86500 -5.51200 25.79300
C  19.87400 -4.40800 25.61600
C  21.76000 -6.70800 28.02700
C  21.41000 -6.38500 24.58000
O  21.31400 -6.10300 23.39400
C  22.15000 -7.57600 24.95900
N  17.67600 -2.22700 25.08200
C  18.24900 -3.02700 24.13600
C  17.96200 -2.54900 22.67500
C  16.80100 -1.46500 22.99200
C  16.86100 -1.27700 24.48900
C  19.24900 -1.98000 21.97600
C  15.39300 -1.98800 22.44200
C  14.92500 -1.36900 21.08400
N  16.83800 -0.87400 27.45700
C  16.15200 -0.11200 26.55800
C  15.22500 0.75700 27.27700
C  15.59300 0.60000 28.60000
C  16.52500 -0.41200 28.65600
C  14.12300 1.74100 26.68400
C  15.25100 0.97300 29.96400
O  14.38900 1.71500 30.41500
C  16.23500 0.14200 30.88900
C  16.98800 1.15800 31.58500
O  18.02700 1.62300 31.22200
O  16.31100 1.49800 32.77700
C  17.10300 2.42700 33.59500
H  20.71600 -4.92100 29.89900
H  19.59300 -4.47700 23.47100
H  15.36500 0.30800 24.58600
H  18.80500 -1.19900 32.08800
H  19.44900 -4.00500 31.93800
H  21.05100 -1.45900 31.84100
H  21.68400 -2.81000 30.91900
H  21.51900 -2.84100 32.72200
H  17.34100 -3.80400 32.43700
H  16.41800 -2.76600 31.63800
H  16.24500 -2.86800 34.26200
H  16.36800 -1.21900 33.54800
H  21.84800 -7.66100 27.50600
H  21.25000 -6.84900 28.98000
H  22.74000 -6.26800 28.21200
H  22.24500 -8.11200 24.01500
H  21.41600 -8.15100 25.52300
H  23.05900 -7.24900 25.46500
H  17.48900 -3.35400 22.11200
H  16.97000 -0.45900 22.60800
H  19.18900 -0.89400 22.03900
H  19.20400 -2.14500 20.89900
H  20.25500 -2.25800 22.29100
H  14.65700 -1.78300 23.21900
H  15.49800 -3.04600 22.20300
H  15.74300 -0.80100 20.64000
H  14.06700 -0.70300 21.17600
H  14.54900 -2.17100 20.44900
H  13.77500 1.50900 25.67700
H  14.59600 2.72300 26.68800
H  13.32200 1.81700 27.41900
H  15.55500 -0.37200 31.56800
H  16.75500 3.41900 33.30700
H  18.18400 2.28800 33.59700
H  16.87200 2.21600 34.64000
Mg 47.13600 16.10400 28.79900
C  45.05100 15.57200 31.45700
C  48.76500 18.48800 30.60900
C  49.18300 16.85500 26.12000
C  45.06200 14.30200 26.67400
N  46.90100 16.84800 30.93700
C  46.09900 16.40700 31.90100
C  46.46000 16.99700 33.28400
C  47.30200 18.21100 32.81800
C  47.71900 17.88300 31.30700
C  46.69500 19.64700 32.87200
C  47.14100 15.89600 34.19600
C  46.88700 16.06100 35.74000
H  47.93700 15.73800 36.72000
N  48.88400 17.36800 28.57600
C  49.37700 18.22300 29.41700
C  50.41800 19.03400 28.82000
C  50.59500 18.62500 27.44300
C  49.50400 17.60000 27.27700
C  51.18900 20.06800 29.65800
C  51.53400 19.13800 26.37800
O  51.50000 18.66900 25.22000
C  52.40500 20.27700 26.62800
N  47.09100 15.60400 26.68400
C  48.16000 15.88600 25.85100
C  48.15300 14.99300 24.64800
C  46.75300 14.34600 24.73300
C  46.26300 14.72000 26.11100
C  48.48800 15.65500 23.22500
C  46.79600 12.85700 24.52800
C  47.24500 11.92500 25.71900
N  45.39900 15.11900 28.94400
C  44.63300 14.44100 28.00000
C  43.44700 14.01200 28.62800
C  43.54500 14.40600 29.95800
C  44.76400 15.05800 30.13800
C  42.33900 13.08800 28.04300
C  42.83100 14.47500 31.17300
O  41.73800 14.04700 31.41100
C  43.80300 15.18800 32.26000
C  43.09100 16.34700 32.98500
O  43.14300 17.52100 32.63100
O  42.39300 16.01800 34.20200
C  41.95800 17.12400 35.02800
H  49.06500 19.29400 31.28200
H  49.87400 16.99500 25.28600
H  44.48800 13.64100 26.02200
H  45.54700 17.29000 33.80100
H  48.17400 18.15200 33.47000
H  45.67100 19.57800 33.23900
H  46.68200 20.21600 31.94200
H  47.37300 20.18700 33.53400
H  48.21700 15.81300 34.04000
H  46.74700 14.94400 33.84000
H  46.01900 15.48700 36.06400
H  46.60100 17.08600 35.97500
H  52.24000 19.83700 29.48600
H  51.00200 19.98700 30.72900
H  51.03500 21.08400 29.29400
H  52.88500 20.52600 25.68100
H  53.22400 20.01000 27.29600
H  51.93900 21.14800 27.08800
H  48.81500 14.16200 24.89400
H  46.09800 14.93500 24.09100
H  48.46400 16.74400 23.25700
H  47.94800 15.30600 22.34400
H  49.55300 15.47400 23.08100
H  47.39900 12.67600 23.63700
H  45.83800 12.49900 24.15200
H  48.16500 11.42000 25.42500
H  46.52300 11.10900 25.73900
H  47.46300 12.44100 26.65500
H  42.67400 12.05400 28.11700
H  42.24500 13.39600 27.00100
H  41.40500 13.27600 28.57300
H  43.86700 14.46900 33.07700
H  42.33500 18.10800 34.75100
H  42.15700 16.93700 36.08400
H  40.87900 17.25000 34.93900

