158

Mg 47.39900 25.32500 28.48200
C  48.08200 27.38800 31.22000
C  47.04400 22.75000 30.70300
C  46.99900 23.26900 25.86600
C  48.13900 27.82500 26.30700
N  47.74000 25.06600 30.73600
C  47.73200 26.12400 31.62100
C  47.43400 25.61600 33.00700
C  47.18800 24.06200 32.87000
C  47.39600 23.89100 31.37200
C  48.17500 23.23600 33.76600
C  46.25900 26.40300 33.75600
C  45.86400 26.00700 35.17200
H  45.96300 27.08300 36.24000
N  46.96400 23.34300 28.30900
C  46.87300 22.42100 29.31700
C  46.54500 21.05900 28.83900
C  46.42300 21.23200 27.37500
C  46.71800 22.69900 27.15400
C  46.51700 19.75600 29.67000
C  46.06300 20.21400 26.34000
O  46.13600 20.41900 25.15200
C  45.62500 18.84500 26.85300
N  47.58000 25.53400 26.35900
C  47.47600 24.51300 25.51900
C  47.59500 24.96300 24.05900
C  47.72500 26.52300 24.25600
C  47.80800 26.64000 25.73700
C  48.72000 24.36600 23.24800
C  46.52700 27.26900 23.59400
C  46.98100 28.59800 22.90800
N  48.10300 27.19600 28.68200
C  48.39000 28.08900 27.65200
C  48.84100 29.37000 28.30600
C  48.70200 29.12700 29.71400
C  48.24400 27.78500 29.82800
C  49.52200 30.48800 27.62300
C  48.88700 29.74500 31.04400
O  49.37000 30.79700 31.42100
C  48.25800 28.69800 32.02600
C  49.23900 28.44000 33.12600
O  50.36800 28.04700 32.92700
O  48.75000 28.81200 34.38700
C  49.55000 28.36400 35.54300
H  46.83200 21.98200 31.45000
H  46.76900 22.58100 25.05000
H  48.39100 28.58200 25.56100
H  48.31000 25.77300 33.63700
H  46.14300 23.87800 33.12300
H  47.69100 22.31900 34.10400
H  48.43400 23.69200 34.72200
H  49.07200 23.01800 33.18800
H  45.37400 26.40800 33.12000
H  46.56500 27.44900 33.74200
H  46.50300 25.16200 35.42800
H  44.88200 25.57300 34.98300
H  45.54300 19.45000 30.05100
H  47.17500 19.82200 30.53700
H  46.93300 18.96300 29.04800
H  45.08300 18.36700 26.03700
H  44.93300 18.89300 27.69400
H  46.50900 18.23200 27.03300
H  46.63200 24.61700 23.68300
H  48.63700 26.84900 23.75700
H  49.45900 25.16300 23.15800
H  48.40200 23.94400 22.29500
H  49.15800 23.57800 23.86100
H  45.80300 27.36800 24.40300
H  46.05400 26.74700 22.76200
H  48.04700 28.82400 22.90000
H  46.47300 29.48900 23.27600
H  46.75400 28.56100 21.84300
H  50.39200 30.81300 28.19400
H  48.89300 31.34100 27.87700
H  49.65900 30.20000 26.58100
H  47.38600 29.11600 32.53000
H  50.40900 29.01100 35.71800
H  49.98000 27.37400 35.38800
H  48.93700 28.37100 36.44400
Mg -10.52600 16.90300 41.18400
C  -7.07200 16.71300 41.09700
C  -10.29700 20.31400 40.64200
C  -13.92900 16.96900 40.78500
C  -10.55400 13.31600 41.21100
N  -8.85100 18.27800 40.87100
C  -7.50900 17.97800 40.94800
C  -6.69700 19.33000 40.70400
C  -7.77600 20.46600 41.02400
C  -9.06700 19.67500 40.77700
C  -7.56900 21.21900 42.38800
C  -6.15500 19.38300 39.22700
C  -4.66200 19.20000 39.05900
H  -4.14600 18.49700 37.78500
N  -11.96300 18.51400 40.74600
C  -11.68900 19.82600 40.61000
C  -12.90300 20.56000 40.40000
C  -13.97000 19.64500 40.41500
C  -13.31900 18.27100 40.59300
C  -12.93700 22.05900 40.16900
C  -15.40400 19.98600 40.29300
O  -15.89000 21.11900 40.11100
C  -16.45100 18.88900 40.33200
N  -12.07400 15.34100 40.79900
C  -13.41900 15.68200 40.89400
C  -14.26200 14.40900 41.13900
C  -13.15500 13.27000 41.24600
C  -11.83500 14.00300 41.17700
C  -15.31200 14.34600 42.27800
C  -13.29100 12.04500 40.36700
C  -12.57200 12.04700 39.02500
N  -9.09400 15.20900 41.07600
C  -9.24700 13.81800 41.22300
C  -7.90100 13.22800 41.51000
C  -7.03700 14.30200 41.35100
C  -7.80100 15.49800 41.13300
C  -7.48100 11.86600 41.87100
C  -5.64600 14.68700 41.49400
O  -4.67100 14.00100 41.81100
C  -5.64300 16.27400 41.23500
C  -4.99600 17.09300 42.39500
O  -3.87500 17.56600 42.22800
O  -5.71800 17.01700 43.63600
C  -5.17200 17.83500 44.67800
H  -10.13000 21.38800 40.53800
H  -15.02000 16.98200 40.81700
H  -10.50000 12.25500 41.46300
H  -5.90400 19.43400 41.44500
H  -7.68200 21.26300 40.28700
H  -7.07400 22.18700 42.30800
H  -7.09300 20.52400 43.07900
H  -8.55200 21.39400 42.82600
H  -6.39500 20.38500 38.87200
H  -6.59100 18.58800 38.62200
H  -4.30100 18.58900 39.88700
H  -4.12800 20.13000 39.25700
H  -13.10400 22.28200 39.11500
H  -11.96500 22.44000 40.48200
H  -13.70000 22.49900 40.81100
H  -16.27000 18.28200 39.44500
H  -17.41700 19.37500 40.19700
H  -16.54400 18.37200 41.28700
H  -14.86500 14.39800 40.23200
H  -13.16100 12.85300 42.25300
H  -16.23100 13.85600 41.95800
H  -15.65600 15.33400 42.58200
H  -14.92500 13.87100 43.18000
H  -14.37000 12.05000 40.20800
H  -13.00700 11.13700 40.89900
H  -13.17500 11.42300 38.36400
H  -11.59000 11.57700 39.06500
H  -12.46500 13.02100 38.54800
H  -6.40100 11.83500 41.72600
H  -7.94800 11.26000 41.09500
H  -7.88100 11.72100 42.87400
H  -5.20200 16.44400 40.25300
H  -5.82400 18.70500 44.74800
H  -4.14100 18.16400 44.54100
H  -5.35800 17.29100 45.60300

