158

Mg 8.84800 3.09500 28.48700
C  10.24300 1.94600 31.47900
C  6.83200 5.33100 30.43100
C  7.19800 4.02300 25.70700
C  10.37400 0.46900 26.77200
N  8.58000 3.48700 30.72700
C  9.32000 2.92100 31.72100
C  8.99800 3.51100 33.11600
C  7.69100 4.43500 32.77300
C  7.69300 4.47100 31.25400
C  6.25700 3.94900 33.31700
C  10.14500 4.10400 33.83400
C  10.37000 3.69300 35.36400
H  9.20800 3.28600 36.31800
N  7.28100 4.51600 28.12300
C  6.59600 5.35000 29.02900
C  5.69600 6.27200 28.32900
C  5.84900 5.92700 26.94300
C  6.87600 4.77300 26.85600
C  4.66500 7.17200 28.99100
C  5.10400 6.42900 25.74100
O  5.32400 6.09900 24.57500
C  4.08000 7.39300 25.91900
N  8.90600 2.48400 26.50700
C  8.06100 2.92500 25.56600
C  8.12700 1.99700 24.26200
C  9.46200 1.21300 24.51900
C  9.66300 1.37700 26.02600
C  6.87600 1.09100 24.09800
C  10.68200 1.70400 23.76900
C  10.62500 1.35900 22.28200
N  10.04400 1.54600 28.98200
C  10.59700 0.51000 28.21900
C  11.33900 -0.38200 28.99600
C  11.31300 0.18300 30.31000
C  10.48300 1.36300 30.22000
C  12.15400 -1.51900 28.40500
C  11.68500 -0.06800 31.69900
O  12.44000 -0.93900 32.16200
C  11.06800 1.12400 32.44600
C  10.37600 0.47400 33.54300
O  9.27800 -0.00300 33.39200
O  11.17300 0.20900 34.58100
C  10.52300 -0.37600 35.72200
H  6.30200 6.09000 31.01000
H  6.69700 4.23500 24.76000
H  10.78000 -0.32000 26.13600
H  8.61200 2.67100 33.69400
H  7.85800 5.44800 33.14000
H  5.49600 4.25800 32.60100
H  6.08200 4.40500 34.29100
H  6.37100 2.87100 33.43900
H  10.07200 5.18100 33.67800
H  11.05800 3.71700 33.38100
H  10.79500 4.51900 35.93400
H  11.22100 3.01700 35.28000
H  3.60900 6.90400 28.96000
H  4.89400 8.16200 28.59700
H  4.86400 7.26000 30.05900
H  3.68800 7.56100 24.91600
H  4.54400 8.28400 26.34100
H  3.26500 6.99300 26.52200
H  8.13900 2.71300 23.44000
H  9.31400 0.14100 24.39600
H  6.38900 0.96800 25.06500
H  7.19600 0.14100 23.66900
H  6.11100 1.42300 23.39600
H  11.52200 1.20800 24.25500
H  10.86600 2.75000 24.01400
H  10.82800 2.22600 21.65300
H  9.71300 0.81200 22.04700
H  11.38300 0.58400 22.16300
H  12.21400 -1.26400 27.34700
H  11.56100 -2.43100 28.34300
H  13.04200 -1.63500 29.02600
H  11.98800 1.64400 32.71200
H  9.67000 0.23200 36.02400
H  11.21100 -0.36500 36.56800
H  10.35600 -1.42700 35.48800
Mg 29.83800 58.94500 38.80900
C  26.86400 57.36500 37.68200
C  31.56700 56.19900 37.80000
C  32.63100 60.81300 38.61900
C  27.94300 61.90200 39.13200
N  29.29300 57.02700 37.96300
C  28.01500 56.59500 37.57700
C  28.05800 55.18200 37.10800
C  29.40900 54.71800 37.66100
C  30.18200 56.05900 37.81500
C  29.24700 53.89500 38.95600
C  27.98700 55.13900 35.50200
C  26.76000 54.59400 34.74100
H  26.09300 55.64000 33.75800
N  31.75800 58.54400 38.37800
C  32.32200 57.36200 37.91700
C  33.72500 57.50800 37.68500
C  34.04800 58.78300 38.20100
C  32.79100 59.42800 38.46700
C  34.67100 56.43200 37.24400
C  35.48100 59.24900 38.46100
O  36.43800 58.52000 38.11800
C  35.87500 60.52300 39.15100
N  30.18200 61.12300 38.80700
C  31.47800 61.57300 38.87800
C  31.46700 63.12000 39.08500
C  29.95200 63.44600 39.41500
C  29.30900 62.05500 39.10900
C  32.48200 63.79600 39.99500
C  29.26200 64.66500 38.79400
C  28.14000 65.35100 39.59500
N  27.79200 59.46300 38.73000
C  27.22600 60.67200 38.91000
C  25.73000 60.50900 38.76600
C  25.49000 59.24300 38.23900
C  26.79200 58.65000 38.23100
C  24.69600 61.61600 38.99600
C  24.54600 58.36200 37.77800
O  23.35600 58.51400 37.60200
C  25.36300 57.05800 37.36900
C  24.83200 55.94500 38.23300
O  24.93500 55.80000 39.43400
O  24.12900 55.09800 37.42300
C  23.57100 53.85700 37.95000
H  32.09300 55.31200 37.44000
H  33.47400 61.50200 38.53500
H  27.29400 62.76700 39.28200
H  27.25600 54.52900 37.45300
H  29.87000 54.03900 36.94500
H  29.62400 54.55100 39.74100
H  29.76700 52.94000 39.02000
H  28.21800 53.65600 39.22500
H  28.86600 54.63700 35.09900
H  28.14900 56.15300 35.13600
H  26.05100 54.11400 35.41600
H  27.08100 53.68800 34.22800
H  35.18500 56.06600 38.13300
H  35.44100 56.70900 36.52400
H  34.28900 55.54300 36.74300
H  36.81200 60.56000 39.70700
H  35.13200 60.70000 39.92800
H  35.95000 61.29800 38.38800
H  31.64900 63.57100 38.10900
H  29.94100 63.57800 40.49700
H  31.98200 64.02000 40.93600
H  32.77500 64.72800 39.51000
H  33.28200 63.07800 40.17700
H  28.71000 64.37200 37.90100
H  29.98500 65.42100 38.48700
H  28.13200 64.97100 40.61700
H  27.17300 65.13400 39.14200
H  28.31400 66.42700 39.63900
H  25.04900 62.29100 39.77600
H  23.79600 61.17500 39.42400
H  24.39200 62.19700 38.12500
H  25.21800 56.85800 36.30700
H  22.52100 54.00200 38.20300
H  24.06500 53.36200 38.78700
H  23.76900 53.15000 37.14500

