158

Mg 48.94400 45.81300 42.77000
C  45.61200 46.22800 41.92600
C  48.60100 42.52700 41.83500
C  52.23900 45.62900 42.72500
C  49.11800 49.29200 43.39700
N  47.36800 44.54000 41.96600
C  46.05500 44.94400 41.79700
C  45.23700 43.73800 41.38600
C  46.06100 42.53900 41.89300
C  47.42800 43.21000 41.80200
C  45.73600 42.06000 43.36800
C  45.12500 43.74500 39.81300
C  43.77100 43.34100 39.24400
H  43.33300 44.21400 38.04000
N  50.32000 44.21100 42.35800
C  49.94100 42.94800 41.96600
C  51.15500 42.22400 41.70800
C  52.32200 43.09900 42.03500
C  51.69500 44.37800 42.36800
C  51.24000 40.84300 41.04500
C  53.79200 42.80800 41.87800
O  54.12000 41.62800 41.60600
C  54.88900 43.84800 41.96400
N  50.51800 47.35100 42.73100
C  51.73400 46.94500 42.97700
C  52.64800 48.14400 43.49000
C  51.61900 49.30800 43.64100
C  50.32300 48.67500 43.25200
C  53.47800 47.85900 44.81300
C  51.90600 50.62400 42.84600
C  52.84600 51.62400 43.63700
N  47.61400 47.42100 42.81300
C  47.82800 48.76800 43.08300
C  46.58900 49.49700 42.94700
C  45.63200 48.52300 42.47000
C  46.34900 47.27800 42.42300
C  46.42800 50.94700 43.21300
C  44.24100 48.29300 42.26500
O  43.22800 48.93200 42.41100
C  44.23900 46.78800 41.87200
C  43.20100 46.10500 42.61700
O  42.21700 45.56200 42.07100
O  43.37200 46.17000 43.96600
C  42.56200 45.21900 44.66100
H  48.41200 41.45800 41.71800
H  53.27500 45.57700 43.06700
H  49.19100 50.37400 43.52700
H  44.25300 43.81800 41.84700
H  46.09100 41.68500 41.21500
H  46.62900 42.24600 43.96500
H  45.41900 41.01700 43.40900
H  44.97200 42.76500 43.69700
H  45.72700 42.91000 39.45300
H  45.45300 44.70900 39.42300
H  43.03800 43.36500 40.05000
H  43.84100 42.28300 38.99400
H  51.33000 39.99300 41.72100
H  52.08000 40.72200 40.36100
H  50.48600 40.76200 40.26100
H  54.88100 44.19900 42.99600
H  54.58000 44.72300 41.39300
H  55.85200 43.38100 41.75900
H  53.39100 48.40900 42.73800
H  51.45200 49.46500 44.70700
H  53.17400 48.46000 45.67000
H  54.53200 47.96500 44.55400
H  53.34000 46.80700 45.06100
H  51.02900 51.21900 42.59000
H  52.42200 50.32400 41.93400
H  53.74300 51.82600 43.05200
H  53.11900 51.26900 44.63100
H  52.29900 52.54900 43.82300
H  45.38900 51.16800 42.97100
H  47.11900 51.56200 42.63600
H  46.70400 51.09600 44.25700
H  43.81700 46.61800 40.88100
H  42.45100 44.30000 44.08700
H  41.58500 45.68500 44.78800
H  42.92800 44.98700 45.66100
Mg 41.24100 41.36900 26.67300
C  40.74700 44.11800 29.01900
C  41.87100 39.31700 29.35900
C  42.06500 39.10400 24.52000
C  41.14300 43.77200 24.19000
N  41.27500 41.73900 28.92600
C  40.91900 42.80900 29.64100
C  40.96600 42.55500 31.10700
C  41.43700 41.02600 31.32500
C  41.63600 40.70700 29.80200
C  42.74500 40.60500 32.12800
C  39.64700 42.86300 31.92500
C  39.81400 43.78900 33.19400
H  39.32100 43.25900 34.54800
N  41.80500 39.48300 26.93000
C  42.00500 38.80600 28.08700
C  42.41300 37.45800 27.82800
C  42.38400 37.33000 26.42300
C  42.07600 38.70300 25.88200
C  42.90200 36.42200 28.90400
C  42.58400 36.14000 25.53000
O  42.46600 36.17500 24.31700
C  43.12900 34.89700 26.08000
N  41.69200 41.39000 24.65000
C  41.85600 40.31200 23.94900
C  41.67800 40.56600 22.43500
C  41.35700 42.10600 22.35000
C  41.41600 42.48000 23.82900
C  42.90400 40.10300 21.57500
C  40.01100 42.48300 21.69700
C  38.69300 42.26200 22.46500
N  40.94900 43.53400 26.56500
C  41.00500 44.31700 25.45000
C  40.83100 45.66500 25.90600
C  40.78000 45.62500 27.31500
C  40.84100 44.32300 27.66700
C  40.79200 46.85300 25.09700
C  40.70600 46.40800 28.46600
O  40.69100 47.61900 28.62500
C  40.68600 45.42300 29.65800
C  41.81700 45.79500 30.52900
O  42.96600 45.34000 30.40400
O  41.42100 46.79900 31.37600
C  42.56200 47.30500 32.17500
H  42.06300 38.79000 30.29600
H  42.11900 38.45200 23.64600
H  41.05200 44.57000 23.45000
H  41.77400 43.09500 31.60000
H  40.67700 40.33200 31.68300
H  42.69300 39.60800 32.56500
H  42.70700 41.36100 32.91200
H  43.59500 40.70600 31.45200
H  39.26800 41.92100 32.32100
H  38.89300 43.39400 31.34300
H  39.15900 44.64900 33.05800
H  40.86100 43.98700 33.42400
H  43.92300 36.07400 28.74100
H  42.32200 35.50500 29.01100
H  42.89500 36.87400 29.89600
H  42.41600 34.49600 26.80000
H  44.01000 35.08700 26.69400
H  43.38000 34.22100 25.26200
H  40.76300 40.02000 22.20500
H  42.15900 42.62000 21.82000
H  43.64400 39.53700 22.14000
H  43.57300 40.77500 21.03700
H  42.52200 39.33300 20.90500
H  39.85400 42.01000 20.72800
H  40.06500 43.52700 21.38700
H  38.80100 42.03500 23.52600
H  38.17300 41.48800 21.90000
H  38.15800 43.20300 22.34300
H  40.04300 47.57100 25.42900
H  40.57100 46.69100 24.04200
H  41.75800 47.34700 24.98800
H  39.69700 45.61000 30.07500
H  43.34900 47.72400 31.54800
H  43.06900 46.48900 32.69000
H  42.28500 48.11200 32.85300

