158

Mg 7.78000 3.35400 28.07300
C  9.30000 1.79300 30.88200
C  6.27200 5.56200 30.16000
C  6.23800 4.60700 25.43700
C  8.93200 0.72300 26.15500
N  7.72300 3.52200 30.32700
C  8.59000 2.97200 31.21600
C  8.39400 3.67900 32.64600
C  7.27700 4.71300 32.42500
C  7.12200 4.63500 30.84800
C  5.91500 4.46400 33.12800
C  9.75600 4.29100 33.16100
C  10.27500 3.66900 34.45800
H  10.43800 4.51200 35.78300
N  6.47200 4.95200 27.79200
C  5.98500 5.73600 28.75600
C  5.25800 6.85300 28.12200
C  5.23900 6.57300 26.80400
C  5.94000 5.29200 26.58700
C  4.54100 8.05000 28.78000
C  4.70900 7.40800 25.56800
O  4.47300 6.89300 24.46800
C  4.39300 8.88600 25.78800
N  7.73700 2.86900 26.08000
C  7.08700 3.53700 25.14000
C  7.23700 2.89000 23.77400
C  8.17500 1.70600 23.99900
C  8.22000 1.70500 25.49600
C  5.96200 2.49500 23.07600
C  9.70000 1.78600 23.38600
C  10.35400 0.48100 22.99400
N  8.92800 1.62100 28.44300
C  9.35500 0.64700 27.47200
C  10.12600 -0.40000 28.13700
C  10.05500 0.00900 29.48000
C  9.35200 1.21300 29.61200
C  10.85100 -1.49700 27.52200
C  10.53000 -0.30300 30.80600
O  11.30800 -1.19100 31.15300
C  10.19500 0.85500 31.72700
C  9.46800 0.28600 32.91700
O  8.36600 -0.15700 33.05000
O  10.42100 0.37000 33.91200
C  10.03100 -0.05900 35.24900
H  5.96500 6.47100 30.68100
H  5.83700 5.01900 24.50900
H  9.32900 -0.08300 25.53500
H  8.01600 2.96600 33.37800
H  7.71300 5.68100 32.67000
H  5.12700 4.55400 32.37900
H  5.72000 5.27400 33.83000
H  5.84600 3.53000 33.68600
H  9.77100 5.37700 33.24200
H  10.53400 4.20800 32.40300
H  11.26500 3.24100 34.30100
H  9.66900 2.82500 34.78600
H  4.75500 8.00800 29.84800
H  3.51400 7.70600 28.65700
H  4.78100 9.06000 28.44800
H  5.16300 9.45600 26.30700
H  3.55100 8.93600 26.47700
H  4.15700 9.39900 24.85500
H  7.58300 3.67400 23.10100
H  7.81300 0.72900 23.67700
H  5.03400 2.63900 23.63100
H  5.91700 1.49400 22.64800
H  5.88400 3.20600 22.25400
H  10.38000 2.36300 24.01200
H  9.62700 2.46700 22.53900
H  10.73300 0.50300 21.97200
H  9.68300 -0.37300 23.08800
H  11.18200 0.26900 23.67000
H  10.67100 -1.58100 26.45000
H  10.65100 -2.47500 27.95800
H  11.91400 -1.30600 27.67200
H  10.93800 1.57300 32.07500
H  9.37000 0.70800 35.65200
H  10.99600 -0.11800 35.75200
H  9.68700 -1.09300 35.24500
Mg 47.03600 17.08400 28.04100
C  45.00700 16.31000 31.07000
C  49.32600 18.51900 30.00600
C  48.38700 17.94300 25.28000
C  44.19500 15.85700 26.22400
N  47.13400 17.36200 30.30000
C  46.20200 17.04100 31.30100
C  46.86100 17.33400 32.62700
C  47.90600 18.44300 32.25500
C  48.22600 18.02900 30.79700
C  47.51900 19.92300 32.25600
C  47.47400 16.00900 33.27000
C  47.56800 15.92600 34.78200
H  47.77900 17.07200 35.77300
N  48.69800 17.98600 27.73400
C  49.56300 18.52100 28.64000
C  50.71500 19.01200 28.01000
C  50.45600 18.87500 26.62000
C  49.14000 18.19900 26.51000
C  51.94000 19.52600 28.77100
C  51.35500 19.32800 25.40600
O  51.09100 18.98600 24.23100
C  52.51200 20.28600 25.69700
N  46.40300 16.85200 26.00800
C  47.16400 17.40800 25.01400
C  46.61200 17.07100 23.61200
C  45.33500 16.28000 23.89400
C  45.30400 16.29500 25.47000
C  46.54500 18.27000 22.58800
C  45.48000 14.81200 23.29700
C  46.46300 13.85700 23.98400
N  45.04800 16.12300 28.45500
C  44.05400 15.72800 27.62200
C  42.91700 15.12700 28.43100
C  43.27500 15.33800 29.71700
C  44.53600 15.96100 29.73100
C  41.62300 14.51100 27.86200
C  42.78800 15.24100 31.15500
O  41.77900 14.77800 31.59300
C  43.94000 15.78800 32.04500
C  43.33100 16.99200 32.76900
O  42.83600 17.92500 32.21500
O  43.35300 16.88900 34.11800
C  42.53100 17.78500 34.86300
H  50.05600 19.02700 30.64000
H  48.92200 18.25400 24.38000
H  43.36000 15.56600 25.58400
H  46.15600 17.71300 33.36700
H  48.76500 18.38700 32.92500
H  48.24100 20.40200 32.91700
H  46.63500 19.99600 32.88900
H  47.38500 20.40100 31.28600
H  48.52200 15.91800 32.98400
H  46.93100 15.15000 32.87500
H  48.46600 15.33800 34.96900
H  46.77600 15.34000 35.24800
H  52.69500 18.74000 28.78000
H  51.65200 19.65100 29.81500
H  52.28600 20.45800 28.32500
H  53.25300 19.94500 26.42100
H  52.11800 21.26500 25.96700
H  53.08800 20.38200 24.77600
H  47.25600 16.28100 23.22400
H  44.38400 16.72200 23.59800
H  45.49300 18.54500 22.52100
H  46.89900 18.11200 21.56900
H  47.10900 19.16300 22.85800
H  45.82500 14.99300 22.27900
H  44.46100 14.44400 23.17600
H  47.46500 14.28400 23.98100
H  46.55600 12.93100 23.41500
H  46.31900 13.56800 25.02500
H  40.79500 15.02900 28.34500
H  41.70300 13.42600 27.94100
H  41.44600 14.64500 26.79500
H  44.25200 15.07000 32.80300
H  42.51200 17.59400 35.93600
H  41.46700 17.66200 34.65900
H  42.76300 18.81500 34.59400

