158

Mg 1.15200 8.29500 25.57300
C  1.88800 10.28900 28.36000
C  1.84100 5.60900 27.49100
C  0.90100 6.45800 22.79400
C  1.22500 11.13800 23.67200
N  1.98800 8.03000 27.71800
C  1.86700 8.90500 28.71600
C  1.85400 8.28000 30.07400
C  2.08000 6.76100 29.68600
C  1.94700 6.79000 28.23200
C  3.37900 6.05600 30.16400
C  0.55800 8.56700 30.80000
C  0.64600 8.76000 32.28100
H  1.71600 7.91200 33.01200
N  1.17800 6.33500 25.21600
C  1.42800 5.34000 26.17600
C  1.26100 4.06400 25.50200
C  0.82300 4.34000 24.17900
C  0.99600 5.80600 24.00100
C  1.24000 2.76000 26.28400
C  0.23600 3.39000 23.15300
O  -0.27800 3.73400 22.09100
C  0.14300 1.84900 23.38600
N  0.86200 8.81400 23.45500
C  0.85700 7.81300 22.53300
C  0.78400 8.48500 21.11400
C  0.66600 9.99000 21.43900
C  0.83900 10.00400 22.93100
C  2.03400 8.09000 20.11900
C  -0.57800 10.67500 20.95600
C  -0.52900 12.17100 20.49200
N  1.62000 10.20100 25.85500
C  1.55300 11.28000 25.01300
C  1.71000 12.52100 25.72300
C  1.83200 12.20400 27.00800
C  1.88900 10.77900 27.07400
C  1.60100 13.93500 25.12600
C  2.02800 12.66800 28.44000
O  2.13700 13.80000 28.86600
C  1.95000 11.45800 29.33000
C  3.14300 11.59400 30.25600
O  4.33400 11.47500 29.97200
O  2.75500 11.80300 31.59000
C  3.91100 12.01800 32.46300
H  1.91600 4.71100 28.10700
H  0.84400 5.71100 21.99900
H  1.35100 12.02100 23.04200
H  2.72900 8.65500 30.60500
H  1.27800 6.10700 30.02800
H  4.01000 6.77300 30.68900
H  4.08400 5.81200 29.36900
H  3.04600 5.25200 30.82100
H  -0.16700 7.75600 30.74200
H  0.04200 9.44700 30.41500
H  -0.27500 8.48200 32.79400
H  0.92700 9.80700 32.39300
H  1.90100 2.00500 25.85800
H  0.24000 2.34100 26.17000
H  1.32000 2.84500 27.36800
H  1.11100 1.53100 23.77400
H  -0.22200 1.49200 22.42300
H  -0.57400 1.71100 24.19500
H  -0.13600 8.04000 20.73400
H  1.58100 10.45500 21.07400
H  2.75200 7.51100 20.69900
H  2.59900 9.00400 19.94000
H  1.65900 7.57400 19.23500
H  -1.34500 10.48100 21.70600
H  -0.86400 10.05100 20.11000
H  -1.19200 12.17100 19.62700
H  0.50000 12.49200 20.33200
H  -0.90500 12.72700 21.35100
H  1.18600 13.88300 24.11900
H  2.52800 14.50200 25.04100
H  0.96600 14.47200 25.83200
H  1.01700 11.57600 29.88000
H  4.64600 12.72900 32.08600
H  4.24000 10.99600 32.65100
H  3.53400 12.26900 33.45500
Mg 35.82900 0.79000 29.40900
C  33.55200 2.03400 31.97100
C  38.20500 0.65600 31.88100
C  38.06300 -0.09100 27.05900
C  33.51400 1.70900 26.98900
N  35.80600 0.98500 31.75800
C  34.82600 1.61300 32.50500
C  35.28300 1.70100 33.96900
C  36.84200 1.60600 33.84400
C  36.96500 1.08500 32.39700
C  37.52700 2.97100 34.11200
C  34.57400 0.68500 34.84900
C  34.38600 1.01200 36.36800
H  35.16400 2.21600 36.98300
N  37.80600 0.22300 29.48400
C  38.53900 0.17000 30.60200
C  39.82100 -0.38000 30.29500
C  39.85600 -0.54500 28.84700
C  38.50600 -0.18000 28.40400
C  40.89200 -0.63900 31.36600
C  40.95200 -1.15800 27.94800
O  40.87800 -1.25800 26.68900
C  42.20100 -1.73300 28.67000
N  35.92500 1.07200 27.35300
C  36.84900 0.53500 26.59100
C  36.50400 0.60100 25.01400
C  34.97200 1.00000 25.06700
C  34.81500 1.33600 26.56400
C  37.44400 1.58000 24.14200
C  34.03200 -0.22300 24.72400
C  32.81800 0.14700 23.87300
N  34.00900 1.63100 29.41000
C  33.18700 2.03700 28.37600
C  31.91100 2.55800 28.84800
C  32.08700 2.62600 30.23500
C  33.35300 2.11400 30.55200
C  30.66800 2.89600 28.16300
C  31.37600 2.90200 31.43000
O  30.21300 3.29000 31.55300
C  32.36100 2.66600 32.67500
C  32.60100 4.07600 33.21800
O  33.45600 4.82900 32.82000
O  31.62400 4.44100 34.11900
C  31.72700 5.62700 34.80900
H  38.83900 0.51400 32.75900
H  38.73100 -0.50100 26.29900
H  32.75700 1.96200 26.24400
H  35.07300 2.74300 34.21200
H  37.26500 0.83900 34.49300
H  38.15600 3.30000 33.28500
H  38.19200 2.77000 34.95200
H  36.94800 3.81900 34.47800
H  35.16300 -0.20600 34.63100
H  33.60100 0.44300 34.42100
H  34.59300 0.06200 36.86000
H  33.35100 1.35200 36.37300
H  41.72000 -0.01700 31.02500
H  41.35300 -1.62600 31.40800
H  40.80300 -0.40400 32.42600
H  42.78000 -0.86800 28.99200
H  42.74800 -2.41100 28.01400
H  41.81900 -2.21900 29.56800
H  36.67000 -0.41500 24.65800
H  34.80000 1.87200 24.43600
H  37.14000 2.60500 23.92800
H  37.58900 1.18100 23.13900
H  38.44700 1.76100 24.52900
H  33.66800 -0.53500 25.70300
H  34.59800 -0.98700 24.19100
H  33.02100 0.99500 23.21900
H  32.03000 0.49700 24.54000
H  32.48300 -0.68500 23.25300
H  29.90600 2.12600 28.03700
H  30.77300 3.41500 27.21100
H  30.17000 3.66700 28.75100
H  31.87500 1.97600 33.36400
H  31.07700 5.54000 35.67900
H  31.30900 6.48200 34.27800
H  32.71800 5.98700 35.08400

