158

Mg 37.17600 50.14100 24.73200
C  36.86100 48.52400 27.91600
C  36.17000 53.08100 26.27300
C  37.29600 51.49600 21.72800
C  37.61600 46.96600 23.33600
N  36.53600 50.75500 26.89600
C  36.61400 49.93500 28.06100
C  36.24000 50.74000 29.34800
C  35.91400 52.19100 28.76300
C  36.19200 52.02700 27.21100
C  34.56000 52.75400 29.20200
C  37.34100 50.78800 30.39900
C  37.09500 50.01600 31.72100
H  35.80300 50.32900 32.36100
N  36.72200 52.02800 24.04100
C  36.41000 53.12400 24.80600
C  36.37700 54.27100 23.95500
C  36.76900 53.79600 22.67500
C  36.97900 52.38900 22.76500
C  36.02900 55.75200 24.40400
C  37.00300 54.61400 21.34300
O  37.58800 54.14700 20.35900
C  36.62300 56.04600 21.21000
N  37.34700 49.31700 22.87600
C  37.50900 50.10700 21.83400
C  37.78400 49.25200 20.51900
C  38.07300 47.88300 21.08400
C  37.64000 48.01500 22.51900
C  36.62100 49.29800 19.40700
C  39.61000 47.49600 21.06400
C  40.15700 46.24600 20.43400
N  37.25700 48.13300 25.37800
C  37.48500 46.90100 24.72300
C  37.60300 45.78900 25.65100
C  37.34500 46.42200 26.86900
C  37.14800 47.80400 26.68600
C  37.75300 44.40800 25.36500
C  37.34200 46.09600 28.29800
O  37.57100 45.01400 28.93500
C  36.95300 47.43200 28.98700
C  35.62600 47.27900 29.62100
O  34.52300 47.57400 29.13700
O  35.81200 46.47600 30.79600
C  34.60100 45.97200 31.46400
H  35.88500 54.06800 26.64200
H  37.43700 51.93700 20.73900
H  37.82700 46.03300 22.80800
H  35.38600 50.26500 29.83100
H  36.57700 52.99600 29.07800
H  33.89900 52.01900 29.66100
H  34.03000 52.90900 28.26200
H  34.64400 53.65100 29.81400
H  37.51900 51.80600 30.74600
H  38.28500 50.35700 30.06500
H  37.85400 50.25600 32.46500
H  37.20300 48.94100 31.57400
H  35.68300 55.92300 25.42300
H  35.33900 56.11500 23.64200
H  36.94400 56.34400 24.37400
H  36.77400 56.63800 22.11300
H  35.53800 56.01800 21.11600
H  37.18500 56.52300 20.40700
H  38.67500 49.76700 20.16200
H  37.45300 47.11800 20.61700
H  36.90600 49.81600 18.49100
H  35.78400 49.87500 19.79900
H  36.18500 48.31800 19.21300
H  39.97600 47.43500 22.08900
H  40.23500 48.28600 20.64600
H  40.00300 45.44700 21.15900
H  41.21900 46.30500 20.19600
H  39.64700 46.19100 19.47200
H  38.40000 44.25400 24.50100
H  36.81900 43.89000 25.14900
H  38.18400 43.88400 26.21800
H  37.64400 47.72100 29.77900
H  34.05200 46.71900 32.03700
H  34.63800 45.10000 32.11600
H  33.81600 45.73500 30.74500
Mg -9.46300 18.13900 42.69700
C  -6.02800 17.29700 42.39500
C  -8.63900 21.43600 42.05900
C  -12.64700 18.64500 42.17000
C  -10.07100 14.54200 43.07400
N  -7.55500 19.14400 42.28600
C  -6.28700 18.67500 42.31300
C  -5.26400 19.82400 42.24900
C  -6.07100 21.08600 42.40000
C  -7.53500 20.58800 42.23300
C  -5.79300 21.95200 43.68400
C  -4.46400 19.70700 40.87700
C  -5.13500 18.99500 39.67400
H  -4.71900 19.42600 38.25200
N  -10.52600 19.85100 42.24500
C  -10.00500 21.13100 42.04100
C  -11.14100 22.00900 41.96300
C  -12.28300 21.23100 41.94800
C  -11.85500 19.80400 42.07900
C  -11.02300 23.48500 41.80300
C  -13.70400 21.82300 41.80500
O  -13.95100 23.05200 41.83600
C  -14.85300 20.89800 41.59800
N  -11.04000 16.79400 42.51200
C  -12.34300 17.35000 42.35900
C  -13.42200 16.25100 42.52600
C  -12.58200 14.91900 42.47000
C  -11.14900 15.43600 42.71000
C  -14.29800 16.47900 43.72400
C  -12.54600 14.11800 41.09900
C  -13.36100 12.78200 41.00800
N  -8.33900 16.28200 42.78900
C  -8.73400 14.93300 42.88700
C  -7.55200 14.17400 42.86800
C  -6.48500 15.02000 42.68100
C  -6.98500 16.29200 42.67400
C  -7.56500 12.74000 42.93400
C  -5.06800 15.02900 42.54500
O  -4.21400 14.13500 42.72800
C  -4.65700 16.60400 42.37000
C  -3.64700 16.95900 43.49300
O  -2.54500 17.41100 43.31400
O  -4.27900 16.85000 44.74600
C  -3.49200 17.30300 45.87000
H  -8.35100 22.48700 41.99900
H  -13.71400 18.85000 42.05900
H  -10.26800 13.48700 43.27300
H  -4.64700 19.63400 43.12800
H  -5.88800 21.77500 41.57600
H  -5.74400 23.00200 43.39800
H  -4.78400 21.64100 43.95300
H  -6.49900 21.68400 44.47000
H  -3.61000 19.08000 41.13600
H  -4.15100 20.72900 40.66300
H  -6.21700 19.08400 39.77000
H  -4.92000 17.92800 39.71600
H  -11.39800 23.86200 40.85100
H  -9.96300 23.73600 41.77500
H  -11.40200 24.15300 42.57700
H  -14.93900 20.27200 42.48700
H  -14.63800 20.41200 40.64700
H  -15.75800 21.49200 41.47400
H  -13.97900 16.39800 41.60100
H  -12.93700 14.25400 43.25800
H  -14.18500 15.66700 44.44300
H  -15.26100 16.40900 43.21900
H  -14.19200 17.39200 44.31000
H  -11.49900 13.81900 41.07900
H  -12.85200 14.65500 40.20100
H  -13.90200 12.83600 40.06300
H  -14.11700 12.68500 41.78700
H  -12.74900 11.89100 40.87600
H  -6.60000 12.34200 42.61800
H  -8.38700 12.44300 42.28400
H  -7.83700 12.47900 43.95600
H  -4.21200 16.56500 41.37600
H  -3.66500 16.66000 46.73300
H  -3.80900 18.33400 46.02800
H  -2.44000 17.16100 45.62300

