158

Mg 16.90800 -0.57600 27.27600
C  15.93500 1.07000 30.02600
C  19.23800 -2.40500 29.24200
C  18.15500 -1.92400 24.47700
C  15.17600 1.93400 25.26300
N  17.62200 -0.58500 29.33200
C  16.95100 0.11600 30.30200
C  17.38500 -0.31600 31.72200
C  18.59300 -1.32900 31.40100
C  18.51000 -1.42500 29.89500
C  20.01200 -0.94200 31.78000
C  16.14600 -0.84400 32.62200
C  16.07600 -0.40100 34.12000
H  17.36400 0.19700 34.78600
N  18.31500 -2.18800 26.97600
C  19.06700 -2.84000 27.90000
C  19.79900 -3.93500 27.21300
C  19.45400 -3.84800 25.83400
C  18.60300 -2.65700 25.68500
C  20.80800 -4.80700 27.90000
C  19.70300 -4.81600 24.72100
O  19.19100 -4.55900 23.62300
C  20.43100 -6.15800 24.94600
N  16.61400 -0.07100 25.15300
C  17.35200 -0.75800 24.18400
C  17.32100 0.01400 22.84100
C  16.24400 1.13500 23.06800
C  15.94200 0.97000 24.55500
C  18.70000 0.59900 22.39300
C  14.98500 1.06100 22.08300
C  14.82800 2.06700 20.97000
N  15.63100 1.10800 27.51800
C  15.02200 2.03500 26.67000
C  14.22500 2.98300 27.48500
C  14.55900 2.65600 28.81100
C  15.43200 1.53700 28.81900
C  13.37000 4.14600 27.03700
C  14.40400 3.04000 30.23200
O  13.75800 4.02100 30.61000
C  15.28800 2.04200 31.03200
C  16.31900 2.83600 31.86000
O  17.30800 3.37500 31.34200
O  15.75600 2.97000 33.11300
C  16.48400 4.04500 33.87400
H  19.99300 -2.98000 29.78300
H  18.74900 -2.11400 23.58100
H  14.54900 2.72100 24.84000
H  17.72300 0.55100 32.28900
H  18.46900 -2.25600 31.96200
H  20.54400 -1.83300 32.11400
H  20.01400 -0.14600 32.52500
H  20.59400 -0.57600 30.93400
H  16.11700 -1.93200 32.55800
H  15.28400 -0.34800 32.17500
H  15.90900 -1.34700 34.63400
H  15.15200 0.16100 34.25000
H  20.51300 -5.85200 27.80600
H  20.85700 -4.74300 28.98700
H  21.76600 -4.59200 27.42600
H  21.51400 -6.06400 25.02900
H  20.20000 -6.84000 24.12900
H  20.08500 -6.46300 25.93400
H  17.07700 -0.50800 21.91600
H  16.62800 2.13600 22.87400
H  19.47900 0.42500 23.13600
H  18.51700 1.64000 22.12800
H  19.09500 0.09200 21.51300
H  14.12500 1.17300 22.74400
H  14.75700 0.07700 21.67400
H  14.11400 2.86600 21.16900
H  14.54700 1.54900 20.05300
H  15.79400 2.57100 20.97100
H  13.48900 5.12000 27.51100
H  12.31800 3.94800 27.24200
H  13.35100 4.33400 25.96300
H  14.61100 1.54100 31.72400
H  16.46800 5.00200 33.35200
H  17.53900 3.88000 34.09000
H  16.04000 4.16700 34.86200
Mg 16.96100 51.78300 26.32300
C  18.73200 50.49000 29.03300
C  14.49700 52.77500 28.53000
C  14.91100 52.48700 23.69400
C  19.16700 50.18900 24.17900
N  16.73200 51.54000 28.53400
C  17.60100 51.10400 29.51400
C  17.11200 51.56200 30.95700
C  15.62500 51.87300 30.64900
C  15.65300 52.19000 29.13600
C  14.64100 50.69700 31.02700
C  17.87400 52.78000 31.50000
C  18.21800 52.61400 33.00900
H  17.19500 51.80900 33.86200
N  15.08100 52.62300 26.16700
C  14.24200 52.99100 27.17600
C  12.97600 53.63400 26.62700
C  13.14900 53.58100 25.21500
C  14.35300 52.82500 24.95100
C  11.93400 54.28900 27.44300
C  12.24500 54.16200 24.06700
O  12.47500 54.12400 22.91900
C  10.88900 54.80400 24.47800
N  17.03200 51.52700 24.24400
C  16.14500 51.94800 23.33200
C  16.59100 51.78400 21.94300
C  17.96400 51.05500 22.07700
C  18.06300 50.83800 23.59400
C  15.62800 50.88700 21.12800
C  19.16800 51.81300 21.43400
C  20.37500 50.85100 20.91900
N  18.72200 50.71300 26.48300
C  19.55300 50.06700 25.56300
C  20.66300 49.41200 26.21800
C  20.41800 49.62600 27.55000
C  19.15900 50.31800 27.69600
C  21.79400 48.59300 25.69000
C  20.88200 49.29200 28.85000
O  21.87400 48.64500 29.16500
C  19.88300 49.86900 29.82900
C  19.47100 48.80000 30.85600
O  18.96600 47.69400 30.60900
O  19.82400 49.26600 32.13500
C  19.57400 48.48100 33.40500
H  13.76600 53.10600 29.27100
H  14.17300 52.47600 22.88900
H  19.86800 49.58800 23.59600
H  17.28500 50.67000 31.55900
H  15.26200 52.72400 31.22500
H  15.06100 50.11900 31.84900
H  14.55100 50.13300 30.09800
H  13.67600 51.03900 31.40200
H  17.37500 53.72700 31.29500
H  18.86700 52.77500 31.05100
H  18.25900 53.61200 33.44700
H  19.22700 52.22300 33.14100
H  12.14600 54.31900 28.51200
H  11.10900 53.57700 27.46400
H  11.69600 55.27200 27.03500
H  10.95500 55.78600 24.94800
H  10.39000 54.02200 25.05000
H  10.42200 54.80100 23.49300
H  16.72400 52.72900 21.41700
H  17.97800 50.07100 21.61000
H  14.86300 50.40300 21.73500
H  16.20300 50.24900 20.45700
H  15.08700 51.47600 20.38700
H  19.68900 52.44400 22.15400
H  18.91100 52.31300 20.50000
H  20.28900 49.86900 21.38400
H  21.32400 51.33200 21.15700
H  20.30900 50.80300 19.83200
H  22.43500 49.39200 25.31600
H  21.47600 47.95000 24.86900
H  22.14400 47.95300 26.49900
H  20.42200 50.62800 30.39700
H  18.55100 48.14500 33.23400
H  19.57000 49.12800 34.28200
H  20.31400 47.68100 33.43300

