158

Mg 16.78200 -0.97900 27.63600
C  16.11000 1.00200 30.54100
C  18.80900 -2.93400 29.72400
C  18.13500 -2.24900 24.93300
C  15.06500 1.37900 25.79300
N  17.39300 -0.88000 29.74800
C  16.96500 -0.01900 30.85100
C  17.45500 -0.42100 32.22300
C  18.45200 -1.60000 31.82700
C  18.23800 -1.83300 30.34100
C  19.90300 -1.44100 32.21700
C  16.31500 -0.71800 33.30800
C  16.33400 0.10400 34.66800
H  17.75700 0.63900 35.17300
N  18.22200 -2.42300 27.31400
C  18.80700 -3.22800 28.33800
C  19.58500 -4.23000 27.69100
C  19.40800 -4.09900 26.23100
C  18.54100 -2.88300 26.07700
C  20.32500 -5.33300 28.48900
C  19.91700 -4.83100 24.97800
O  19.62000 -4.62100 23.82500
C  21.04600 -5.87600 25.21300
N  16.66300 -0.52700 25.57700
C  17.38000 -1.14500 24.67900
C  17.16200 -0.49200 23.26800
C  15.98400 0.54900 23.56000
C  15.83700 0.42200 25.05200
C  18.48400 0.18300 22.65900
C  14.64700 0.19300 22.82200
C  14.73200 0.23900 21.23600
N  15.70200 0.74100 28.01700
C  15.03100 1.58800 27.19800
C  14.44700 2.66700 28.01100
C  14.80800 2.41800 29.30400
C  15.66600 1.32300 29.26300
C  13.68500 3.89500 27.43600
C  14.64200 2.85200 30.66200
O  13.91300 3.74600 31.04100
C  15.58000 2.03100 31.49400
C  16.44600 3.07700 32.08500
O  17.44500 3.55200 31.54600
O  15.90300 3.54100 33.24700
C  16.57700 4.64000 33.96600
H  19.45700 -3.55900 30.34100
H  18.76000 -2.58900 24.10400
H  14.45700 2.09100 25.23000
H  18.11100 0.32300 32.67400
H  18.19400 -2.59200 32.19700
H  20.58300 -1.90800 31.50500
H  20.16000 -2.05800 33.07800
H  20.11700 -0.38900 32.41000
H  16.41000 -1.80000 33.40100
H  15.42700 -0.41200 32.75500
H  15.88700 -0.51500 35.44600
H  15.62700 0.91400 34.49000
H  20.27900 -6.30000 27.98800
H  19.84700 -5.36600 29.46800
H  21.37100 -5.06000 28.63300
H  20.64800 -6.77100 25.69100
H  21.87200 -5.55200 25.84600
H  21.41800 -6.15900 24.22800
H  16.82900 -1.31500 22.63500
H  16.32300 1.50300 23.15500
H  18.40800 1.26800 22.72600
H  18.56900 -0.13200 21.61900
H  19.40800 -0.18200 23.10800
H  13.84500 0.77900 23.27100
H  14.40800 -0.83800 23.08300
H  14.95100 1.30100 21.12500
H  13.77700 0.09500 20.73200
H  15.54600 -0.36500 20.83600
H  13.79100 4.10800 26.37300
H  14.16000 4.75100 27.91500
H  12.65400 3.81200 27.78300
H  14.89600 1.62300 32.23800
H  16.80700 5.52500 33.37200
H  17.54800 4.21800 34.22700
H  16.10000 4.88400 34.91500
Mg 41.42100 8.65200 29.73900
C  43.06700 9.49400 32.73500
C  39.22100 6.70100 31.70400
C  39.88200 7.57200 26.89700
C  43.96000 9.93700 27.89300
N  41.30600 8.09400 31.93300
C  41.92400 8.70800 32.97700
C  41.36600 8.35800 34.35600
C  40.26400 7.20000 34.00000
C  40.25700 7.31300 32.42200
C  40.65100 5.74900 34.45800
C  40.90800 9.63100 35.10300
C  41.22100 9.77300 36.58100
H  41.48500 11.10800 37.20400
N  39.73900 7.40000 29.35500
C  38.96600 6.73400 30.32500
C  37.80500 6.15900 29.68800
C  37.91200 6.46300 28.28000
C  39.22800 7.13600 28.09800
C  36.70200 5.32500 30.38000
C  37.01100 6.17600 27.19000
O  37.30700 6.38500 26.06100
C  35.62800 5.61300 27.50900
N  41.83300 8.77700 27.77400
C  41.05800 8.33200 26.80000
C  41.68600 8.59900 25.49300
C  42.86500 9.51000 25.74800
C  42.85900 9.45400 27.25200
C  42.08700 7.26300 24.79800
C  42.60500 10.94800 25.31900
C  41.32400 11.67600 25.65600
N  43.15300 9.53800 30.15100
C  44.17400 9.96400 29.29000
C  45.23200 10.50700 30.01400
C  44.80900 10.45200 31.34500
C  43.63600 9.76800 31.38700
C  46.54700 11.01700 29.52000
C  45.07800 10.88400 32.75600
O  46.06400 11.45200 33.23300
C  43.87200 10.29900 33.60200
C  44.52300 9.61300 34.78000
O  45.01900 8.51700 34.73300
O  44.58500 10.41500 35.94900
C  45.50000 10.02800 37.04500
H  38.48000 6.12000 32.25700
H  39.42100 7.28000 25.95100
H  44.67500 10.53000 27.31900
H  42.19400 7.93600 34.92500
H  39.25300 7.37100 34.36800
H  41.64100 5.63900 34.90000
H  40.73300 4.94700 33.72400
H  39.89900 5.26500 35.08200
H  39.81900 9.60700 35.06700
H  41.17800 10.55900 34.59900
H  42.13000 9.20800 36.78600
H  40.30000 9.41700 37.04200
H  36.68900 5.23900 31.46600
H  36.54100 4.30100 30.04400
H  35.71500 5.76100 30.22500
H  35.14500 6.23600 28.26100
H  35.77200 4.60400 27.89500
H  35.07100 5.60100 26.57200
H  41.01600 9.15700 24.84000
H  43.80800 9.25000 25.26800
H  41.89200 6.38800 25.41800
H  43.14700 7.31700 24.55000
H  41.48500 7.18200 23.89300
H  42.62900 11.02400 24.23200
H  43.36100 11.63800 25.69300
H  40.72600 11.19800 26.43200
H  40.70500 11.81500 24.76900
H  41.73500 12.62900 25.98900
H  46.82000 11.97400 29.96500
H  46.58300 11.14300 28.43800
H  47.30900 10.26300 29.71800
H  43.29500 11.15700 33.94800
H  45.99300 9.07800 36.83900
H  44.92300 9.89600 37.96000
H  46.31100 10.74500 37.17000

