158

Mg 0.45900 7.91900 24.81100
C  1.32800 9.60200 27.88800
C  0.73900 4.98200 26.53600
C  0.08300 6.38500 21.95200
C  0.79300 11.12400 23.13300
N  0.90200 7.41200 26.96900
C  1.13500 8.26100 28.07700
C  1.24600 7.42000 29.34500
C  1.15300 5.92900 28.87000
C  0.89400 6.08500 27.35600
C  2.38000 4.94700 29.09000
C  0.23200 7.92400 30.37700
C  0.71000 7.76900 31.78900
H  1.89700 6.77600 32.17500
N  0.40400 5.96000 24.33500
C  0.46500 4.89800 25.19400
C  0.33000 3.66600 24.48700
C  0.17200 4.05400 23.10400
C  0.11800 5.49800 23.13200
C  0.43800 2.28400 25.00800
C  0.12500 3.25700 21.80100
O  -0.14100 3.79700 20.73800
C  0.35500 1.79500 21.80200
N  0.65900 8.73800 22.83500
C  0.30600 7.77500 21.83100
C  0.16500 8.52200 20.47800
C  0.37900 10.02700 20.86600
C  0.62000 10.03300 22.37000
C  1.05900 8.00500 19.37700
C  -0.62200 11.01700 20.41200
C  -1.90500 11.19100 21.27300
N  0.92200 9.94800 25.38200
C  0.99300 11.08900 24.54600
C  1.21400 12.19900 25.42700
C  1.43800 11.68400 26.72700
C  1.21000 10.29700 26.63300
C  1.19500 13.67500 25.06500
C  1.69000 12.04400 28.05800
O  1.88100 13.15300 28.61000
C  1.56000 10.72400 28.92400
C  2.74100 10.65100 29.83000
O  3.87300 10.39100 29.46900
O  2.37800 11.09300 31.11300
C  3.32800 11.42200 32.14800
H  0.88800 4.06700 27.11400
H  -0.00300 5.94300 20.95800
H  0.91500 12.08700 22.63300
H  2.23800 7.64400 29.73700
H  0.34500 5.43400 29.40900
H  2.86700 4.60700 28.17600
H  1.97000 4.09400 29.63100
H  3.08800 5.49800 29.70900
H  -0.61200 7.24300 30.26900
H  0.02600 8.98900 30.27500
H  -0.15000 7.37100 32.32700
H  0.93300 8.72700 32.25600
H  -0.44600 1.65500 24.90400
H  0.68400 2.30600 26.07000
H  1.29900 1.78900 24.55800
H  0.01300 1.24000 22.67500
H  1.43000 1.62600 21.73400
H  -0.12500 1.32100 20.94600
H  -0.85500 8.44900 20.10200
H  1.31200 10.29700 20.37100
H  1.59200 8.84000 18.92200
H  0.40400 7.60000 18.60600
H  1.76000 7.26000 19.75300
H  -0.92600 10.85200 19.37800
H  -0.24600 12.03900 20.39000
H  -2.88100 11.30000 20.79900
H  -1.74800 12.10900 21.84000
H  -1.92400 10.47300 22.09300
H  2.04900 13.87300 24.41700
H  1.22100 14.44800 25.83300
H  0.43000 13.84000 24.30700
H  0.64200 10.89300 29.48800
H  3.31800 12.51000 32.21700
H  4.33300 11.13800 31.83600
H  3.07900 10.80200 33.00900
Mg -6.50800 25.53600 26.22900
C  -5.26900 27.06100 29.01900
C  -7.91900 23.17000 28.18500
C  -7.70800 24.09000 23.43400
C  -4.96400 28.09300 24.16600
N  -6.46600 25.13000 28.29700
C  -6.12600 26.00700 29.27600
C  -6.69600 25.67300 30.59200
C  -7.40400 24.29600 30.31900
C  -7.26100 24.15400 28.81700
C  -7.10000 23.13700 31.26800
C  -7.59100 26.83700 31.11800
C  -7.59800 27.03900 32.67300
H  -7.23200 25.79700 33.67300
N  -7.54100 23.77800 25.86500
C  -8.10800 22.99800 26.81500
C  -9.02800 22.06200 26.16000
C  -8.90300 22.25800 24.78700
C  -8.04000 23.42600 24.65400
C  -10.07000 21.07300 26.80800
C  -9.53900 21.46600 23.60900
O  -9.42300 21.70600 22.40900
C  -10.37100 20.20400 23.90100
N  -6.32000 26.04000 24.16700
C  -6.99300 25.26900 23.20800
C  -6.83500 25.79000 21.78500
C  -6.31200 27.28600 22.18000
C  -5.85200 27.12600 23.63200
C  -5.64800 25.02400 21.01700
C  -7.47300 28.31800 21.98000
C  -7.32900 29.05100 20.64700
N  -5.32500 27.33800 26.50700
C  -4.75200 28.17900 25.61200
C  -3.96800 29.12600 26.35900
C  -4.03500 28.79300 27.77800
C  -4.95600 27.69900 27.76200
C  -3.39800 30.30900 25.70400
C  -3.69500 29.03300 29.17100
O  -2.93700 29.81500 29.69700
C  -4.52300 27.94100 30.02800
C  -3.54100 27.19000 30.91600
O  -2.65600 26.48300 30.49600
O  -3.77300 27.37900 32.26100
C  -2.85900 26.73200 33.24100
H  -8.51900 22.46900 28.76900
H  -8.11900 23.67200 22.51200
H  -4.56800 28.86600 23.50400
H  -5.81300 25.39200 31.16600
H  -8.47400 24.47100 30.42800
H  -6.53500 22.29800 30.86200
H  -7.95300 22.55100 31.61200
H  -6.42500 23.54200 32.02200
H  -8.63400 26.81900 30.80200
H  -7.38500 27.82300 30.70000
H  -8.56600 27.36300 33.05600
H  -6.88600 27.84200 32.86600
H  -11.05300 21.09900 26.33900
H  -10.34400 21.51500 27.76600
H  -9.68000 20.05700 26.86800
H  -11.41200 20.28600 24.21300
H  -9.81900 19.47300 24.49300
H  -10.53700 19.88100 22.87300
H  -7.79200 25.61900 21.29200
H  -5.53400 27.62400 21.49600
H  -5.04600 25.71700 20.42900
H  -6.15700 24.34500 20.33300
H  -4.95300 24.55800 21.71600
H  -7.33200 29.13200 22.69200
H  -8.51300 28.02100 22.11600
H  -8.30500 29.18100 20.18000
H  -6.80300 28.46300 19.89500
H  -6.81700 30.01000 20.72600
H  -2.76900 30.04000 24.85500
H  -2.84700 30.89500 26.43900
H  -4.18000 30.95600 25.30900
H  -5.22000 28.43700 30.70400
H  -3.45600 26.64800 34.14800
H  -2.04700 27.43300 33.44000
H  -2.66100 25.73900 32.83900

