158

Mg 25.62500 0.61900 29.01200
C  27.72800 0.31500 31.98600
C  22.94900 1.00800 31.06600
C  23.84600 0.88300 26.26000
C  28.47500 -0.23300 27.11800
N  25.41000 0.60500 31.24400
C  26.38700 0.60400 32.27100
C  25.62200 0.89600 33.65800
C  24.09400 1.12600 33.30700
C  24.17500 0.85600 31.80200
C  23.05200 0.23300 34.03000
C  26.21900 2.14400 34.37100
C  25.57400 2.47100 35.80100
H  26.68400 2.50200 36.95200
N  23.67000 0.88900 28.70100
C  22.70800 0.95100 29.63900
C  21.45500 1.17900 28.98000
C  21.69300 1.18000 27.62500
C  23.13700 0.93500 27.44700
C  20.16000 1.28400 29.79300
C  20.71000 1.59800 26.43200
O  21.06100 1.58900 25.27100
C  19.22900 1.94300 26.65200
N  26.10000 0.41300 27.03800
C  25.21300 0.64600 26.03000
C  25.76500 0.64000 24.63600
C  27.22200 0.23000 24.90400
C  27.28400 0.08000 26.43500
C  24.97600 -0.18200 23.59800
C  28.25900 1.19800 24.26300
C  28.96700 0.81300 22.92800
N  27.64700 0.10600 29.39800
C  28.62900 -0.21700 28.50300
C  29.78900 -0.72100 29.25800
C  29.51000 -0.40900 30.60100
C  28.19200 0.09300 30.64100
C  30.99200 -1.35200 28.69200
C  30.06900 -0.40000 31.93700
O  31.17300 -0.78700 32.29200
C  28.92700 0.00200 32.87800
C  28.63900 -1.02300 33.88300
O  27.85400 -1.97300 33.68000
O  29.49800 -0.88700 34.96300
C  29.33700 -2.01200 35.98100
H  22.13600 1.26900 31.74700
H  23.36400 1.24800 25.35000
H  29.15200 -0.66400 26.37700
H  25.77800 0.01100 34.27300
H  23.70300 2.13400 33.45100
H  22.22700 0.90500 34.27000
H  23.42100 -0.07500 35.00800
H  22.78900 -0.61300 33.39600
H  26.13700 3.04200 33.75800
H  27.28700 2.02500 34.55400
H  24.84200 1.69500 36.02500
H  25.11800 3.45900 35.73800
H  19.81900 2.28500 29.52800
H  20.29400 1.18200 30.87000
H  19.40100 0.59900 29.41600
H  18.76500 2.48300 25.82700
H  19.09400 2.62200 27.49300
H  18.73500 0.98300 26.80300
H  25.71400 1.70600 24.41300
H  27.38700 -0.74500 24.44700
H  24.81100 0.51300 22.77500
H  24.04800 -0.61400 23.97300
H  25.59600 -1.02900 23.30500
H  29.12000 1.28600 24.92500
H  27.81900 2.19400 24.21300
H  28.64300 -0.12900 22.48600
H  30.05300 0.86400 23.00800
H  28.64000 1.63700 22.29400
H  31.19300 -0.87100 27.73500
H  30.60200 -2.35000 28.49000
H  31.83000 -1.23300 29.37800
H  29.27500 0.90000 33.38800
H  29.05400 -1.56400 36.93300
H  30.24600 -2.61200 36.02500
H  28.64600 -2.83800 35.81400
Mg 46.42300 16.36900 28.78500
C  44.19500 15.97000 31.48600
C  48.52000 17.96800 30.83100
C  48.23800 17.19200 26.02000
C  43.82000 15.12100 26.60900
N  46.33600 16.72800 30.85400
C  45.37300 16.54800 31.80500
C  45.75900 17.10400 33.21200
C  47.07500 17.90200 32.90300
C  47.34600 17.51800 31.41700
C  47.22900 19.37300 33.42000
C  45.91500 15.88900 34.10100
C  45.48000 16.03000 35.61900
H  45.24600 17.46400 36.23900
N  48.14200 17.39300 28.46700
C  48.98500 17.90900 29.46900
C  50.12900 18.50000 28.85100
C  49.98500 18.38100 27.39500
C  48.77400 17.55800 27.26600
C  51.17000 19.35700 29.52300
C  50.83100 18.94800 26.21200
O  50.46300 18.97500 25.05400
C  52.13800 19.53800 26.56300
N  46.00100 16.33700 26.59900
C  46.97400 16.68700 25.67500
C  46.36100 16.56800 24.24300
C  45.14100 15.57300 24.41100
C  44.99900 15.60200 25.97900
C  46.11600 17.97300 23.55600
C  45.28500 14.03100 23.97400
C  44.34100 13.60000 22.93200
N  44.44400 15.64700 28.93000
C  43.58700 15.11400 28.04100
C  42.32200 14.75700 28.64800
C  42.54500 14.96900 30.07100
C  43.81600 15.59400 30.16700
C  41.02600 14.32900 27.94800
C  41.98400 14.99900 31.38500
O  40.87300 14.69800 31.73200
C  43.07600 15.49400 32.37100
C  42.45000 16.67700 32.94500
O  42.41500 17.76700 32.43600
O  42.06800 16.50500 34.20600
C  41.35700 17.65300 34.86200
H  49.09200 18.56700 31.54200
H  48.85900 17.34400 25.13500
H  43.06400 14.61600 26.00300
H  44.98900 17.77700 33.59200
H  47.84000 17.41100 33.50500
H  47.89500 19.41000 34.28300
H  46.26800 19.86800 33.56500
H  47.88100 19.85100 32.68900
H  46.97300 15.65900 34.22100
H  45.47300 14.99000 33.67000
H  46.25900 15.46000 36.12400
H  44.53000 15.50700 35.73100
H  52.00500 18.65700 29.54700
H  50.91800 19.64600 30.54400
H  51.36700 20.30700 29.02700
H  51.95500 20.43600 27.15400
H  52.62000 19.77300 25.61400
H  52.71700 18.75500 27.05300
H  47.17000 16.02900 23.74900
H  44.29700 16.09700 23.96200
H  46.61400 18.81500 24.03800
H  45.04400 18.16500 23.58800
H  46.37600 17.94000 22.49800
H  45.18400 13.29600 24.77300
H  46.33300 13.94600 23.68800
H  43.70700 12.78400 23.27800
H  44.84000 13.11000 22.09600
H  43.65900 14.36300 22.55800
H  40.73600 15.10000 27.23500
H  40.20000 14.30500 28.65900
H  41.08600 13.31100 27.56300
H  43.28300 14.71500 33.10500
H  40.39300 17.82600 34.38300
H  41.83800 18.63000 34.82000
H  41.10900 17.36700 35.88400

