158

Mg 23.64800 -4.03200 45.87100
C  26.08300 -2.02200 44.16800
C  21.36400 -3.21300 43.49300
C  21.83000 -6.85800 46.75100
C  26.47700 -5.46700 47.52800
N  23.68600 -2.67000 44.16700
C  24.74000 -1.93500 43.66500
C  24.30800 -1.06900 42.51700
C  22.69900 -1.17000 42.64600
C  22.56300 -2.41000 43.49600
C  22.02700 0.06500 43.32200
C  24.90300 -1.51800 41.12100
C  25.76100 -0.48300 40.38700
H  25.53700 -0.44600 38.86900
N  21.77200 -4.73900 45.39600
C  20.98400 -4.26100 44.29800
C  19.81400 -4.95600 44.16900
C  19.95700 -5.95900 45.17000
C  21.23200 -5.92700 45.84900
C  18.58200 -4.48300 43.34800
C  18.87100 -6.98400 45.31800
O  17.92000 -7.03000 44.52100
C  18.99700 -8.04200 46.38900
N  24.10400 -5.93800 46.95400
C  23.17600 -6.84100 47.24800
C  23.78100 -7.99200 48.15500
C  25.10800 -7.32800 48.69800
C  25.26800 -6.26100 47.58200
C  22.78500 -8.50300 49.24100
C  26.32600 -8.23000 48.92000
C  27.10500 -8.14000 50.26000
N  25.77100 -3.73500 45.93200
C  26.74100 -4.32500 46.71500
C  27.98500 -3.65900 46.54400
C  27.78200 -2.74900 45.52600
C  26.42000 -2.83700 45.18200
C  29.25000 -3.97600 47.31400
C  28.37800 -1.75800 44.70400
O  29.55500 -1.34200 44.64400
C  27.27200 -1.24200 43.75200
C  27.09800 0.25800 43.83100
O  26.39400 0.85400 44.64000
O  27.97500 0.92000 43.05100
C  27.89200 2.36000 43.08200
H  20.57500 -2.90600 42.80200
H  21.27200 -7.66500 47.23000
H  27.29300 -5.74800 48.19800
H  24.63700 -0.05400 42.73700
H  22.13800 -1.37800 41.73400
H  22.76600 0.68200 43.83300
H  21.30500 -0.33500 44.03400
H  21.45900 0.72900 42.66900
H  24.05700 -1.64500 40.44500
H  25.38800 -2.49000 41.21400
H  26.77700 -0.85600 40.52100
H  25.58400 0.46700 40.89000
H  18.31800 -5.23800 42.60800
H  18.75600 -3.48800 42.93800
H  17.75700 -4.33300 44.04400
H  19.78500 -8.64400 45.93700
H  18.02900 -8.54200 46.43100
H  19.14400 -7.59600 47.37300
H  24.09700 -8.74800 47.43600
H  24.80400 -6.67000 49.51200
H  22.43600 -9.45300 48.83600
H  21.85600 -7.98800 49.48600
H  23.30600 -8.67600 50.18300
H  27.02300 -7.98200 48.12000
H  26.09200 -9.28700 48.79900
H  26.89400 -7.37600 51.00900
H  28.17500 -8.13500 50.05500
H  26.90300 -9.09500 50.74600
H  29.07400 -3.86100 48.38300
H  29.95800 -3.20100 47.01900
H  29.58700 -4.98900 47.09600
H  27.71800 -1.48200 42.78700
H  28.58900 2.73100 42.33200
H  28.10700 2.64100 44.11300
H  26.91800 2.77400 42.82000
Mg 43.76700 5.28700 46.65400
C  41.87600 8.30300 46.46500
C  40.81100 3.62500 46.23100
C  45.51100 2.49900 46.31400
C  46.64800 7.16600 46.66600
N  41.55500 5.91400 46.45000
C  41.01200 7.19600 46.41100
C  39.51800 7.12800 46.21300
C  39.20800 5.56500 46.31500
C  40.62000 4.96000 46.40900
C  38.23000 5.20400 47.53300
C  39.06100 7.71600 44.83400
C  40.14400 7.64300 43.70400
H  39.70000 7.07800 42.30700
N  43.17700 3.26200 46.43600
C  41.97000 2.84000 46.16600
C  42.04600 1.47900 45.88200
C  43.39900 1.06700 45.93400
C  44.08500 2.25800 46.30100
C  40.88200 0.60900 45.64800
C  43.97400 -0.36900 45.64700
O  43.28200 -1.31900 45.36600
C  45.39000 -0.63300 45.70200
N  45.80200 4.84700 46.34000
C  46.31200 3.61800 46.38500
C  47.89000 3.58200 46.35400
C  48.19200 5.13200 46.51800
C  46.85400 5.77500 46.48400
C  48.51600 2.59900 47.42300
C  49.16800 5.63700 45.40700
C  50.53100 6.10800 45.87700
N  44.20200 7.33000 46.59200
C  45.43400 7.93900 46.62000
C  45.25000 9.41900 46.51600
C  43.83200 9.55800 46.56700
C  43.24300 8.28500 46.54800
C  46.24500 10.43100 46.49400
C  42.76400 10.57300 46.58700
O  42.85000 11.80900 46.72600
C  41.42500 9.77100 46.50300
C  40.59700 10.04500 47.74000
O  40.67400 9.41200 48.78200
O  39.53500 10.89400 47.42200
C  38.48100 10.89400 48.42900
H  39.85600 3.13900 46.01800
H  46.17700 1.63900 46.21900
H  47.61500 7.64500 46.83700
H  38.98200 7.62200 47.02400
H  38.78800 5.16100 45.39400
H  38.27000 5.98400 48.29200
H  38.65700 4.30500 47.97800
H  37.22600 4.92000 47.21700
H  38.87400 8.78600 44.91600
H  38.14000 7.18200 44.59900
H  41.05500 7.14200 44.03200
H  40.48700 8.67200 43.58800
H  41.13600 0.12600 44.70300
H  40.01000 1.15600 45.29100
H  40.58800 -0.10900 46.41300
H  45.68500 -1.67600 45.59700
H  45.69800 -0.40900 46.72400
H  45.92300 -0.10000 44.91500
H  48.12500 3.24000 45.34700
H  48.61800 5.34500 47.49800
H  48.96900 1.75100 46.90800
H  47.78400 2.19700 48.12300
H  49.29100 3.13800 47.96700
H  48.69700 6.54200 45.02300
H  49.23200 4.90600 44.60100
H  50.70100 7.18200 45.81300
H  51.38100 5.67200 45.35200
H  50.65300 5.73200 46.89400
H  47.02800 10.04500 45.84100
H  46.66000 10.53300 47.49700
H  45.75400 11.33300 46.12800
H  40.87600 10.16700 45.64800
H  38.68400 10.75400 49.49000
H  37.82500 10.05600 48.19300
H  37.80100 11.73000 48.26400

