158

Mg 47.08900 16.00300 28.26700
C  44.82200 15.44900 30.96900
C  49.25100 17.34500 30.68600
C  49.09900 16.81500 25.79300
C  44.72500 14.78300 26.20600
N  47.01200 16.44900 30.58600
C  46.04000 16.03800 31.43500
C  46.33800 16.44100 32.89700
C  47.65200 17.28500 32.75800
C  48.01800 17.09000 31.25700
C  47.47900 18.85700 32.99600
C  46.51100 15.20200 33.78500
C  46.08200 15.41900 35.26800
H  46.35600 16.94700 35.71200
N  48.98700 16.80100 28.27300
C  49.69200 17.27400 29.34700
C  50.99100 17.71200 28.85700
C  50.97300 17.50800 27.38700
C  49.69500 16.97300 27.06500
C  52.04600 18.10400 29.73300
C  52.11000 17.65800 26.26200
O  52.01400 17.21300 25.14400
C  53.41600 18.31900 26.68200
N  46.86000 15.85100 26.24300
C  47.82200 16.41400 25.39500
C  47.20100 16.52500 24.00800
C  46.05200 15.47700 24.03000
C  45.83400 15.32900 25.53900
C  46.69500 17.96500 23.84000
C  46.45000 14.01700 23.53500
C  45.31900 13.15700 22.83600
N  45.13200 15.29400 28.46400
C  44.31600 14.73600 27.54600
C  43.14700 14.19000 28.16000
C  43.27600 14.50300 29.53500
C  44.56300 15.09800 29.64600
C  41.96900 13.65300 27.36700
C  42.58300 14.49500 30.77600
O  41.45900 14.10300 31.05800
C  43.57500 15.04300 31.82800
C  42.90200 16.22600 32.48200
O  42.67900 17.21900 31.86000
O  42.65900 15.89300 33.77400
C  42.03700 16.97900 34.47900
H  49.94600 17.75300 31.42200
H  49.51500 17.45200 25.00900
H  44.02500 14.36600 25.47900
H  45.47500 17.04400 33.17900
H  48.42900 16.91800 33.42900
H  47.97200 19.31800 32.14000
H  47.99800 19.30500 33.84400
H  46.41900 19.09700 33.08100
H  47.49600 14.77300 33.60100
H  45.76200 14.52500 33.37400
H  46.81200 14.87200 35.86500
H  45.05700 15.08500 35.43000
H  52.71900 17.24700 29.68500
H  51.68900 18.40900 30.71600
H  52.60400 18.94200 29.31400
H  53.98700 18.53300 25.77800
H  53.98100 17.55800 27.22000
H  53.21800 19.22100 27.26100
H  47.95000 16.28000 23.25500
H  45.15500 15.84300 23.53000
H  45.61100 17.85900 23.84600
H  47.10200 18.34000 22.90100
H  47.03800 18.63900 24.62500
H  46.83300 13.52600 24.42900
H  47.28100 14.14800 22.84200
H  44.30300 13.55100 22.80700
H  45.19900 12.24800 23.42500
H  45.63900 12.88400 21.83000
H  41.28700 13.24400 28.11300
H  42.22500 12.84800 26.67900
H  41.65800 14.59600 26.91700
H  43.91400 14.19800 32.42800
H  41.62300 17.78800 33.87700
H  42.80600 17.36000 35.15100
H  41.23900 16.51600 35.05900
Mg 7.20100 54.06800 41.47300
C  6.76900 50.53200 41.54300
C  10.52600 53.23100 40.44600
C  7.71100 57.37100 40.91900
C  3.82100 54.45000 41.53600
N  8.45900 52.10900 40.99200
C  8.06800 50.81900 41.08300
C  9.23600 49.81600 40.96700
C  10.45500 50.73900 41.03900
C  9.75700 52.12000 40.80300
C  11.39100 50.71500 42.29400
C  9.29800 48.83200 39.79800
C  9.07800 49.48000 38.42900
H  7.72600 49.17100 37.74800
N  8.96200 55.16300 40.91000
C  10.18900 54.68000 40.46300
C  11.08900 55.82000 40.35500
C  10.27500 56.99400 40.45600
C  8.88100 56.56300 40.75600
C  12.55500 55.61600 40.07600
C  10.81300 58.41500 40.40100
O  11.97000 58.56600 40.04300
C  10.01100 59.58100 40.79700
N  5.93800 55.62600 41.32200
C  6.39600 56.94800 41.17600
C  5.15200 57.83800 41.14800
C  3.93100 56.96600 41.39200
C  4.56600 55.59600 41.39500
C  5.17600 59.14100 42.06500
C  2.89200 57.14400 40.23000
C  1.41800 56.74300 40.53200
N  5.60600 52.87100 41.64000
C  4.24000 53.07400 41.68600
C  3.49000 51.92200 41.93200
C  4.45600 50.95700 42.03400
C  5.70000 51.51500 41.73800
C  2.05300 51.80600 42.20400
C  4.73000 49.52500 42.28000
O  3.98100 48.66200 42.63500
C  6.19300 49.13000 41.78600
C  5.79700 48.35700 40.62800
O  5.24900 48.79700 39.61300
O  6.12400 46.98700 40.89200
C  5.89500 45.89500 39.86700
H  11.59800 53.05600 40.32900
H  7.79200 58.46000 40.88200
H  2.76700 54.59200 41.78700
H  9.28000 49.17200 41.84500
H  11.14000 50.54800 40.21300
H  11.23200 49.84300 42.93000
H  11.25500 51.61300 42.89600
H  12.44900 50.78200 42.04300
H  8.58500 48.02200 39.95000
H  10.22600 48.26100 39.83800
H  9.82700 49.17800 37.69700
H  9.26700 50.54900 38.52700
H  12.67200 55.10400 39.12100
H  12.88600 54.97200 40.89100
H  13.09700 56.56100 40.05600
H  10.70600 60.34300 41.15100
H  9.33000 59.34000 41.61300
H  9.47800 60.08300 39.99000
H  5.05200 58.23400 40.13700
H  3.59400 57.15700 42.41100
H  5.74000 59.88700 41.50600
H  5.80500 58.87600 42.91500
H  4.21300 59.33600 42.53700
H  3.26400 56.57200 39.38000
H  2.82700 58.21900 40.06100
H  1.31100 56.56200 41.60200
H  1.13500 55.82200 40.02200
H  0.80900 57.61300 40.28900
H  1.54600 51.26000 41.40800
H  1.63300 52.81200 42.17400
H  1.85400 51.36700 43.18100
H  6.71100 48.63100 42.60500
H  4.86100 45.55200 39.83600
H  6.64000 45.10700 39.97500
H  6.06300 46.32500 38.87900

