158

Mg 50.11800 46.11100 42.85700
C  46.96300 46.53100 41.18300
C  50.42500 43.09500 41.25900
C  53.27300 46.09600 43.88800
C  49.71300 49.39200 43.88200
N  48.91100 45.05900 41.18500
C  47.63000 45.38100 40.83100
C  47.16300 44.26600 39.83600
C  48.13700 43.04900 40.06900
C  49.22000 43.76800 40.98000
C  47.52200 41.82200 40.92800
C  47.11000 44.78300 38.40600
C  46.04000 44.03500 37.60100
H  45.72600 44.41600 36.12600
N  51.64600 44.69300 42.64600
C  51.56700 43.48900 41.96200
C  52.86300 42.84600 42.09300
C  53.60400 43.64000 43.05300
C  52.88200 44.88100 43.26800
C  53.18200 41.45800 41.48600
C  54.93800 43.40400 43.67700
O  55.48000 42.40900 43.27600
C  55.60300 44.22600 44.76500
N  51.41100 47.52100 43.77100
C  52.69300 47.34600 44.05600
C  53.31700 48.58300 44.72800
C  52.19100 49.68700 44.59400
C  50.99000 48.78300 44.07700
C  53.80700 48.37200 46.18900
C  52.62900 50.88600 43.65500
C  53.17900 52.11500 44.42600
N  48.67600 47.63400 42.73500
C  48.63900 48.86300 43.26400
C  47.35400 49.51500 43.01000
C  46.69800 48.67000 42.15600
C  47.50600 47.50500 42.06400
C  47.05300 50.93700 43.41700
C  45.51200 48.56700 41.35500
O  44.55000 49.29300 41.18200
C  45.60800 47.09800 40.66600
C  44.41700 46.25700 41.08400
O  44.31200 45.63500 42.10600
O  43.49400 46.26400 40.05900
C  42.22200 45.68000 40.32400
H  50.42600 42.08600 40.84200
H  54.25600 46.05700 44.36400
H  49.50800 50.39600 44.26100
H  46.18100 43.92300 40.16400
H  48.46100 42.59400 39.13300
H  46.54100 42.21000 41.20300
H  48.03600 41.77000 41.88800
H  47.54800 40.91000 40.33200
H  48.01800 44.58400 37.83800
H  47.00200 45.84700 38.19700
H  45.08100 44.13300 38.11100
H  46.29100 42.97500 37.55600
H  53.47800 40.74300 42.25400
H  54.10800 41.51900 40.91600
H  52.42000 41.00100 40.85300
H  56.16800 45.13700 44.56700
H  56.34500 43.58400 45.24100
H  54.90500 44.47500 45.56300
H  54.23500 48.81000 44.18600
H  51.99300 50.01500 45.61400
H  53.73800 49.38000 46.59800
H  54.81700 47.96900 46.11000
H  53.14000 47.67500 46.69500
H  51.82000 51.25900 43.02700
H  53.38000 50.64400 42.90400
H  54.11100 52.49500 44.00700
H  53.29400 51.80600 45.46500
H  52.44100 52.91100 44.32600
H  47.89100 51.60100 43.62900
H  46.54100 51.03100 44.37400
H  46.56000 51.47900 42.61000
H  45.60200 47.14500 39.57700
H  42.31600 44.60100 40.19900
H  41.50900 46.07700 39.60200
H  41.87500 46.10400 41.26600
Mg 43.19900 41.55100 26.74500
C  42.36300 43.66800 29.46400
C  44.40000 39.29900 28.84700
C  44.21700 39.77800 24.05700
C  42.76800 44.30400 24.64500
N  43.32400 41.58800 28.90500
C  42.86900 42.43400 29.81000
C  42.98500 41.87000 31.19500
C  43.71100 40.49000 31.04100
C  43.81500 40.40200 29.47700
C  45.13900 40.28400 31.68200
C  41.52600 41.84500 31.95200
C  41.43400 42.64000 33.24000
H  40.90200 42.03900 34.61400
N  44.10000 39.76300 26.46400
C  44.40700 38.91300 27.49900
C  44.87400 37.63600 26.96000
C  44.79700 37.75600 25.58800
C  44.37300 39.11400 25.27900
C  45.45300 36.53700 27.83100
C  45.18300 36.74600 24.53900
O  45.32800 37.02500 23.34200
C  45.66200 35.28300 24.87700
N  43.80600 42.06800 24.60900
C  43.94900 41.09400 23.72000
C  43.89100 41.66300 22.23400
C  43.28200 43.06300 22.47600
C  43.30600 43.17300 23.99300
C  45.28800 41.83700 21.36200
C  41.92200 43.40200 21.81400
C  41.67300 44.89400 21.55800
N  42.55500 43.53100 26.90000
C  42.38200 44.52700 25.95200
C  41.71800 45.74400 26.53800
C  41.71500 45.41400 27.93100
C  42.28900 44.10300 28.10300
C  41.45400 47.07000 25.89200
C  41.51400 45.88200 29.26900
O  41.14800 46.98900 29.60100
C  41.91000 44.81500 30.26700
C  43.00000 45.42900 31.11100
O  44.16300 45.57600 30.74300
O  42.43400 45.77700 32.31300
C  43.43300 46.07200 33.32300
H  44.70600 38.58300 29.61300
H  44.24000 39.14300 23.17000
H  42.52900 45.15400 24.00300
H  43.67300 42.47000 31.79100
H  43.08500 39.68400 31.42200
H  45.89300 40.13300 30.90900
H  44.94800 39.33700 32.18600
H  45.46400 41.02000 32.41700
H  41.25400 40.79400 32.05200
H  40.78100 42.19200 31.23600
H  40.85800 43.52700 32.97600
H  42.43100 42.99400 33.50100
H  45.35400 36.66900 28.90800
H  46.52700 36.41500 27.68600
H  44.93300 35.61500 27.57100
H  46.13800 35.32700 25.85600
H  46.37400 34.93200 24.12900
H  44.82000 34.59400 24.93100
H  43.18900 41.05500 21.66300
H  43.94300 43.84500 22.10200
H  46.05900 41.42200 22.01200
H  45.52200 42.90100 21.32800
H  45.47300 41.30400 20.42900
H  41.18100 43.04500 22.53000
H  41.74400 42.81000 20.91600
H  41.31300 44.98500 20.53300
H  42.55800 45.49200 21.77600
H  40.84600 45.25400 22.17000
H  42.07100 47.13800 24.99700
H  41.59600 47.87900 26.60900
H  40.42500 47.01700 25.53600
H  41.02800 44.52800 30.83900
H  44.12900 45.24800 33.16600
H  43.00000 46.10900 34.32300
H  43.84800 47.07900 33.38400

