158

Mg 8.80500 2.95900 27.70300
C  10.35900 1.91000 30.57100
C  6.91500 5.13000 29.70000
C  7.39300 4.23500 25.00400
C  10.60500 0.72500 25.85100
N  8.45200 3.21500 29.94000
C  9.39300 2.90700 30.87800
C  8.95900 3.45900 32.31000
C  7.65800 4.25900 31.88200
C  7.65000 4.19700 30.36900
C  6.37500 3.55500 32.52800
C  10.07000 4.33100 32.94700
C  9.66600 5.32600 33.98900
H  10.51600 5.20700 35.18600
N  7.27100 4.43500 27.35200
C  6.65700 5.26700 28.31700
C  5.69000 6.21500 27.70200
C  5.91300 6.07400 26.29800
C  6.88300 4.87400 26.16000
C  4.66600 7.06000 28.49900
C  5.31600 6.87500 25.22700
O  5.65800 6.71500 24.08600
C  4.33400 8.06100 25.46800
N  8.87200 2.44300 25.76900
C  8.14900 3.08300 24.88500
C  8.33800 2.62100 23.41500
C  9.53400 1.57600 23.62800
C  9.62600 1.53900 25.16200
C  7.10000 1.88700 22.74400
C  10.87900 1.80700 22.86300
C  11.31200 0.77200 21.79500
N  10.16700 1.40600 28.11300
C  10.88900 0.63900 27.24200
C  11.89400 -0.11600 27.99800
C  11.73700 0.31900 29.32900
C  10.65700 1.27400 29.29000
C  12.78700 -1.18000 27.50400
C  12.24400 0.28800 30.69000
O  13.19600 -0.31000 31.11500
C  11.30900 1.29600 31.58400
C  10.66600 0.59600 32.69600
O  9.63500 -0.08000 32.55500
O  11.28400 0.94400 33.87600
C  10.39200 0.88700 35.08400
H  6.35000 5.82900 30.32000
H  6.90700 4.57200 24.08600
H  11.29100 0.17700 25.20100
H  8.65300 2.64100 32.96200
H  7.69500 5.33100 32.07700
H  6.07500 2.78700 31.81500
H  5.57300 4.24200 32.79900
H  6.60800 3.00600 33.44000
H  10.75500 4.85700 32.28200
H  10.70900 3.62900 33.48300
H  8.65500 5.07700 34.31100
H  9.66600 6.33100 33.56700
H  4.96700 8.10200 28.39000
H  4.79700 6.73600 29.53100
H  3.62000 6.97000 28.20600
H  5.01300 8.89400 25.64800
H  3.55800 7.81000 26.19200
H  3.76400 8.22200 24.55300
H  8.62600 3.42400 22.73600
H  9.23800 0.55800 23.37500
H  7.17800 0.80900 22.60200
H  6.78100 2.45100 21.86700
H  6.27000 2.10100 23.41700
H  11.65300 1.92900 23.62100
H  10.80500 2.79100 22.39900
H  11.52300 1.23500 20.83100
H  10.50700 0.05400 21.64000
H  12.22800 0.23400 22.04100
H  12.34500 -1.70100 26.65500
H  12.80500 -1.96800 28.25800
H  13.75500 -0.92500 27.07100
H  11.90100 2.11100 32.00200
H  9.58600 1.61600 35.00700
H  11.06300 1.09400 35.91800
H  9.98900 -0.09100 35.34500
Mg 9.90900 47.04400 26.41700
C  7.78300 47.42500 29.23200
C  12.43300 48.36800 28.16100
C  11.66200 46.85900 23.67000
C  6.87400 46.47500 24.48100
N  10.11100 47.84100 28.50800
C  9.14200 47.74100 29.50400
C  9.79000 48.25200 30.82900
C  11.06200 49.04000 30.37000
C  11.22000 48.37300 28.96100
C  10.94700 50.59600 30.28000
C  10.12100 47.05200 31.79700
C  9.45200 47.29900 33.21100
H  9.29500 46.04900 34.06600
N  11.78600 47.35500 25.99800
C  12.75300 47.80700 26.86200
C  14.07700 47.91300 26.25700
C  13.87400 47.55100 24.89500
C  12.38600 47.26200 24.78400
C  15.28200 48.19800 27.01000
C  14.87600 47.22800 23.87800
O  14.55200 47.15300 22.70400
C  16.40400 47.15600 24.17400
N  9.27200 46.75200 24.33800
C  10.25700 46.69600 23.43900
C  9.63500 46.79200 22.06400
C  8.15300 46.37400 22.24700
C  8.06600 46.53000 23.76700
C  9.80800 48.20500 21.42700
C  7.77500 44.99800 21.65600
C  8.68400 43.75800 21.97000
N  7.84700 46.94200 26.71300
C  6.74700 46.66300 25.83200
C  5.50800 46.53000 26.60100
C  5.84500 46.85200 27.94200
C  7.29000 47.10800 27.92500
C  4.08400 46.37300 25.97300
C  5.28100 47.10000 29.29400
O  4.13100 47.16800 29.74500
C  6.58900 47.31000 30.17600
C  6.68500 46.15900 31.13200
O  7.37800 45.14900 30.84000
O  6.00800 46.35000 32.34600
C  5.83500 45.05600 33.09900
H  13.25600 48.80700 28.72800
H  12.31300 46.86500 22.79300
H  5.99800 46.20600 23.88700
H  9.04100 48.90900 31.27100
H  11.96400 48.85200 30.95300
H  11.65800 51.02600 30.98600
H  9.93000 50.91100 30.51100
H  11.11100 51.03400 29.29600
H  11.20500 47.06300 31.91700
H  9.78400 46.10000 31.38800
H  8.51300 47.77000 32.92100
H  9.97100 48.01800 33.84600
H  15.14800 48.15800 28.09100
H  15.73900 49.17300 26.84300
H  16.05300 47.43400 26.90800
H  16.72900 47.93600 24.86400
H  16.93200 47.19300 23.22200
H  16.59100 46.12400 24.47000
H  10.19600 46.15700 21.37800
H  7.61200 47.23700 21.85800
H  10.79600 48.57200 21.70600
H  9.07400 48.94800 21.73900
H  9.86300 48.04600 20.35000
H  7.76300 45.00500 20.56600
H  6.80400 44.67400 22.02900
H  9.34400 43.93800 22.81900
H  9.22700 43.48100 21.06600
H  7.94700 43.06200 22.37000
H  3.59700 45.42300 26.19400
H  4.15900 46.52900 24.89700
H  3.44100 47.16700 26.35200
H  6.43200 48.16200 30.83600
H  5.63300 45.55000 34.04900
H  6.74200 44.47500 33.26700
H  4.95000 44.52000 32.75500

