158

Mg 25.63400 0.44900 29.16400
C  27.82500 0.04500 31.82300
C  23.10900 0.78000 31.25900
C  23.74100 0.78100 26.50300
C  28.38900 -0.35100 26.97200
N  25.55000 0.41000 31.33400
C  26.53800 0.42600 32.26400
C  25.96400 0.67000 33.68800
C  24.42200 0.53800 33.45300
C  24.32300 0.54800 31.92500
C  23.74200 -0.69100 34.13500
C  26.46300 2.01900 34.38000
C  27.24400 1.79400 35.75900
H  26.93600 2.83900 36.91800
N  23.72900 0.79700 28.92600
C  22.79200 0.93600 29.91100
C  21.43100 1.19900 29.37800
C  21.67700 1.09500 27.99000
C  23.08600 0.92000 27.75600
C  20.16300 1.48100 30.17500
C  20.64700 1.17000 26.90100
O  20.90400 1.16000 25.71100
C  19.13200 1.06500 27.28400
N  26.01700 0.37900 27.08200
C  25.03900 0.57100 26.20000
C  25.57100 0.65400 24.80800
C  27.10400 0.32600 24.97600
C  27.17600 0.09200 26.44100
C  24.84500 -0.30400 23.80300
C  27.94800 1.49000 24.31700
C  27.99500 2.81300 25.09800
N  27.69000 -0.14800 29.28400
C  28.67800 -0.40000 28.38400
C  29.94200 -0.66900 29.05200
C  29.65400 -0.60500 30.41600
C  28.22800 -0.26200 30.49600
C  31.25800 -1.06100 28.41800
C  30.22600 -0.58200 31.75000
O  31.38900 -0.80900 32.09700
C  29.06600 -0.17700 32.70000
C  28.89200 -1.26200 33.67000
O  28.32800 -2.34100 33.48800
O  29.49400 -0.91600 34.86400
C  29.23400 -1.75600 36.01300
H  22.26400 0.82700 31.95000
H  23.10100 0.82800 25.61900
H  29.17700 -0.50000 26.23100
H  26.31700 -0.13600 34.33200
H  24.06900 1.48700 33.85600
H  24.54800 -1.26300 34.59500
H  23.22700 -1.33400 33.42100
H  22.98600 -0.46100 34.88600
H  25.60300 2.67700 34.50900
H  27.05700 2.54600 33.63400
H  28.32500 1.76400 35.62000
H  26.95100 0.79200 36.07300
H  19.75600 2.47900 30.01300
H  20.27300 1.32700 31.24800
H  19.35900 0.80800 29.87500
H  18.52100 1.21400 26.39300
H  18.92100 1.84900 28.01100
H  18.92000 0.14100 27.82300
H  25.32300 1.66200 24.47400
H  27.56200 -0.57200 24.56100
H  24.09700 -0.88300 24.34500
H  25.54200 -0.94300 23.26000
H  24.29700 0.31300 23.09000
H  27.52300 1.80600 23.36400
H  28.91400 1.03200 24.10300
H  28.97500 2.68600 25.55800
H  27.32800 2.79800 25.96000
H  27.94300 3.78600 24.60900
H  31.37800 -1.05000 27.33500
H  31.50300 -2.07800 28.72300
H  31.92100 -0.35000 28.91000
H  29.24700 0.68500 33.34300
H  28.17800 -2.02400 36.01100
H  29.29600 -1.17500 36.93400
H  29.92000 -2.60300 35.98800
Mg 44.01100 3.59300 47.67100
C  41.87800 6.37200 47.09000
C  41.34800 1.55900 47.23500
C  46.13700 1.03300 47.72100
C  46.74600 5.88100 47.35500
N  41.84400 3.90300 47.17800
C  41.17600 5.12700 47.06700
C  39.69800 4.81400 46.84100
C  39.50100 3.41800 47.35200
C  40.98600 2.87100 47.36200
C  38.67300 3.14500 48.60700
C  39.29800 4.97500 45.35500
C  38.37500 6.14500 45.05300
H  37.64500 6.07800 43.63200
N  43.74700 1.54100 47.53300
C  42.59700 0.88900 47.44300
C  42.81200 -0.57300 47.57800
C  44.20600 -0.73800 47.75500
C  44.78300 0.63800 47.66100
C  41.70800 -1.65900 47.45900
C  44.93800 -2.08400 48.00300
O  44.30500 -3.13800 47.86100
C  46.46200 -2.22800 48.34700
N  46.13400 3.46500 47.40900
C  46.74100 2.22900 47.65000
C  48.23000 2.42500 47.80300
C  48.44600 3.92900 47.38100
C  47.03100 4.49300 47.48000
C  48.77400 2.15800 49.20000
C  49.09900 4.14600 46.02900
C  48.48500 3.36800 44.77100
N  44.32500 5.68000 47.22600
C  45.44000 6.47100 47.23500
C  45.05900 7.88100 47.16900
C  43.68700 7.83500 47.08500
C  43.25100 6.52300 47.10700
C  46.00000 9.01400 47.15900
C  42.47600 8.67300 47.03100
O  42.44900 9.85200 47.01100
C  41.29600 7.76000 46.94100
C  40.28400 8.14700 47.93700
O  40.40200 8.04700 49.14700
O  39.08300 8.50300 47.34400
C  37.87100 8.60100 48.22700
H  40.51200 0.85700 47.22700
H  46.83800 0.20400 47.84300
H  47.51200 6.65200 47.46200
H  39.18200 5.64800 47.31700
H  38.97700 2.81300 46.61100
H  39.38000 3.07300 49.43400
H  37.98200 2.30600 48.52300
H  38.03600 4.00400 48.81400
H  38.80000 4.11600 44.90400
H  40.24200 5.17300 44.84800
H  38.91800 7.05100 44.78200
H  37.74100 6.32400 45.92200
H  42.10500 -2.32200 46.69100
H  40.75500 -1.31100 47.06100
H  41.59400 -2.24200 48.37300
H  47.04900 -2.27100 47.43000
H  46.56700 -3.17700 48.87300
H  46.77600 -1.45900 49.05300
H  48.90400 1.82400 47.19200
H  49.00100 4.47100 48.14700
H  49.33300 1.22200 49.20700
H  48.00400 2.07900 49.96700
H  49.49200 2.93100 49.47500
H  50.11700 3.75900 46.07200
H  49.14500 5.18200 45.69500
H  48.98600 2.46000 44.43600
H  48.64600 3.99600 43.89500
H  47.41600 3.20700 44.90900
H  46.74500 9.05000 47.95400
H  45.37500 9.90700 47.14900
H  46.47400 8.88200 46.18600
H  40.79000 7.95000 45.99500
H  37.97900 7.85500 49.01400
H  37.01700 8.30600 47.61800
H  37.85700 9.62100 48.61100

