158

Mg 39.82300 10.17100 30.42200
C  41.86800 11.34600 33.02600
C  37.77800 8.77000 32.80900
C  38.19100 8.65400 28.00700
C  42.34400 11.12500 28.16700
N  39.72900 10.16600 32.64500
C  40.65900 10.76100 33.45200
C  40.20400 10.60500 34.88800
C  39.02900 9.58100 34.86100
C  38.85200 9.49900 33.35100
C  39.32000 8.17000 35.54500
C  39.85200 11.95200 35.53300
C  40.49800 12.51700 36.76000
H  39.61700 12.64800 37.96800
N  38.14700 8.91100 30.40600
C  37.48600 8.48300 31.44400
C  36.36900 7.67200 30.96000
C  36.42400 7.57800 29.53900
C  37.60000 8.40300 29.25900
C  35.44700 7.05400 31.95300
C  35.52300 6.86000 28.55100
O  35.60000 6.96100 27.31200
C  34.38200 6.09800 29.07500
N  40.33500 9.79200 28.41400
C  39.40600 9.22100 27.59700
C  39.75800 9.26600 26.07700
C  41.21000 9.93800 26.17400
C  41.33900 10.34200 27.64500
C  39.73000 7.92600 25.26500
C  41.28100 11.10900 25.20000
C  41.12900 12.58600 25.76800
N  41.68300 11.10900 30.50000
C  42.52900 11.50900 29.51000
C  43.50300 12.33300 30.06300
C  43.29700 12.33900 31.44000
C  42.17500 11.50200 31.68700
C  44.69700 12.99800 29.46400
C  43.85600 12.76400 32.75100
O  44.84600 13.36600 32.95700
C  42.86800 12.12700 33.83400
C  43.59700 11.27500 34.88300
O  43.65200 10.06600 34.91300
O  44.07500 12.17000 35.81000
C  44.92000 11.63000 36.92300
H  37.20100 8.26200 33.58500
H  37.51900 8.24100 27.25100
H  43.04200 11.50400 27.41800
H  40.96500 10.21700 35.56500
H  38.11700 9.79500 35.41900
H  40.34400 7.93300 35.83400
H  38.88000 7.31800 35.02600
H  38.74700 8.31700 36.46000
H  38.81000 11.81700 35.82500
H  39.76400 12.76100 34.80900
H  40.86500 13.53000 36.59400
H  41.32300 11.86200 37.03800
H  34.52600 7.63700 31.93600
H  35.75800 6.85700 32.97900
H  35.17700 6.06200 31.59000
H  33.84300 5.77800 28.18400
H  33.83700 6.76900 29.73900
H  34.73300 5.23200 29.63700
H  39.06800 9.98100 25.62800
H  41.95100 9.15000 26.04000
H  39.75100 7.10300 25.98000
H  40.59800 7.75400 24.63000
H  38.85600 7.91600 24.61400
H  40.76100 10.97900 24.25100
H  42.30900 11.06800 24.83900
H  42.06900 13.12600 25.65300
H  40.66800 12.66200 26.75300
H  40.40000 13.12900 25.16700
H  44.84500 13.88800 30.07700
H  44.37000 13.29000 28.46600
H  45.65700 12.48200 29.46400
H  42.44800 12.98700 34.35700
H  44.30800 11.67100 37.82400
H  45.83900 12.19800 37.06900
H  45.17100 10.58600 36.73400
Mg 47.91700 36.11600 27.87100
C  46.29000 34.29000 30.26200
C  48.05600 38.78600 29.77300
C  49.51600 37.72400 25.28900
C  47.78400 33.15900 25.77300
N  47.21100 36.46600 29.77500
C  46.66600 35.58300 30.67500
C  46.54200 36.18800 32.07400
C  46.98700 37.64700 31.83700
C  47.40800 37.67400 30.37400
C  45.74000 38.60700 32.04300
C  47.36300 35.42900 33.17500
C  48.79200 36.00200 33.67300
H  48.81700 36.79600 34.93500
N  48.77600 37.95600 27.58100
C  48.68700 38.93800 28.55200
C  49.43700 40.14100 28.09000
C  49.91900 39.83500 26.73400
C  49.40300 38.42400 26.49100
C  49.62100 41.31200 28.95300
C  50.72400 40.68900 25.75500
O  51.14000 40.21300 24.68100
C  51.07200 42.06300 26.13200
N  48.57100 35.51800 25.85600
C  49.17300 36.39300 25.00500
C  49.66400 35.69000 23.65700
C  49.01200 34.33500 23.85900
C  48.34800 34.31300 25.22600
C  49.14300 36.30800 22.40100
C  50.00100 33.13600 23.80200
C  49.72400 32.12100 22.64700
N  47.08400 34.20400 27.83200
C  47.11100 33.15400 26.97300
C  46.25100 32.16200 27.49300
C  45.86000 32.58200 28.71700
C  46.45700 33.80400 28.97100
C  46.07700 30.74500 26.92800
C  45.16900 32.23300 29.95400
O  44.44800 31.18500 30.17800
C  45.44000 33.26200 31.01000
C  46.06300 32.64600 32.23200
O  47.20900 32.32400 32.37800
O  45.09800 32.43500 33.16000
C  45.52300 32.04200 34.55600
H  48.08200 39.66400 30.42200
H  49.91200 38.35400 24.48900
H  47.62200 32.25800 25.17800
H  45.47800 36.14600 32.30800
H  47.77900 38.07000 32.45500
H  45.57800 38.82800 33.09800
H  44.92300 38.33400 31.37600
H  46.01600 39.58900 31.65800
H  47.73200 34.44300 32.89300
H  46.71700 35.13100 34.00100
H  49.29100 36.52000 32.85400
H  49.26500 35.07400 33.99300
H  50.57800 41.79900 28.76600
H  49.44300 41.03300 29.99100
H  48.81000 41.96900 28.64100
H  50.21600 42.70700 26.33400
H  51.66200 42.44600 25.30000
H  51.74300 42.08400 26.99100
H  50.75200 35.65400 23.60200
H  48.18500 34.11900 23.18200
H  49.83000 37.12600 22.18400
H  48.18800 36.81900 22.52600
H  49.19500 35.61400 21.56200
H  50.11500 32.57700 24.73100
H  50.99500 33.53200 23.59000
H  50.30400 31.20000 22.59300
H  49.76400 32.51000 21.63000
H  48.69700 31.77000 22.54500
H  45.85200 30.89300 25.87200
H  45.32300 30.20600 27.50200
H  47.05300 30.25900 26.92400
H  44.46300 33.70300 31.20600
H  46.59200 31.84400 34.62700
H  44.96200 31.17500 34.90400
H  45.23900 32.90600 35.15600

