158

Mg 35.00300 2.08300 29.98200
C  32.51900 3.45300 32.11100
C  37.18800 2.25600 32.57900
C  37.51800 1.33800 27.80700
C  32.85500 2.61500 27.41900
N  34.81900 2.88200 32.11000
C  33.69500 3.15900 32.84900
C  33.91000 3.18500 34.37400
C  35.42100 3.06500 34.42100
C  35.89200 2.76700 32.97900
C  36.22600 4.15700 35.18900
C  33.01800 2.07600 35.03600
C  32.72400 2.25400 36.57900
H  33.45500 3.28600 37.45600
N  37.02800 1.73800 30.18700
C  37.71300 1.77700 31.36200
C  39.06000 1.39000 31.11600
C  39.27900 1.24500 29.77700
C  37.89700 1.33400 29.18600
C  40.02100 1.26500 32.25400
C  40.56200 0.85400 29.02800
O  40.56400 0.71200 27.78000
C  41.95500 0.68200 29.78100
N  35.19300 2.03400 27.95900
C  36.28500 1.66200 27.26500
C  36.07900 1.70900 25.71500
C  34.50600 1.77400 25.62100
C  34.17000 2.15700 27.09700
C  36.83200 2.80500 24.92700
C  33.71000 0.49900 25.26000
C  32.53000 0.86300 24.30200
N  33.09500 2.76200 29.75400
C  32.29400 2.88900 28.65500
C  31.03700 3.48500 28.94300
C  31.08300 3.81600 30.31900
C  32.34200 3.28400 30.76100
C  29.84200 3.67800 28.01800
C  30.33600 4.31500 31.48000
O  29.18000 4.78200 31.45800
C  31.22200 4.00800 32.72100
C  31.36900 5.26100 33.44100
O  31.76300 6.34100 32.90000
O  31.09500 5.11000 34.81100
C  31.57600 6.35800 35.49500
H  37.85800 2.19500 33.44000
H  38.27000 1.12600 27.04400
H  32.13700 2.65300 26.59600
H  33.58600 4.11200 34.84600
H  35.65900 2.13600 34.94000
H  36.97200 3.67200 35.81800
H  35.59400 4.83200 35.76600
H  36.85700 4.75800 34.53400
H  33.55300 1.13000 34.94200
H  32.02800 2.01000 34.58700
H  32.85000 1.27600 37.04400
H  31.68000 2.53500 36.72000
H  40.46500 0.27400 32.16500
H  39.55000 1.24800 33.23700
H  40.77700 2.05000 32.28700
H  42.78500 1.08000 29.19700
H  42.13000 -0.34200 30.11100
H  42.11600 1.26300 30.68900
H  36.52900 0.76600 25.40200
H  34.17200 2.60700 25.00100
H  37.25000 2.40800 24.00100
H  37.59600 3.17100 25.61200
H  36.12500 3.60100 24.69400
H  33.24800 0.13900 26.18000
H  34.35400 -0.24100 24.78500
H  32.54600 0.23600 23.41000
H  32.63400 1.86200 23.87700
H  31.55200 0.79500 24.77900
H  29.21000 4.56400 28.07500
H  29.17700 2.82900 28.17400
H  30.24900 3.59300 27.01000
H  30.66700 3.32200 33.36000
H  31.40400 7.36800 35.12500
H  32.66500 6.38300 35.55200
H  31.29500 6.27700 36.54500
Mg -2.44500 35.24700 26.74100
C  -4.27000 33.62100 29.31100
C  -1.13100 37.38800 28.92500
C  -0.60700 36.53600 24.06800
C  -3.87000 32.91300 24.47300
N  -2.67500 35.42200 28.87000
C  -3.50300 34.66900 29.72600
C  -3.36700 35.22700 31.15700
C  -2.55900 36.55400 30.88200
C  -2.06300 36.42900 29.45400
C  -3.34600 37.81400 31.19700
C  -2.56000 34.32800 32.11700
C  -2.55100 34.80500 33.60800
H  -2.79900 33.79700 34.75700
N  -1.11200 36.83100 26.48100
C  -0.69100 37.63600 27.58300
C  0.21300 38.66500 27.09300
C  0.44400 38.31300 25.72000
C  -0.39400 37.14100 25.36100
C  0.87900 39.61800 28.05300
C  1.41400 38.95800 24.73500
O  1.57000 38.48600 23.63800
C  2.22800 40.25400 25.05600
N  -2.28500 34.86500 24.58900
C  -1.55200 35.60900 23.68800
C  -1.59400 35.05000 22.24500
C  -2.61300 33.85900 22.32900
C  -3.01400 33.87400 23.89800
C  -1.72900 36.18300 21.06500
C  -1.95300 32.48400 21.94300
C  -2.74300 31.39600 21.17300
N  -3.91100 33.70400 26.77600
C  -4.23800 32.73900 25.85200
C  -4.96200 31.63900 26.41100
C  -5.06900 32.01100 27.77900
C  -4.35500 33.21800 27.91300
C  -5.42700 30.34200 25.70100
C  -5.54500 31.58400 29.10700
O  -6.13100 30.53700 29.40100
C  -5.00300 32.57000 30.12700
C  -6.12900 33.01400 30.94500
O  -7.20400 33.40500 30.57000
O  -5.85100 32.76000 32.24600
C  -6.94900 32.89700 33.16100
H  -0.87900 38.12200 29.69300
H  -0.20900 37.13000 23.24100
H  -4.30300 32.22100 23.74700
H  -4.34600 35.49200 31.55700
H  -1.67900 36.56000 31.52500
H  -3.32800 38.40200 30.27900
H  -2.91700 38.25500 32.09700
H  -4.41100 37.75100 31.42300
H  -1.49200 34.27400 31.90300
H  -2.93000 33.30300 32.14700
H  -3.13900 35.71800 33.50800
H  -1.63600 35.34000 33.86300
H  1.94100 39.43500 27.88500
H  0.56700 39.43800 29.08200
H  0.76300 40.68700 27.87700
H  3.22000 39.94900 25.39000
H  1.74400 40.87300 25.81000
H  2.41800 40.84400 24.15900
H  -0.63100 34.59200 22.01800
H  -3.46100 34.09100 21.68500
H  -0.79700 36.29400 20.51000
H  -1.81800 37.16500 21.53000
H  -2.58000 36.09200 20.39100
H  -1.74300 32.10600 22.94400
H  -1.02100 32.60600 21.39200
H  -3.63800 31.79000 20.69200
H  -3.07000 30.66100 21.90800
H  -2.17000 30.75700 20.50100
H  -4.78800 30.14100 24.84100
H  -6.44600 30.55200 25.37400
H  -5.47700 29.54200 26.43900
H  -4.26000 31.99800 30.68300
H  -6.52200 33.40500 34.02500
H  -7.11500 31.85800 33.44500
H  -7.89900 33.30900 32.82100

