158

Mg 2.28900 -1.69200 44.23100
C  5.70100 -1.05600 43.98100
C  1.52600 1.17100 42.66100
C  -1.04200 -2.65600 44.37400
C  3.16600 -4.96900 45.25700
N  3.53000 -0.21800 43.33300
C  4.87600 -0.13400 43.35800
C  5.35000 1.13600 42.61600
C  4.02100 1.94000 42.32300
C  2.92000 0.87100 42.69400
C  3.83900 3.35100 43.01100
C  6.11800 0.71700 41.29000
C  7.28200 1.60300 40.96600
H  7.46200 2.12700 39.43700
N  0.50800 -0.87800 43.51600
C  0.43100 0.41200 43.03300
C  -0.97400 0.72000 42.79800
C  -1.73100 -0.44700 43.19700
C  -0.77000 -1.38900 43.77700
C  -1.40600 1.99600 42.12700
C  -3.26700 -0.62400 43.07800
O  -3.85400 0.24000 42.46400
C  -4.02800 -1.76400 43.55200
N  1.19100 -3.53700 44.61000
C  -0.18700 -3.70200 44.76800
C  -0.64700 -5.07500 45.25900
C  0.77100 -5.75400 45.62500
C  1.80200 -4.66200 45.13900
C  -1.62200 -5.05300 46.36900
C  0.87800 -7.06100 44.70100
C  0.11200 -8.35100 45.21300
N  4.02300 -2.84300 44.62700
C  4.21100 -4.09600 45.02000
C  5.54000 -4.32100 45.25300
C  6.16500 -3.13800 45.01700
C  5.20500 -2.25900 44.51400
C  6.14700 -5.57600 45.71000
C  7.43400 -2.48500 44.92400
O  8.57500 -2.82500 45.27800
C  7.17200 -1.12400 44.22300
C  7.62100 -0.01000 45.05800
O  7.39700 0.14600 46.22300
O  8.45400 0.76200 44.27700
C  8.84500 2.08500 44.84300
H  1.34800 2.21300 42.38600
H  -2.06200 -3.03600 44.45400
H  3.36300 -5.92300 45.75100
H  6.02500 1.77500 43.18500
H  3.99100 2.09200 41.24400
H  4.69100 3.58300 43.65100
H  2.88300 3.54000 43.50000
H  3.84400 4.00800 42.14200
H  5.36500 0.67800 40.50300
H  6.57000 -0.27400 41.33900
H  8.18800 1.03500 41.17900
H  7.41200 2.50500 41.56500
H  -2.12600 1.76000 41.34400
H  -0.59200 2.51000 41.61700
H  -1.80500 2.60900 42.93500
H  -5.00100 -1.97500 43.10800
H  -4.15300 -1.71300 44.63400
H  -3.62000 -2.73600 43.27700
H  -1.01400 -5.64200 44.40400
H  0.85000 -5.97500 46.68900
H  -2.23300 -4.15200 46.33100
H  -1.09300 -5.17800 47.31400
H  -2.26000 -5.91700 46.18200
H  1.94800 -7.25600 44.77200
H  0.56900 -6.80700 43.68800
H  0.79800 -9.08700 45.63200
H  -0.38300 -8.68700 44.30100
H  -0.52900 -7.98400 46.01400
H  6.38900 -6.28900 44.92200
H  5.53100 -6.11500 46.43000
H  7.07600 -5.30500 46.21300
H  7.73100 -1.17600 43.28900
H  8.57900 2.18100 45.89600
H  8.42500 2.83100 44.16900
H  9.91300 2.28900 44.76000
Mg 17.23900 52.51900 25.38400
C  18.88200 51.17800 28.14600
C  14.78800 53.67500 27.44400
C  15.84600 53.78400 22.59800
C  19.70800 50.95100 23.33100
N  16.87600 52.38900 27.65000
C  17.70700 51.82100 28.54300
C  17.15700 52.26100 29.94700
C  15.69400 52.71500 29.61800
C  15.82100 53.03100 28.15600
C  14.56800 51.64900 29.96100
C  18.14900 53.28700 30.67900
C  17.91800 53.48400 32.18600
H  16.72300 52.78900 32.87500
N  15.62000 53.53200 25.04900
C  14.64100 53.88500 26.02500
C  13.46300 54.46000 25.32300
C  13.79700 54.49300 23.86700
C  15.15900 53.92900 23.79800
C  12.36300 55.09600 26.13300
C  13.01100 55.04200 22.72000
O  13.36000 55.17200 21.52900
C  11.63900 55.52600 23.10800
N  17.74300 52.47400 23.28900
C  17.01800 53.11400 22.35000
C  17.66400 52.94500 20.96400
C  18.92600 52.11800 21.25700
C  18.81600 51.81800 22.76000
C  16.73000 52.15500 20.02600
C  20.25400 52.85300 20.84800
C  21.15600 52.23100 19.75100
N  18.82900 51.17500 25.60900
C  19.75800 50.62700 24.71400
C  20.78700 49.79700 25.42600
C  20.46500 50.00400 26.75400
C  19.34500 50.86700 26.86900
C  21.94100 48.97100 24.87600
C  20.89400 49.83400 28.10500
O  21.83400 49.21300 28.57100
C  19.89300 50.57800 29.09700
C  19.44500 49.47100 30.01200
O  18.80600 48.45700 29.67000
O  19.84600 49.87700 31.26200
C  19.45600 49.12200 32.49300
H  13.89700 54.02100 27.97100
H  15.41800 54.08200 21.63900
H  20.42400 50.51400 22.63200
H  16.91300 51.37100 30.52700
H  15.50000 53.71300 30.01200
H  15.06900 50.68400 30.04600
H  13.81000 51.68400 29.17800
H  14.05700 51.91700 30.88600
H  17.91000 54.22600 30.18000
H  19.12900 53.02000 30.28500
H  17.80900 54.56300 32.29500
H  18.89500 53.20200 32.57900
H  11.53000 54.41800 26.31600
H  12.09600 56.02900 25.63500
H  12.70300 55.56800 27.05400
H  11.05600 55.60400 22.18900
H  11.74800 56.55000 23.46500
H  11.02300 54.90700 23.76000
H  18.00200 53.90800 20.58100
H  18.91600 51.19200 20.68200
H  16.52500 52.67600 19.09100
H  15.75900 52.01500 20.50100
H  17.09800 51.15200 19.81300
H  20.84300 52.83800 21.76500
H  20.10100 53.89600 20.57200
H  21.80000 51.43400 20.11900
H  21.73000 52.98200 19.20800
H  20.49000 51.83200 18.98600
H  22.90300 49.47100 24.99100
H  21.83700 48.97100 23.79100
H  21.92200 47.93000 25.19800
H  20.40200 51.37200 29.64300
H  18.85900 48.23700 32.27500
H  18.73400 49.75400 33.01000
H  20.22900 48.88500 33.22300

