158

Mg 30.74400 57.70900 39.77700
C  28.25700 55.49200 38.55100
C  33.08700 55.56600 38.70500
C  33.09200 60.15800 39.98500
C  28.31900 60.00100 40.31000
N  30.64200 55.80600 38.71900
C  29.54800 55.09900 38.25500
C  30.01600 53.79500 37.57400
C  31.53600 53.74900 37.84900
C  31.81100 55.13100 38.44300
C  31.87400 52.58300 38.85300
C  29.52600 53.63300 36.06400
C  28.85100 54.81300 35.33300
H  28.98800 54.90400 33.80400
N  32.82600 57.75500 39.62300
C  33.67800 56.74400 39.15300
C  35.10000 57.19700 39.10400
C  35.05000 58.57900 39.42900
C  33.59800 58.85000 39.78600
C  36.31100 56.34300 38.73800
C  36.25400 59.48100 39.31500
O  37.36100 59.07900 39.05000
C  36.24000 60.98000 39.58100
N  30.74400 59.82500 39.90800
C  31.78700 60.63600 40.07300
C  31.44800 62.03600 40.57000
C  29.86600 61.90400 40.84400
C  29.59500 60.47000 40.33900
C  32.29400 62.66200 41.75700
C  28.96700 62.97900 40.21300
C  27.76700 63.43200 41.12300
N  28.63900 57.76700 39.54900
C  27.84800 58.80700 39.81100
C  26.47200 58.38400 39.55500
C  26.59500 57.02600 39.11200
C  27.92800 56.77000 39.07800
C  25.23700 59.26200 39.55700
C  25.91900 55.81100 38.61500
O  24.73500 55.52500 38.67200
C  26.95000 54.78200 38.28000
C  26.69600 53.53600 39.04100
O  26.98200 53.36100 40.16600
O  26.03000 52.59500 38.31100
C  25.52500 51.38900 39.08100
H  33.87600 54.90400 38.34200
H  33.92200 60.85800 40.10100
H  27.51100 60.60500 40.72700
H  29.43900 53.02800 38.08900
H  32.04700 53.55400 36.90700
H  31.05600 51.86400 38.81400
H  31.90200 53.09600 39.81400
H  32.83800 52.15800 38.56900
H  28.88400 52.75800 36.16900
H  30.30400 53.16600 35.46100
H  29.29300 55.75500 35.65900
H  27.77400 54.85000 35.50100
H  36.49500 56.43800 37.66800
H  36.09900 55.28900 38.91900
H  37.21100 56.61300 39.28900
H  37.16900 61.33300 39.13300
H  36.25700 61.12900 40.66100
H  35.43800 61.59900 39.17900
H  31.52500 62.63800 39.66500
H  29.73300 61.71100 41.90800
H  33.13700 63.29300 41.47400
H  32.81000 61.83900 42.25300
H  31.73300 63.13700 42.56100
H  28.59200 62.71700 39.22400
H  29.56000 63.89400 40.19900
H  27.76200 64.52100 41.16800
H  27.79800 63.04500 42.14200
H  26.83200 63.27100 40.58700
H  25.43900 60.11400 38.90900
H  24.94300 59.62100 40.54300
H  24.48500 58.67000 39.03500
H  26.55400 54.56500 37.28800
H  24.56900 51.00600 38.72500
H  25.47200 51.65100 40.13800
H  26.29100 50.63700 38.89100
Mg 27.67100 49.95400 26.08600
C  25.51300 51.06300 28.76200
C  29.90500 48.89800 28.43100
C  29.49800 49.16600 23.54000
C  25.42700 51.58900 23.99000
N  27.74200 50.07000 28.34800
C  26.75600 50.49800 29.21000
C  27.11500 50.16700 30.70900
C  28.53800 49.58100 30.52700
C  28.69800 49.41200 28.96200
C  29.76300 50.46600 31.04200
C  25.99900 49.23400 31.43100
C  25.34100 49.92400 32.61900
H  26.35300 50.34000 33.76200
N  29.47400 49.09400 25.99800
C  30.29200 48.70700 27.02900
C  31.49700 48.08300 26.51800
C  31.39100 48.25700 25.12800
C  30.08300 48.81500 24.79300
C  32.55300 47.39000 27.40200
C  32.50700 47.87300 24.14300
O  32.34700 47.98800 22.97400
C  33.90100 47.38500 24.56800
N  27.52400 50.37300 24.05300
C  28.37400 49.85700 23.20100
C  28.08100 50.25800 21.75100
C  26.60500 50.73900 21.81900
C  26.40600 50.79400 23.42100
C  29.19800 51.13000 21.08200
C  25.56100 49.85500 21.11800
C  24.34000 50.67400 20.62600
N  25.95600 51.22200 26.29600
C  25.14800 51.78800 25.33200
C  23.96700 52.28700 25.95200
C  24.04500 52.08000 27.28900
C  25.25900 51.40100 27.44800
C  22.71300 52.84300 25.21800
C  23.37900 52.28500 28.57100
O  22.30400 52.78100 28.89800
C  24.42000 51.78300 29.60000
C  24.76300 52.93800 30.48500
O  25.67200 53.73100 30.32400
O  23.95200 52.87600 31.53000
C  24.29200 53.83300 32.64300
H  30.59200 48.63600 29.23800
H  30.12000 48.86200 22.69500
H  24.66800 51.98600 23.31300
H  27.15800 51.09800 31.27300
H  28.61900 48.60700 31.00900
H  30.44800 50.85700 30.28900
H  30.31200 49.82500 31.73100
H  29.39500 51.35300 31.55800
H  26.51000 48.32600 31.75300
H  25.25300 48.95300 30.68800
H  24.56100 49.21300 32.89400
H  24.74000 50.78800 32.33300
H  32.19400 47.37300 28.43100
H  33.57300 47.77500 27.38100
H  32.55400 46.37800 26.99800
H  34.37700 48.17900 25.14300
H  34.43900 47.04900 23.68200
H  33.75800 46.43500 25.08300
H  28.07700 49.36900 21.12100
H  26.68100 51.72800 21.36700
H  29.76900 50.58200 20.33200
H  29.85900 51.53200 21.85000
H  28.73200 51.98900 20.59900
H  25.07600 49.12700 21.77000
H  26.06700 49.33500 20.30500
H  23.45700 50.27700 21.12600
H  24.36400 50.56000 19.54200
H  24.35200 51.71300 20.95500
H  21.87100 53.02500 25.88600
H  22.41200 52.01200 24.58000
H  22.92700 53.62300 24.48800
H  23.87300 51.02700 30.16300
H  25.26900 53.47600 32.96800
H  23.55700 53.75400 33.44400
H  24.47200 54.84600 32.28300

