158

Mg 45.23000 3.47100 47.25800
C  42.88100 5.89000 46.64900
C  42.89300 1.03700 46.71100
C  47.73900 1.23300 46.99800
C  47.60900 6.04200 47.67300
N  43.16100 3.50000 46.65500
C  42.33500 4.57900 46.45900
C  40.83200 4.19400 46.13300
C  40.90000 2.64000 46.53300
C  42.41300 2.34800 46.59300
C  40.16200 2.27800 47.80100
C  40.47900 4.60300 44.72300
C  39.22300 5.54900 44.57600
H  38.51200 5.50400 43.20400
N  45.32500 1.46100 47.03700
C  44.22500 0.56200 46.91100
C  44.58500 -0.77400 46.71900
C  46.02000 -0.69800 46.68500
C  46.42400 0.72700 46.87600
C  43.62400 -1.99900 46.66200
C  46.85300 -1.89800 46.54600
O  46.33400 -2.97500 46.42600
C  48.34400 -1.81200 46.37200
N  47.39800 3.63400 47.26200
C  48.17000 2.55200 47.21000
C  49.65900 2.85900 47.44700
C  49.63200 4.46900 47.66200
C  48.16800 4.75000 47.48700
C  50.33300 1.87700 48.52200
C  50.38500 5.34000 46.69100
C  51.89400 5.11500 46.46300
N  45.27700 5.58900 47.20300
C  46.27000 6.45700 47.50200
C  45.78900 7.86100 47.54200
C  44.43300 7.67100 47.20900
C  44.19200 6.22900 46.97500
C  46.68300 9.11100 47.72800
C  43.12200 8.27100 46.87000
O  42.79100 9.44300 46.75500
C  42.10200 7.13100 46.61400
C  41.01200 7.23500 47.67100
O  41.18100 6.91300 48.80300
O  39.89900 7.82400 47.14800
C  38.78200 7.83800 48.11700
H  42.19500 0.20400 46.60800
H  48.59900 0.56200 47.03600
H  48.36600 6.75000 48.01700
H  40.20800 4.65000 46.90200
H  40.58000 1.95400 45.74800
H  39.32200 2.93000 48.04000
H  40.93300 2.32800 48.57000
H  39.82600 1.24400 47.88000
H  40.28300 3.72800 44.10400
H  41.27300 5.07200 44.14100
H  39.68900 6.52600 44.70600
H  38.60800 5.46000 45.47100
H  44.00100 -2.90500 47.13600
H  43.31900 -2.13200 45.62400
H  42.71100 -1.82800 47.23300
H  48.74700 -1.54700 47.35000
H  48.42100 -1.11500 45.53800
H  48.72400 -2.74500 45.95500
H  50.20700 2.77500 46.50900
H  49.86300 4.72000 48.69800
H  49.68400 1.30900 49.18900
H  51.06600 2.41000 49.12600
H  50.78600 1.13900 47.86000
H  50.30400 6.31700 47.16700
H  49.81200 5.24900 45.76800
H  52.18000 5.17000 45.41300
H  52.20300 4.09100 46.67700
H  52.54500 5.84500 46.94400
H  46.13700 9.96700 47.33000
H  47.60800 8.99500 47.16400
H  47.02400 9.27700 48.75000
H  41.56900 7.42200 45.70900
H  39.10800 8.33100 49.03200
H  38.49300 6.84300 48.45700
H  37.91800 8.33600 47.67600
Mg 42.38900 41.48500 26.92700
C  41.64400 43.93100 29.38300
C  43.38100 39.40100 29.42600
C  43.12700 39.23500 24.58300
C  41.73500 43.88400 24.44300
N  42.36400 41.72600 29.12300
C  41.94500 42.73200 29.95600
C  41.92700 42.32600 31.38000
C  42.70100 40.96600 31.36000
C  42.92000 40.69200 29.84300
C  44.02300 40.94900 32.24900
C  40.55200 42.19000 31.88200
C  40.36500 41.67000 33.33300
H  39.74600 42.60200 34.31200
N  43.27500 39.58200 26.96400
C  43.60400 38.88600 28.09400
C  44.17800 37.65800 27.68100
C  44.01400 37.48400 26.26100
C  43.41500 38.80200 25.88800
C  44.77100 36.61000 28.64000
C  44.39500 36.28300 25.44600
O  44.23100 36.24700 24.24300
C  44.93700 34.99200 26.17500
N  42.30300 41.53900 24.84700
C  42.67000 40.51200 24.11400
C  42.61800 40.79800 22.58500
C  41.87800 42.20000 22.55700
C  42.00900 42.64200 24.02700
C  44.00900 40.91900 21.78400
C  40.44600 42.10300 21.95000
C  39.36500 41.73700 22.95800
N  41.76600 43.45800 26.86500
C  41.58900 44.34300 25.79500
C  41.33800 45.70000 26.35700
C  41.27800 45.45700 27.64200
C  41.56700 44.19000 27.98300
C  41.15700 46.95500 25.55400
C  40.99200 46.24800 28.85100
O  40.62900 47.42200 28.91000
C  41.04900 45.20800 30.03700
C  41.90100 45.79200 31.08900
O  43.14000 46.01900 31.00800
O  41.18400 45.90800 32.26900
C  41.99700 46.31600 33.42700
H  43.52200 38.77500 30.30900
H  43.16500 38.50800 23.77000
H  41.53700 44.58300 23.62800
H  42.49600 42.99800 32.02200
H  42.06800 40.20000 31.80600
H  43.77400 40.72800 33.28700
H  44.45400 41.94800 32.31600
H  44.87200 40.29600 32.04700
H  40.12400 41.51700 31.13900
H  40.13500 43.19400 31.80500
H  41.24600 41.16500 33.72900
H  39.64100 40.87300 33.16500
H  45.76800 36.24400 28.39300
H  44.00800 35.83200 28.67900
H  44.74200 36.99500 29.65900
H  45.94200 35.15200 26.56700
H  44.88900 34.19200 25.43600
H  44.29300 34.68100 26.99800
H  41.96400 40.07800 22.09400
H  42.50600 42.89600 21.99900
H  44.42800 41.85300 22.16000
H  43.89300 40.82000 20.70500
H  44.66600 40.11500 22.11500
H  40.48100 41.34900 21.16300
H  40.32000 43.10400 21.53600
H  39.84900 41.53700 23.91400
H  38.82300 40.85700 22.61200
H  38.72600 42.62000 22.96600
H  41.52600 46.87100 24.53200
H  41.82000 47.65600 26.06000
H  40.14600 47.35400 25.64300
H  40.03000 45.06000 30.39400
H  42.37200 47.30700 33.17400
H  42.80400 45.65200 33.74000
H  41.24300 46.64900 34.13900

