158

Mg 8.56400 2.84900 26.62300
C  9.90600 1.36200 29.53500
C  6.71200 4.98800 28.70100
C  7.22800 4.07700 23.97300
C  10.12600 0.21200 24.70700
N  8.27100 3.09600 28.85600
C  9.04100 2.47700 29.86700
C  8.69900 3.08900 31.24000
C  7.55000 4.06700 30.95400
C  7.51400 4.12900 29.37400
C  6.26000 3.74800 31.67000
C  9.96200 3.61100 31.96000
C  9.81800 4.64000 33.11500
H  10.69000 4.19900 34.31900
N  7.24200 4.35800 26.37900
C  6.52800 5.10200 27.31800
C  5.68700 6.05900 26.63300
C  5.85200 5.84900 25.20000
C  6.82800 4.75200 25.15300
C  4.82400 7.09200 27.35900
C  5.17800 6.63000 24.03400
O  5.44700 6.40900 22.89600
C  4.27500 7.75800 24.30900
N  8.72500 2.23300 24.74000
C  8.01100 2.97000 23.77400
C  8.07200 2.32600 22.45300
C  9.06600 1.23600 22.69000
C  9.29100 1.15100 24.11300
C  6.63600 1.81600 22.06000
C  10.45300 1.30600 21.93000
C  10.87000 0.01600 21.15800
N  9.79400 1.14400 26.99000
C  10.39000 0.22800 26.10700
C  11.21900 -0.68100 26.88500
C  11.03000 -0.31900 28.25200
C  10.17000 0.77000 28.25700
C  12.09600 -1.85400 26.36200
C  11.36500 -0.61900 29.65800
O  12.01400 -1.50600 30.16300
C  10.63500 0.40100 30.49500
C  9.70400 -0.34500 31.34500
O  8.64400 -0.86100 30.97300
O  10.16300 -0.28100 32.68300
C  9.33300 -1.00200 33.65200
H  6.20200 5.74400 29.30100
H  6.75200 4.42200 23.05200
H  10.45900 -0.59300 24.04900
H  8.38800 2.21000 31.80500
H  7.83500 5.06100 31.29800
H  6.19200 2.67300 31.83500
H  5.40200 4.00300 31.04800
H  6.00100 4.34000 32.54800
H  10.62500 4.08400 31.23600
H  10.49400 2.72500 32.30700
H  8.76900 4.64500 33.41400
H  10.13800 5.62500 32.77700
H  4.95000 7.27300 28.42700
H  3.74900 6.97600 27.22200
H  4.98200 8.09500 26.96400
H  3.87800 8.04500 23.33600
H  4.73900 8.58400 24.84800
H  3.50500 7.39800 24.99100
H  8.40400 2.97800 21.64500
H  8.58500 0.27700 22.49800
H  6.53200 0.74500 21.88200
H  6.42800 2.37200 21.14600
H  5.85800 1.99500 22.80100
H  11.23900 1.58200 22.63300
H  10.30100 2.04600 21.14500
H  11.18900 0.23700 20.14000
H  10.01200 -0.62000 20.93800
H  11.66700 -0.48400 21.70900
H  11.55800 -2.44400 25.62000
H  12.52300 -2.47500 27.15000
H  13.04700 -1.52300 25.94300
H  11.32700 1.00300 31.08400
H  9.61800 -2.04900 33.55000
H  8.24900 -0.89200 33.65500
H  9.63800 -0.67800 34.64700
Mg 47.54700 34.83400 27.92100
C  45.47300 33.51300 30.40600
C  48.34300 37.41900 30.08500
C  49.21400 36.27600 25.46800
C  46.50100 32.24700 25.86900
N  47.00000 35.34000 30.00600
C  46.24200 34.66800 30.85400
C  46.57100 35.04400 32.26300
C  47.00700 36.59700 32.04700
C  47.48500 36.43000 30.62500
C  45.84800 37.71900 32.04900
C  47.76900 34.19400 32.84900
C  47.97000 34.33200 34.34100
H  47.13400 35.35700 35.11000
N  48.62100 36.60900 27.78200
C  48.86100 37.53900 28.75700
C  49.71500 38.57300 28.31400
C  50.05800 38.22200 26.92100
C  49.34200 36.98400 26.68100
C  50.12300 39.75800 29.10800
C  50.91100 38.97100 25.93500
O  51.05000 38.55300 24.76300
C  51.62300 40.28800 26.29500
N  47.75700 34.39800 25.89900
C  48.53500 35.11000 25.07600
C  48.48100 34.52000 23.63400
C  47.82300 33.13900 23.84600
C  47.37400 33.21700 25.30400
C  47.77900 35.42200 22.57300
C  48.58400 31.82000 23.52500
C  50.11400 31.80600 23.63500
N  46.24900 33.26000 28.04700
C  45.93600 32.25200 27.09800
C  44.97300 31.28100 27.69300
C  44.73000 31.73700 28.96800
C  45.48500 32.96100 29.08400
C  44.37600 30.00200 26.98000
C  43.97600 31.56400 30.18600
O  43.17300 30.73000 30.54700
C  44.38000 32.70100 31.08100
C  44.71400 32.21500 32.40600
O  45.65800 31.41700 32.59700
O  43.84300 32.73700 33.31500
C  44.03600 32.32100 34.75000
H  48.57600 38.15800 30.85400
H  49.76300 36.64700 24.60100
H  46.20600 31.42500 25.21300
H  45.74000 34.88100 32.95000
H  47.76800 36.94800 32.74400
H  44.92700 37.20700 32.32900
H  45.63800 38.25400 31.12300
H  46.06100 38.43700 32.84000
H  48.68000 34.53800 32.35900
H  47.67300 33.14200 32.57800
H  49.00700 34.56100 34.58700
H  47.71500 33.35800 34.75700
H  50.70100 39.34600 29.93500
H  49.29700 40.25600 29.61400
H  50.79000 40.43900 28.58000
H  52.35300 39.99500 27.04900
H  50.96200 41.09700 26.60500
H  52.13100 40.56700 25.37200
H  49.46400 34.30200 23.21700
H  46.88500 33.02800 23.30300
H  47.65200 36.41600 23.00300
H  46.76500 35.08900 22.35300
H  48.39300 35.63100 21.69700
H  48.55600 31.75300 22.43700
H  48.15000 30.91900 23.95900
H  50.49000 31.86900 22.61400
H  50.43100 30.82400 23.98700
H  50.47800 32.49000 24.40100
H  44.83400 30.05800 25.99200
H  43.29100 29.97900 27.07400
H  44.76900 29.14100 27.52100
H  43.41800 33.21000 31.02400
H  43.16900 31.82800 35.18800
H  44.24800 33.22500 35.32100
H  44.87400 31.62500 34.76800

