158

Mg 44.45200 4.07100 48.31600
C  41.94000 6.34800 47.42300
C  42.10800 1.61000 48.03000
C  46.90700 1.97900 48.40000
C  46.80700 6.79500 47.96500
N  42.28000 3.98500 47.61000
C  41.41100 5.06900 47.55200
C  39.99000 4.67700 47.19000
C  40.01600 3.10100 47.50300
C  41.57400 2.85500 47.68800
C  39.08600 2.69300 48.62100
C  39.60500 4.98600 45.72300
C  38.24700 5.60200 45.48500
H  37.79700 5.92300 44.01800
N  44.50300 2.03200 48.30200
C  43.49300 1.16200 48.25000
C  44.00100 -0.17900 48.38700
C  45.42400 -0.13600 48.55700
C  45.63300 1.38700 48.42100
C  43.05200 -1.35000 48.29400
C  46.30300 -1.37100 48.80300
O  45.83400 -2.52800 48.93900
C  47.84000 -1.23700 48.96200
N  46.63700 4.36900 48.20000
C  47.38600 3.29700 48.33900
C  48.88400 3.72600 48.44800
C  48.89400 5.26400 48.07800
C  47.39600 5.52600 48.14200
C  49.59600 3.39400 49.78100
C  49.52800 5.62600 46.72600
C  51.11700 5.61100 46.65500
N  44.42000 6.18800 47.98500
C  45.48700 7.06900 47.79000
C  44.89700 8.36700 47.47900
C  43.53300 8.10300 47.36800
C  43.21400 6.76900 47.57500
C  45.64200 9.70000 47.19700
C  42.28100 8.81300 47.12500
O  42.04700 10.02300 46.97500
C  41.18300 7.71000 47.28800
C  40.34900 8.10500 48.41400
O  40.41200 7.57100 49.48900
O  39.46700 9.19400 48.12200
C  38.67000 9.72800 49.21200
H  41.38800 0.79400 47.94600
H  47.76100 1.29900 48.38600
H  47.40800 7.70000 47.85400
H  39.25500 5.16600 47.83000
H  39.78500 2.50100 46.62300
H  39.66400 2.24900 49.43100
H  38.44100 1.98900 48.09600
H  38.47900 3.49100 49.04800
H  39.76600 4.17600 45.01100
H  40.24000 5.79600 45.36400
H  38.43700 6.59700 45.88500
H  37.52300 5.08600 46.11600
H  42.89500 -1.86300 49.24300
H  43.52500 -2.01100 47.56800
H  42.19100 -1.14400 47.65800
H  48.22400 -0.71300 48.08700
H  48.22900 -2.24300 48.81000
H  48.10500 -0.73100 49.89000
H  49.38400 3.16200 47.66200
H  49.54100 5.81900 48.75800
H  48.86900 2.91500 50.43600
H  50.17600 4.15900 50.29700
H  50.32400 2.60300 49.60000
H  49.13700 6.60400 46.44500
H  49.14400 4.97700 45.93900
H  51.39700 5.09600 45.73600
H  51.53200 5.16400 47.55800
H  51.37100 6.66600 46.54700
H  46.27500 9.66100 46.31000
H  46.19500 10.03200 48.07600
H  44.82700 10.39300 46.99100
H  40.50800 7.68400 46.43300
H  38.77900 9.21600 50.16800
H  37.61400 9.86500 48.98000
H  39.03400 10.74500 49.35100
Mg 36.10300 0.38300 30.41200
C  33.62500 1.55800 32.64200
C  38.43800 0.82700 32.77600
C  38.27200 -0.16400 28.07100
C  33.49300 0.71400 27.81400
N  36.04700 1.21000 32.41200
C  34.93000 1.39600 33.21200
C  35.24700 1.39200 34.73700
C  36.81800 1.67500 34.62800
C  37.15900 1.13800 33.22100
C  37.13600 3.20700 34.94500
C  34.89400 0.05400 35.48600
C  34.21200 0.15500 36.83500
H  34.22900 1.41100 37.81300
N  38.09500 0.29300 30.46300
C  38.89500 0.44700 31.48200
C  40.23100 0.08100 31.04000
C  40.23300 -0.29700 29.70000
C  38.83500 -0.09100 29.32400
C  41.34000 0.09900 32.06100
C  41.35000 -0.69500 28.84300
O  41.21100 -1.08300 27.70900
C  42.70500 -0.84200 29.45000
N  35.88100 0.60900 28.23400
C  36.98000 0.12500 27.58500
C  36.72900 0.07400 26.13400
C  35.19200 0.27000 25.96100
C  34.80400 0.52800 27.39100
C  37.57800 0.91000 25.21800
C  34.48200 -0.89200 25.20300
C  33.98400 -2.07000 26.03300
N  34.01300 0.96900 30.21700
C  33.11500 1.02500 29.13300
C  31.80500 1.24300 29.56700
C  32.00600 1.52200 30.93500
C  33.30600 1.30200 31.27400
C  30.48900 1.30700 28.78600
C  31.26300 1.95400 32.10900
O  30.08000 2.29600 32.16200
C  32.28800 1.85000 33.39200
C  32.30200 3.12800 34.21500
O  33.03600 4.09000 34.04900
O  31.34600 2.96600 35.23400
C  31.13000 4.14200 36.09600
H  39.14100 0.77700 33.61000
H  39.02400 -0.41700 27.32100
H  32.72600 0.64700 27.03900
H  34.74400 2.14600 35.34300
H  37.33200 1.04800 35.35700
H  37.02700 3.76600 34.01600
H  38.17800 3.27200 35.25800
H  36.49900 3.63500 35.71900
H  35.65700 -0.72400 35.46700
H  34.11000 -0.37600 34.86400
H  34.68500 -0.64200 37.40900
H  33.15000 -0.05900 36.71500
H  42.30300 0.38800 31.64000
H  41.55100 -0.87700 32.49800
H  41.08700 0.73600 32.90800
H  42.63600 -1.41100 30.37700
H  43.07500 0.17900 29.54000
H  43.35300 -1.46300 28.83200
H  37.19800 -0.88900 25.93000
H  35.01600 1.21900 25.45400
H  38.50000 1.22000 25.71000
H  37.03300 1.78800 24.87000
H  37.83200 0.33800 24.32600
H  35.18400 -1.27400 24.46200
H  33.69400 -0.37700 24.65300
H  34.31400 -1.94400 27.06400
H  34.44300 -2.96700 25.61800
H  32.92500 -2.30400 25.92100
H  30.48300 0.45500 28.10600
H  30.57500 2.22700 28.20800
H  29.60900 1.27100 29.42900
H  32.00300 0.99400 34.00400
H  31.33000 3.80400 37.11300
H  30.06200 4.35200 36.15200
H  31.76700 5.00700 35.91200

