158

Mg 35.82800 1.68600 29.08700
C  33.78000 2.46400 31.81600
C  38.56700 1.71200 31.19800
C  37.90800 1.26800 26.32900
C  33.13300 2.20600 26.88100
N  36.07900 1.95100 31.31900
C  35.11300 2.22200 32.23700
C  35.70300 2.30500 33.65700
C  37.24100 2.03700 33.43700
C  37.32500 1.87800 31.88100
C  38.22400 3.07500 33.94700
C  35.02500 1.22600 34.52000
C  34.23200 1.75800 35.72300
H  34.86600 3.04600 36.43100
N  37.84100 1.28400 28.79300
C  38.83400 1.41600 29.80700
C  40.10100 1.03600 29.25600
C  39.96100 0.81400 27.83600
C  38.50300 1.09700 27.58300
C  41.31100 0.97200 30.07900
C  40.90400 0.35700 26.83000
O  40.55700 0.03300 25.70100
C  42.40200 0.32000 27.14800
N  35.54700 1.74900 26.94800
C  36.58000 1.61500 26.05600
C  36.05200 1.98500 24.68900
C  34.45400 1.97300 24.73100
C  34.33200 2.06200 26.27500
C  36.61900 3.44900 24.32100
C  33.78900 0.87200 23.99700
C  32.35600 1.09500 23.44300
N  33.85300 2.14800 29.26100
C  32.86200 2.39500 28.30000
C  31.66900 2.79600 28.91200
C  31.98300 2.87500 30.26700
C  33.35600 2.42700 30.40800
C  30.38800 3.12400 28.29900
C  31.41900 3.15700 31.54700
O  30.21800 3.43700 31.77700
C  32.57100 2.93700 32.64200
C  32.64100 4.21500 33.37700
O  33.37200 5.11400 33.00700
O  31.77800 4.25800 34.40900
C  31.75300 5.45100 35.20200
H  39.42000 1.70800 31.88000
H  38.59600 1.27800 25.48100
H  32.28900 2.33500 26.20100
H  35.49800 3.32300 33.98900
H  37.49600 1.11800 33.96500
H  38.75600 3.53000 33.11100
H  38.84400 2.77900 34.79200
H  37.56500 3.88200 34.27000
H  35.79900 0.67500 35.05400
H  34.32800 0.58600 33.97800
H  34.16200 0.95300 36.45500
H  33.21400 1.94400 35.38100
H  41.67000 -0.02800 30.32300
H  41.23000 1.34500 31.10000
H  42.08000 1.56500 29.58400
H  42.77400 1.27500 27.52000
H  42.88300 0.10400 26.19500
H  42.52200 -0.50700 27.84800
H  36.31700 1.33200 23.85800
H  34.00300 2.91000 24.40500
H  35.81500 4.16800 24.48100
H  36.82800 3.46000 23.25200
H  37.47900 3.70000 24.94200
H  33.65900 0.01300 24.65600
H  34.38700 0.54200 23.14700
H  31.74300 0.49200 24.11400
H  32.27900 0.70300 22.42900
H  31.91200 2.09000 23.44300
H  30.08300 2.73800 27.32600
H  30.21900 4.20100 28.28700
H  29.60000 2.67100 28.90100
H  32.19400 2.30000 33.44200
H  31.41100 5.08700 36.17000
H  31.03500 6.14400 34.76200
H  32.72500 5.91600 35.36800
Mg -2.64700 34.95400 26.95000
C  -4.08700 32.94400 29.36700
C  -1.12900 36.83300 29.43800
C  -1.20900 36.89200 24.57900
C  -4.27900 33.16800 24.51500
N  -2.69300 34.86600 29.15400
C  -3.27400 33.93100 29.96100
C  -2.84600 34.21100 31.47200
C  -2.00200 35.47600 31.42200
C  -1.98100 35.78300 29.94700
C  -2.52500 36.65200 32.28800
C  -2.10200 32.91400 32.14400
C  -2.96000 32.25000 33.25900
H  -2.33600 32.10500 34.64300
N  -1.41600 36.70600 27.00200
C  -0.87400 37.31600 28.12000
C  0.01200 38.38700 27.71900
C  -0.07100 38.46400 26.30200
C  -0.93100 37.32800 25.88300
C  0.75700 39.20500 28.71400
C  0.47500 39.51400 25.32700
O  0.06500 39.54700 24.17300
C  1.36000 40.51900 25.81200
N  -2.81400 35.07900 24.90600
C  -2.10700 35.95200 24.13500
C  -2.40000 35.72500 22.62200
C  -3.45000 34.56400 22.67600
C  -3.53600 34.20900 24.09700
C  -2.94800 36.86100 21.76400
C  -3.30000 33.49600 21.64800
C  -2.17500 32.47100 21.97900
N  -3.87000 33.40300 26.92400
C  -4.53100 32.85600 25.86600
C  -5.30200 31.70900 26.33500
C  -5.16200 31.73200 27.70800
C  -4.28200 32.79100 28.01500
C  -6.00000 30.66100 25.52800
C  -5.51800 31.10100 28.97400
O  -6.21800 30.13600 29.24900
C  -4.91600 31.96300 30.12900
C  -5.96900 32.51800 31.01300
O  -6.78600 33.43100 30.80300
O  -5.94300 31.83600 32.22500
C  -6.72600 32.42300 33.28800
H  -0.78600 37.51800 30.21600
H  -0.65000 37.47000 23.84000
H  -4.91500 32.63900 23.80100
H  -3.81300 34.31200 31.96500
H  -1.00000 35.19700 31.74600
H  -2.87000 37.50100 31.69900
H  -1.73500 36.96600 32.97000
H  -3.41400 36.47800 32.89400
H  -1.20200 33.20100 32.68900
H  -2.05400 32.17800 31.34200
H  -3.12300 31.20200 33.00800
H  -3.88300 32.79400 33.45900
H  1.78700 39.43300 28.44300
H  0.79100 38.72200 29.69100
H  0.12300 40.09200 28.71600
H  0.80800 41.20500 26.45400
H  1.76600 41.21300 25.07700
H  2.14800 39.99400 26.35300
H  -1.45900 35.44200 22.15100
H  -4.42100 35.01000 22.46300
H  -2.35500 37.76400 21.61300
H  -3.90800 37.10900 22.21600
H  -3.21000 36.51000 20.76600
H  -3.25200 33.90800 20.64000
H  -4.19400 32.88100 21.54900
H  -2.57400 31.49400 21.70700
H  -1.97300 32.35500 23.04400
H  -1.23400 32.66000 21.46400
H  -5.75400 30.69500 24.46700
H  -7.05900 30.91500 25.47800
H  -5.83300 29.68600 25.98600
H  -4.23300 31.39300 30.75900
H  -7.76900 32.54700 32.99700
H  -6.31500 33.40400 33.52400
H  -6.71100 31.77700 34.16600

