158

Mg 36.46400 48.83300 24.41600
C  36.38400 47.00900 27.36100
C  35.44600 51.54500 26.32000
C  35.82400 50.37200 21.46300
C  37.76100 46.12400 22.72800
N  35.82300 49.19200 26.63500
C  36.02100 48.31300 27.65600
C  36.02100 48.96800 29.03200
C  35.51400 50.41300 28.64900
C  35.65600 50.39800 27.11700
C  34.10600 50.69900 29.14500
C  37.45900 49.07800 29.76300
C  37.50700 48.83900 31.31800
H  36.07700 48.78000 32.00400
N  35.80900 50.68000 23.97200
C  35.37200 51.62700 24.87000
C  35.01300 52.81900 24.05400
C  34.96600 52.48600 22.65700
C  35.51800 51.10300 22.65600
C  34.70500 54.16600 24.65800
C  34.71100 53.34600 21.36200
O  34.69100 52.89600 20.20200
C  34.36500 54.83200 21.49100
N  36.74100 48.35100 22.34100
C  36.41200 49.13700 21.26500
C  36.86200 48.48100 19.89900
C  37.72000 47.19800 20.35600
C  37.42900 47.20600 21.90100
C  35.63500 48.16000 18.99100
C  39.31200 47.54000 20.20800
C  40.25800 46.39700 19.77600
N  36.90600 46.93300 24.88200
C  37.40800 45.86800 24.04900
C  37.51100 44.71300 24.82500
C  37.14800 45.08100 26.15300
C  36.80800 46.45700 26.12200
C  38.19700 43.34700 24.37300
C  37.03100 44.61300 27.50200
O  37.24500 43.51500 28.03600
C  36.58300 45.95200 28.33800
C  35.34200 45.61700 29.03700
O  34.19900 45.76200 28.57000
O  35.55700 45.07800 30.27200
C  34.34300 44.76600 31.06300
H  35.25900 52.40300 26.96900
H  35.54000 50.75500 20.48100
H  38.20800 45.25800 22.23500
H  35.39900 48.22000 29.52500
H  36.22200 51.14100 29.04400
H  33.83500 49.89600 29.83100
H  33.28900 50.68400 28.42300
H  34.02200 51.69300 29.58400
H  37.91200 50.05400 29.58800
H  38.11400 48.38200 29.24000
H  38.07300 49.65300 31.77100
H  38.03900 47.90000 31.47100
H  33.79700 54.56800 24.20800
H  35.58500 54.79100 24.50900
H  34.46100 54.08000 25.71700
H  33.38300 54.84100 21.96300
H  34.29300 55.28700 20.50300
H  35.07200 55.41600 22.08200
H  37.41700 49.20300 19.30000
H  37.46500 46.27300 19.83900
H  35.94800 47.29200 18.41000
H  35.49900 48.95400 18.25700
H  34.70000 48.06200 19.54200
H  39.70000 47.81200 21.18900
H  39.47500 48.36900 19.51900
H  39.63800 45.53300 19.53500
H  40.89800 46.02600 20.57600
H  40.88000 46.64100 18.91600
H  38.98900 43.07300 25.07100
H  38.60500 43.58500 23.39100
H  37.58600 42.44400 24.36800
H  37.42700 46.21400 28.97500
H  34.53100 43.78000 31.48800
H  33.43100 44.61600 30.48500
H  34.14100 45.50600 31.83700
Mg -5.33000 25.20100 25.60700
C  -3.69400 26.68400 28.27100
C  -6.95900 23.07100 27.96200
C  -6.70800 23.52800 22.99200
C  -3.39700 27.12400 23.38100
N  -5.20900 24.82400 27.93300
C  -4.59100 25.66100 28.80900
C  -5.10900 25.48200 30.24200
C  -5.89500 24.12400 30.13500
C  -6.03600 23.96900 28.57200
C  -5.05900 22.98300 30.73600
C  -5.78100 26.68200 30.96300
C  -6.09500 26.45700 32.50900
H  -5.47600 25.30300 33.31500
N  -6.58800 23.49300 25.51900
C  -7.17100 22.85900 26.62200
C  -8.19200 21.95700 26.08100
C  -8.21200 22.17200 24.66300
C  -7.04800 23.02300 24.31900
C  -9.11100 21.22400 27.03400
C  -9.29000 21.67700 23.69900
O  -9.12600 21.72900 22.49700
C  -10.56800 21.09200 24.25100
N  -5.01000 25.20600 23.46000
C  -5.79700 24.50600 22.58800
C  -5.34500 24.74700 21.14100
C  -4.46400 26.01000 21.29800
C  -4.27500 26.10900 22.80900
C  -4.59200 23.52500 20.55800
C  -5.00000 27.33500 20.67600
C  -4.10400 28.19500 19.73400
N  -3.91600 26.61700 25.76300
C  -3.27500 27.36200 24.79900
C  -2.43700 28.34200 25.40800
C  -2.54700 28.04300 26.79100
C  -3.46700 27.02200 26.96100
C  -1.55600 29.32100 24.71300
C  -2.00400 28.48500 28.07900
O  -1.11000 29.34100 28.29500
C  -2.76900 27.60500 29.08900
C  -1.85100 27.02000 30.09600
O  -0.76200 26.47300 29.82100
O  -2.17600 27.44300 31.35300
C  -1.44300 26.87900 32.45300
H  -7.44800 22.51200 28.76200
H  -7.15800 23.09600 22.09600
H  -3.02500 27.80800 22.61600
H  -4.23500 25.46200 30.89400
H  -6.85900 24.18200 30.64100
H  -4.29900 23.34600 31.42800
H  -4.49000 22.46100 29.96700
H  -5.68600 22.22500 31.20500
H  -6.73800 26.73600 30.44400
H  -5.17500 27.56700 30.77100
H  -7.15800 26.41500 32.74500
H  -5.62700 27.30300 33.01100
H  -8.40500 20.81800 27.75800
H  -9.45100 20.32800 26.51400
H  -9.98300 21.80500 27.33500
H  -10.95200 21.69500 25.07400
H  -10.48600 20.05000 24.56000
H  -11.27700 21.02300 23.42600
H  -6.19900 24.88800 20.47800
H  -3.52800 25.70600 20.83100
H  -3.58200 23.83300 20.29000
H  -5.05500 23.11300 19.66100
H  -4.39300 22.87200 21.40800
H  -5.16700 27.96700 21.54800
H  -5.90800 26.98200 20.18700
H  -4.63000 28.38600 18.79800
H  -3.22200 27.56600 19.61400
H  -3.80200 29.15900 20.14300
H  -2.09300 30.24600 24.50500
H  -1.25300 28.73200 23.84700
H  -0.63600 29.53300 25.25800
H  -3.27400 28.45900 29.54000
H  -0.37200 27.08500 32.45100
H  -1.72100 25.82700 32.51200
H  -1.75700 27.13000 33.46600

