158

Mg 48.32500 35.38300 27.16400
C  46.34900 33.73200 29.72100
C  48.70800 37.86800 29.60300
C  49.98600 37.07200 24.82700
C  47.75000 32.74200 25.03700
N  47.61800 35.71400 29.42300
C  46.97100 34.85600 30.22600
C  47.04200 35.36100 31.69900
C  47.35100 36.83400 31.55900
C  47.99100 36.82200 30.13400
C  46.27700 37.88300 31.70900
C  48.21700 34.60700 32.47300
C  48.14200 34.61000 33.96900
H  47.22000 35.61900 34.73900
N  49.32200 37.17900 27.18400
C  49.36600 38.04000 28.34100
C  50.26400 39.19400 27.98400
C  50.60200 39.01800 26.58600
C  49.92800 37.75200 26.10500
C  50.57000 40.28900 28.96400
C  51.48700 39.83200 25.62400
O  51.72500 39.67200 24.44100
C  52.07600 41.13600 26.24000
N  48.70100 35.01900 25.22700
C  49.47900 35.85700 24.47100
C  49.74100 35.23600 23.06700
C  49.15100 33.82700 23.13000
C  48.48800 33.84200 24.57900
C  49.30300 36.15300 21.92100
C  50.19900 32.57500 22.91200
C  50.05200 31.93600 21.54200
N  47.31400 33.59500 27.33000
C  47.23400 32.59500 26.36100
C  46.45000 31.51200 26.89100
C  46.02600 31.89700 28.24300
C  46.58300 33.20700 28.45700
C  46.22700 30.18400 26.20400
C  45.22900 31.58400 29.39000
O  44.56600 30.55400 29.70300
C  45.34400 32.81000 30.37000
C  45.53700 32.48900 31.78700
O  46.53200 32.00000 32.26500
O  44.36500 32.66500 32.52100
C  44.40900 32.01600 33.83100
H  48.76000 38.74500 30.25200
H  50.48800 37.56800 23.99400
H  47.56600 31.87300 24.40200
H  46.12800 35.09200 32.22800
H  48.07100 37.25500 32.26100
H  45.33500 37.37800 31.92400
H  46.07800 38.54700 30.86700
H  46.42300 38.50800 32.59100
H  49.18600 35.06800 32.28100
H  48.37000 33.58700 32.12000
H  49.15900 34.65800 34.35600
H  47.75100 33.61300 34.17200
H  51.62700 40.54900 28.90900
H  50.28500 39.95000 29.96000
H  50.08400 41.25800 28.84800
H  52.52200 41.85000 25.54900
H  52.91100 40.80400 26.85700
H  51.26800 41.75400 26.63300
H  50.81400 35.16500 22.89000
H  48.29400 33.79400 22.45700
H  48.65300 35.68700 21.18000
H  50.14600 36.39400 21.27300
H  48.83300 37.02900 22.36800
H  50.01100 31.88600 23.73500
H  51.18700 33.02800 22.99300
H  49.80500 32.73200 20.84000
H  49.22200 31.23000 21.53500
H  50.91000 31.36300 21.18900
H  47.17200 29.82100 25.80100
H  45.56700 30.47200 25.38600
H  45.66300 29.42300 26.74500
H  44.38500 33.32900 30.36900
H  44.99900 31.10800 33.95400
H  43.45400 31.58200 34.12900
H  44.86300 32.73700 34.51000
Mg -11.90300 16.36800 42.37600
C  -8.85400 14.81800 41.59700
C  -10.66200 19.17200 40.61700
C  -15.04700 17.71500 42.17500
C  -13.17800 13.34200 43.24600
N  -10.02600 16.85800 41.21200
C  -8.94500 16.07700 41.08900
C  -7.84500 16.73100 40.22900
C  -8.36900 18.18700 40.09800
C  -9.79700 18.09700 40.71100
C  -7.57500 19.35800 40.81400
C  -7.61300 16.02200 38.86600
C  -6.30800 15.28400 38.68600
H  -5.38400 15.76900 37.55600
N  -12.70400 18.29000 41.82800
C  -12.02100 19.26700 41.02000
C  -12.90700 20.38700 40.89900
C  -14.16800 20.05600 41.55600
C  -14.03600 18.64100 41.84800
C  -12.37600 21.66700 40.36000
C  -15.31900 21.02500 41.58900
O  -15.25900 22.06500 40.97500
C  -16.50300 20.75800 42.31500
N  -13.88900 15.61300 42.49400
C  -14.99700 16.34800 42.43200
C  -16.26200 15.45900 42.63700
C  -15.63900 14.20700 43.32700
C  -14.17300 14.33700 42.94400
C  -17.42800 16.06000 43.48100
C  -16.30300 12.94300 42.89300
C  -16.62700 11.94300 44.08000
N  -11.17600 14.53000 42.63100
C  -11.78300 13.39500 42.95700
C  -10.81800 12.27200 43.05200
C  -9.68300 12.84300 42.53600
C  -9.92100 14.16800 42.29000
C  -11.17700 10.90600 43.50800
C  -8.37300 12.55900 42.16900
O  -7.76500 11.52700 42.20600
C  -7.68800 13.81800 41.60500
C  -6.54800 14.32400 42.51700
O  -6.62300 14.88200 43.63100
O  -5.34600 13.95900 42.01600
C  -4.16300 14.23700 42.80500
H  -10.30400 20.04100 40.06000
H  -16.00300 18.24100 42.13800
H  -13.66900 12.45200 43.64600
H  -6.92700 16.91100 40.78900
H  -8.52000 18.45900 39.05300
H  -7.78300 20.26300 40.24400
H  -6.51800 19.18300 40.61000
H  -7.71700 19.41500 41.89300
H  -7.69200 16.74000 38.04900
H  -8.45500 15.34900 38.70300
H  -6.49900 14.25100 38.39400
H  -5.81900 15.36300 39.65600
H  -13.14700 22.39000 40.09300
H  -11.92700 21.60300 39.36900
H  -11.64400 22.20600 40.96200
H  -17.10300 21.66600 42.38600
H  -16.27800 20.29500 43.27600
H  -16.98300 20.05500 41.63500
H  -16.57200 15.19800 41.62500
H  -15.66300 14.33400 44.40900
H  -16.98900 16.95400 43.92300
H  -17.80300 15.42400 44.28300
H  -18.22300 16.47400 42.86000
H  -15.85100 12.51700 41.99700
H  -17.26800 13.21500 42.46600
H  -16.45400 12.35800 45.07300
H  -15.83300 11.19700 44.08600
H  -17.62100 11.49500 44.10200
H  -10.31500 10.34700 43.87200
H  -11.80000 10.29700 42.85300
H  -11.74300 11.16400 44.40300
H  -7.29200 13.61800 40.60900
H  -4.14100 15.24100 43.22900
H  -3.33900 14.12100 42.10200
H  -4.08200 13.54900 43.64700

