158

Mg 25.82000 0.89300 29.44000
C  27.69000 0.39800 32.35800
C  23.16200 1.45300 31.40300
C  24.08700 1.06100 26.63100
C  28.66900 -0.07300 27.62800
N  25.38800 0.70100 31.68800
C  26.35700 0.53700 32.68200
C  25.73500 0.79700 34.07300
C  24.27700 1.14800 33.67000
C  24.28300 1.14100 32.18000
C  23.18300 0.22100 34.30800
C  26.49600 1.91600 34.92200
C  27.04200 1.62700 36.34100
H  26.92500 2.70600 37.47800
N  23.93700 1.22300 29.07500
C  22.92500 1.45000 30.03000
C  21.62000 1.64800 29.35400
C  21.95800 1.67400 27.96700
C  23.38200 1.27900 27.83900
C  20.32000 1.74700 30.18700
C  21.02900 1.77700 26.78900
O  21.34600 1.56000 25.60900
C  19.62900 2.24500 27.02500
N  26.32400 0.44300 27.40300
C  25.41500 0.63000 26.39300
C  26.05200 0.59700 25.03900
C  27.56300 0.31600 25.43300
C  27.54600 0.25700 26.88000
C  25.63700 -0.42700 23.94800
C  28.60100 1.30500 24.89800
C  29.76100 0.61600 24.03900
N  27.73900 0.26600 29.85500
C  28.82300 -0.01100 29.02100
C  30.05900 -0.18100 29.80900
C  29.58800 0.01600 31.13100
C  28.21600 0.20700 31.13400
C  31.26800 -0.67400 29.29600
C  30.07400 -0.08800 32.44400
O  31.23600 -0.37700 32.83600
C  28.86500 0.16900 33.29200
C  28.62100 -1.09200 34.00200
O  27.93000 -1.99600 33.60500
O  29.23100 -0.97100 35.20400
C  28.70400 -1.71900 36.36000
H  22.29400 1.78300 31.97800
H  23.56400 0.99000 25.67600
H  29.53900 -0.36000 27.03400
H  25.77700 -0.19500 34.52300
H  23.93400 2.13400 33.98500
H  22.81400 0.67700 35.22700
H  23.68600 -0.71600 34.54800
H  22.29500 -0.05900 33.74100
H  25.77800 2.73500 34.98000
H  27.19600 2.33000 34.19600
H  28.12300 1.49600 36.28700
H  26.67600 0.64500 36.63800
H  20.36700 1.20600 31.13200
H  19.65600 1.15200 29.56100
H  19.99100 2.75400 30.44500
H  19.12200 1.48500 27.61900
H  19.17600 2.46900 26.05900
H  19.63400 3.21500 27.52400
H  25.96200 1.60600 24.63800
H  27.94600 -0.68500 25.23500
H  24.64600 -0.77400 24.24000
H  26.43300 -1.17100 23.93100
H  25.53000 -0.10200 22.91300
H  29.16000 1.71800 25.73700
H  28.15500 2.14400 24.36300
H  29.42400 0.86800 23.03300
H  29.88800 -0.45000 24.22800
H  30.71500 1.11700 24.20400
H  31.43200 -1.67000 28.88400
H  31.96100 -0.61300 30.13500
H  31.68200 -0.00500 28.54100
H  29.06300 0.98300 33.99000
H  27.77900 -1.25600 36.70500
H  29.43800 -1.83100 37.15800
H  28.56700 -2.77400 36.12200
Mg 46.09100 4.54500 47.86200
C  43.78800 7.34900 47.46600
C  43.37100 2.51600 46.81600
C  48.26000 2.01800 47.38000
C  48.60900 6.82400 48.17700
N  43.83700 4.91300 47.27300
C  43.19900 6.09500 47.16200
C  41.70800 5.94300 46.77900
C  41.59700 4.35100 46.61400
C  42.97100 3.86700 46.94500
C  40.49000 3.74200 47.47500
C  41.26700 6.79600 45.52700
C  42.25500 6.92200 44.31200
H  41.55800 6.94100 42.94800
N  45.83300 2.52600 47.38000
C  44.62200 1.90600 47.03100
C  44.94600 0.51600 46.75100
C  46.32600 0.31200 47.02200
C  46.88300 1.61700 47.34000
C  43.94700 -0.51400 46.21400
C  47.01200 -0.98000 46.75000
O  46.42900 -1.98000 46.43800
C  48.51400 -1.01300 46.70900
N  48.11300 4.35900 47.80300
C  48.83000 3.22500 47.76000
C  50.32200 3.50600 47.80400
C  50.38300 5.03500 47.99000
C  48.95300 5.48200 48.01600
C  50.95900 2.60700 48.96200
C  51.03900 5.86500 46.83500
C  52.09800 6.82100 47.37300
N  46.22100 6.62600 47.82300
C  47.32500 7.40000 48.01000
C  46.96400 8.80500 48.00800
C  45.58900 8.86000 47.81600
C  45.20000 7.47400 47.71800
C  47.90900 9.86200 48.28300
C  44.49700 9.73500 47.74500
O  44.38400 10.98000 47.76000
C  43.27500 8.76400 47.48900
C  42.26300 9.05800 48.47900
O  42.08200 8.22900 49.41100
O  41.54800 10.19000 48.25900
C  40.52100 10.46500 49.26000
H  42.59300 1.85400 46.43200
H  49.02500 1.26100 47.19400
H  49.40300 7.57300 48.17800
H  41.12300 6.43200 47.55800
H  41.49600 4.12100 45.55400
H  39.70200 4.46000 47.70100
H  40.89000 3.22700 48.34800
H  40.06100 2.96900 46.83700
H  40.84300 7.75600 45.82100
H  40.32900 6.38500 45.15300
H  42.94700 6.08200 44.36700
H  42.88100 7.81100 44.22400
H  44.16700 -0.72600 45.16800
H  42.90700 -0.18900 46.23200
H  44.03000 -1.44600 46.77300
H  48.92400 -0.79900 47.69600
H  48.95400 -0.27900 46.03500
H  48.97700 -1.94700 46.39000
H  50.79800 3.26100 46.85400
H  50.79800 5.36500 48.94200
H  51.58200 3.30800 49.51800
H  51.76700 2.05500 48.48200
H  50.34300 1.94700 49.57400
H  50.35500 6.40900 46.18400
H  51.65600 5.12000 46.33200
H  53.09900 6.66500 46.97100
H  52.23400 6.90100 48.45100
H  51.92300 7.84600 47.04600
H  48.36800 9.74700 49.26500
H  47.50700 10.86000 48.11100
H  48.72500 9.94100 47.56600
H  42.85200 9.05000 46.52600
H  40.47500 11.53500 49.45800
H  40.65600 10.02800 50.25000
H  39.54800 10.11900 48.91100

