158

Mg 17.45300 -2.91200 28.11000
C  16.47700 -0.83000 30.73800
C  19.56500 -4.56300 30.12800
C  18.87600 -4.23400 25.33500
C  15.60500 -0.74600 25.88600
N  17.98400 -2.62000 30.19000
C  17.38200 -1.79100 31.13400
C  17.95700 -2.00700 32.49900
C  19.06500 -3.06600 32.17400
C  18.90300 -3.44300 30.72800
C  20.55700 -2.60400 32.47800
C  16.86700 -2.46600 33.59000
C  17.03500 -2.08300 35.03400
H  18.46000 -1.67800 35.51800
N  18.93100 -4.35300 27.82800
C  19.65900 -4.96600 28.73800
C  20.40800 -6.06600 28.17300
C  20.23900 -5.96400 26.71200
C  19.31700 -4.78900 26.55300
C  21.24500 -7.11400 28.96100
C  20.83200 -6.69200 25.54500
O  20.65600 -6.40200 24.34900
C  21.57100 -7.91500 25.88000
N  17.18600 -2.60200 26.01000
C  17.90100 -3.27200 25.12500
C  17.51800 -2.87600 23.64400
C  16.31900 -1.92200 23.86600
C  16.29500 -1.80900 25.34800
C  18.63300 -2.31600 22.74400
C  14.86900 -2.24100 23.30900
C  13.97800 -1.04100 22.72100
N  16.18200 -1.23700 28.26900
C  15.57300 -0.46700 27.29800
C  14.89900 0.72200 27.91700
C  15.24900 0.64700 29.26800
C  15.98900 -0.56900 29.45200
C  14.34600 1.93400 27.18300
C  15.14600 1.27000 30.60400
O  14.40700 2.18200 30.92000
C  15.80600 0.31100 31.59900
C  16.63500 1.17000 32.47200
O  17.68500 1.67300 32.23100
O  15.98100 1.31600 33.70100
C  16.52800 2.36500 34.58300
H  20.25800 -5.15500 30.73000
H  19.27500 -4.60000 24.38700
H  15.00100 -0.15000 25.19900
H  18.41700 -1.07500 32.82600
H  18.98100 -3.92400 32.84200
H  20.96600 -3.18700 33.30300
H  20.59400 -1.58100 32.85200
H  21.16000 -2.72100 31.57700
H  16.84200 -3.54900 33.47200
H  15.86000 -2.18100 33.28600
H  16.80700 -2.95300 35.65000
H  16.35500 -1.26900 35.28500
H  21.39200 -6.71800 29.96600
H  22.15000 -7.40600 28.42700
H  20.59600 -7.98800 29.01100
H  22.63400 -7.78100 26.08000
H  21.46800 -8.56500 25.01100
H  21.05300 -8.46900 26.66200
H  16.98200 -3.72600 23.22200
H  16.61800 -0.90400 23.61800
H  18.30900 -1.44200 22.17900
H  18.87000 -3.02000 21.94600
H  19.56700 -2.08000 23.25400
H  14.31200 -2.66800 24.14300
H  15.05600 -3.00300 22.55200
H  13.09400 -0.76200 23.29300
H  13.84000 -1.30200 21.67100
H  14.51300 -0.09200 22.73800
H  13.94200 1.61200 26.22300
H  15.16700 2.64900 27.14500
H  13.47600 2.28100 27.74100
H  15.00600 -0.15400 32.17500
H  16.23500 2.15700 35.61300
H  16.15700 3.35200 34.30800
H  17.61400 2.31000 34.65300
Mg 0.16500 43.17500 25.81200
C  2.65300 43.01300 28.23600
C  -2.02300 42.12900 27.99500
C  -2.05500 42.97900 23.25100
C  2.68900 43.38200 23.41100
N  0.34600 42.72500 27.88500
C  1.37400 42.90400 28.72200
C  1.00900 42.88200 30.14400
C  -0.41100 42.19300 30.08400
C  -0.74600 42.31300 28.60100
C  -0.46200 40.67700 30.46900
C  0.96500 44.28500 30.84500
C  0.91900 44.26900 32.42200
H  0.83400 42.91500 33.06200
N  -1.78000 42.69400 25.67500
C  -2.50600 42.28900 26.68400
C  -3.89300 41.98600 26.24300
C  -3.99400 42.36400 24.88200
C  -2.54900 42.67800 24.53200
C  -4.98600 41.48700 27.13200
C  -5.14000 42.25600 23.91000
O  -5.01600 42.48500 22.67500
C  -6.60200 41.86000 24.35800
N  0.35000 43.32100 23.60900
C  -0.74600 43.14900 22.79900
C  -0.44300 43.61400 21.37000
C  1.08300 43.67200 21.37900
C  1.44500 43.54500 22.87100
C  -1.06700 42.69400 20.25500
C  1.56500 45.02000 20.75000
C  1.60200 46.20100 21.72100
N  2.29400 43.14600 25.81900
C  3.14600 43.26600 24.77400
C  4.50400 43.21300 25.24900
C  4.41200 43.03900 26.64900
C  3.04400 43.06600 26.89500
C  5.76300 43.22200 24.38200
C  5.16600 42.87200 27.90700
O  6.36400 42.75900 28.17200
C  3.99300 42.88700 28.97400
C  4.08300 41.60400 29.74700
O  3.48800 40.55700 29.64000
O  5.05900 41.97900 30.67000
C  5.00300 41.12100 31.78600
H  -2.80500 41.73800 28.64900
H  -2.76700 43.06000 22.42700
H  3.46800 43.52400 22.65900
H  1.77000 42.20300 30.52900
H  -1.08900 42.80100 30.68200
H  0.38300 40.33800 31.06700
H  -0.53300 40.02000 29.60300
H  -1.40200 40.50000 30.99200
H  0.10600 44.79000 30.40300
H  1.83400 44.84400 30.49600
H  0.12900 44.88800 32.84900
H  1.87600 44.73700 32.65100
H  -5.76100 42.22600 27.33700
H  -4.65000 40.94800 28.01800
H  -5.56500 40.79000 26.52600
H  -6.94400 42.48900 25.18000
H  -6.47700 40.80700 24.61300
H  -7.28700 41.91500 23.51300
H  -0.86300 44.60900 21.22600
H  1.40500 42.71800 20.96100
H  -1.46000 41.73500 20.59400
H  -0.17200 42.40000 19.70500
H  -1.80400 43.13800 19.58600
H  0.93200 45.38000 19.93900
H  2.60700 44.96700 20.43300
H  2.65600 46.32200 21.97100
H  1.03000 45.94000 22.61100
H  1.15800 47.06200 21.22000
H  5.48300 43.30000 23.33100
H  6.31900 42.30800 24.59000
H  6.40200 44.05300 24.67900
H  4.27800 43.75600 29.56700
H  5.15900 40.08800 31.47500
H  3.97400 41.15300 32.14300
H  5.47800 41.48900 32.69600

