158

Mg 55.61300 23.86000 45.23300
C  53.31400 26.28500 44.37800
C  53.32300 21.41000 44.37300
C  58.08100 21.52600 45.40400
C  58.04000 26.27000 45.82500
N  53.58700 23.90900 44.49500
C  52.80900 24.98000 44.19700
C  51.43500 24.53300 43.75200
C  51.43100 23.04000 44.14000
C  52.87700 22.73800 44.43000
C  50.61600 22.56800 45.34500
C  51.21800 24.82500 42.25400
C  49.81000 25.11300 41.74500
H  49.18800 24.33100 40.63400
N  55.66100 21.75400 44.91500
C  54.61400 20.95300 44.60600
C  55.05700 19.60200 44.52000
C  56.37600 19.53200 44.97400
C  56.79400 21.01100 45.11900
C  54.10800 18.46200 44.20800
C  57.22600 18.31400 45.03100
O  56.77000 17.15900 44.96200
C  58.69200 18.38700 44.91400
N  57.79100 23.88900 45.44100
C  58.57000 22.82200 45.59500
C  59.90500 23.21900 46.31000
C  59.99500 24.74700 46.09800
C  58.52100 25.02500 45.80900
C  59.83800 22.73300 47.75800
C  60.96000 25.09200 44.91300
C  62.45500 25.46000 45.31400
N  55.67000 25.90000 45.23100
C  56.66800 26.75000 45.58100
C  56.10900 28.12700 45.60000
C  54.75100 27.94900 45.15700
C  54.60900 26.63700 44.89600
C  56.74700 29.33800 46.09100
C  53.49600 28.66400 44.92400
O  53.18700 29.85600 44.97700
C  52.59500 27.60100 44.17400
C  52.48400 28.02900 42.72700
O  53.36300 28.18400 41.90500
O  51.14600 28.33200 42.49800
C  50.75100 28.87400 41.17200
H  52.63800 20.67800 43.94000
H  58.83400 20.86600 45.84100
H  58.76000 27.05100 46.07900
H  50.67400 25.07100 44.31800
H  51.14400 22.54200 43.21400
H  49.89900 23.36100 45.55900
H  51.24800 22.30100 46.19200
H  50.13900 21.66800 44.95800
H  51.59600 23.96400 41.70200
H  51.85200 25.66300 41.96700
H  49.89800 26.13700 41.38100
H  49.13000 25.17000 42.59500
H  54.66000 17.58700 43.86300
H  53.41300 18.92400 43.50800
H  53.36600 18.26400 44.98100
H  59.08200 17.44100 44.53900
H  59.13400 18.80100 45.82100
H  58.77000 19.12400 44.11500
H  60.71700 22.63900 45.87100
H  60.34700 25.27600 46.98400
H  60.40500 21.82700 47.97000
H  58.79700 22.49300 47.97800
H  60.16400 23.53500 48.42100
H  60.61900 25.99000 44.39600
H  60.95900 24.33300 44.13100
H  62.52500 25.43900 46.40200
H  62.75500 26.42300 44.90200
H  63.09800 24.66200 44.94200
H  57.63800 29.65800 45.55000
H  56.88200 29.13800 47.15400
H  56.07200 30.19400 46.09000
H  51.62400 27.60300 44.66900
H  50.75000 28.08100 40.42400
H  51.44100 29.62200 40.78100
H  49.76400 29.33700 41.15300
Mg 16.36700 50.81200 26.34200
C  18.24200 49.09800 28.74500
C  14.31700 51.99300 28.70800
C  14.56900 52.17100 23.86400
C  18.59900 49.43700 23.95600
N  16.17500 50.38100 28.53100
C  17.12200 49.82300 29.35500
C  16.83200 50.11400 30.79000
C  15.47700 50.74100 30.76200
C  15.33700 51.16800 29.24800
C  14.24900 49.85000 31.12800
C  17.96100 51.08200 31.29900
C  17.86800 51.59000 32.74500
H  16.89900 50.82200 33.64600
N  14.59000 51.78800 26.32800
C  14.00400 52.42900 27.40000
C  12.92000 53.28000 27.00600
C  12.94400 53.25000 25.53400
C  14.00600 52.22500 25.15300
C  12.00700 54.18500 27.99000
C  12.04200 54.09400 24.58200
O  12.25100 54.08100 23.37000
C  11.00500 55.00900 25.18500
N  16.52400 50.70800 24.24900
C  15.73800 51.45000 23.42400
C  16.22600 51.57700 21.96200
C  17.64400 50.85300 22.05200
C  17.59800 50.29800 23.47700
C  15.25700 50.85300 20.99600
C  18.79200 51.78100 21.78200
C  19.93000 51.29000 20.86100
N  18.03300 49.31900 26.24000
C  18.86100 48.91200 25.25000
C  19.91500 48.13300 25.79000
C  19.72400 48.17700 27.15800
C  18.52600 48.84400 27.41000
C  21.18000 47.64200 25.13900
C  20.27200 47.76000 28.40800
O  21.28100 47.06200 28.69600
C  19.36100 48.36800 29.52100
C  19.01800 47.34800 30.50000
O  18.49000 46.28900 30.25800
O  19.12000 47.77600 31.81200
C  18.84900 46.73500 32.74800
H  13.62400 52.44100 29.42200
H  14.03000 52.66500 23.05300
H  19.29600 49.17200 23.15800
H  16.88800 49.19200 31.36800
H  15.36600 51.69500 31.27700
H  13.64600 49.44200 30.31600
H  13.64600 50.43600 31.82100
H  14.59200 49.02800 31.75600
H  18.03800 51.92500 30.61200
H  18.92800 50.57900 31.27800
H  17.61000 52.64800 32.71500
H  18.84800 51.51100 33.21600
H  12.05400 53.71000 28.97000
H  10.96000 54.10900 27.69600
H  12.39600 55.20200 28.04300
H  10.24400 54.55100 25.81700
H  10.55700 55.67600 24.44900
H  11.53200 55.79200 25.72900
H  16.25500 52.63100 21.68600
H  17.68600 49.97900 21.40200
H  14.57700 50.13500 21.45300
H  15.86400 50.37200 20.22800
H  14.66900 51.52200 20.36700
H  19.30400 52.07100 22.70000
H  18.50700 52.72000 21.30800
H  19.73700 50.26500 20.54300
H  20.87000 51.33400 21.41000
H  20.09600 51.90900 19.97900
H  21.61300 46.64200 25.16200
H  21.89100 48.32700 25.60100
H  21.30100 47.86000 24.07800
H  20.03400 49.10600 29.95900
H  18.03600 46.05500 32.49400
H  18.61100 47.31800 33.63700
H  19.72400 46.10500 32.90400

