158

Mg -2.13800 18.18900 27.39400
C  -2.58100 15.81900 30.09400
C  -2.99400 20.63300 29.63800
C  -2.06600 20.16400 24.83100
C  -2.22100 15.46100 25.17900
N  -2.68600 18.24600 29.66600
C  -2.73200 17.20000 30.57700
C  -2.98600 17.64800 32.06900
C  -3.32200 19.15500 31.79800
C  -2.98600 19.40800 30.27400
C  -4.78300 19.53100 32.22800
C  -1.75200 17.37400 32.94500
C  -1.56200 18.28100 34.18800
H  -1.12700 17.65300 35.51900
N  -2.39100 20.08700 27.29900
C  -2.66600 21.01700 28.34400
C  -2.71600 22.39100 27.80300
C  -2.41500 22.20600 26.39100
C  -2.28700 20.81200 26.11600
C  -2.91900 23.62800 28.64400
C  -2.26200 23.30400 25.38400
O  -1.91900 23.09800 24.20300
C  -2.35000 24.69700 25.88200
N  -2.36700 17.91700 25.24000
C  -2.00500 18.90900 24.39400
C  -1.95700 18.38700 22.84900
C  -1.62900 16.85900 23.19200
C  -2.10100 16.72600 24.59800
C  -3.30100 18.55100 22.07400
C  -0.10600 16.43300 23.01700
C  0.96400 16.89100 24.12600
N  -2.27300 16.07400 27.52500
C  -2.32000 15.15500 26.56400
C  -2.43600 13.86000 27.17000
C  -2.36000 14.10100 28.58000
C  -2.40900 15.44000 28.70500
C  -2.64300 12.58600 26.46400
C  -2.45800 13.38800 29.86200
O  -2.36200 12.23500 30.16800
C  -2.64800 14.48300 30.90100
C  -1.52600 14.29300 31.82600
O  -0.35800 14.64700 31.60400
O  -2.03500 13.79800 33.00800
C  -1.04100 13.45200 33.91100
H  -3.27200 21.43400 30.32700
H  -1.74700 20.80100 24.00400
H  -2.13700 14.63400 24.47000
H  -3.89200 17.15200 32.41700
H  -2.69300 19.90300 32.28100
H  -5.20500 18.68400 32.76800
H  -5.27600 19.77500 31.28700
H  -4.57500 20.40400 32.84700
H  -0.76400 17.41500 32.48800
H  -1.88000 16.36800 33.34400
H  -2.52200 18.77200 34.34700
H  -0.80200 19.01800 33.92700
H  -3.99600 23.77900 28.57400
H  -2.30700 24.49800 28.40300
H  -2.83600 23.42400 29.71100
H  -2.20700 25.41300 25.07300
H  -1.55200 25.05600 26.53100
H  -3.34400 24.75600 26.32600
H  -1.08000 18.78100 22.33300
H  -2.23500 16.08900 22.71400
H  -3.92900 19.25200 22.62400
H  -3.86200 17.62600 21.94000
H  -3.16800 19.08400 21.13300
H  0.12500 16.62600 21.96900
H  -0.05900 15.34400 22.99900
H  1.77100 16.17800 24.29600
H  0.43900 17.16000 25.04300
H  1.41700 17.81000 23.75400
H  -3.53700 12.02600 26.73900
H  -1.72300 12.01900 26.60600
H  -2.70800 12.67100 25.37900
H  -3.60800 14.46100 31.41700
H  -0.55500 12.58900 33.45500
H  -1.61200 13.23100 34.81300
H  -0.41900 14.33200 34.07700
Mg 42.08800 40.91300 26.78800
C  40.87000 43.15900 29.26300
C  43.17200 38.84700 29.27100
C  43.14000 38.90200 24.42000
C  41.32200 43.38800 24.35900
N  42.05200 41.05200 29.02100
C  41.46100 42.02200 29.80400
C  41.68800 41.83400 31.34200
C  42.51700 40.43600 31.30500
C  42.57600 40.04900 29.80400
C  43.95700 40.52300 31.84900
C  40.26900 41.67500 32.01700
C  40.08500 42.50100 33.24200
H  39.69500 41.72700 34.52600
N  42.94800 39.00100 26.84600
C  43.29000 38.31100 28.01200
C  43.87300 36.97100 27.64000
C  43.81700 37.00100 26.23500
C  43.31500 38.35800 25.78000
C  44.35900 35.94700 28.63600
C  44.17100 35.96500 25.27500
O  44.31700 36.21600 24.10200
C  44.40000 34.55200 25.70400
N  42.25200 41.10900 24.74200
C  42.72100 40.15000 23.93100
C  42.66900 40.50800 22.42100
C  42.03800 41.90000 22.42200
C  41.83800 42.13600 23.91700
C  44.01100 40.30000 21.68000
C  40.64200 41.96800 21.70300
C  40.36700 43.18700 20.83100
N  41.33200 42.84600 26.77100
C  41.05100 43.73800 25.71300
C  40.43100 44.87100 26.24300
C  40.29900 44.67100 27.60800
C  40.90100 43.47800 27.90900
C  39.91500 45.94600 25.34400
C  39.75100 45.30400 28.82800
O  39.08800 46.33300 28.98000
C  40.19100 44.34000 30.01200
C  41.01200 45.22100 30.80800
O  42.19000 45.41200 30.63200
O  40.35500 45.75600 31.88400
C  41.23100 46.45500 32.93600
H  43.32300 38.09300 30.04600
H  43.56400 38.24300 23.65900
H  41.17900 44.11900 23.56000
H  42.32600 42.61000 31.76500
H  41.98500 39.72700 31.93900
H  44.35900 41.44200 32.27600
H  44.68900 40.24700 31.08900
H  43.96600 39.82000 32.68200
H  40.13600 40.60300 32.16200
H  39.47400 41.87300 31.29900
H  39.22200 43.16000 33.14900
H  40.99800 43.05900 33.45000
H  43.96000 34.97200 28.35700
H  44.18700 36.16700 29.69000
H  45.44500 35.95600 28.55100
H  45.36700 34.42300 26.19000
H  44.45700 33.86800 24.85700
H  43.62900 34.13400 26.35200
H  41.95300 39.76100 22.07800
H  42.76500 42.69900 22.27000
H  44.43700 41.23800 21.32400
H  43.60700 39.67400 20.88500
H  44.67200 39.85800 22.42500
H  39.79400 41.71400 22.34000
H  40.70600 41.13700 21.00100
H  41.16700 43.90800 20.99600
H  39.45900 43.64600 21.22200
H  40.27200 42.88600 19.78800
H  39.60200 45.62200 24.35100
H  40.68700 46.70400 25.20500
H  38.99700 46.31400 25.80100
H  39.34700 44.11600 30.66500
H  40.52100 47.18100 33.33300
H  42.08700 47.02800 32.58000
H  41.62800 45.68400 33.59600

