158

Mg 17.07800 -1.24600 27.04500
C  16.33300 0.84400 29.80600
C  18.75300 -3.31600 29.31200
C  18.71100 -2.73400 24.41200
C  15.91000 1.09200 24.99100
N  17.45100 -1.22200 29.36700
C  16.94300 -0.34300 30.28100
C  17.34900 -0.72300 31.74900
C  18.27200 -1.97000 31.47500
C  18.17000 -2.21700 29.95000
C  19.70100 -1.79100 31.92800
C  16.11400 -0.92600 32.72400
C  16.09400 -0.09600 34.02800
H  17.35800 0.33000 34.79200
N  18.35600 -2.98900 26.87500
C  18.93200 -3.65300 27.92100
C  19.79200 -4.71000 27.39700
C  19.73900 -4.62000 25.99100
C  18.98400 -3.40100 25.70200
C  20.61700 -5.62400 28.23600
C  20.41800 -5.47100 24.86500
O  20.31900 -5.34500 23.65500
C  21.20700 -6.65100 25.28200
N  17.40600 -0.72100 25.05900
C  17.92400 -1.61200 24.16900
C  17.83900 -1.05300 22.72200
C  16.89000 0.09600 22.94900
C  16.65000 0.18800 24.39000
C  19.21600 -0.70600 22.15800
C  15.56900 0.11200 22.04500
C  15.26000 1.29600 21.14200
N  16.21700 0.52700 27.27500
C  15.71700 1.34100 26.36500
C  15.01800 2.43200 27.03200
C  15.22200 2.34500 28.35300
C  15.95500 1.19200 28.46000
C  14.13700 3.36200 26.36900
C  15.00400 2.99600 29.67900
O  14.57200 4.10000 29.98700
C  15.68200 1.92500 30.62300
C  16.54400 2.63300 31.55200
O  17.79700 2.77300 31.52900
O  15.65600 3.13700 32.51000
C  16.17900 3.95800 33.52100
H  19.33700 -3.98900 29.94200
H  19.07800 -3.26300 23.52900
H  15.43300 1.85800 24.37700
H  17.88100 0.17300 32.06800
H  17.90200 -2.92100 31.85900
H  20.20200 -1.40000 31.04200
H  20.17200 -2.74600 32.16200
H  19.70700 -1.02500 32.70500
H  15.96700 -1.98300 32.94900
H  15.25200 -0.55600 32.16900
H  15.76500 -0.89800 34.68900
H  15.36100 0.70600 34.11000
H  20.41400 -5.74200 29.30000
H  21.65100 -5.29800 28.12000
H  20.54800 -6.65400 27.88500
H  22.14700 -6.44500 25.79500
H  21.52800 -7.15700 24.37200
H  20.57900 -7.31000 25.88100
H  17.36100 -1.76700 22.05100
H  17.49800 0.96100 22.68400
H  19.71900 -0.10600 22.91700
H  19.27400 -0.11900 21.24200
H  19.80600 -1.61500 22.04600
H  14.65400 0.08000 22.63600
H  15.55900 -0.80500 21.45500
H  14.30300 1.72100 21.44300
H  15.40500 0.95400 20.11700
H  15.99300 2.06700 21.37800
H  14.61400 4.26100 25.98000
H  13.36600 3.70100 27.06200
H  13.58500 2.90600 25.54700
H  14.98400 1.35700 31.23700
H  17.14700 3.62700 33.89400
H  15.39300 4.08700 34.26600
H  16.24200 4.96800 33.11400
Mg 46.98800 34.02800 27.05700
C  44.77400 32.90000 29.57600
C  47.49900 36.81300 28.93300
C  48.50500 35.41500 24.31600
C  46.10700 31.26500 25.10400
N  46.25400 34.69400 28.95900
C  45.56600 33.98400 29.88800
C  45.63900 34.63200 31.28700
C  46.26400 36.10000 30.96100
C  46.62800 35.87800 29.53000
C  45.45900 37.38200 31.28100
C  46.61300 33.77500 32.13800
C  47.05000 34.26300 33.50400
H  46.08400 35.19300 34.20300
N  47.91800 35.86500 26.67600
C  48.09600 36.84600 27.62100
C  48.88500 37.94500 27.07100
C  49.13600 37.51400 25.67200
C  48.48200 36.24900 25.49600
C  49.32700 39.23400 27.84500
C  49.77400 38.33200 24.63400
O  49.84100 37.94200 23.48900
C  50.36000 39.75600 24.92300
N  47.06000 33.53400 24.96300
C  47.82800 34.13900 24.06600
C  48.03700 33.38400 22.73500
C  47.39500 32.02300 23.03000
C  46.82400 32.21800 24.50300
C  47.58700 34.10700 21.47500
C  48.27800 30.78700 22.77500
C  49.56900 30.48600 23.59800
N  45.65900 32.41900 27.17900
C  45.50300 31.32300 26.39000
C  44.64200 30.38500 27.03100
C  44.24100 31.00700 28.20400
C  44.92900 32.17500 28.31400
C  44.17100 28.99600 26.50200
C  43.38300 30.93100 29.37100
O  42.63700 29.97300 29.44000
C  43.66900 32.12400 30.28700
C  44.09400 31.49000 31.52700
O  44.77700 30.45900 31.64500
O  43.54300 32.12700 32.63700
C  43.74500 31.38300 33.93100
H  47.73400 37.67600 29.56000
H  49.03900 35.70200 23.40800
H  46.01200 30.38600 24.46400
H  44.60700 34.71500 31.63000
H  47.12100 36.19200 31.62800
H  44.45500 37.11100 31.60900
H  45.39500 37.96300 30.36100
H  45.86800 38.06600 32.02400
H  47.48800 33.80000 31.48900
H  46.21800 32.76900 32.28200
H  48.00800 34.70800 33.23400
H  47.38600 33.49800 34.20300
H  50.37500 38.99600 28.02800
H  48.94500 39.15800 28.86300
H  49.15400 40.24400 27.47300
H  49.45700 40.27200 25.24800
H  50.81700 40.17300 24.02500
H  51.12200 39.65700 25.69600
H  49.11400 33.52700 22.81400
H  46.42500 32.05000 22.53300
H  48.48400 34.62600 21.13900
H  46.84300 34.87400 21.69000
H  47.32000 33.36000 20.72700
H  48.53400 31.09700 21.76100
H  47.65800 29.90900 22.59600
H  50.28600 31.24200 23.27700
H  49.98600 29.49300 23.43300
H  49.19300 30.54100 24.61900
H  44.62500 28.18400 27.07000
H  44.49700 29.09000 25.46600
H  43.11900 28.73800 26.38400
H  42.74200 32.68800 30.39100
H  44.40900 31.90500 34.61900
H  43.84900 30.29900 33.96100
H  42.71900 31.52500 34.27100

