158

Mg 24.15200 -5.45400 45.29800
C  26.40300 -3.09500 43.85200
C  21.70500 -4.26300 43.12800
C  22.37500 -8.17300 45.96400
C  26.95800 -6.94200 46.86700
N  24.13600 -3.92700 43.70200
C  25.11800 -3.05100 43.27400
C  24.62300 -2.24500 42.04600
C  23.08100 -2.31400 42.27600
C  22.91000 -3.59000 43.04600
C  22.49700 -1.04900 42.82200
C  25.02900 -2.84300 40.68100
C  25.52100 -1.80000 39.64000
H  24.91600 -1.92500 38.24000
N  22.33400 -6.13700 44.64400
C  21.45200 -5.42300 43.86600
C  20.17200 -6.13300 43.85300
C  20.31900 -7.24100 44.69200
C  21.70000 -7.21900 45.16100
C  18.99900 -5.68600 43.07500
C  19.18300 -8.20500 45.15100
O  18.09900 -8.24300 44.69300
C  19.40800 -9.13400 46.26500
N  24.54100 -7.23900 46.28600
C  23.64900 -8.20800 46.49600
C  24.24700 -9.43100 47.20000
C  25.73600 -9.09100 47.44900
C  25.76200 -7.67200 46.77500
C  23.49500 -9.93100 48.51300
C  26.65800 -10.14500 46.84800
C  28.09900 -10.17100 47.33700
N  26.22000 -4.95600 45.68400
C  27.20400 -5.65100 46.34400
C  28.46700 -4.91600 46.17900
C  28.19200 -3.89800 45.18800
C  26.82700 -4.00000 44.90100
C  29.78800 -5.23200 46.82600
C  28.79000 -2.88800 44.36100
O  29.94900 -2.50200 44.33700
C  27.60800 -2.22700 43.43000
C  27.44100 -0.92700 43.93100
O  26.62900 -0.54300 44.79300
O  28.27700 -0.06900 43.25300
C  28.40400 1.28000 43.89400
H  20.91700 -3.86100 42.48600
H  21.97500 -9.18100 46.09500
H  27.74000 -7.38500 47.48600
H  24.96500 -1.23300 42.26500
H  22.43400 -2.40100 41.40300
H  23.29600 -0.45200 43.26200
H  21.76900 -1.22900 43.61300
H  22.04600 -0.51300 41.98700
H  24.29700 -3.54300 40.27900
H  25.97900 -3.36200 40.80200
H  26.59800 -1.87700 39.49000
H  25.18100 -0.80000 39.91000
H  18.09200 -6.29100 43.09200
H  19.24200 -5.56900 42.01900
H  18.74400 -4.69800 43.45700
H  18.42200 -9.30800 46.69500
H  19.98500 -8.68800 47.07500
H  19.81900 -10.05900 45.86000
H  24.16900 -10.31400 46.56500
H  25.89800 -8.93000 48.51500
H  23.08400 -10.92600 48.34100
H  22.69400 -9.24500 48.79000
H  24.17300 -10.03700 49.36000
H  26.74100 -9.91600 45.78500
H  26.27100 -11.16100 46.92400
H  28.23400 -11.24200 47.48400
H  28.09800 -9.65000 48.29400
H  28.91800 -10.00100 46.63700
H  30.38400 -6.09800 46.53800
H  29.70500 -5.37200 47.90400
H  30.28500 -4.26900 46.71600
H  27.85000 -2.36100 42.37500
H  28.98300 1.98600 43.29800
H  28.85100 1.09400 44.87100
H  27.45000 1.68300 44.23200
Mg 53.10200 25.42200 44.48300
C  50.57700 27.78200 43.85800
C  50.80500 22.92000 43.46500
C  55.66300 23.33500 43.67400
C  55.31800 27.88500 44.99800
N  50.94500 25.39300 43.46500
C  50.10400 26.48800 43.54700
C  48.72400 26.06000 43.09000
C  48.70400 24.52900 43.49700
C  50.24700 24.20900 43.49700
C  47.90500 24.29900 44.89300
C  48.29900 26.30200 41.58800
C  49.38300 26.71700 40.53900
H  49.58400 25.89500 39.28400
N  53.20100 23.39400 43.81800
C  52.12300 22.58500 43.51700
C  52.65300 21.28400 43.23600
C  54.06400 21.27100 43.39300
C  54.35000 22.67900 43.63700
C  51.76100 20.10800 42.71600
C  55.08300 20.08600 43.31600
O  54.57800 18.96900 43.23600
C  56.57400 20.20800 43.33500
N  55.21200 25.57200 44.22600
C  56.02100 24.54500 44.15000
C  57.55500 24.97700 44.28300
C  57.44100 26.47500 44.64900
C  55.89500 26.72400 44.55500
C  58.33600 24.13400 45.34600
C  58.19600 27.38100 43.55300
C  58.93200 28.53400 44.17500
N  53.02900 27.44600 44.51800
C  53.98800 28.31900 44.99300
C  53.29900 29.50800 45.45300
C  52.01600 29.41600 44.94100
C  51.88900 28.13900 44.38300
C  53.93100 30.72200 46.01800
C  50.69500 30.11400 44.74200
O  50.47800 31.28100 45.06000
C  49.78700 29.05700 43.97700
C  49.48700 29.53700 42.62300
O  50.30000 29.73400 41.73400
O  48.16700 29.83200 42.55200
C  47.61900 30.51300 41.39100
H  49.99200 22.19400 43.40900
H  56.55000 22.70500 43.58000
H  56.04500 28.65200 45.27200
H  48.09200 26.65000 43.75500
H  48.25600 23.85600 42.76600
H  48.56900 23.91100 45.66700
H  47.18800 23.51300 44.65500
H  47.36300 25.20300 45.16900
H  47.52300 27.06300 41.67200
H  47.86400 25.37800 41.20600
H  50.34000 26.65600 41.05600
H  49.12900 27.74500 40.28300
H  52.16900 19.36200 42.03500
H  50.95200 20.58400 42.16100
H  51.21800 19.52200 43.45700
H  56.98400 19.23600 43.06000
H  57.04000 20.47400 44.28400
H  56.88800 20.93200 42.58300
H  57.98100 24.75100 43.30600
H  57.83400 26.72900 45.63400
H  57.60000 23.67800 46.00800
H  59.01400 24.76900 45.91700
H  58.81000 23.29100 44.84400
H  57.41300 27.79500 42.91700
H  58.88400 26.80300 42.93600
H  59.30700 28.29700 45.17100
H  58.13500 29.25300 44.36400
H  59.76700 28.93600 43.60100
H  53.18900 31.33400 46.52900
H  54.40900 31.27500 45.20900
H  54.57100 30.38200 46.83200
H  48.87100 28.99600 44.56400
H  48.02200 30.07500 40.47900
H  47.88800 31.56900 41.41300
H  46.54300 30.34900 41.45000

