158

Mg 29.99900 58.32100 39.39300
C  27.10300 56.43200 38.70100
C  31.83700 55.57600 38.67600
C  32.66500 60.29800 39.40400
C  27.86200 61.05000 40.07000
N  29.52600 56.24400 38.73700
C  28.26700 55.71700 38.56100
C  28.38800 54.17200 38.24200
C  29.85200 53.84600 38.57800
C  30.45600 55.26100 38.72700
C  30.17900 52.98500 39.81400
C  27.97800 53.66100 36.86000
C  28.69300 54.17900 35.63300
H  27.79500 54.63400 34.52600
N  32.05900 58.01300 39.09300
C  32.64300 56.76400 38.81500
C  34.08600 56.91200 38.66300
C  34.29600 58.34200 38.66800
C  32.99100 58.95700 39.04100
C  34.99100 55.78600 38.36000
C  35.55000 59.07900 38.35600
O  36.57500 58.46700 38.14800
C  35.50800 60.55600 38.31100
N  30.18000 60.37900 39.67600
C  31.43900 60.90600 39.66300
C  31.36900 62.45600 40.06800
C  29.87300 62.65100 40.42700
C  29.23100 61.31000 40.05600
C  32.44900 62.94400 41.09900
C  29.20100 63.86200 39.80200
C  28.22900 64.69300 40.67700
N  27.89200 58.66800 39.45500
C  27.16600 59.84900 39.69000
C  25.78700 59.62700 39.60400
C  25.62700 58.24200 39.22300
C  26.98800 57.72300 39.16200
C  24.71900 60.51200 39.95200
C  24.70400 57.12200 38.88300
O  23.49400 56.97700 38.79300
C  25.72100 55.87800 38.62100
C  25.54700 54.91000 39.76800
O  25.83400 55.04400 40.88700
O  24.98900 53.67100 39.29200
C  24.74500 52.68600 40.31700
H  32.46100 54.68400 38.59700
H  33.50800 60.99200 39.39700
H  27.22000 61.84300 40.45900
H  27.80200 53.70900 39.03700
H  30.36200 53.29000 37.79200
H  30.84300 53.45400 40.54000
H  30.70800 52.11500 39.42400
H  29.25200 52.54400 40.18000
H  26.89600 53.74300 36.76200
H  28.23900 52.60300 36.82200
H  29.26900 53.40300 35.12900
H  29.47000 54.92200 35.80900
H  35.99600 56.18500 38.50200
H  34.84700 55.47900 37.32500
H  34.93900 54.89800 38.99000
H  35.45500 61.10700 39.25000
H  34.71800 60.67500 37.56900
H  36.44800 60.76600 37.80100
H  31.47800 63.00700 39.13400
H  29.80800 62.83800 41.49900
H  33.16000 62.14200 41.30100
H  31.91200 63.11800 42.03100
H  32.74600 63.90200 40.67100
H  28.62200 63.57100 38.92500
H  29.98700 64.56200 39.51800
H  27.38800 64.96900 40.04100
H  28.77000 65.60400 40.93400
H  27.88000 64.10800 41.52800
H  23.86000 60.16500 39.37900
H  25.02100 61.52800 39.70000
H  24.34300 60.54500 40.97500
H  25.45100 55.44400 37.65800
H  23.75100 52.31000 40.07500
H  24.91800 52.95000 41.36000
H  25.42100 51.83200 40.28000
Mg 16.33600 52.44600 26.42800
C  18.09200 51.04600 29.20600
C  14.08200 53.68200 28.70200
C  14.36100 52.93300 23.90100
C  18.77100 50.95300 24.33500
N  15.98600 52.19800 28.66700
C  16.93200 51.75000 29.62400
C  16.46800 52.11000 31.06200
C  15.01500 52.53900 30.83900
C  14.98900 52.86800 29.31500
C  13.93300 51.48100 31.18600
C  17.32600 53.28100 31.69900
C  17.85100 53.04000 33.07100
H  17.01300 52.02100 33.92800
N  14.60300 53.33800 26.30100
C  13.82200 53.86600 27.31200
C  12.70600 54.66600 26.67000
C  12.64900 54.27300 25.30700
C  13.88700 53.45100 25.11500
C  11.73700 55.59700 27.43400
C  11.56800 54.65800 24.22800
O  11.61600 54.40200 22.99900
C  10.48100 55.60300 24.65800
N  16.64300 52.01400 24.39400
C  15.62000 52.27100 23.51200
C  15.98800 51.83500 22.10700
C  17.51300 51.47900 22.23000
C  17.65900 51.48200 23.73000
C  15.17800 50.65100 21.56200
C  18.38800 52.49700 21.44000
C  18.97700 53.77900 21.96300
N  18.11300 51.33600 26.70800
C  18.96300 50.78900 25.74600
C  20.05000 49.98800 26.35800
C  19.71100 50.11700 27.69000
C  18.53600 50.88800 27.82800
C  21.24100 49.35900 25.77000
C  20.22400 49.91300 29.03000
O  21.29500 49.44700 29.31700
C  19.20700 50.50900 30.06000
C  18.75600 49.34300 30.93000
O  17.79200 48.63800 30.64200
O  19.59200 49.22700 32.02200
C  19.39100 48.11300 32.87900
H  13.36500 54.19600 29.34500
H  13.85000 53.16100 22.96300
H  19.57500 50.56800 23.70300
H  16.60200 51.15300 31.56600
H  14.74400 53.49300 31.29200
H  13.55700 51.65200 32.19500
H  14.25600 50.45100 31.03600
H  13.10400 51.54400 30.48100
H  16.78000 54.22200 31.63700
H  18.19600 53.35100 31.04600
H  17.96200 53.94500 33.66900
H  18.82700 52.59900 32.87200
H  11.85900 56.60900 27.04900
H  12.05100 55.79500 28.45800
H  10.68800 55.30100 27.42900
H  9.66600 55.47100 23.94600
H  10.87600 56.60900 24.79600
H  10.05000 55.27000 25.60200
H  15.72000 52.62700 21.40800
H  17.80600 50.50800 21.83100
H  15.78800 49.74800 21.54600
H  14.95100 50.78800 20.50400
H  14.22000 50.46800 22.04900
H  17.96000 52.96100 20.55200
H  19.13400 51.90800 20.90600
H  18.47400 54.67000 21.58800
H  20.01600 53.75800 21.63300
H  18.98800 53.89600 23.04700
H  22.06400 49.26500 26.47800
H  21.53500 49.76200 24.80100
H  21.03200 48.29000 25.75100
H  19.73000 51.21700 30.70300
H  19.28900 47.21600 32.26700
H  18.40200 48.16100 33.33500
H  20.09500 48.06700 33.70900

