158

Mg 41.30300 8.82700 30.51900
C  43.11700 10.31000 33.07100
C  38.87600 8.11800 32.80300
C  39.63200 7.49800 28.02800
C  43.80400 9.75900 28.34200
N  41.17000 9.12500 32.76300
C  41.98600 9.72600 33.65000
C  41.37800 9.87200 35.05700
C  40.07100 9.03900 34.97300
C  40.04300 8.66600 33.40600
C  40.00400 7.70800 35.86300
C  41.08800 11.37800 35.47500
C  40.07200 11.59000 36.65400
H  40.60900 12.50300 37.82000
N  39.52800 7.81700 30.51500
C  38.57100 7.73600 31.50500
C  37.38900 7.09600 31.01200
C  37.57600 6.97300 29.59800
C  38.98500 7.39400 29.31600
C  36.22800 6.68800 31.95500
C  36.64400 6.42700 28.56600
O  36.98900 6.16000 27.45600
C  35.14600 6.34800 28.86800
N  41.77100 8.41500 28.45800
C  40.89800 7.91000 27.62100
C  41.31500 7.92500 26.13000
C  42.71800 8.72800 26.26100
C  42.76300 9.01100 27.76300
C  41.29600 6.48900 25.43700
C  42.89300 10.04000 25.37600
C  41.85600 11.12700 25.54500
N  43.08000 9.76600 30.64300
C  44.01100 10.07900 29.68300
C  45.06800 10.90300 30.17600
C  44.74100 10.98900 31.58200
C  43.50400 10.27500 31.77400
C  46.26600 11.56900 29.49300
C  45.16900 11.63400 32.71400
O  46.14800 12.35000 32.98300
C  44.11300 11.26900 33.78900
C  44.84800 10.78300 34.99000
O  45.59000 9.80600 34.95500
O  44.38200 11.35800 36.09100
C  45.09200 10.93100 37.32500
H  38.04300 7.99500 33.49900
H  39.12300 7.24700 27.09500
H  44.56400 10.17400 27.67700
H  42.00400 9.53200 35.88200
H  39.20200 9.67300 35.15400
H  39.13800 7.68800 36.52500
H  40.90600 7.67400 36.47300
H  39.92100 6.75300 35.34400
H  40.52600 11.72300 34.60800
H  42.00000 11.96300 35.59100
H  39.83000 10.65400 37.15800
H  39.14800 12.01600 36.26100
H  35.33900 7.31900 31.93400
H  36.51800 6.56500 32.99900
H  35.81300 5.71600 31.68800
H  34.95800 7.25600 29.44100
H  34.81200 5.43100 29.35400
H  34.57500 6.37700 27.93900
H  40.61600 8.55200 25.57700
H  43.58800 8.16300 25.92500
H  40.47200 5.91700 25.86500
H  42.26200 6.01500 25.60800
H  41.15500 6.61700 24.36400
H  42.87500 9.68800 24.34500
H  43.91000 10.42700 25.43000
H  42.43400 11.99100 25.87300
H  41.07800 10.82200 26.24400
H  41.40000 11.50100 24.62800
H  46.98000 10.75500 29.36200
H  46.62200 12.34700 30.16800
H  46.09200 12.05100 28.53100
H  43.61900 12.19000 34.09800
H  44.36500 10.37700 37.91800
H  45.22400 11.81000 37.95600
H  46.07100 10.46500 37.21800
Mg 16.76800 52.68800 26.71900
C  18.62400 51.00000 29.02600
C  14.28100 53.34200 29.04700
C  14.70500 53.94200 24.29400
C  18.95200 51.70600 24.22100
N  16.44300 52.12100 28.74900
C  17.42900 51.53000 29.55500
C  17.06900 51.73600 31.04000
C  15.56800 52.14400 30.96300
C  15.36400 52.57400 29.45800
C  14.61000 51.07100 31.37300
C  18.00800 52.66600 31.93700
C  18.34400 52.30700 33.36500
H  17.24300 51.69600 34.23400
N  14.75400 53.69400 26.72500
C  13.90000 53.87000 27.77200
C  12.70200 54.59200 27.39600
C  12.86000 54.79700 25.97600
C  14.17600 54.14100 25.55700
C  11.52800 54.82600 28.30500
C  11.96400 55.46800 24.97200
O  12.28900 55.65800 23.83700
C  10.74600 56.09600 25.46400
N  16.94000 53.00300 24.65400
C  15.94200 53.45800 23.84300
C  16.26700 53.29800 22.32600
C  17.72500 52.89200 22.39000
C  17.86100 52.44300 23.81700
C  15.35800 52.15400 21.72300
C  18.84000 53.96500 21.93600
C  19.48800 54.81700 23.00500
N  18.46500 51.59200 26.61200
C  19.21500 51.20200 25.45700
C  20.15500 50.26100 25.87600
C  20.00700 50.12600 27.24900
C  18.99200 51.01300 27.68900
C  21.24100 49.68100 25.02400
C  20.54800 49.59500 28.44800
O  21.55400 48.95300 28.56300
C  19.67000 50.10800 29.69400
C  19.01600 48.85000 30.40000
O  18.34500 48.02300 29.92000
O  19.22800 49.01300 31.76700
C  18.74400 47.91000 32.57200
H  13.64400 53.72300 29.84800
H  14.08200 54.41400 23.53100
H  19.56700 51.26900 23.43100
H  17.05900 50.75100 31.50800
H  15.42400 53.00300 31.61900
H  14.86600 50.81900 32.40200
H  14.79200 50.18500 30.76400
H  13.62900 51.52500 31.22700
H  17.59900 53.67500 31.98200
H  18.92100 52.60600 31.34500
H  18.74500 53.13500 33.94900
H  19.14100 51.56300 33.34500
H  10.77500 54.06000 28.11900
H  11.04200 55.78700 28.14200
H  11.86400 54.94100 29.33500
H  10.33000 56.60500 24.59500
H  10.99000 56.91900 26.13600
H  10.14100 55.27700 25.85200
H  16.08400 54.18300 21.71700
H  17.76700 51.98900 21.78100
H  14.39700 52.66800 21.74700
H  15.33200 51.29300 22.39100
H  15.62800 51.96500 20.68400
H  18.40100 54.62800 21.19100
H  19.54100 53.30400 21.42800
H  19.60300 55.83200 22.62500
H  20.43800 54.35700 23.27800
H  18.85500 54.83000 23.89300
H  20.77800 49.10100 24.22500
H  21.90400 49.00500 25.56300
H  21.71100 50.58200 24.62800
H  20.38300 50.58700 30.36500
H  17.66800 47.73700 32.55900
H  19.05100 48.17700 33.58300
H  19.15900 46.98100 32.18000

