158

Mg -1.84900 17.13600 27.80100
C  -2.29300 14.96300 30.53700
C  -2.25500 19.73100 30.04400
C  -1.78000 19.38100 25.22100
C  -2.06100 14.46000 25.71300
N  -2.00400 17.35400 30.05700
C  -2.25200 16.31900 30.97000
C  -2.45400 16.85000 32.43200
C  -2.37700 18.40400 32.16800
C  -2.21900 18.49000 30.65900
C  -3.57500 19.25300 32.74900
C  -1.38300 16.23500 33.44400
C  -0.69300 17.09400 34.47100
H  -0.29100 16.56200 35.82300
N  -1.97100 19.23600 27.67900
C  -2.02000 20.13100 28.71100
C  -1.90500 21.45900 28.22000
C  -1.68700 21.42300 26.84000
C  -1.88500 19.95700 26.49800
C  -1.98400 22.69200 29.12000
C  -1.46600 22.55600 25.83800
O  -1.36900 22.28000 24.67500
C  -1.30700 24.01000 26.21600
N  -1.89100 16.94300 25.79600
C  -1.88500 18.01800 24.90200
C  -2.08700 17.59500 23.42900
C  -2.16100 15.98700 23.63100
C  -2.04500 15.78200 25.15500
C  -3.33200 18.14700 22.62400
C  -1.18600 15.10700 22.79400
C  0.23500 14.86700 23.31900
N  -1.91600 15.15700 27.97800
C  -2.00500 14.18200 27.07600
C  -2.12000 12.85500 27.64600
C  -2.15000 13.08200 29.02400
C  -2.12400 14.52100 29.18600
C  -2.26200 11.55600 26.87200
C  -2.37100 12.41100 30.25000
O  -2.52300 11.26500 30.50300
C  -2.50700 13.68000 31.33100
C  -1.35800 13.22400 32.22600
O  -0.15400 13.40800 31.99100
O  -1.75600 12.58800 33.37100
C  -0.73200 12.52700 34.41200
H  -2.47400 20.51100 30.77700
H  -1.88300 20.09500 24.40200
H  -2.04700 13.60900 25.02900
H  -3.44200 16.47600 32.70300
H  -1.51200 18.89000 32.62000
H  -3.22500 19.93100 33.52800
H  -4.13200 18.45300 33.23600
H  -4.06300 19.77000 31.92300
H  -0.64400 15.79200 32.77600
H  -1.98300 15.44700 33.90000
H  -1.26300 17.99100 34.71100
H  0.16900 17.51300 33.95200
H  -2.88800 23.22700 28.83200
H  -1.02800 23.20700 29.02300
H  -2.14200 22.46800 30.17500
H  -0.95500 24.57200 25.35000
H  -0.64400 23.97400 27.08100
H  -2.30300 24.30100 26.54800
H  -1.19300 17.84500 22.85800
H  -3.16900 15.59500 23.49800
H  -4.15500 17.43400 22.56700
H  -2.94100 18.41900 21.64400
H  -3.61000 19.00200 23.24000
H  -0.96600 15.72700 21.92500
H  -1.68000 14.24200 22.35100
H  0.83400 15.67200 22.89300
H  0.47300 13.85000 23.00900
H  0.41100 14.97700 24.38900
H  -1.62700 11.48200 25.98900
H  -3.32300 11.48900 26.63100
H  -2.11400 10.73200 27.56900
H  -3.38500 13.64900 31.97600
H  -0.24100 11.56400 34.27400
H  -1.33600 12.60400 35.31600
H  0.07700 13.24900 34.52000
Mg 16.13300 -1.93300 27.42800
C  15.50500 0.13000 30.14500
C  18.50400 -3.59600 29.46400
C  17.59200 -3.35900 24.81900
C  14.76500 0.39500 25.32600
N  16.80600 -1.83900 29.66300
C  16.31900 -0.95000 30.58100
C  16.96300 -1.24400 31.95900
C  18.09900 -2.32000 31.61100
C  17.80000 -2.62600 30.14200
C  19.56900 -1.78000 31.84700
C  15.86100 -1.87400 32.86600
C  15.54700 -1.23600 34.23800
H  16.66100 -0.31700 34.90500
N  17.58600 -3.49200 27.15800
C  18.44500 -4.02900 28.13000
C  19.15700 -5.12200 27.49700
C  18.75800 -5.17800 26.13900
C  17.93600 -4.00600 25.95000
C  20.24400 -5.94600 28.17200
C  19.20200 -6.04000 24.96800
O  18.79300 -5.88300 23.84100
C  20.27600 -7.09100 25.21000
N  16.20300 -1.53400 25.39800
C  16.78400 -2.30100 24.48900
C  16.68700 -1.75300 23.09500
C  15.64400 -0.63100 23.30400
C  15.49700 -0.60100 24.76900
C  17.99300 -1.21700 22.52300
C  14.23400 -0.93800 22.69000
C  13.44400 0.28600 22.13000
N  15.19100 -0.12200 27.64400
C  14.59900 0.66500 26.70000
C  13.87900 1.79100 27.41700
C  14.17400 1.52700 28.74800
C  15.04400 0.42700 28.83900
C  13.04100 2.77700 26.72800
C  13.94700 2.02200 30.05400
O  13.26500 2.93600 30.45300
C  14.76200 1.14600 30.98700
C  15.75600 2.03600 31.70500
O  16.95200 2.20000 31.36700
O  15.12800 2.66100 32.72200
C  15.89600 3.72800 33.36100
H  19.30400 -4.11000 30.00000
H  17.87600 -3.81500 23.86800
H  14.32300 1.13200 24.65200
H  17.39300 -0.30000 32.29400
H  18.04500 -3.24900 32.17800
H  19.51700 -0.78600 32.29100
H  20.07000 -1.71400 30.88100
H  20.08900 -2.53600 32.43600
H  16.15100 -2.92200 32.94600
H  14.91800 -1.70100 32.34700
H  15.17200 -2.04400 34.86600
H  14.64900 -0.63000 34.11700
H  21.09800 -5.91700 27.49600
H  19.89200 -6.97700 28.20700
H  20.55200 -5.68000 29.18400
H  19.91700 -7.72800 26.01900
H  21.24200 -6.61900 25.38800
H  20.42000 -7.67700 24.30300
H  16.29500 -2.47500 22.37900
H  15.99400 0.30800 22.87600
H  18.09600 -0.13300 22.54800
H  18.06200 -1.51200 21.47600
H  18.94400 -1.38800 23.02700
H  13.61200 -1.36400 23.47700
H  14.22300 -1.71500 21.92500
H  13.14900 0.24600 21.08100
H  14.07200 1.14500 22.36400
H  12.57300 0.47900 22.75700
H  12.46500 2.15600 26.04200
H  13.66500 3.34400 26.03800
H  12.42500 3.34000 27.42800
H  14.14400 0.80000 31.81500
H  15.94000 4.64700 32.77700
H  16.93300 3.43900 33.53300
H  15.52900 3.90800 34.37200

