158

Mg 0.93700 7.82000 26.21200
C  1.85200 9.81100 28.88500
C  1.20200 5.03500 28.09200
C  0.19100 6.06800 23.36300
C  0.94000 10.68300 24.14700
N  1.46100 7.48400 28.27600
C  1.63900 8.46100 29.23800
C  1.50600 7.87800 30.62600
C  1.70800 6.34600 30.31500
C  1.48600 6.25500 28.76600
C  3.01300 5.69300 30.79500
C  0.15900 8.17500 31.19200
C  0.01300 7.81600 32.65000
H  1.17200 7.67200 33.55600
N  0.84500 5.81800 25.78700
C  0.97900 4.78500 26.68600
C  0.76200 3.50600 26.02300
C  0.42200 3.83500 24.65500
C  0.42700 5.33800 24.54100
C  1.00400 2.21800 26.82100
C  0.04700 2.84500 23.49600
O  -0.21500 3.21200 22.40500
C  0.00900 1.35700 23.80200
N  0.44600 8.34500 24.09600
C  0.21700 7.39200 23.15900
C  0.26700 8.01200 21.80700
C  0.18100 9.50700 22.10900
C  0.56500 9.54100 23.56000
C  1.55600 7.70100 21.02400
C  -1.28800 10.09400 22.05300
C  -1.32400 11.45300 21.20900
N  1.33300 9.84400 26.42100
C  1.28300 10.84500 25.48700
C  1.66300 12.08000 26.11600
C  1.88500 11.75800 27.43700
C  1.66200 10.37500 27.59300
C  1.75300 13.47200 25.58500
C  2.15000 12.21600 28.78400
O  2.45100 13.38400 29.08400
C  2.01800 11.01300 29.82400
C  3.20800 11.03900 30.67600
O  4.28200 10.57100 30.38400
O  3.03600 11.76600 31.87000
C  3.97400 11.64400 33.02400
H  1.20300 4.20800 28.80500
H  -0.12900 5.49800 22.48800
H  1.06500 11.45800 23.38700
H  2.32200 8.19600 31.27500
H  0.98800 5.64800 30.74200
H  2.77900 4.91100 31.51700
H  3.63600 6.40500 31.33700
H  3.54600 5.18100 29.99300
H  -0.58500 7.59300 30.64900
H  -0.11500 9.18600 30.89100
H  -0.56900 6.89600 32.71600
H  -0.65400 8.51200 33.15900
H  0.07300 1.67900 26.99800
H  1.53100 2.39200 27.75900
H  1.60600 1.59400 26.16000
H  -0.57200 1.32200 24.72300
H  1.02800 1.02900 24.00800
H  -0.26200 0.80000 22.90500
H  -0.59900 7.57500 21.31100
H  0.92100 10.00200 21.48100
H  2.17700 6.88800 21.39800
H  2.11300 8.61100 20.80000
H  1.34100 7.39300 20.00100
H  -1.78600 10.29500 23.00200
H  -1.88900 9.37600 21.49300
H  -0.73300 11.54900 20.29800
H  -0.89500 12.30100 21.74500
H  -2.37800 11.65000 21.01500
H  2.08100 14.13600 26.38400
H  0.88600 13.87000 25.05700
H  2.56800 13.55400 24.86500
H  1.10700 11.19300 30.39400
H  3.37400 11.40600 33.90200
H  4.28300 12.67500 33.19100
H  4.81300 10.99300 32.77800
Mg 48.51900 35.05100 28.04400
C  47.04900 33.20400 30.55400
C  48.34900 37.79200 30.04400
C  49.89800 36.65500 25.52000
C  47.89100 32.26500 25.83300
N  47.68100 35.41700 30.12500
C  47.31400 34.48900 30.93900
C  47.10400 35.10200 32.38200
C  47.14400 36.66600 31.98000
C  47.78000 36.61400 30.60300
C  45.80600 37.50500 32.06200
C  48.23900 34.60800 33.37900
C  48.70500 35.53700 34.55700
H  47.73900 36.56400 35.14300
N  49.08700 36.99300 27.85400
C  48.92000 37.98800 28.76800
C  49.64800 39.13300 28.23800
C  50.07100 38.85600 26.88500
C  49.66000 37.45500 26.67500
C  50.00200 40.38300 29.05800
C  50.83400 39.75300 25.85900
O  51.39900 39.30200 24.87600
C  51.00500 41.19300 26.10700
N  48.80400 34.61100 25.98000
C  49.51500 35.40300 25.16100
C  49.91100 34.79000 23.87400
C  49.25700 33.32000 23.98200
C  48.54500 33.40400 25.32400
C  49.39400 35.58300 22.61200
C  50.34900 32.27400 24.06100
C  50.00300 30.87200 23.54400
N  47.68800 32.97900 28.11100
C  47.46300 32.04000 27.14900
C  46.82500 30.87000 27.77800
C  46.59700 31.31500 29.10900
C  47.12300 32.61300 29.25000
C  46.24200 29.68700 27.06000
C  46.05500 30.92900 30.42600
O  45.45400 29.91800 30.74700
C  46.48200 32.06100 31.37600
C  47.43000 31.62700 32.48000
O  48.65500 31.58900 32.37900
O  46.79600 31.27000 33.59700
C  47.55600 31.13900 34.85500
H  48.42500 38.63200 30.73700
H  50.45300 37.16200 24.72800
H  47.74300 31.43500 25.13900
H  46.14700 34.73100 32.74800
H  47.78700 37.26600 32.62400
H  45.78800 38.01100 33.02800
H  44.95100 36.83000 32.08500
H  45.91400 38.26700 31.29100
H  49.11000 34.26200 32.82200
H  47.84700 33.76900 33.95200
H  49.56700 36.06900 34.15400
H  48.96700 34.85000 35.36200
H  49.79000 41.28200 28.47900
H  50.99500 40.31300 29.50200
H  49.36000 40.42700 29.93800
H  51.54100 41.26500 27.05400
H  50.02800 41.67500 26.14900
H  51.59800 41.59200 25.28400
H  50.99400 34.72300 23.77700
H  48.64400 33.06500 23.11700
H  48.70900 36.37500 22.91400
H  48.90700 34.95400 21.86700
H  50.19200 36.03700 22.02500
H  50.70300 32.07300 25.07300
H  51.15700 32.69100 23.46100
H  50.84300 30.40700 23.02700
H  49.07000 30.87300 22.98100
H  49.76400 30.11800 24.29400
H  47.09700 29.08500 26.75000
H  45.77400 30.10100 26.16800
H  45.47100 29.13300 27.59600
H  45.59700 32.42700 31.89600
H  48.45700 31.74800 34.93900
H  47.94700 30.12200 34.89700
H  46.81100 31.35700 35.62000

