158

Mg 41.51300 8.15800 29.43700
C  43.16200 9.78500 31.95900
C  39.15700 6.91800 31.75000
C  40.21100 6.17900 27.10500
C  44.25000 8.89800 27.35900
N  41.17100 8.36200 31.50400
C  42.03100 9.05500 32.39100
C  41.58300 8.89000 33.92000
C  40.37200 8.00700 33.82500
C  40.21100 7.69700 32.27100
C  40.10400 6.74600 34.68900
C  41.15800 10.31500 34.54000
C  40.25600 10.36800 35.77500
H  40.79500 11.02000 37.04800
N  39.75700 6.99900 29.37300
C  38.86200 6.69800 30.38200
C  37.70400 6.00500 29.77800
C  38.03200 5.83500 28.44100
C  39.39800 6.30500 28.26500
C  36.55700 5.54100 30.65900
C  37.16700 5.32600 27.28500
O  37.55000 5.15500 26.11800
C  35.68800 5.23800 27.59700
N  42.23800 7.45300 27.55700
C  41.48900 6.75000 26.74800
C  42.06600 6.64400 25.29200
C  43.24800 7.59100 25.36500
C  43.27900 8.01900 26.84700
C  42.30300 5.13500 24.91500
C  43.02000 8.89900 24.46700
C  41.97900 9.96600 24.96600
N  43.32600 9.17500 29.55400
C  44.30700 9.41600 28.65800
C  45.33200 10.28100 29.25100
C  44.90900 10.54200 30.55600
C  43.69100 9.82800 30.70700
C  46.54300 10.77400 28.49200
C  45.24800 11.18100 31.77400
O  46.17200 11.93000 32.14200
C  44.03900 10.68300 32.72400
C  44.65100 10.04600 33.89300
O  45.37800 9.07100 33.73200
O  44.32900 10.52900 35.11600
C  44.54100 9.70400 36.35200
H  38.46300 6.59300 32.52800
H  39.85500 5.39400 26.43500
H  45.06700 9.25300 26.72800
H  42.33900 8.36800 34.50700
H  39.46400 8.60900 33.86400
H  39.78300 5.88200 34.10700
H  39.30600 6.92100 35.41000
H  40.98900 6.53800 35.29000
H  40.52500 10.80100 33.79800
H  42.06300 10.90200 34.69500
H  40.13500 9.30100 35.95900
H  39.26100 10.74900 35.54600
H  35.67900 6.18200 30.73700
H  36.80200 5.39100 31.71100
H  36.21500 4.62300 30.18100
H  35.12100 5.01200 26.69400
H  35.40600 6.22300 27.96900
H  35.56900 4.35500 28.22500
H  41.30900 7.09900 24.65300
H  44.21600 7.10600 25.24000
H  43.04200 5.12200 24.11500
H  41.35200 4.67100 24.65300
H  42.69900 4.60700 25.78300
H  42.71700 8.57000 23.47200
H  43.98200 9.36300 24.25100
H  41.65600 10.58700 24.13100
H  42.53900 10.52300 25.71700
H  41.10200 9.54200 25.45500
H  47.30900 10.77400 29.26700
H  46.31800 11.79100 28.17100
H  46.78800 10.17200 27.61700
H  43.57600 11.56500 33.16600
H  44.84300 8.70300 36.04100
H  43.59100 9.66700 36.88500
H  45.27100 10.14600 37.03000
Mg 7.14700 56.78900 42.44300
C  6.00200 53.38600 41.94900
C  10.00300 55.89000 40.96300
C  7.69900 60.00200 42.16200
C  3.83900 57.43400 43.68600
N  7.82200 54.87100 41.37100
C  7.27500 53.63400 41.30000
C  8.21500 52.70900 40.50400
C  9.55200 53.37700 40.79500
C  9.13300 54.82800 40.98100
C  10.45800 52.75900 41.94200
C  7.79400 52.61500 38.98300
C  7.54300 51.24100 38.44000
H  6.69500 51.16400 37.13200
N  8.57800 57.80600 41.48000
C  9.78600 57.28000 41.06700
C  10.68600 58.41400 40.67100
C  9.91100 59.64400 40.90500
C  8.71100 59.19500 41.59900
C  12.10100 58.07900 40.23100
C  10.35600 61.08200 40.54000
O  11.51500 61.20700 40.16800
C  9.35400 62.29100 40.46200
N  5.90900 58.45800 42.94100
C  6.41200 59.66800 42.74000
C  5.35400 60.79100 43.10400
C  4.09300 59.91500 43.50800
C  4.68600 58.46600 43.56600
C  5.71300 61.84200 44.15800
C  2.82100 60.02000 42.63700
C  1.51600 60.72800 43.16000
N  5.36600 55.70100 42.83600
C  4.14700 56.12900 43.43500
C  3.35200 54.96400 43.67900
C  4.04300 53.84700 43.11300
C  5.28500 54.37100 42.62500
C  1.93300 54.99500 44.31600
C  3.99700 52.39600 42.77500
O  3.10100 51.59900 43.00700
C  5.27600 52.07600 42.05600
C  4.94500 51.48800 40.67400
O  4.67500 52.09200 39.65900
O  4.98100 50.12400 40.76100
C  4.53400 49.46100 39.54400
H  11.01800 55.57400 40.71400
H  7.87600 61.07900 42.12200
H  2.94100 57.59700 44.28400
H  8.16500 51.70400 40.92200
H  10.23700 53.36400 39.94800
H  9.88600 52.07800 42.57100
H  10.92900 53.52400 42.55900
H  11.30200 52.17500 41.57500
H  8.58400 53.13800 38.44200
H  6.93200 53.24900 38.77700
H  6.89100 50.72000 39.14100
H  8.45600 50.66300 38.29500
H  12.24100 58.10100 39.15000
H  12.35600 57.04200 40.45100
H  12.77600 58.74300 40.76900
H  8.40000 61.91200 40.09600
H  9.66300 62.90400 39.61500
H  9.37700 62.85400 41.39500
H  5.15900 61.40000 42.22100
H  3.76700 60.30500 44.47200
H  6.54100 61.33600 44.65600
H  4.91400 62.04500 44.87100
H  5.98400 62.80300 43.72100
H  2.62800 59.06700 42.14400
H  3.00100 60.62800 41.75000
H  1.31900 61.68200 42.67300
H  1.60400 60.96600 44.22000
H  0.60000 60.15600 43.01400
H  1.91200 55.39000 45.33200
H  1.50900 53.99300 44.24200
H  1.29200 55.64200 43.71800
H  5.83800 51.31400 42.59700
H  3.44800 49.50300 39.46300
H  4.89400 48.43700 39.63700
H  5.02500 49.87600 38.66400

