158

Mg 25.41100 1.40700 30.20700
C  27.71800 0.94300 32.92200
C  22.87600 1.72300 32.51300
C  23.27600 1.53700 27.65700
C  28.02600 0.55400 28.07100
N  25.33500 1.28700 32.51100
C  26.40400 1.26300 33.37500
C  25.92900 1.57300 34.84900
C  24.39700 1.70500 34.68100
C  24.14500 1.59000 33.14300
C  23.79600 0.48500 35.41100
C  26.68300 2.87100 35.49000
C  27.10300 2.85700 36.98700
H  26.39500 3.93300 37.88300
N  23.37200 1.59900 30.11500
C  22.52400 1.76600 31.18700
C  21.15200 1.93900 30.65000
C  21.23400 1.69000 29.27900
C  22.65900 1.54700 28.95500
C  19.86700 2.27600 31.37800
C  20.20000 1.66000 28.23900
O  20.45700 1.28900 27.13800
C  18.77100 1.91900 28.62600
N  25.49000 0.85800 28.12200
C  24.55600 1.30700 27.24400
C  25.11200 1.20600 25.77200
C  26.67000 1.06100 25.93900
C  26.78300 0.86400 27.47700
C  24.50200 0.22600 24.72900
C  27.52400 2.14600 25.31300
C  27.59400 3.59100 26.02700
N  27.43100 0.88300 30.38200
C  28.41700 0.56000 29.40900
C  29.72600 0.35100 29.99200
C  29.44500 0.51100 31.37400
C  28.11600 0.80800 31.52700
C  31.07400 -0.00200 29.31200
C  30.12600 0.46500 32.63600
O  31.29700 0.34800 32.92800
C  29.03800 0.91400 33.68200
C  28.89100 -0.14600 34.88100
O  28.10300 -1.06300 34.90500
O  29.64000 0.22800 35.96300
C  29.22300 -0.49900 37.18300
H  21.97900 1.88400 33.11400
H  22.61500 1.83000 26.83800
H  28.90100 0.49600 27.42000
H  26.14700 0.69000 35.45000
H  23.84300 2.51200 35.16200
H  24.36400 0.36900 36.33400
H  23.80900 -0.30700 34.66200
H  22.77100 0.67100 35.73400
H  25.98800 3.71000 35.51100
H  27.60300 3.21900 35.02000
H  28.14200 3.17800 37.05000
H  26.95600 1.89800 37.48500
H  19.29600 1.35100 31.29200
H  19.40000 3.17100 30.96800
H  19.93000 2.38200 32.46100
H  18.22300 1.85800 27.68500
H  18.74300 2.90400 29.09100
H  18.35600 1.14900 29.27600
H  24.94600 2.20800 25.37600
H  27.21700 0.21400 25.52300
H  24.00800 0.67800 23.86900
H  23.73700 -0.44800 25.11400
H  25.22000 -0.51200 24.37100
H  27.26800 2.32000 24.26700
H  28.57500 1.85600 25.32300
H  26.94800 3.55400 26.90400
H  27.19100 4.25400 25.26100
H  28.61900 3.86100 26.27900
H  31.00400 -0.46700 28.32800
H  31.50700 -0.71200 30.01700
H  31.74600 0.84300 29.16300
H  29.32400 1.90100 34.04300
H  29.68300 -1.47900 37.31400
H  28.14900 -0.63700 37.30400
H  29.56200 0.09400 38.03200
Mg 46.68800 16.84700 28.72900
C  44.64900 16.66600 31.48900
C  48.79400 18.91500 30.56900
C  48.40300 17.52300 25.97500
C  44.19400 15.27500 26.82500
N  46.66100 17.71500 30.78800
C  45.76100 17.47800 31.72100
C  46.11800 17.91500 33.11300
C  47.41600 18.81800 32.75100
C  47.62300 18.56800 31.22100
C  47.46400 20.32000 33.12300
C  46.38800 16.77700 34.07200
C  46.55400 17.06100 35.54000
H  46.29500 18.45300 36.02600
N  48.39300 18.02900 28.36000
C  49.08100 18.75000 29.21100
C  50.24400 19.33100 28.52500
C  50.13600 19.00000 27.15100
C  48.94300 18.12200 27.12700
C  51.35000 20.12700 29.20500
C  50.95300 19.34400 25.95200
O  50.70600 18.97600 24.78200
C  52.23300 20.10800 26.20700
N  46.36800 16.47600 26.73500
C  47.23900 16.79000 25.80800
C  46.89200 16.40000 24.43300
C  45.61100 15.49100 24.66200
C  45.36600 15.74800 26.16400
C  46.72300 17.67200 23.54300
C  45.74400 13.97500 24.21800
C  44.83400 13.63800 22.97000
N  44.75500 16.03100 29.01800
C  43.82800 15.49300 28.17200
C  42.70800 15.06300 28.87400
C  42.90900 15.52100 30.24500
C  44.23700 16.04100 30.22600
C  41.54500 14.40800 28.32600
C  42.43700 15.66200 31.54600
O  41.32600 15.48400 31.97000
C  43.52000 16.31900 32.47100
C  42.86000 17.47000 33.21800
O  42.64600 18.59500 32.76800
O  42.45000 17.07800 34.46500
C  42.02300 18.04900 35.42600
H  49.53100 19.41600 31.20100
H  49.01800 17.58000 25.07400
H  43.38900 14.77400 26.28300
H  45.21600 18.46500 33.38200
H  48.28900 18.41900 33.26800
H  47.44800 20.89300 32.19600
H  48.37300 20.31500 33.72400
H  46.56200 20.48900 33.71200
H  47.29900 16.28600 33.72900
H  45.59100 16.03400 34.07800
H  47.48500 16.62900 35.90600
H  45.79000 16.53900 36.11600
H  51.23000 21.14300 28.82900
H  52.28000 19.57000 29.08700
H  51.17600 20.20800 30.27800
H  51.95500 21.12500 26.48500
H  52.78700 20.03400 25.27200
H  52.76400 19.61700 27.02200
H  47.71500 15.75300 24.12700
H  44.76500 16.00000 24.20100
H  46.78800 18.44900 24.30500
H  45.71400 17.79400 23.14900
H  47.38400 17.73200 22.67900
H  45.27900 13.38300 25.00600
H  46.76200 13.73200 23.91400
H  45.45100 13.01100 22.32700
H  44.43300 14.49100 22.42200
H  44.04400 12.95300 23.27700
H  41.71400 13.33200 28.29700
H  41.38600 14.79100 27.31800
H  40.58400 14.59300 28.80500
H  43.73800 15.54500 33.20600
H  41.11300 18.49600 35.02600
H  42.79400 18.78500 35.65400
H  41.61400 17.75500 36.39300

