158

Mg 25.67300 1.49000 29.04000
C  27.53800 0.78700 31.98600
C  22.86800 1.68100 30.88300
C  23.99900 1.66400 26.12300
C  28.61700 0.46600 27.21900
N  25.30200 1.24500 31.25200
C  26.17600 1.11000 32.27500
C  25.46800 1.24600 33.62700
C  23.97700 1.57000 33.18800
C  24.05200 1.58200 31.70300
C  22.95700 0.45800 33.62800
C  26.17200 2.31500 34.58100
C  26.92700 1.92900 35.90500
H  26.57800 2.81500 37.11400
N  23.68700 1.70000 28.52900
C  22.69400 1.78100 29.42200
C  21.43900 2.01200 28.75500
C  21.72500 2.04300 27.34200
C  23.17300 1.76000 27.25600
C  20.08900 2.25200 29.46900
C  20.80500 2.24300 26.11700
O  21.13900 2.03000 24.95200
C  19.25400 2.55300 26.24300
N  26.24400 0.97000 26.94100
C  25.30000 1.24200 25.97400
C  26.01900 1.26100 24.56100
C  27.48000 0.88800 24.87900
C  27.48000 0.71300 26.40300
C  25.38500 0.44200 23.45700
C  28.53000 1.80900 24.20500
C  29.02300 1.51300 22.77200
N  27.72700 0.85900 29.43500
C  28.73800 0.41000 28.62400
C  29.81800 -0.09800 29.47200
C  29.49700 0.16300 30.75900
C  28.12000 0.66800 30.74000
C  31.00400 -0.73900 28.91900
C  29.94800 0.01400 32.09600
O  31.03000 -0.27900 32.57100
C  28.68700 0.44500 32.98400
C  28.23400 -0.68000 33.73800
O  27.39900 -1.50200 33.32500
O  28.87600 -0.69300 34.95500
C  28.42200 -1.65000 35.92000
H  21.87000 1.70100 31.32600
H  23.50400 1.86400 25.17000
H  29.43900 0.23100 26.53900
H  25.59500 0.27500 34.10500
H  23.57600 2.48100 33.63100
H  22.07700 0.94100 34.05300
H  23.47500 -0.12600 34.38900
H  22.61800 -0.17500 32.80800
H  25.40300 2.99100 34.95700
H  26.76100 2.97400 33.94400
H  27.97100 1.77700 35.63000
H  26.53100 0.92100 36.03200
H  20.15400 1.60500 30.34400
H  19.17500 1.97600 28.94400
H  19.90900 3.27900 29.78700
H  18.88500 2.66500 25.22400
H  19.18900 3.50500 26.77000
H  18.68100 1.83900 26.83500
H  25.86100 2.30400 24.28500
H  27.69800 -0.09600 24.46300
H  25.65300 -0.61400 23.45100
H  25.58900 0.78600 22.44300
H  24.31200 0.48700 23.64200
H  29.44800 1.72200 24.78600
H  28.28300 2.86600 24.29800
H  30.09200 1.69200 22.65600
H  28.37300 2.18100 22.20500
H  28.65500 0.51000 22.55500
H  30.82100 -1.05200 27.89100
H  31.36100 -1.59600 29.49000
H  31.78500 0.00300 29.09000
H  28.82700 1.32000 33.61800
H  29.24400 -1.80500 36.61900
H  28.29400 -2.63500 35.47000
H  27.59800 -1.31400 36.54900
Mg 43.50200 4.58100 47.18600
C  41.61800 7.70600 47.19200
C  40.68300 3.01000 46.59100
C  45.46100 1.98800 46.66200
C  46.35300 6.68000 47.06300
N  41.40000 5.27300 46.91200
C  40.87900 6.53400 47.03200
C  39.32500 6.44400 46.99500
C  39.05000 4.91000 47.02800
C  40.46400 4.36900 46.82200
C  38.45500 4.25900 48.32900
C  38.64500 7.15700 45.80700
C  39.42700 7.21900 44.45000
H  38.72400 6.81600 43.19200
N  43.13800 2.78300 46.72200
C  41.85400 2.24000 46.52000
C  41.94400 0.80800 46.30700
C  43.32400 0.44800 46.32800
C  44.06000 1.73800 46.62200
C  40.73900 -0.11400 46.03400
C  43.93700 -0.90800 46.06800
O  43.15000 -1.81200 45.92000
C  45.34400 -1.19900 46.07200
N  45.66800 4.36900 46.89500
C  46.23400 3.19300 46.71300
C  47.80500 3.29800 46.54600
C  48.00500 4.82000 46.61900
C  46.60900 5.32800 46.94300
C  48.50500 2.43900 47.64400
C  48.55600 5.45900 45.27800
C  50.00100 5.16800 44.76000
N  44.01300 6.76800 47.22900
C  45.16500 7.42300 47.06200
C  44.98300 8.87900 47.05800
C  43.57100 9.03200 47.16700
C  43.03300 7.68800 47.31500
C  46.13300 9.91000 47.15800
C  42.48800 9.98900 47.40500
O  42.52200 11.21500 47.58200
C  41.21200 9.16400 47.29100
C  40.19700 9.39300 48.37100
O  40.15800 8.99600 49.51600
O  39.19800 10.16400 47.78300
C  38.00800 10.57400 48.46100
H  39.82800 2.33700 46.50300
H  46.12300 1.12200 46.59700
H  47.32000 7.18100 46.99600
H  38.96000 6.87200 47.92900
H  38.35500 4.59200 46.25100
H  38.25500 5.08400 49.01300
H  39.04200 3.42700 48.71700
H  37.58900 3.73000 47.93100
H  38.55400 8.16500 46.21200
H  37.70900 6.66000 45.55400
H  40.34700 6.64700 44.56800
H  39.62000 8.28300 44.32000
H  40.48700 -0.20800 44.97800
H  39.87200 0.39300 46.45600
H  40.71700 -1.09700 46.50500
H  45.65600 -0.97300 47.09200
H  45.88300 -0.58100 45.35400
H  45.48800 -2.26500 45.89500
H  48.05700 2.91600 45.55700
H  48.59400 5.10800 47.49000
H  49.56800 2.52900 47.42000
H  48.24800 1.39200 47.48200
H  48.28500 2.76600 48.66000
H  48.39400 6.53000 45.15300
H  47.74100 5.13200 44.63300
H  49.88500 4.54800 43.87100
H  50.69800 4.72600 45.47200
H  50.47300 6.12600 44.54200
H  46.51300 9.89400 48.17900
H  45.79600 10.92900 46.96900
H  46.96000 9.66800 46.49000
H  40.74800 9.31800 46.31600
H  37.15600 9.99600 48.10400
H  37.86500 11.64900 48.35000
H  37.99300 10.27600 49.50900

