158

Mg 36.06400 1.36200 29.82800
C  33.63700 2.01700 32.35500
C  38.43300 1.50400 32.32900
C  38.22000 0.49100 27.46700
C  33.51000 1.48700 27.46300
N  36.01500 1.71900 32.05700
C  34.93900 1.86400 32.86400
C  35.39600 2.00100 34.32600
C  36.88300 1.97100 34.24900
C  37.14400 1.82100 32.77400
C  37.53600 3.18900 34.82700
C  34.61200 0.89600 35.18400
C  34.33000 1.16500 36.72000
H  34.95400 2.41600 37.34500
N  38.06000 0.95200 29.90300
C  38.79700 1.09700 31.02600
C  40.14900 0.75900 30.64500
C  40.18200 0.47100 29.23100
C  38.77100 0.59400 28.78400
C  41.25800 0.64900 31.68400
C  41.39600 0.13700 28.32100
O  41.26100 -0.03700 27.07600
C  42.81700 -0.09000 28.83300
N  35.87800 0.99300 27.82400
C  36.91100 0.53500 27.02500
C  36.54500 0.22600 25.53100
C  35.07300 0.70300 25.55900
C  34.77000 1.04800 27.08200
C  37.38700 1.01700 24.45100
C  34.10200 -0.30300 24.78300
C  33.42700 -1.49400 25.58600
N  33.97700 1.97000 29.76300
C  33.05600 1.78900 28.78100
C  31.78500 2.13600 29.22300
C  31.93000 2.11200 30.62800
C  33.28400 2.06400 30.95600
C  30.50700 2.15400 28.47600
C  31.25900 2.22100 31.90400
O  30.09100 2.43500 32.03100
C  32.28200 2.12500 33.04700
C  32.15300 3.39000 33.90300
O  32.35400 4.54400 33.53100
O  31.69700 2.98700 35.09700
C  31.19700 4.03800 35.93900
H  39.23300 1.45200 33.07100
H  38.84200 0.11600 26.65100
H  32.77900 1.61700 26.66200
H  35.00800 2.97500 34.62200
H  37.30000 1.14000 34.81800
H  36.80800 3.98900 34.68900
H  38.44100 3.32900 34.23600
H  37.83300 2.92500 35.84200
H  35.22300 -0.00000 35.08000
H  33.68700 0.46900 34.79600
H  34.74100 0.36500 37.33500
H  33.25900 1.14400 36.92300
H  41.66300 -0.36300 31.71800
H  41.04100 0.88500 32.72600
H  42.08600 1.31100 31.43500
H  42.85600 -1.08400 29.28000
H  43.12100 0.68400 29.53700
H  43.56700 -0.00400 28.04600
H  36.60400 -0.86300 25.54400
H  34.92900 1.62800 25.00100
H  38.07700 1.76100 24.84800
H  36.82800 1.54000 23.67400
H  37.79400 0.23400 23.81200
H  34.66400 -0.76900 23.97400
H  33.23500 0.15200 24.30600
H  32.35300 -1.37200 25.72900
H  33.76900 -1.57900 26.61700
H  33.60300 -2.44600 25.08400
H  29.84200 1.29800 28.59100
H  30.64500 2.44300 27.43400
H  29.95800 3.03000 28.82300
H  32.03000 1.27200 33.67600
H  31.14500 5.00200 35.43300
H  31.73200 4.15900 36.88100
H  30.16500 3.74500 36.13200
Mg -9.48400 40.65600 43.62400
C  -8.04700 37.49400 42.90200
C  -6.94000 42.19300 41.86100
C  -11.17300 43.49800 43.77700
C  -12.23700 38.85500 45.03400
N  -7.88400 39.92100 42.28300
C  -7.44800 38.58300 42.19200
C  -6.31600 38.55300 41.25000
C  -5.62100 39.96200 41.58100
C  -6.91300 40.77400 41.95400
C  -4.55600 39.98000 42.64000
C  -6.71900 38.38400 39.76200
C  -6.32400 37.04300 39.16000
H  -5.24500 37.09400 38.12400
N  -9.14100 42.50300 42.81900
C  -8.02400 42.97000 42.18700
C  -8.12500 44.39800 41.93400
C  -9.37000 44.83500 42.41600
C  -9.94400 43.63400 43.07800
C  -7.14200 45.24300 41.22400
C  -9.85600 46.37400 42.38100
O  -9.24500 47.26200 41.81800
C  -11.23200 46.68100 42.92600
N  -11.37200 41.10900 44.26600
C  -11.78900 42.34300 44.30600
C  -13.10900 42.47400 45.13200
C  -13.52700 40.99400 45.42900
C  -12.31400 40.24900 44.87700
C  -12.92600 43.43200 46.33900
C  -14.77400 40.50700 44.64900
C  -15.82600 39.64400 45.37200
N  -10.00800 38.62100 44.07900
C  -11.06500 38.04400 44.73500
C  -10.96200 36.63900 44.68400
C  -9.69400 36.36500 44.19800
C  -9.23500 37.59900 43.66100
C  -12.02200 35.71400 45.14800
C  -8.80000 35.31700 43.84100
O  -8.84900 34.05600 43.99300
C  -7.70300 36.03000 42.87200
C  -6.27700 35.77400 43.35300
O  -5.66500 36.36000 44.23500
O  -5.72200 34.82400 42.56800
C  -4.31500 34.50200 42.68900
H  -6.01300 42.67900 41.55000
H  -11.69700 44.45600 43.80600
H  -13.02200 38.27900 45.52900
H  -5.62000 37.75500 41.50600
H  -5.10400 40.42500 40.74100
H  -4.76400 40.83400 43.28500
H  -3.56600 40.10400 42.20400
H  -4.52800 39.15800 43.35600
H  -6.33000 39.18700 39.13600
H  -7.80900 38.37300 39.75400
H  -7.24200 36.77500 38.63600
H  -6.07700 36.29300 39.91200
H  -6.35600 44.67300 40.72800
H  -6.74100 45.95200 41.94800
H  -7.65600 45.78100 40.42700
H  -11.39500 46.61400 44.00100
H  -12.00500 46.12700 42.39300
H  -11.36300 47.71700 42.61200
H  -13.88300 42.90400 44.49700
H  -13.57000 40.91600 46.51600
H  -13.57100 44.29700 46.18200
H  -11.88900 43.76000 46.41100
H  -13.23000 43.02500 47.30300
H  -14.52200 39.88400 43.79100
H  -15.34400 41.30900 44.17800
H  -16.15000 38.83700 44.71500
H  -16.67500 40.28600 45.60700
H  -15.44800 39.13700 46.25900
H  -12.88000 35.85500 44.49100
H  -12.27500 35.86000 46.19800
H  -11.67400 34.68800 45.02300
H  -7.85100 35.64400 41.86300
H  -4.11000 33.73500 41.94200
H  -4.07800 34.10000 43.67400
H  -3.61900 35.33500 42.59300

