158

Mg 25.09300 0.87000 29.97000
C  27.18200 0.60400 32.77700
C  22.43800 1.36600 32.20900
C  22.88900 0.52800 27.35500
C  27.66000 -0.33500 27.94800
N  24.85600 1.05100 32.19200
C  25.86200 0.89600 33.10300
C  25.40700 1.23500 34.55200
C  23.83800 1.36200 34.33100
C  23.68900 1.27900 32.80800
C  22.98100 0.28400 35.10600
C  26.10200 2.53400 35.09300
C  26.58300 2.33300 36.54000
H  26.02800 3.20100 37.67800
N  22.98100 0.94600 29.81800
C  22.10300 1.23300 30.87400
C  20.76500 1.31300 30.36800
C  20.90200 0.92400 28.97900
C  22.29100 0.75600 28.65700
C  19.55100 1.59800 31.13700
C  19.74500 0.70700 28.00800
O  19.94000 0.19800 26.90000
C  18.38100 0.94900 28.39300
N  25.24900 0.16900 27.98000
C  24.19200 0.23300 27.06400
C  24.71100 0.04400 25.60100
C  26.24200 0.00200 25.76400
C  26.43900 -0.01900 27.31800
C  24.05100 -1.20900 24.88300
C  27.03100 1.20500 25.13000
C  27.45600 2.46700 25.95800
N  27.08200 0.39500 30.18200
C  27.96300 -0.09200 29.33000
C  29.24800 -0.33200 30.01000
C  28.97800 -0.11600 31.33400
C  27.65300 0.28000 31.43600
C  30.58300 -0.71700 29.29900
C  29.52100 -0.19000 32.63600
O  30.61900 -0.49700 33.05100
C  28.46500 0.40100 33.60700
C  28.26500 -0.55200 34.72800
O  27.61600 -1.58700 34.73900
O  28.97600 -0.12400 35.78000
C  28.67000 -0.80400 37.02800
H  21.60800 1.63100 32.86700
H  22.23600 0.64300 26.48700
H  28.44100 -0.59200 27.22900
H  25.58900 0.42500 35.25900
H  23.42800 2.33800 34.59400
H  22.94400 -0.71000 34.66000
H  21.95200 0.64400 35.11500
H  23.30200 0.04500 36.12000
H  25.39600 3.34800 34.92300
H  27.02300 2.71200 34.53800
H  27.67200 2.29200 36.57600
H  26.27100 1.33100 36.83300
H  19.67100 1.81400 32.19900
H  19.06000 0.62500 31.16700
H  18.94000 2.39700 30.71800
H  17.73500 0.62600 27.57700
H  18.24500 1.98900 28.68800
H  18.15000 0.28100 29.22300
H  24.44800 0.89300 24.97000
H  26.65000 -0.93000 25.37400
H  23.09700 -1.07200 24.37400
H  23.81600 -1.94800 25.64900
H  24.79700 -1.59000 24.18600
H  26.42200 1.67700 24.35900
H  27.91100 0.84700 24.59700
H  28.53500 2.61000 26.02300
H  27.16300 2.30100 26.99500
H  26.87300 3.30400 25.57600
H  30.78300 -0.12900 28.40400
H  30.30500 -1.73600 29.03100
H  31.49300 -0.70300 29.90000
H  28.86900 1.33000 34.00900
H  27.63100 -0.55700 37.24500
H  29.35200 -0.44100 37.79700
H  28.78800 -1.88400 36.93500
Mg 41.72300 41.14500 27.30500
C  41.50600 43.80900 29.67900
C  42.60400 39.16100 29.84100
C  42.35400 38.86100 25.05900
C  41.61900 43.59500 24.79600
N  42.03100 41.51600 29.49200
C  41.79300 42.59700 30.29200
C  41.68400 42.22900 31.74200
C  42.24800 40.75600 31.71700
C  42.24800 40.43500 30.26100
C  43.59400 40.66700 32.40000
C  40.22400 42.37400 32.27800
C  40.13400 42.77400 33.72800
H  39.56500 41.69700 34.69000
N  42.25200 39.26100 27.48000
C  42.66400 38.56600 28.59300
C  43.03200 37.18100 28.26100
C  42.88500 37.07200 26.82200
C  42.44400 38.47200 26.40800
C  43.43700 36.06100 29.30100
C  43.13900 35.97900 25.94200
O  42.75100 35.95100 24.79400
C  43.69900 34.61800 26.41100
N  42.02400 41.22800 25.24300
C  42.15000 40.08300 24.51100
C  42.09200 40.34600 22.99300
C  41.70800 41.93000 22.96200
C  41.85200 42.28900 24.38700
C  43.52400 40.14700 22.31100
C  40.30000 42.25300 22.42100
C  39.17600 41.52500 23.08900
N  41.55700 43.27400 27.16400
C  41.45500 44.06900 26.05700
C  41.15700 45.42100 26.52400
C  41.12400 45.38600 27.89500
C  41.45000 44.05900 28.24200
C  40.96500 46.61000 25.70100
C  40.81100 46.11300 29.09100
O  40.33200 47.24200 29.14000
C  41.03400 45.19700 30.33300
C  41.90000 45.77700 31.38700
O  43.09800 45.99700 31.24000
O  41.16900 45.82200 32.60500
C  42.06900 46.13300 33.71600
H  43.04600 38.45400 30.54600
H  42.43800 38.13400 24.24800
H  41.48200 44.37700 24.04600
H  42.37300 42.78300 32.37900
H  41.57000 40.05300 32.20100
H  44.22300 39.87800 31.98900
H  43.27100 40.44100 33.41600
H  44.17800 41.58300 32.49000
H  39.70700 41.43500 32.08200
H  39.70700 43.08100 31.63000
H  39.46500 43.63400 33.74700
H  41.03800 43.13300 34.22100
H  44.36300 35.52000 29.10400
H  42.63100 35.33200 29.38800
H  43.65600 36.47500 30.28500
H  42.93000 34.18500 27.05100
H  44.55800 34.81000 27.05400
H  44.06900 33.95200 25.63100
H  41.36300 39.82100 22.37500
H  42.40600 42.57000 22.42300
H  43.85800 41.13900 22.00500
H  43.50300 39.42000 21.49900
H  44.15800 39.69100 23.07200
H  40.17300 42.03200 21.36100
H  40.11000 43.32700 22.40500
H  38.37200 42.21000 23.35900
H  39.39200 40.96900 24.00100
H  38.71200 40.83900 22.38000
H  40.98000 46.53300 24.61400
H  41.80800 47.26700 25.91800
H  40.06500 47.13700 26.01500
H  40.02400 45.05700 30.71800
H  43.07600 46.47000 33.47100
H  41.96500 45.29500 34.40700
H  41.62900 47.01600 34.17900

