158

Mg 9.43800 3.81600 27.71200
C  10.75800 2.26500 30.58100
C  7.77400 6.08200 29.77800
C  7.94700 5.11300 24.96000
C  10.62400 1.23300 25.86600
N  9.31800 4.10200 29.85900
C  9.96400 3.42400 30.93600
C  9.51600 3.98600 32.28800
C  8.60000 5.16700 31.90000
C  8.51900 5.09700 30.38800
C  7.17600 5.05700 32.55900
C  10.64900 4.36100 33.28400
C  10.49100 5.51000 34.27800
H  10.85200 5.16500 35.67100
N  8.09600 5.33100 27.42700
C  7.57100 6.21200 28.41900
C  6.89400 7.29400 27.71100
C  6.85800 6.98000 26.35300
C  7.67000 5.78700 26.16800
C  6.19600 8.50000 28.39800
C  6.26900 7.80500 25.22000
O  6.46900 7.41300 24.04500
C  5.52500 9.12600 25.46300
N  9.22500 3.20700 25.67800
C  8.57000 3.88500 24.78500
C  8.69000 3.13000 23.39600
C  9.63700 1.98200 23.65600
C  9.92600 2.18600 25.09100
C  7.30200 2.71800 22.81400
C  10.97300 2.06000 22.77300
C  10.90200 0.99400 21.61000
N  10.53100 2.20200 28.04200
C  10.93100 1.23000 27.19700
C  11.74200 0.26200 27.94800
C  11.68700 0.68400 29.28300
C  10.93500 1.81000 29.27000
C  12.24800 -1.00500 27.37900
C  12.08100 0.29100 30.60500
O  12.67100 -0.65000 31.00500
C  11.52900 1.37100 31.49100
C  10.83600 0.78000 32.58800
O  9.87200 0.02400 32.55000
O  11.52000 1.06500 33.75200
C  11.06700 0.42500 34.99300
H  7.26200 6.72500 30.49600
H  7.58900 5.37300 23.96200
H  10.85400 0.32600 25.30400
H  8.85200 3.24500 32.73300
H  9.02300 6.15300 32.09200
H  6.52500 4.37000 32.01800
H  6.66800 6.02100 32.54000
H  7.25200 4.66700 33.57300
H  11.61200 4.22200 32.79400
H  10.55800 3.46100 33.89200
H  9.43600 5.77300 34.36700
H  11.13000 6.31000 33.90400
H  5.13300 8.51500 28.15800
H  6.56100 9.48500 28.10700
H  6.25400 8.39800 29.48200
H  6.25200 9.82700 25.87500
H  4.61500 8.93500 26.03200
H  5.29000 9.61300 24.51700
H  9.18000 3.85200 22.74400
H  9.11300 1.02800 23.61100
H  7.50400 1.81200 22.24400
H  6.97000 3.58000 22.23400
H  6.56200 2.57700 23.60200
H  11.83200 1.89000 23.42200
H  11.14000 3.08000 22.42800
H  10.06600 0.31800 21.78700
H  11.82100 0.41900 21.49600
H  10.80700 1.53000 20.66600
H  11.84300 -1.39400 26.44500
H  11.95500 -1.86000 27.98800
H  13.32600 -0.95100 27.22500
H  12.40500 1.86000 31.91600
H  10.46400 -0.47600 34.87500
H  10.61000 1.12400 35.69300
H  11.93700 0.05400 35.53600
Mg -5.82700 24.51200 27.30000
C  -3.98300 26.30900 29.66400
C  -6.85500 22.39800 29.84700
C  -7.59100 22.77500 25.05300
C  -4.66600 26.58300 24.80200
N  -5.38200 24.35500 29.48600
C  -4.71600 25.26000 30.21300
C  -5.03000 25.15400 31.69200
C  -5.71200 23.73300 31.83900
C  -6.03700 23.48000 30.30000
C  -4.86800 22.62000 32.47800
C  -5.99600 26.31600 32.11800
C  -5.54000 26.92800 33.48200
H  -6.23100 26.29900 34.78000
N  -6.98600 22.82300 27.44200
C  -7.29400 22.09600 28.56200
C  -8.18600 21.02700 28.20600
C  -8.44600 21.08000 26.83900
C  -7.70300 22.28200 26.42500
C  -8.73400 20.04100 29.24500
C  -9.34400 20.21400 25.95600
O  -9.50200 20.44500 24.76000
C  -10.01900 19.08400 26.62400
N  -6.00700 24.61400 25.20800
C  -6.91500 23.87800 24.56200
C  -6.79800 24.22800 23.05600
C  -5.87600 25.45600 23.00800
C  -5.60200 25.63900 24.48000
C  -6.28900 23.16800 22.00900
C  -6.55400 26.74200 22.34000
C  -5.75600 27.38200 21.16300
N  -4.45300 26.05100 27.23800
C  -4.11600 26.78100 26.12000
C  -3.23800 27.85900 26.59800
C  -3.09000 27.70400 27.90700
C  -3.87100 26.60300 28.29400
C  -2.61200 28.88500 25.70400
C  -2.47500 28.18000 29.14400
O  -1.76700 29.13600 29.19800
C  -3.12400 27.32900 30.36300
C  -1.87600 26.88400 31.11400
O  -1.03900 26.08700 30.70700
O  -1.89300 27.54200 32.34900
C  -0.87400 27.00000 33.28900
H  -7.23300 21.86500 30.72200
H  -8.11200 22.24900 24.25000
H  -4.33000 27.35400 24.10500
H  -4.01300 25.10900 32.08000
H  -6.64500 23.75100 32.40300
H  -5.61700 22.11600 33.09000
H  -4.10400 22.98700 33.16300
H  -4.44600 21.86800 31.81200
H  -6.97900 25.85700 32.22500
H  -6.18100 27.04900 31.33300
H  -5.76200 27.99200 33.39900
H  -4.48400 26.84000 33.73600
H  -9.82200 19.99500 29.19700
H  -8.38600 20.19100 30.26700
H  -8.33700 19.05500 29.00200
H  -10.47700 18.46600 25.85200
H  -10.76600 19.49200 27.30500
H  -9.34000 18.44900 27.19300
H  -7.82700 24.50200 22.82300
H  -4.92500 25.32200 22.49200
H  -7.03500 22.70800 21.36100
H  -5.77100 22.29600 22.40800
H  -5.53600 23.66500 21.39600
H  -6.69400 27.47900 23.13100
H  -7.61600 26.63100 22.12000
H  -5.05100 26.65600 20.75700
H  -5.33300 28.34700 21.44300
H  -6.40800 27.64900 20.33100
H  -1.92600 28.41800 24.99700
H  -1.91500 29.37300 26.38500
H  -3.43000 29.49600 25.32100
H  -3.67100 28.01500 31.01000
H  0.09800 26.63000 32.96100
H  -1.31100 26.01700 33.47000
H  -0.83100 27.37100 34.31200

