158

Mg -2.41500 17.53200 26.03700
C  -2.77900 15.18600 28.72500
C  -2.86000 20.12500 28.36800
C  -2.73000 19.76900 23.53200
C  -2.41700 14.93600 23.82900
N  -2.72800 17.60600 28.35100
C  -2.67600 16.52900 29.19300
C  -2.56800 17.05500 30.62600
C  -2.78300 18.65700 30.45600
C  -2.73000 18.82700 28.98300
C  -4.00300 19.20000 31.26600
C  -1.16700 16.63400 31.25800
C  -0.76200 17.53100 32.42900
H  -0.31900 16.83500 33.74200
N  -2.68300 19.56500 25.94600
C  -2.92600 20.40000 27.01000
C  -3.35700 21.67600 26.49400
C  -3.19700 21.72100 25.14400
C  -2.91000 20.28000 24.80200
C  -3.91600 22.72300 27.37700
C  -3.51100 22.85200 24.16100
O  -3.41600 22.71000 22.94500
C  -3.83400 24.29500 24.68900
N  -2.67800 17.36900 23.91900
C  -2.61700 18.49000 23.13400
C  -2.31800 18.01500 21.66500
C  -2.33000 16.44400 21.82200
C  -2.39200 16.27600 23.28000
C  -3.36300 18.66100 20.63900
C  -1.05500 15.80900 21.24300
C  0.28900 15.89500 21.93500
N  -2.55700 15.53100 26.17800
C  -2.52200 14.56300 25.16600
C  -2.56800 13.24600 25.76300
C  -2.59500 13.48200 27.07500
C  -2.67300 14.80900 27.36600
C  -2.39100 11.84000 25.16600
C  -2.66500 12.79900 28.38500
O  -2.66100 11.60500 28.58000
C  -2.71000 13.85400 29.51400
C  -1.49200 13.62300 30.30100
O  -0.37700 13.78900 29.96800
O  -1.93200 13.06300 31.52800
C  -0.80600 12.60300 32.34300
H  -2.97500 20.95400 29.07000
H  -2.53800 20.59200 22.84100
H  -2.26300 14.06300 23.19100
H  -3.38000 16.52800 31.12800
H  -1.85700 19.04800 30.87600
H  -3.77900 19.88400 32.08400
H  -4.66700 18.39600 31.58500
H  -4.65600 19.83800 30.67100
H  -0.42300 16.68400 30.46400
H  -1.26700 15.60400 31.60300
H  -1.66400 18.05300 32.74900
H  -0.09000 18.29600 32.03900
H  -3.24600 23.57600 27.48100
H  -4.15900 22.26800 28.33700
H  -4.81200 23.16500 26.94100
H  -4.87600 24.19600 24.99300
H  -3.68500 24.86900 23.77400
H  -3.17800 24.66100 25.48000
H  -1.27200 18.23500 21.45400
H  -3.25600 16.02900 21.42500
H  -4.08900 19.38800 21.00300
H  -4.04100 17.96800 20.14100
H  -2.78500 19.22300 19.90600
H  -0.77500 16.30800 20.31500
H  -1.23700 14.73600 21.17200
H  0.26300 16.62600 22.74200
H  0.94500 16.30200 21.16600
H  0.69100 14.94100 22.27800
H  -2.10800 11.90000 24.11500
H  -3.30000 11.24800 25.27100
H  -1.56000 11.41100 25.72600
H  -3.58700 13.63800 30.12500
H  -0.38500 13.48700 32.82400
H  -0.10200 12.00300 31.76600
H  -1.14300 11.99700 33.18400
Mg 2.95900 -0.88400 44.00900
C  6.46300 -0.31600 43.70600
C  2.49800 1.73300 41.71600
C  -0.26500 -1.87700 43.79600
C  3.71500 -3.80700 45.81500
N  4.38900 0.56400 42.95300
C  5.69300 0.62100 42.97500
C  6.20200 1.63400 41.93600
C  4.90500 2.28800 41.41400
C  3.78700 1.52600 42.08400
C  4.76000 3.85000 41.64200
C  7.12500 1.00500 40.80600
C  8.38400 1.77900 40.42600
H  8.21100 2.37900 39.01000
N  1.33800 -0.11100 43.01600
C  1.35700 0.97400 42.14500
C  -0.03400 1.25700 41.79500
C  -0.86200 0.29600 42.43700
C  0.03300 -0.61900 43.16000
C  -0.42100 2.48800 41.05300
C  -2.32200 0.24800 42.46000
O  -2.90100 1.10800 41.83500
C  -3.17900 -0.73000 43.21300
N  1.83300 -2.59200 44.79600
C  0.51900 -2.69600 44.62700
C  0.12400 -4.04200 45.04900
C  1.24800 -4.51000 46.05000
C  2.32900 -3.62500 45.50300
C  -1.23000 -4.13700 45.74200
C  1.53500 -6.08200 45.87600
C  1.88800 -6.74500 47.24500
N  4.70700 -1.90700 44.61600
C  4.85600 -3.05600 45.30900
C  6.27000 -3.33200 45.55500
C  6.95500 -2.23000 44.98000
C  5.92700 -1.44700 44.36400
C  6.86100 -4.47000 46.24400
C  8.24900 -1.62200 44.75600
O  9.41000 -2.01700 44.90200
C  7.98200 -0.34600 43.86000
C  8.25500 0.86400 44.66600
O  8.13100 1.02500 45.90200
O  8.65500 1.87200 43.80200
C  8.92300 3.18300 44.35900
H  2.13000 2.56500 41.11100
H  -1.25700 -2.29700 43.61900
H  4.06500 -4.74400 46.25200
H  6.79300 2.43100 42.38700
H  4.77500 2.08700 40.35100
H  4.12000 4.05700 42.50000
H  4.37200 4.46000 40.82600
H  5.74400 4.14500 42.00600
H  6.50200 0.85800 39.92300
H  7.40700 -0.02900 41.00800
H  9.29600 1.19800 40.55700
H  8.42700 2.67100 41.05000
H  -1.16000 2.26400 40.28400
H  0.40200 2.87300 40.45200
H  -0.84100 3.24800 41.71200
H  -2.93900 -0.75200 44.27600
H  -3.01600 -1.68900 42.72100
H  -4.24900 -0.52500 43.26300
H  0.10500 -4.70200 44.18200
H  1.04000 -4.12600 47.04900
H  -1.05700 -4.65600 46.68500
H  -1.90500 -4.71900 45.11500
H  -1.72600 -3.18000 45.89800
H  2.38400 -6.30300 45.22800
H  0.67400 -6.51100 45.36200
H  1.13200 -7.50300 47.45000
H  2.01300 -6.03700 48.06400
H  2.86200 -7.19300 47.04800
H  7.48800 -5.05500 45.57200
H  6.08200 -5.11400 46.65100
H  7.54200 -4.18000 47.04500
H  8.57300 -0.46500 42.95200
H  8.32100 3.29600 45.26100
H  8.72500 3.91200 43.57400
H  9.98800 3.08200 44.57100

