158

Mg -0.08200 43.94800 24.84500
C  1.97800 43.24600 27.54400
C  -2.55400 42.78900 26.59900
C  -1.88800 43.78400 21.93900
C  2.72900 44.73500 22.90700
N  -0.23000 43.32400 26.87200
C  0.69600 43.18700 27.87300
C  0.10800 42.86000 29.19700
C  -1.39900 42.52600 28.79800
C  -1.40700 42.82500 27.31000
C  -1.78200 40.98900 29.12600
C  0.18700 44.02500 30.31900
C  0.94800 43.73300 31.58300
H  0.90300 42.25100 32.23300
N  -1.98100 43.47600 24.39300
C  -2.89400 42.99700 25.20900
C  -4.18600 42.74500 24.51200
C  -4.03500 43.19500 23.21700
C  -2.59800 43.54800 23.11900
C  -5.38400 42.28300 25.28300
C  -5.05400 43.30700 22.05000
O  -4.78500 43.74500 20.91200
C  -6.48300 42.81000 22.36200
N  0.33600 44.14000 22.67900
C  -0.54600 44.11300 21.69200
C  0.06200 44.63500 20.36100
C  1.44100 45.12200 20.78500
C  1.53500 44.71300 22.26300
C  0.07000 43.57900 19.19000
C  1.63000 46.67800 20.56900
C  0.62900 47.59800 21.44800
N  1.95800 43.99000 25.14000
C  2.99100 44.36500 24.26700
C  4.23200 44.33200 24.93700
C  3.91400 43.85900 26.18000
C  2.49300 43.69600 26.30400
C  5.58200 44.79700 24.42600
C  4.45000 43.49100 27.45500
O  5.57900 43.54000 27.91700
C  3.25900 43.03900 28.43500
C  3.51300 41.68500 28.88400
O  3.15300 40.67300 28.29800
O  4.01200 41.69600 30.13700
C  4.36000 40.45200 30.78900
H  -3.41800 42.39600 27.13900
H  -2.48900 43.81000 21.02800
H  3.54200 45.16100 22.31500
H  0.68400 41.97900 29.48000
H  -2.17000 43.17800 29.21000
H  -0.95000 40.49800 29.63100
H  -2.14000 40.34800 28.32100
H  -2.64400 40.98800 29.79300
H  -0.81200 44.29600 30.66000
H  0.64800 44.89500 29.85200
H  0.68900 44.50200 32.31000
H  2.00500 43.92900 31.39900
H  -5.88000 43.21100 25.56800
H  -5.17100 41.80300 26.23700
H  -6.00300 41.51800 24.81500
H  -6.80900 43.42000 23.20500
H  -6.45400 41.73500 22.53800
H  -7.24700 42.90500 21.59000
H  -0.52000 45.50700 20.06300
H  2.13500 44.61700 20.11300
H  0.57900 44.08500 18.36900
H  -0.91100 43.17300 18.94400
H  0.78500 42.87000 19.60800
H  1.48600 46.83600 19.50000
H  2.67200 46.85600 20.83500
H  0.11600 48.17900 20.68200
H  1.21700 48.31900 22.01600
H  -0.12700 47.00600 21.96500
H  6.22700 45.20400 25.20500
H  5.41800 45.51800 23.62600
H  6.03000 43.94900 23.90700
H  3.24000 43.73300 29.27600
H  3.67800 39.65500 30.49500
H  4.32500 40.56200 31.87300
H  5.30900 40.04300 30.44200
Mg -2.15700 34.57200 26.15000
C  -3.32300 32.93200 29.00700
C  -0.75000 36.99400 28.17200
C  -1.46600 36.40400 23.36400
C  -3.95900 32.26200 24.20400
N  -1.96700 34.88900 28.38500
C  -2.48900 34.02700 29.33600
C  -2.14200 34.50900 30.75300
C  -1.43000 35.91800 30.48700
C  -1.43100 35.99400 28.90400
C  -2.15400 37.07300 31.16700
C  -1.30200 33.38900 31.64200
C  -1.83100 33.06000 33.03600
H  -0.84100 33.00200 34.24700
N  -1.19600 36.40700 25.79600
C  -0.63300 37.20200 26.75500
C  0.05000 38.33800 26.06600
C  -0.27200 38.26400 24.69300
C  -1.02100 36.99300 24.55300
C  0.79200 39.53700 26.83000
C  -0.00100 39.26300 23.57700
O  -0.25100 39.13400 22.39300
C  0.70500 40.54900 23.79200
N  -2.67000 34.33600 24.08900
C  -2.17900 35.22000 23.20400
C  -2.50400 34.68400 21.74500
C  -3.32500 33.39300 21.96900
C  -3.27300 33.28500 23.50200
C  -3.37600 35.66200 20.91000
C  -2.76100 32.13100 21.21900
C  -1.34900 31.67800 21.60100
N  -3.32700 32.97800 26.48600
C  -4.03900 32.18700 25.62500
C  -4.78800 31.18800 26.33700
C  -4.55000 31.47200 27.71200
C  -3.67300 32.55600 27.74900
C  -5.79700 30.28400 25.78800
C  -4.82700 31.05800 29.09000
O  -5.60400 30.20400 29.51100
C  -4.01700 31.91200 29.99400
C  -4.94300 32.54600 31.04300
O  -5.53600 33.60400 30.93700
O  -4.91400 31.76500 32.21700
C  -5.81500 32.35500 33.24300
H  -0.15500 37.65800 28.80300
H  -1.23400 36.88900 22.41400
H  -4.36400 31.54700 23.48500
H  -3.14700 34.58300 31.17000
H  -0.38300 35.86600 30.78400
H  -1.47400 37.85500 31.50600
H  -2.71200 36.69700 32.02500
H  -2.85000 37.46200 30.42400
H  -0.27200 33.72800 31.75800
H  -1.09100 32.43400 31.16000
H  -2.33700 32.09600 32.98500
H  -2.58500 33.83100 33.19000
H  0.80500 39.37000 27.90700
H  0.34300 40.52800 26.76900
H  1.80800 39.40200 26.45800
H  0.09600 41.16100 24.45700
H  0.74200 41.20100 22.91900
H  1.72900 40.43100 24.14800
H  -1.57800 34.29800 21.31900
H  -4.34500 33.54400 21.61700
H  -3.25400 36.68700 21.25800
H  -4.45500 35.51400 20.96900
H  -3.18000 35.56000 19.84300
H  -2.71900 32.60900 20.24000
H  -3.47700 31.30900 21.23000
H  -1.31200 30.59000 21.65900
H  -0.95200 32.05800 22.54200
H  -0.66300 31.88700 20.77900
H  -6.46800 30.01500 26.60400
H  -5.33100 29.39400 25.36700
H  -6.36000 30.84400 25.04100
H  -3.29500 31.22600 30.43700
H  -6.83400 32.51900 32.89100
H  -5.42900 33.27800 33.67700
H  -5.92100 31.63200 34.05200

