158

Mg 17.08400 -1.76400 27.82300
C  15.88000 0.20800 30.47500
C  19.14000 -3.39800 29.91400
C  18.56600 -3.16400 25.09000
C  15.28300 0.38000 25.57100
N  17.63400 -1.48000 29.90400
C  16.90100 -0.66200 30.83200
C  17.30300 -1.01200 32.20900
C  18.50700 -2.04400 32.00000
C  18.48000 -2.28700 30.50800
C  19.89900 -1.55900 32.55400
C  16.17400 -1.60700 33.10500
C  15.91700 -0.87300 34.45100
H  17.14400 -0.18400 35.14900
N  18.48000 -3.22500 27.53700
C  19.22600 -3.78700 28.53900
C  20.00100 -4.87700 27.96300
C  19.82000 -4.90100 26.57500
C  18.96300 -3.68200 26.34800
C  20.91700 -5.68900 28.73100
C  20.40600 -5.81500 25.47700
O  20.28200 -5.57300 24.23300
C  21.26800 -6.96000 25.84100
N  17.11900 -1.25500 25.67100
C  17.74900 -2.07600 24.78800
C  17.40600 -1.67900 23.33900
C  16.31800 -0.59800 23.55000
C  16.20600 -0.50000 25.03900
C  18.67900 -1.23100 22.58700
C  14.99200 -0.95000 22.78100
C  13.92700 -1.90000 23.50700
N  15.80700 -0.12900 27.94500
C  15.01800 0.60400 26.95300
C  14.19100 1.53400 27.71400
C  14.47400 1.38800 29.01300
C  15.46500 0.38200 29.13400
C  13.21100 2.41200 27.04800
C  13.98800 1.88400 30.25600
O  13.17900 2.73100 30.54200
C  14.87600 1.12600 31.32700
C  15.59200 2.14800 32.17400
O  16.75700 2.37200 31.99500
O  14.80300 2.60700 33.18000
C  15.32600 3.50000 34.17600
H  19.47500 -4.12400 30.65800
H  18.96700 -3.70000 24.22700
H  14.80300 0.95400 24.77500
H  17.66700 -0.11200 32.70400
H  18.22500 -2.96400 32.51300
H  19.93300 -0.52400 32.21400
H  20.76000 -2.00100 32.05100
H  19.98400 -1.69600 33.63200
H  16.33000 -2.64900 33.38400
H  15.30600 -1.57400 32.44700
H  15.55200 -1.65300 35.12000
H  15.18300 -0.07800 34.31800
H  21.06500 -5.33300 29.75100
H  21.91400 -5.70600 28.29200
H  20.60800 -6.73300 28.78300
H  21.49700 -7.47200 24.90700
H  20.68600 -7.58200 26.52100
H  22.18400 -6.53900 26.25500
H  16.91300 -2.51400 22.84000
H  16.54900 0.30600 22.98600
H  19.28500 -0.61400 23.25100
H  18.37200 -0.61700 21.74100
H  19.34800 -2.06000 22.35600
H  15.21700 -1.37100 21.80000
H  14.52300 -0.04100 22.40500
H  13.09200 -1.35500 23.94800
H  14.37400 -2.60900 24.20400
H  13.59300 -2.38800 22.59100
H  12.70000 1.91900 26.22100
H  13.83700 3.22500 26.68000
H  12.51900 2.76300 27.81400
H  14.22600 0.48000 31.91800
H  16.35800 3.23800 34.40800
H  14.70200 3.33400 35.05500
H  15.34200 4.52100 33.79500
Mg -2.23800 34.25500 26.34100
C  -3.94400 32.66500 28.94000
C  -0.75000 36.39000 28.59600
C  -1.06400 36.15300 23.72000
C  -4.16800 32.45400 24.08900
N  -2.37600 34.45500 28.51000
C  -3.10900 33.71900 29.39500
C  -2.77000 34.04800 30.84400
C  -1.81800 35.30600 30.70100
C  -1.72400 35.50400 29.14000
C  -2.33000 36.63300 31.41800
C  -1.93800 32.92700 31.52100
C  -1.66200 33.29900 33.00700
H  -2.32000 32.35500 34.06000
N  -0.93300 35.99700 26.12500
C  -0.35100 36.67000 27.23400
C  0.59600 37.60900 26.68000
C  0.51700 37.56800 25.24500
C  -0.59200 36.55400 24.97700
C  1.64900 38.33000 27.59200
C  1.37200 38.24300 24.21700
O  1.12000 38.09800 23.05700
C  2.61000 39.05500 24.57700
N  -2.58300 34.41300 24.25800
C  -1.94200 35.18200 23.35100
C  -2.40500 34.87500 21.87800
C  -3.34300 33.67600 22.07300
C  -3.34500 33.47000 23.60000
C  -2.96400 36.09700 21.08400
C  -2.90800 32.36000 21.30200
C  -2.05500 31.34400 22.01400
N  -3.76700 32.87900 26.49200
C  -4.39500 32.14200 25.45700
C  -5.23700 31.12000 26.00700
C  -5.14400 31.36900 27.39300
C  -4.20400 32.34900 27.62500
C  -6.12400 30.07600 25.32500
C  -5.60700 30.88500 28.60000
O  -6.38600 29.93700 28.79700
C  -4.86600 31.70400 29.78500
C  -5.76900 32.40100 30.75300
O  -6.29300 33.52500 30.60900
O  -6.08000 31.49600 31.69400
C  -7.09700 31.87300 32.65700
H  -0.24000 36.98000 29.36000
H  -0.65900 36.68000 22.85400
H  -4.65700 32.00600 23.22200
H  -3.68500 34.31000 31.37500
H  -0.85100 35.02300 31.11500
H  -2.52100 37.46500 30.74100
H  -1.71600 36.87100 32.28600
H  -3.31600 36.38000 31.80700
H  -1.04800 32.86900 30.89500
H  -2.44900 31.96500 31.50800
H  -1.98300 34.30200 33.29100
H  -0.58000 33.27000 33.13500
H  1.63200 39.41900 27.56400
H  2.59600 38.02400 27.14700
H  1.70000 38.10500 28.65700
H  2.32700 39.96000 25.11500
H  2.84200 39.44100 23.58400
H  3.42300 38.44900 24.97800
H  -1.45600 34.67100 21.38200
H  -4.36700 33.94400 21.81600
H  -3.77400 35.80300 20.41700
H  -2.23900 36.52500 20.39200
H  -3.29600 36.89000 21.75500
H  -2.33600 32.74200 20.45700
H  -3.82200 31.99700 20.83300
H  -2.63100 30.47100 22.32100
H  -1.63300 31.86700 22.87100
H  -1.24600 30.93800 21.40700
H  -5.55600 29.70900 24.46900
H  -7.01000 30.65400 25.06200
H  -6.35200 29.28400 26.03800
H  -4.24500 30.98300 30.31800
H  -6.64800 32.53700 33.39500
H  -7.55600 30.98700 33.09800
H  -7.89200 32.40100 32.13100

