158

Mg 26.70700 49.96300 25.73800
C  24.86100 51.58800 28.40000
C  29.03600 49.26600 28.17100
C  28.71000 49.01300 23.31000
C  24.72000 51.79500 23.52800
N  26.70400 50.17800 28.09100
C  25.90400 50.87100 28.93300
C  26.35100 50.71700 30.39600
C  27.79300 50.13200 30.24100
C  27.84700 49.83800 28.73200
C  28.90500 51.09300 30.68000
C  25.36200 49.86500 31.23600
C  24.96200 50.42000 32.60900
H  25.92500 50.49100 33.84300
N  28.49100 49.10800 25.69900
C  29.31700 48.88700 26.84500
C  30.45500 48.07000 26.42200
C  30.27600 47.90000 24.98200
C  29.16100 48.70600 24.58200
C  31.59200 47.56100 27.23800
C  30.86900 46.79300 24.02400
O  30.56100 46.66700 22.83400
C  31.80000 45.75800 24.52900
N  26.57100 50.11100 23.74000
C  27.53300 49.70700 22.92400
C  27.32200 50.01400 21.48200
C  25.89400 50.74600 21.45800
C  25.71600 50.94400 23.00900
C  28.37900 50.93800 20.79400
C  24.76900 49.92100 20.87400
C  24.70500 48.49300 21.41000
N  25.05300 51.33300 25.86800
C  24.37900 51.97500 24.90000
C  23.42100 52.89400 25.39300
C  23.49400 52.75000 26.77500
C  24.56700 51.79500 27.05200
C  22.61400 53.89700 24.65100
C  22.97100 53.10700 28.10200
O  22.03800 53.79400 28.40200
C  23.90700 52.45700 29.19500
C  24.28100 53.55300 30.09500
O  25.22500 54.37300 29.91000
O  23.30500 53.58600 31.11200
C  23.58300 54.70500 32.02300
H  29.72500 49.04300 28.98900
H  29.43100 48.72500 22.54300
H  24.09600 52.35100 22.82400
H  26.44400 51.69300 30.87300
H  27.95900 49.21500 30.80600
H  29.03600 51.75600 29.82400
H  29.80700 50.53000 30.91900
H  28.61200 51.67700 31.55200
H  25.79600 48.87000 31.32800
H  24.47300 49.62700 30.65200
H  24.06900 49.87000 32.90600
H  24.55000 51.41600 32.44400
H  31.46200 47.99000 28.23200
H  32.57100 47.83300 26.84400
H  31.66000 46.47400 27.28700
H  31.21000 45.31600 25.33200
H  32.76200 46.14800 24.86300
H  32.03400 45.15600 23.65100
H  27.34400 49.07900 20.92200
H  25.91100 51.65100 20.85000
H  29.40300 50.96900 21.16800
H  28.13600 52.00000 20.76400
H  28.46600 50.52500 19.78900
H  24.93700 49.88000 19.79700
H  23.83400 50.43800 21.09100
H  25.01900 48.63100 22.44400
H  25.29700 47.81600 20.79500
H  23.66000 48.21000 21.28400
H  23.26200 54.44200 23.96500
H  22.13900 54.68900 25.22900
H  21.87000 53.36000 24.06300
H  23.32700 51.77000 29.81100
H  22.78500 54.79400 32.75900
H  23.68400 55.66500 31.51600
H  24.47900 54.48900 32.60600
Mg -4.78900 25.90000 26.62600
C  -3.55800 27.27900 29.54600
C  -6.49300 23.56000 28.50200
C  -5.68200 24.44200 23.81200
C  -2.74500 28.12500 24.82200
N  -4.89300 25.43300 28.76600
C  -4.51500 26.28300 29.73100
C  -5.10100 25.84800 31.09200
C  -5.79100 24.47700 30.81800
C  -5.66900 24.40600 29.25600
C  -5.32700 23.27700 31.72600
C  -6.01700 26.90400 31.64700
C  -5.75800 27.32900 33.13200
H  -5.32100 26.27300 34.14400
N  -6.04000 24.32200 26.22300
C  -6.65700 23.45100 27.07100
C  -7.48600 22.47900 26.33800
C  -7.45000 22.92700 25.01100
C  -6.28600 23.89200 24.95100
C  -8.32600 21.61700 27.10300
C  -8.31900 22.49500 23.87000
O  -8.15900 22.88200 22.75700
C  -9.52300 21.59200 24.08800
N  -4.17000 26.22500 24.56900
C  -4.69700 25.41300 23.60800
C  -4.15800 25.78900 22.18200
C  -3.23400 27.01500 22.52500
C  -3.41400 27.17300 24.05800
C  -3.35900 24.61600 21.61700
C  -3.45800 28.31700 21.75100
C  -2.57900 28.52200 20.47200
N  -3.41100 27.32000 26.98300
C  -2.71500 28.13500 26.19000
C  -1.88600 29.04200 27.05300
C  -2.17700 28.74500 28.34600
C  -3.10200 27.69800 28.25900
C  -0.93900 30.13800 26.45500
C  -1.93000 29.12700 29.76600
O  -1.25500 29.96500 30.34600
C  -2.85800 28.11900 30.55700
C  -1.93500 27.43200 31.41200
O  -0.94600 26.84600 31.02100
O  -2.22500 27.64300 32.69100
C  -1.14500 27.38100 33.67800
H  -7.02700 22.85500 29.14300
H  -6.02300 23.96500 22.89100
H  -2.18500 28.85800 24.23600
H  -4.13600 25.74300 31.58800
H  -6.86300 24.57400 30.99000
H  -4.42000 23.54900 32.26600
H  -5.03100 22.33600 31.26100
H  -6.03200 23.01500 32.51400
H  -7.03600 26.59200 31.41600
H  -5.86100 27.83200 31.09700
H  -6.71900 27.73700 33.44300
H  -5.14800 28.23200 33.11100
H  -7.87000 21.40500 28.07000
H  -8.40400 20.62500 26.65900
H  -9.31000 22.06600 27.24500
H  -9.18000 20.59500 23.81100
H  -10.22700 21.85800 23.30000
H  -9.90400 21.97600 25.03400
H  -4.96700 25.95400 21.47000
H  -2.19200 26.72200 22.39000
H  -2.58700 25.03600 20.97400
H  -4.01800 23.94700 21.06400
H  -2.82800 24.00300 22.34600
H  -3.43000 29.25100 22.31200
H  -4.44700 28.27900 21.29400
H  -3.19400 28.69200 19.58800
H  -2.11800 27.54500 20.32700
H  -1.70500 29.15000 20.64300
H  -1.35700 30.72500 25.63700
H  -0.08300 29.62400 26.01600
H  -0.80900 30.84800 27.27100
H  -3.47700 28.72400 31.21900
H  -1.21000 26.33000 33.96100
H  -1.30700 27.96200 34.58600
H  -0.14500 27.41800 33.24500

