158

Mg 35.64400 2.77700 29.41200
C  33.65500 3.95700 32.11100
C  38.22800 2.44000 31.46500
C  37.36000 2.15400 26.69000
C  32.72800 3.27900 27.38100
N  35.87400 3.32400 31.59300
C  34.91200 3.59300 32.54900
C  35.51700 3.57500 33.90000
C  37.03500 3.25400 33.63500
C  37.00800 2.84800 32.14600
C  37.96900 4.45500 33.95100
C  34.76600 2.64400 34.90000
C  34.32900 3.24100 36.27700
H  35.30000 4.16800 36.93900
N  37.57200 2.25100 29.12900
C  38.57500 2.21700 30.07200
C  39.84400 1.83500 29.49200
C  39.56300 1.75700 28.04000
C  38.10600 2.03300 27.88900
C  41.07700 1.54100 30.23200
C  40.37700 1.37100 26.85000
O  39.92800 1.09700 25.77000
C  41.86300 1.14700 27.15900
N  35.15700 2.74100 27.34300
C  36.07100 2.46700 26.41700
C  35.44700 2.39100 25.01600
C  33.97400 2.70600 25.29600
C  33.95000 2.90900 26.77400
C  36.08200 3.21800 23.92300
C  32.93000 1.58200 24.78100
C  31.62900 2.18000 24.17500
N  33.62100 3.60100 29.56300
C  32.58400 3.70400 28.68900
C  31.43100 4.35400 29.39900
C  31.81900 4.39700 30.68900
C  33.15200 3.97300 30.79100
C  30.02500 4.50200 28.95800
C  31.29900 4.76500 31.96200
O  30.26600 5.24500 32.38900
C  32.52600 4.43400 33.01900
C  32.77800 5.74700 33.77300
O  33.55600 6.60300 33.47100
O  31.95500 5.81000 34.86700
C  31.93700 7.04400 35.66300
H  39.00900 2.28000 32.21200
H  37.92000 1.92500 25.78100
H  31.81600 3.35100 26.78500
H  35.46400 4.61300 34.23000
H  37.39700 2.38500 34.18400
H  37.57800 5.24200 34.59600
H  38.04100 4.96800 32.99200
H  38.92600 4.11100 34.34200
H  35.40500 1.77200 35.03900
H  33.84400 2.31500 34.42000
H  34.24500 2.38900 36.95200
H  33.38100 3.75100 36.10700
H  41.44300 0.58000 29.87300
H  40.99800 1.38700 31.30800
H  41.75400 2.38900 30.12400
H  42.19700 2.01300 27.73000
H  42.24400 1.25200 26.14400
H  42.05600 0.18700 27.63900
H  35.63500 1.32800 24.86900
H  33.76200 3.69800 24.89600
H  35.25600 3.70700 23.40600
H  36.67200 2.61600 23.23300
H  36.68500 4.02200 24.34600
H  32.51200 0.91400 25.53500
H  33.37300 1.01600 23.96200
H  30.81900 1.85100 24.82600
H  31.45100 1.92900 23.12900
H  31.61100 3.27000 24.18300
H  29.75600 3.60500 28.40100
H  29.67400 5.41700 28.48100
H  29.21100 4.43500 29.68000
H  32.09600 3.70200 33.70200
H  32.82200 7.68000 35.64800
H  31.85100 6.55000 36.63100
H  31.03600 7.62900 35.48000
Mg 28.23800 57.53400 42.61700
C  25.92100 55.64400 40.82700
C  30.68100 56.26300 40.71600
C  30.04500 60.14400 43.67200
C  25.34300 59.07200 44.26000
N  28.20100 56.33600 40.77600
C  27.19400 55.53700 40.30000
C  27.66800 54.61900 39.14500
C  29.24600 54.78700 39.31400
C  29.44000 55.78000 40.45400
C  30.10900 53.51500 39.48200
C  27.08700 55.03200 37.78200
C  26.52900 53.83600 37.00200
H  27.10500 53.45100 35.64600
N  30.13800 58.04500 42.39800
C  31.07300 57.33000 41.60900
C  32.34400 57.95300 41.77400
C  32.19900 59.07800 42.59900
C  30.74600 59.19300 42.90900
C  33.63800 57.42000 41.06900
C  33.29800 60.04700 42.93900
O  34.41400 59.95100 42.44900
C  33.15500 61.24300 43.94100
N  27.70900 59.46000 43.74300
C  28.70200 60.26600 44.11400
C  28.15400 61.48700 44.85300
C  26.74700 60.99900 45.21800
C  26.54100 59.82800 44.34900
C  29.00400 61.89500 46.03600
C  25.64200 62.06400 45.25600
C  24.85700 62.22400 46.59500
N  26.09800 57.31900 42.69900
C  25.11500 57.99400 43.39900
C  23.76600 57.45000 43.12100
C  24.09200 56.60800 42.06800
C  25.51300 56.45700 41.90300
C  22.33400 57.88600 43.54300
C  23.42600 55.71600 41.09400
O  22.23500 55.46800 40.97100
C  24.57700 54.99100 40.32500
C  24.36600 53.57900 40.52200
O  24.52100 52.95100 41.56500
O  24.23000 53.06200 39.24500
C  24.28100 51.58000 39.11200
H  31.51500 55.81200 40.17500
H  30.62100 61.02600 43.96300
H  24.49200 59.52700 44.77100
H  27.38700 53.59100 39.37600
H  29.62000 55.30600 38.43200
H  30.52600 53.52400 40.48900
H  30.82500 53.49300 38.66100
H  29.46500 52.64300 39.36900
H  27.78600 55.46300 37.06500
H  26.36200 55.83300 37.92400
H  25.50800 54.13700 36.76800
H  26.58800 52.93500 37.61300
H  33.59100 56.33200 41.10600
H  34.52100 57.78300 41.59500
H  33.76700 57.69600 40.02200
H  32.57700 62.03900 43.47300
H  34.11700 61.63800 44.26800
H  32.72500 60.84300 44.86000
H  28.07500 62.25200 44.08100
H  26.77500 60.41400 46.13800
H  28.36700 62.08400 46.90000
H  29.49400 62.81900 45.72900
H  29.73700 61.14300 46.33100
H  24.88900 61.76400 44.52800
H  25.84300 63.08000 44.91500
H  24.87700 63.28700 46.83800
H  25.24000 61.70600 47.47500
H  23.85400 61.85900 46.37400
H  22.06900 58.93800 43.44700
H  22.23600 57.48900 44.55300
H  21.75300 57.37400 42.77600
H  24.52500 55.33400 39.29200
H  24.49800 51.50100 38.04700
H  23.28500 51.27500 39.43400
H  25.01200 51.22500 39.83900

