158

Mg 48.51900 34.62500 26.32500
C  46.47200 33.55800 28.95400
C  49.07800 37.49500 28.13000
C  50.04500 35.99900 23.67600
C  47.42400 32.06600 24.30800
N  47.77300 35.46300 28.34800
C  47.10000 34.76800 29.35200
C  47.42400 35.44500 30.73700
C  47.83700 36.86900 30.24600
C  48.36500 36.53700 28.81500
C  46.69900 37.99500 30.13500
C  48.53500 34.64700 31.52400
C  48.38800 34.42200 33.07200
H  47.42300 35.50200 33.71100
N  49.49300 36.42800 26.00000
C  49.67500 37.43500 26.89000
C  50.46600 38.53300 26.30200
C  50.73800 38.11300 24.99600
C  50.00500 36.84000 24.85400
C  50.77900 39.80400 27.09500
C  51.52000 38.81900 23.95900
O  51.39900 38.64300 22.77200
C  52.30800 40.00800 24.36900
N  48.85700 34.00400 24.35600
C  49.46200 34.70000 23.42100
C  49.44100 34.05200 22.06300
C  48.82200 32.62300 22.37600
C  48.40100 32.90600 23.77300
C  48.75500 34.92400 21.01100
C  49.76800 31.36700 22.20900
C  49.39200 30.33300 21.15700
N  47.24000 33.09100 26.54900
C  46.91000 32.08100 25.65600
C  45.96800 31.21600 26.32600
C  45.80900 31.74300 27.59600
C  46.50100 32.95000 27.68100
C  45.41800 29.89700 25.68600
C  45.10500 31.49200 28.86700
O  44.32900 30.58400 29.22300
C  45.58700 32.58600 29.85500
C  46.35000 31.87500 30.87100
O  47.44900 31.42100 30.69300
O  45.63500 31.81200 32.02600
C  46.32700 30.98700 33.01300
H  49.33900 38.38200 28.71200
H  50.46800 36.46800 22.78600
H  47.15000 31.16200 23.76000
H  46.47900 35.50400 31.27600
H  48.59500 37.33300 30.87600
H  46.27200 38.10400 29.13800
H  47.12600 38.95600 30.42300
H  46.02000 37.68800 30.93100
H  49.50300 35.05400 31.23200
H  48.52600 33.63500 31.11900
H  49.35700 34.57200 33.55000
H  48.01300 33.43100 33.32800
H  51.76700 39.71800 27.54600
H  50.07900 40.02300 27.90200
H  50.63200 40.66600 26.44500
H  51.66800 40.88500 24.46600
H  53.10300 40.13300 23.63400
H  52.69500 39.76200 25.35900
H  50.48800 33.92100 21.78900
H  47.92500 32.49500 21.77100
H  48.02100 34.36100 20.43500
H  49.30000 35.55800 20.31200
H  48.21500 35.67700 21.58500
H  49.78200 30.89200 23.19000
H  50.78000 31.71300 21.99600
H  50.22300 30.47700 20.46700
H  48.44700 30.51100 20.64300
H  49.46800 29.32700 21.56900
H  44.86200 29.43200 26.50000
H  46.30100 29.27700 25.53400
H  44.80300 30.01300 24.79300
H  44.79900 33.09500 30.41000
H  45.81200 31.05600 33.97100
H  47.34700 31.29300 33.24400
H  46.29100 29.94000 32.71200
Mg -11.09100 16.35400 40.77300
C  -7.56900 16.22400 40.89900
C  -10.75400 19.81100 40.56900
C  -14.31400 16.67600 40.10600
C  -11.05300 12.95400 40.23000
N  -9.28800 17.83400 40.50500
C  -7.97800 17.52300 40.65500
C  -7.07000 18.78200 40.66400
C  -8.18700 19.96600 40.82900
C  -9.47500 19.16400 40.62400
C  -8.11700 20.76600 42.23700
C  -6.39400 18.88400 39.23000
C  -4.89100 18.62200 39.04600
H  -4.38800 17.63000 38.03000
N  -12.41700 18.00700 40.53000
C  -12.05300 19.39900 40.43600
C  -13.26200 20.19900 40.29500
C  -14.39200 19.35700 40.14900
C  -13.78200 17.94000 40.21800
C  -13.18500 21.70100 40.04300
C  -15.90300 19.70900 39.92500
O  -16.28200 20.91100 39.84500
C  -16.92000 18.71400 39.88700
N  -12.44300 15.03900 40.12100
C  -13.76200 15.36300 40.06700
C  -14.64700 14.07900 39.95400
C  -13.63300 12.97000 39.78700
C  -12.27900 13.69200 40.00000
C  -15.74700 13.85200 41.05200
C  -13.66600 12.39200 38.37800
C  -13.62100 10.90200 38.08500
N  -9.62600 14.82700 40.73300
C  -9.77800 13.52000 40.61300
C  -8.52400 12.87100 40.94300
C  -7.57900 13.86200 41.13000
C  -8.34600 15.05900 40.89600
C  -8.22500 11.34900 40.94500
C  -6.18500 14.23100 41.41000
O  -5.14800 13.55200 41.52200
C  -6.15600 15.80300 41.34300
C  -5.61000 16.49800 42.60100
O  -4.46200 16.89500 42.72200
O  -6.59400 16.70900 43.56100
C  -6.15000 17.70600 44.57700
H  -10.68400 20.89400 40.69600
H  -15.38600 16.62800 39.90200
H  -11.03700 11.87100 40.09800
H  -6.25800 18.92100 41.37800
H  -8.02800 20.77400 40.11600
H  -7.44700 20.21200 42.89500
H  -9.01900 20.78700 42.84800
H  -7.84200 21.81800 42.16000
H  -6.65600 19.82600 38.74800
H  -6.98000 18.27300 38.54400
H  -4.49800 18.39500 40.03700
H  -4.45100 19.58100 38.77100
H  -12.18000 22.08900 39.88000
H  -13.74500 22.24700 40.80200
H  -13.61200 21.95200 39.07200
H  -16.86300 18.24900 38.90200
H  -17.84700 19.21700 40.16200
H  -16.66500 18.03100 40.69700
H  -15.07800 14.28300 38.97400
H  -13.62800 12.18900 40.54600
H  -15.74600 14.80300 41.58500
H  -15.64400 13.00300 41.72800
H  -16.72200 13.69200 40.59100
H  -12.88700 12.85500 37.77100
H  -14.55700 12.82700 37.92400
H  -13.39500 10.42600 39.03900
H  -12.86600 10.78400 37.30800
H  -14.58100 10.54700 37.71100
H  -9.14800 10.82800 40.69000
H  -7.82800 11.09600 41.92800
H  -7.45700 11.14900 40.19700
H  -5.44600 16.04500 40.55300
H  -6.89300 17.71500 45.37400
H  -6.08300 18.71600 44.17100
H  -5.15400 17.49700 44.96700

