158

Mg 6.61300 55.42600 42.25900
C  6.36800 52.00200 41.71200
C  9.95200 55.25900 41.03200
C  6.68700 58.79900 41.94000
C  3.16500 55.49900 43.09400
N  7.89100 53.83700 41.33200
C  7.60000 52.51500 41.22600
C  8.77600 51.65900 40.78000
C  9.95000 52.64300 41.07400
C  9.25200 54.02700 41.19700
C  10.77300 52.20200 42.33400
C  8.76000 51.26300 39.21900
C  9.87300 50.28200 38.72600
H  10.40400 50.36700 37.28400
N  8.03500 56.89500 41.43800
C  9.36300 56.58200 41.12400
C  9.96100 57.73700 40.60200
C  9.13600 58.86600 40.83700
C  7.87700 58.21700 41.51300
C  11.35100 57.90600 39.78700
C  9.39900 60.35200 40.60300
O  10.52500 60.79300 40.27600
C  8.25900 61.36200 40.68000
N  5.12600 56.89900 42.39500
C  5.43700 58.23700 42.39600
C  4.27200 59.10300 42.79800
C  3.26200 58.03100 43.20700
C  3.84200 56.70800 42.81700
C  4.58000 60.16100 43.86600
C  1.89100 58.09600 42.45800
C  0.64800 58.14600 43.33800
N  5.14600 54.00900 42.70700
C  3.80800 54.18500 43.00000
C  3.28900 52.87200 43.35700
C  4.21500 51.96300 42.77500
C  5.27800 52.74100 42.31500
C  2.02100 52.61700 44.17400
C  4.49500 50.52800 42.45100
O  3.79100 49.50800 42.51300
C  6.00500 50.49700 41.80200
C  5.81200 49.85700 40.43500
O  5.24200 50.36100 39.46200
O  6.50900 48.68900 40.37100
C  6.41800 48.05600 39.04000
H  10.97700 55.30900 40.66000
H  6.54800 59.87300 41.79500
H  2.18200 55.51200 43.57000
H  8.86700 50.72100 41.32700
H  10.69000 52.71600 40.27800
H  11.01500 53.09600 42.90900
H  11.63400 51.56700 42.12400
H  10.18000 51.53100 42.95600
H  8.74100 52.18300 38.63500
H  7.82600 50.74300 39.00300
H  9.35000 49.32700 38.67500
H  10.60500 50.18600 39.52700
H  11.23300 58.61600 38.96900
H  11.82900 56.99800 39.42000
H  12.17700 58.38300 40.31600
H  7.96600 61.54500 41.71400
H  7.54900 60.86500 40.01900
H  8.48900 62.29100 40.15700
H  3.90400 59.67400 41.94600
H  3.08200 58.00400 44.28200
H  3.97100 60.01300 44.75800
H  4.60500 61.19100 43.51000
H  5.63900 60.08800 44.11300
H  1.77900 57.23700 41.79600
H  1.83200 58.99900 41.85000
H  0.04900 59.05600 43.31400
H  0.87000 57.97300 44.39100
H  0.03300 57.31200 43.00000
H  1.44100 51.84100 43.67500
H  1.45300 53.52900 44.36000
H  2.25000 52.19100 45.15100
H  6.45000 49.80000 42.51300
H  6.13600 47.04300 39.32700
H  7.39400 48.13900 38.56300
H  5.59600 48.41500 38.42000
Mg 10.41900 47.60900 26.10200
C  8.09100 47.41300 28.76100
C  12.75600 48.41900 28.58700
C  12.37500 48.49700 23.63200
C  7.77200 47.26000 23.84100
N  10.42400 47.94300 28.47700
C  9.29600 47.71800 29.29300
C  9.64200 47.95100 30.75400
C  11.16600 48.28600 30.73800
C  11.48000 48.32000 29.16700
C  11.52000 49.57700 31.54600
C  9.32900 46.75300 31.80700
C  10.14600 46.64200 33.12400
H  9.51200 45.84100 34.24000
N  12.35600 48.20800 26.07600
C  13.15500 48.43900 27.19100
C  14.45800 48.68100 26.70900
C  14.42200 48.73700 25.26000
C  12.97900 48.52000 24.93100
C  15.67400 48.91900 27.66000
C  15.53100 48.89500 24.29600
O  15.27900 49.17900 23.11800
C  17.01400 48.83000 24.68800
N  10.05400 47.99600 23.98800
C  11.09900 48.29400 23.15100
C  10.68000 48.42300 21.71500
C  9.29400 47.83600 21.80600
C  8.97200 47.70500 23.27500
C  10.80300 49.86300 21.20300
C  9.06000 46.50900 21.04400
C  8.20600 46.62900 19.71700
N  8.33100 47.19900 26.27200
C  7.42700 47.05100 25.21100
C  6.07400 46.81800 25.72800
C  6.30600 46.92800 27.17000
C  7.68300 47.17200 27.40900
C  4.76300 46.73500 24.99600
C  5.65900 46.89600 28.40300
O  4.53000 46.51300 28.76400
C  6.73700 47.25700 29.50700
C  6.65900 46.08500 30.39000
O  7.22500 45.02000 30.24500
O  5.72100 46.41300 31.39000
C  5.72700 45.44500 32.54300
H  13.49900 48.56300 29.37300
H  13.06700 48.57700 22.79100
H  6.93600 47.12200 23.15300
H  9.05300 48.85400 30.91500
H  11.86500 47.49700 31.01600
H  11.70400 50.50800 31.00900
H  12.38100 49.33500 32.16900
H  10.74300 49.66300 32.30600
H  9.41900 45.80200 31.28200
H  8.31700 46.90800 32.18100
H  10.53200 47.61600 33.42400
H  11.03400 46.11100 32.78000
H  16.66000 48.50600 27.44900
H  15.48000 48.84300 28.73000
H  15.85200 49.97700 27.46900
H  17.22500 49.59800 25.43100
H  17.71400 49.05600 23.88400
H  17.14200 47.82900 25.10100
H  11.39500 47.81400 21.16200
H  8.59900 48.55300 21.36800
H  11.14400 50.53100 21.99400
H  9.84500 50.28100 20.89200
H  11.36400 49.81800 20.27000
H  8.72500 45.77600 21.77900
H  10.05800 46.14400 20.79900
H  7.78400 47.62500 19.57900
H  7.42600 45.88200 19.86700
H  8.68400 46.26500 18.80800
H  4.66800 45.66000 24.84000
H  4.77100 47.32900 24.08200
H  3.87400 47.01200 25.56300
H  6.40800 48.05500 30.17200
H  5.52500 46.11500 33.37900
H  6.63300 44.84000 32.59500
H  4.86200 44.86200 32.23000

