158

Mg 8.95900 47.37200 24.82700
C  6.86300 47.59100 27.59100
C  11.51600 48.45600 26.79600
C  10.90700 47.48500 22.12700
C  6.13400 47.17600 22.81500
N  9.22100 47.90900 26.93400
C  8.25100 47.84500 27.89600
C  8.74900 48.30200 29.31400
C  10.08500 49.05500 28.91000
C  10.33000 48.42300 27.47400
C  9.92400 50.62400 28.72800
C  8.87100 47.19700 30.41100
C  8.15600 47.67900 31.74700
H  8.14300 46.62000 32.87900
N  10.92600 47.80200 24.50400
C  11.85800 48.14900 25.48700
C  13.18300 48.24200 24.90100
C  13.02900 47.88200 23.59300
C  11.61200 47.65300 23.33800
C  14.45800 48.55700 25.73400
C  14.07300 47.71400 22.58200
O  13.79300 47.45300 21.40500
C  15.51500 47.72100 22.98300
N  8.53600 47.58300 22.71600
C  9.54000 47.51100 21.81800
C  8.99300 47.23200 20.36500
C  7.43500 47.24300 20.58000
C  7.33500 47.33200 22.16200
C  9.43200 48.30400 19.25300
C  6.74200 46.05600 19.81700
C  5.44700 46.41000 19.07000
N  6.91800 47.19900 25.06200
C  5.90200 47.05200 24.21600
C  4.66800 47.04200 24.94700
C  4.98100 47.09000 26.27000
C  6.36400 47.31700 26.30600
C  3.35700 47.09200 24.35900
C  4.47800 47.22900 27.61500
O  3.36600 47.22000 28.13900
C  5.65600 47.58900 28.44900
C  5.67300 46.49600 29.51000
O  6.08300 45.36300 29.36000
O  4.99500 46.89900 30.59900
C  4.62900 45.97100 31.61800
H  12.34900 48.76700 27.43000
H  11.40300 47.39000 21.15900
H  5.21300 47.04300 22.24300
H  8.05400 49.11200 29.53700
H  10.84800 48.80000 29.64500
H  9.01800 51.05900 29.14900
H  9.93000 50.82100 27.65500
H  10.70000 51.26000 29.15500
H  9.94400 47.03700 30.51600
H  8.38500 46.26900 30.11000
H  7.11500 47.92600 31.53700
H  8.61500 48.60100 32.10500
H  14.20500 48.91500 26.73200
H  15.14800 49.23200 25.22900
H  14.98100 47.60900 25.86600
H  15.78500 48.76300 23.15300
H  16.05300 47.30200 22.13300
H  15.60700 46.98100 23.77800
H  9.47300 46.27900 20.14300
H  6.94600 48.14100 20.20100
H  8.52400 48.68000 18.78200
H  10.17000 47.92400 18.54700
H  9.78000 49.19100 19.78300
H  6.54300 45.34900 20.62200
H  7.43200 45.68500 19.05900
H  4.97700 47.38100 19.22800
H  4.72800 45.67800 19.43800
H  5.54400 46.33400 17.98700
H  3.09000 48.14700 24.29600
H  2.70300 46.51800 25.01500
H  3.19100 46.72500 23.34600
H  5.39700 48.55300 28.88600
H  3.67300 46.31700 32.01000
H  5.38300 45.92000 32.40300
H  4.41000 44.97200 31.24100
Mg -8.67900 40.60400 42.10300
C  -7.90100 37.24800 41.07200
C  -5.97000 41.64600 40.46200
C  -9.99100 43.69200 42.07700
C  -11.74900 39.33800 43.23300
N  -7.29800 39.55000 40.78500
C  -6.99000 38.22600 40.68600
C  -5.68200 38.00200 39.99400
C  -4.87000 39.38000 40.23900
C  -6.08900 40.25800 40.55300
C  -3.98500 39.30900 41.45200
C  -5.90500 37.55900 38.52400
C  -5.44200 36.13900 38.02300
H  -4.52100 36.07800 36.73800
N  -8.06600 42.48800 41.41000
C  -6.85700 42.66500 40.80500
C  -6.64300 44.07400 40.66100
C  -7.73100 44.75900 41.10900
C  -8.68500 43.64200 41.54800
C  -5.44700 44.66000 39.91600
C  -8.01400 46.24300 41.09300
O  -7.17000 47.06800 40.65300
C  -9.33500 46.80300 41.64900
N  -10.68700 41.37200 42.61200
C  -10.89100 42.72200 42.67000
C  -12.20900 43.05700 43.27400
C  -12.83300 41.65900 43.49000
C  -11.70500 40.69200 43.05300
C  -12.28200 44.11700 44.43700
C  -14.14200 41.37800 42.69800
C  -15.33300 42.32000 42.85000
N  -9.63700 38.69800 42.36500
C  -10.86600 38.38500 42.83400
C  -10.94100 36.94900 42.86500
C  -9.85300 36.48100 42.12300
C  -9.09100 37.55800 41.81400
C  -12.10700 36.12000 43.45600
C  -9.14300 35.30700 41.68700
O  -9.39000 34.10500 41.74900
C  -7.88000 35.74900 40.92700
C  -6.75200 35.05300 41.44200
O  -6.29400 35.21700 42.53000
O  -6.35100 34.17400 40.52400
C  -5.12000 33.47200 40.78700
H  -5.01100 42.06000 40.14400
H  -10.41800 44.69200 42.18300
H  -12.64000 38.93300 43.71800
H  -4.98200 37.23900 40.33700
H  -4.22000 39.77100 39.45600
H  -4.45700 39.67800 42.36300
H  -3.07000 39.89200 41.34400
H  -3.64900 38.28800 41.63500
H  -5.30100 38.13300 37.82000
H  -6.95700 37.72800 38.29700
H  -6.32700 35.52500 37.85800
H  -4.81700 35.63100 38.75700
H  -5.94400 45.38000 39.26600
H  -4.97600 43.96000 39.22500
H  -4.75500 45.21800 40.54600
H  -10.20100 46.44100 41.09700
H  -9.29800 47.88900 41.56000
H  -9.30000 46.55400 42.71000
H  -12.85000 43.41900 42.47000
H  -13.05300 41.35300 44.51300
H  -11.35200 44.63600 44.66700
H  -12.67800 43.69900 45.36200
H  -12.93300 44.88700 44.02100
H  -14.40600 40.35000 42.94700
H  -13.87800 41.41100 41.64100
H  -15.64900 42.82000 41.93400
H  -15.22400 43.01100 43.68600
H  -16.22700 41.74800 43.09600
H  -11.68100 35.39800 44.15300
H  -12.52000 35.54300 42.62900
H  -12.90900 36.75300 43.83500
H  -8.06400 35.47600 39.88800
H  -4.61800 33.23400 39.84900
H  -5.36000 32.63000 41.43800
H  -4.42100 34.09300 41.34700

