158

Mg -0.31000 7.72500 26.73600
C  0.68600 9.48900 29.74500
C  -0.31600 4.91100 28.76400
C  -0.89100 6.07600 24.05700
C  0.33400 10.57000 24.99300
N  0.14300 7.24700 29.04700
C  0.35300 8.18000 30.04500
C  0.23400 7.51500 31.42600
C  0.17300 5.99200 31.07000
C  -0.02200 6.03600 29.55200
C  1.45900 5.21400 31.43600
C  -1.02000 8.02500 32.25600
C  -0.61700 8.47700 33.63900
H  -0.69900 7.41600 34.75900
N  -0.65900 5.82500 26.47200
C  -0.61200 4.76400 27.37900
C  -0.92100 3.47200 26.71000
C  -1.11600 3.78500 25.34100
C  -0.96200 5.26000 25.22500
C  -0.96700 2.11100 27.59500
C  -1.44700 2.92300 24.17200
O  -1.58300 3.28300 23.01000
C  -1.70300 1.48700 24.52700
N  -0.36300 8.27200 24.84400
C  -0.66600 7.42000 23.86600
C  -0.93600 8.09900 22.49200
C  -0.51100 9.60700 22.84200
C  -0.22200 9.51600 24.29600
C  -0.06200 7.41100 21.30300
C  -1.61200 10.62000 22.48000
C  -1.62200 11.20800 21.01100
N  0.41900 9.65000 27.20500
C  0.62300 10.67500 26.34000
C  1.18500 11.81400 27.01500
C  1.11100 11.46700 28.37000
C  0.73200 10.12000 28.45600
C  1.40500 13.11700 26.47300
C  1.41500 11.82800 29.70100
O  1.83300 12.86100 30.13300
C  1.00500 10.64100 30.67700
C  2.14200 10.43600 31.61300
O  3.08900 9.67700 31.42500
O  2.00500 11.26800 32.72000
C  3.07500 11.42100 33.73700
H  -0.38500 4.00300 29.36700
H  -1.17300 5.52800 23.15600
H  0.46000 11.47200 24.39000
H  1.15100 7.72100 31.97900
H  -0.65700 5.47000 31.54600
H  2.18600 5.90300 31.86600
H  1.87300 4.79400 30.51900
H  1.23400 4.41100 32.13800
H  -1.55000 7.08600 32.41700
H  -1.51700 8.83700 31.72400
H  -1.31900 9.30200 33.75500
H  0.36100 8.95900 33.61000
H  -1.30700 1.18900 27.12300
H  -1.81600 2.16100 28.27600
H  -0.11200 1.91900 28.24400
H  -0.82200 0.93800 24.85900
H  -2.15800 1.01200 23.65800
H  -2.45900 1.41900 25.31000
H  -1.99400 7.90000 22.31900
H  0.46600 9.76400 22.38600
H  0.35000 8.17200 20.64000
H  -0.68900 6.66300 20.81800
H  0.75600 6.92000 21.83100
H  -1.57300 11.35200 23.28700
H  -2.62800 10.23800 22.57500
H  -0.76500 10.85700 20.43500
H  -1.46700 12.25600 21.26900
H  -2.58900 10.91700 20.60300
H  0.71300 13.26800 25.64400
H  2.43300 13.22300 26.12700
H  1.12400 13.77700 27.29400
H  0.16200 11.02100 31.25300
H  3.80600 10.61400 33.68500
H  2.76700 11.37900 34.78200
H  3.67400 12.31000 33.53900
Mg 1.96800 41.63000 25.22500
C  2.72200 41.77500 28.71600
C  -1.04800 40.36800 26.10000
C  1.49900 40.84600 21.97200
C  5.16300 42.95600 24.57200
N  1.02300 41.01200 27.18100
C  1.43800 41.24400 28.49100
C  0.33900 41.01600 29.52800
C  -0.81500 40.49500 28.66700
C  -0.28000 40.64700 27.20800
C  -1.30400 39.01600 28.91900
C  -0.01300 42.26200 30.42600
C  0.09500 41.86800 31.88800
H  -0.77100 40.76900 32.50500
N  0.44100 40.79200 24.16800
C  -0.74000 40.37700 24.69500
C  -1.62600 39.88500 23.57800
C  -0.88000 40.10600 22.38600
C  0.43800 40.55800 22.82800
C  -3.02100 39.23300 23.72300
C  -1.29500 39.82600 20.93400
O  -0.65300 40.24600 19.97300
C  -2.54300 39.14900 20.61300
N  3.25900 41.85000 23.47800
C  2.83600 41.36100 22.23600
C  3.81900 41.85300 21.17600
C  4.90400 42.72000 21.96900
C  4.42400 42.48800 23.41900
C  4.47900 40.67500 20.36800
C  4.88700 44.29100 21.47300
C  3.87500 45.26200 22.12300
N  3.64300 42.32700 26.39500
C  4.83400 42.90200 25.94100
C  5.66000 43.19200 27.09000
C  4.81000 42.70600 28.15800
C  3.61500 42.21500 27.72000
C  7.03600 43.72900 27.10900
C  4.89600 42.55100 29.59400
O  5.75700 42.84800 30.40300
C  3.54800 41.82200 29.94600
C  3.78700 40.53200 30.51600
O  4.43600 39.60300 29.94500
O  3.27900 40.43900 31.77500
C  3.47700 39.24100 32.60100
H  -2.00800 39.90100 26.33000
H  1.38600 40.75200 20.89000
H  6.08000 43.50000 24.33700
H  0.70200 40.16100 30.09900
H  -1.67000 41.14200 28.86800
H  -0.83400 38.54500 29.78200
H  -1.06400 38.39700 28.05500
H  -2.38300 39.05900 29.06600
H  -0.96100 42.75600 30.21000
H  0.61000 43.15300 30.33500
H  0.20200 42.79500 32.45200
H  1.07500 41.41200 32.02700
H  -3.73000 39.66800 23.01900
H  -3.32700 39.35500 24.76200
H  -2.99000 38.16000 23.53400
H  -3.41100 39.79400 20.75100
H  -2.61400 38.24400 21.21600
H  -2.43200 38.95900 19.54600
H  3.15600 42.48000 20.58000
H  5.90600 42.31600 21.82100
H  5.48900 40.49300 20.73700
H  4.46500 41.09000 19.36000
H  3.76700 39.86000 20.49800
H  4.73900 44.28600 20.39300
H  5.86000 44.73400 21.68500
H  3.33600 45.58700 21.23300
H  4.35600 46.08000 22.65800
H  3.20300 44.88500 22.89400
H  7.19700 44.15300 26.11800
H  7.74700 42.91100 27.22700
H  7.10300 44.46900 27.90800
H  3.07800 42.51000 30.64900
H  4.29900 39.64500 33.19300
H  3.67500 38.26500 32.15900
H  2.46600 39.14200 32.99700

