158

Mg 9.28200 4.38700 28.03400
C  10.81600 2.88100 30.90300
C  7.25000 6.17700 30.20000
C  7.73900 5.55000 25.43400
C  11.10700 2.06700 26.11100
N  9.02800 4.39900 30.30300
C  9.90500 3.94700 31.30900
C  9.52900 4.58300 32.65400
C  8.24100 5.41400 32.31800
C  8.06200 5.25000 30.83400
C  7.06200 5.02300 33.18600
C  10.76600 5.52200 33.08500
C  10.82200 5.94700 34.58800
H  11.79300 5.20700 35.58100
N  7.81600 5.88300 27.82600
C  7.07000 6.41400 28.80600
C  6.21200 7.38700 28.16500
C  6.44400 7.36200 26.81800
C  7.34500 6.23000 26.62400
C  5.17800 8.17400 28.89500
C  5.82900 8.20500 25.69000
O  6.05600 7.97100 24.55200
C  5.00600 9.25700 25.93900
N  9.27600 3.71700 26.05000
C  8.57000 4.47100 25.13600
C  9.06200 4.14800 23.76800
C  10.01000 2.92700 23.92900
C  10.20200 2.89500 25.47800
C  7.92900 3.89800 22.75700
C  11.40400 2.90900 23.12400
C  11.55700 1.81900 22.07000
N  10.71300 2.80500 28.39800
C  11.35000 1.91600 27.50700
C  12.11400 0.86600 28.16600
C  11.98300 1.26100 29.53900
C  11.10200 2.42900 29.60200
C  12.79300 -0.35600 27.58400
C  12.39600 0.92700 30.94800
O  13.01000 -0.02700 31.39000
C  11.68900 2.01300 31.86900
C  10.87100 1.26300 32.90200
O  9.74600 0.79300 32.83100
O  11.60700 1.21700 34.03000
C  11.12300 0.69200 35.26200
H  6.63200 6.85600 30.79200
H  7.40700 6.01000 24.50100
H  11.73500 1.51700 25.40700
H  9.25700 3.83400 33.39900
H  8.42800 6.48100 32.43500
H  6.38700 4.37600 32.62600
H  6.53800 5.87600 33.61800
H  7.38200 4.55100 34.11500
H  10.90200 6.38400 32.43200
H  11.63900 4.91000 32.85600
H  9.76300 5.79000 34.79300
H  10.98800 7.02000 34.69300
H  5.54800 9.16100 29.17200
H  4.88300 7.67300 29.81700
H  4.21900 8.07200 28.38800
H  4.01200 8.95400 26.26700
H  4.75900 9.80200 25.02800
H  5.58100 9.92900 26.57600
H  9.57200 5.08500 23.54100
H  9.40700 2.04100 23.73400
H  6.96900 3.88900 23.27300
H  8.12300 2.97400 22.21100
H  8.00800 4.74000 22.06900
H  12.18800 2.82200 23.87700
H  11.43800 3.90000 22.67200
H  10.67200 1.76300 21.43500
H  11.69500 0.82200 22.48700
H  12.41200 2.02600 21.42600
H  13.55700 -0.58300 28.32800
H  13.24900 -0.12500 26.62200
H  12.02000 -1.11900 27.68500
H  12.38700 2.66600 32.39300
H  10.52600 -0.20200 35.08100
H  10.46800 1.34100 35.84400
H  11.91800 0.44800 35.96700
Mg 0.90300 43.20600 25.62800
C  2.84100 42.99100 28.50600
C  -1.86100 42.43000 27.73700
C  -0.99400 42.55000 22.88800
C  3.69400 43.29600 23.67300
N  0.49800 43.00300 27.92100
C  1.46600 42.96300 28.87700
C  0.83500 42.74300 30.24800
C  -0.62500 42.54400 29.94500
C  -0.67300 42.63400 28.41900
C  -1.47200 41.41000 30.62200
C  1.17900 43.99600 31.14100
C  1.46600 43.71500 32.59900
H  0.89000 42.45300 33.33700
N  -1.14300 42.77100 25.36300
C  -2.11500 42.58200 26.35100
C  -3.40900 42.69800 25.72300
C  -3.19100 42.67200 24.24100
C  -1.71600 42.59300 24.11000
C  -4.71000 42.83800 26.51100
C  -4.25000 42.69400 23.18500
O  -3.94600 42.66200 22.00300
C  -5.70400 42.73500 23.52500
N  1.32700 42.82000 23.55900
C  0.35700 42.70900 22.60400
C  0.91600 42.97900 21.20900
C  2.47400 43.38300 21.51500
C  2.53600 43.11000 23.01200
C  0.77900 41.85300 20.13400
C  2.91700 44.81500 21.20200
C  4.20000 44.99400 20.49500
N  2.86800 43.27100 25.93100
C  3.89100 43.28000 25.06100
C  5.18400 43.14900 25.73100
C  4.78500 43.08100 27.11000
C  3.40000 43.17700 27.19300
C  6.56000 43.21700 25.12600
C  5.30900 42.91300 28.44300
O  6.45900 42.79100 28.78900
C  4.04600 42.97400 29.40600
C  4.13500 41.74000 30.25100
O  4.34200 40.60300 29.82100
O  3.98800 42.09800 31.59200
C  4.20300 40.99700 32.47100
H  -2.72600 42.32700 28.39600
H  -1.65100 42.45400 22.02100
H  4.59500 43.41300 23.06700
H  1.30800 41.84100 30.63600
H  -1.13500 43.45400 30.25800
H  -2.35500 41.86400 31.07100
H  -0.82400 40.91500 31.34500
H  -1.79000 40.70400 29.85400
H  0.32800 44.67600 31.10800
H  1.91200 44.71300 30.77300
H  1.02900 44.56100 33.13000
H  2.55300 43.76300 32.66200
H  -5.33400 43.66800 26.17900
H  -4.59400 42.82100 27.59500
H  -5.24900 41.93900 26.21400
H  -6.24700 42.87300 22.59000
H  -5.82200 43.67000 24.07300
H  -6.02400 41.86300 24.09600
H  0.37700 43.85600 20.85000
H  3.12800 42.71500 20.95400
H  0.16200 41.01100 20.44900
H  1.74300 41.38100 19.94800
H  0.30800 42.24400 19.23200
H  2.86100 45.38700 22.12800
H  2.13000 45.26000 20.59300
H  4.10100 45.74600 19.71300
H  4.38600 44.13000 19.85700
H  5.04700 45.28200 21.11900
H  6.69000 42.44900 24.36400
H  7.29800 42.92100 25.87200
H  6.81400 44.17100 24.66400
H  4.04800 43.80200 30.11500
H  5.23400 40.64400 32.42600
H  3.58400 40.10000 32.45400
H  4.16700 41.42200 33.47400

