158

Mg 1.15700 8.09500 25.52000
C  1.72500 9.96700 28.45100
C  1.81600 5.19800 27.29800
C  0.95200 6.42300 22.70100
C  0.96900 11.08500 23.69900
N  1.57200 7.68600 27.68600
C  1.71800 8.61100 28.69300
C  1.74100 7.84300 30.11300
C  2.03100 6.37400 29.63400
C  1.81100 6.41800 28.10200
C  3.53400 5.87400 30.00100
C  0.47600 8.11500 31.01100
C  0.69600 8.54600 32.48500
H  2.00700 8.19200 33.17500
N  1.23500 6.10100 25.07700
C  1.47200 5.06400 25.95100
C  1.07700 3.83100 25.32900
C  0.89000 4.11700 23.95100
C  1.04000 5.57800 23.81100
C  0.92000 2.53700 26.00200
C  0.55200 3.15100 22.81200
O  0.25100 3.49800 21.71200
C  0.69900 1.64200 22.98600
N  0.99600 8.67800 23.54100
C  0.84700 7.73700 22.58000
C  0.73100 8.42700 21.15500
C  0.46000 9.91700 21.54500
C  0.91700 9.93300 22.98500
C  2.05600 8.09900 20.34700
C  -1.05300 10.34300 21.31900
C  -1.13400 11.53900 20.42800
N  1.29800 10.14300 25.93800
C  1.16900 11.22200 25.14000
C  1.40000 12.44600 25.88100
C  1.59300 12.02200 27.15000
C  1.48800 10.56700 27.22000
C  1.50700 13.90500 25.41800
C  1.99200 12.45700 28.47200
O  2.29500 13.56000 28.87800
C  1.92900 11.15400 29.36900
C  3.07100 11.07000 30.30800
O  4.06300 10.32700 30.26800
O  2.86900 12.08700 31.23900
C  3.92500 12.13400 32.25800
H  2.04200 4.31600 27.90100
H  0.76100 5.88600 21.77000
H  0.74200 11.95900 23.08500
H  2.61200 8.27600 30.60500
H  1.33100 5.65800 30.06500
H  4.22000 5.69800 29.17300
H  3.31800 5.00900 30.62900
H  4.03900 6.60800 30.62900
H  -0.19900 7.26200 31.08200
H  -0.04500 8.96100 30.56200
H  -0.07500 8.06800 33.08900
H  0.57300 9.62600 32.55600
H  0.72000 2.69800 27.06200
H  1.89200 2.04400 25.98200
H  0.16600 1.90000 25.54000
H  1.50700 1.38500 23.67100
H  0.95900 1.15700 22.04500
H  -0.22300 1.14900 23.29500
H  0.03600 8.08300 20.39000
H  1.18200 10.54600 21.02500
H  1.87700 7.38400 19.54400
H  2.87600 7.68700 20.93600
H  2.39600 8.99100 19.82200
H  -1.41500 10.46500 22.34000
H  -1.56300 9.55500 20.76600
H  -0.17800 11.59400 19.90800
H  -1.42800 12.31700 21.13200
H  -1.88900 11.31100 19.67600
H  2.42400 13.95700 24.83100
H  1.73500 14.58800 26.23500
H  0.63400 14.20600 24.83900
H  0.99900 11.23400 29.93200
H  3.98200 11.18900 32.79700
H  3.78700 12.91400 33.00800
H  4.88100 12.31400 31.76800
Mg 47.59200 45.41500 43.37400
C  44.19400 44.61600 43.28300
C  48.26400 42.00000 43.19100
C  50.76300 46.15100 42.71300
C  46.72600 48.87200 43.19400
N  46.30900 43.56000 42.96900
C  44.95200 43.46900 42.96000
C  44.48800 42.06200 42.62600
C  45.83100 41.21000 42.82800
C  46.87300 42.31300 43.04200
C  45.81700 40.21400 44.05700
C  43.75500 41.82100 41.29200
C  44.33200 42.56000 40.01000
H  44.81100 41.51100 38.95400
N  49.24300 44.24400 42.94500
C  49.36800 42.89100 43.13700
C  50.71100 42.48700 42.91300
C  51.45000 43.64000 42.75800
C  50.47200 44.78500 42.77600
C  51.31900 41.04500 42.90500
C  52.96100 43.64400 42.66000
O  53.62100 42.61800 42.63600
C  53.71200 44.91500 42.61900
N  48.63500 47.36300 43.29400
C  50.00100 47.29800 42.94400
C  50.45200 48.75800 42.90800
C  49.11900 49.53900 42.66700
C  48.13400 48.60600 43.15800
C  51.23400 49.21100 44.17400
C  48.85100 49.95700 41.19200
C  48.02400 51.28600 41.04500
N  45.81800 46.57900 43.25800
C  45.63200 47.93600 43.27700
C  44.22900 48.18600 43.44600
C  43.61900 46.94700 43.52700
C  44.61000 45.96600 43.35500
C  43.54600 49.46100 43.45700
C  42.38400 46.23900 43.68200
O  41.23400 46.60100 43.84900
C  42.74500 44.72800 43.60600
C  42.40900 44.17600 44.96600
O  43.06600 44.28400 45.96100
O  41.18800 43.59900 44.91100
C  40.74800 43.05900 46.22100
H  48.63400 40.97600 43.10800
H  51.78100 46.39400 42.40200
H  46.40900 49.91700 43.21800
H  43.78400 41.90800 43.44300
H  46.04800 40.60600 41.94700
H  44.89100 40.31500 44.62400
H  46.63400 40.41700 44.74900
H  45.71800 39.14100 43.89000
H  42.71600 42.12900 41.40300
H  43.52900 40.77400 41.09000
H  45.26100 43.11600 40.13300
H  43.70600 43.29500 39.50300
H  51.72300 40.82500 41.91700
H  50.51800 40.39700 43.26200
H  52.07100 40.71000 43.61900
H  53.47700 45.33200 41.63900
H  54.79300 44.77900 42.64700
H  53.31500 45.57100 43.39300
H  51.02700 48.78100 41.98200
H  49.04700 50.47200 43.22600
H  52.26800 49.42500 43.90100
H  51.15600 48.36500 44.85600
H  50.88400 50.11500 44.67100
H  48.18600 49.18700 40.80000
H  49.67000 49.91100 40.47400
H  48.58800 52.01300 40.46000
H  47.76500 51.76000 41.99200
H  47.11700 51.15600 40.45600
H  42.49400 49.24500 43.26900
H  43.84600 50.05200 42.59200
H  43.66600 50.07400 44.35100
H  42.19300 44.18500 42.84000
H  40.55900 43.86900 46.92600
H  41.47600 42.30100 46.50900
H  39.89900 42.43300 45.94600

