158

Mg 43.75500 4.00900 47.83200
C  41.52100 6.75800 47.32600
C  40.91300 1.88100 47.48600
C  45.78500 1.37300 47.36900
C  46.46700 6.27500 47.54500
N  41.39100 4.33900 47.53100
C  40.77900 5.48300 47.47800
C  39.28600 5.23400 47.31400
C  39.13000 3.67000 47.67800
C  40.54600 3.20600 47.50200
C  38.59100 3.43200 49.15200
C  38.76500 5.49700 45.88200
C  37.67600 6.57300 45.71700
H  37.17500 6.84700 44.33600
N  43.39700 1.87600 47.51500
C  42.19900 1.25600 47.41700
C  42.38600 -0.15300 47.18100
C  43.80400 -0.28100 47.02000
C  44.44400 1.03100 47.27100
C  41.24700 -1.11900 47.11300
C  44.49400 -1.62200 46.71700
O  43.80100 -2.63100 46.62600
C  46.03100 -1.69300 46.37700
N  45.79000 3.84800 47.38600
C  46.43300 2.62700 47.40800
C  47.96600 2.76200 47.42600
C  48.20900 4.32900 47.40000
C  46.72000 4.89100 47.44200
C  48.66700 2.06700 48.65900
C  49.12400 4.76700 46.22700
C  50.49700 5.37800 46.57100
N  43.98600 6.14800 47.55000
C  45.15600 6.88900 47.45000
C  44.77000 8.30300 47.33200
C  43.40200 8.28400 47.27400
C  42.92700 6.96200 47.43100
C  45.70300 9.48600 47.41300
C  42.18200 9.06500 47.27700
O  42.00000 10.30000 47.24900
C  40.87800 8.09200 47.27000
C  39.88900 8.30700 48.31300
O  39.84800 7.85500 49.42000
O  38.88700 9.17700 47.98100
C  37.70000 9.35300 48.92200
H  40.04600 1.24000 47.31000
H  46.37700 0.45600 47.41000
H  47.28100 6.99900 47.61800
H  38.73200 5.84200 48.03000
H  38.43900 3.12500 47.03500
H  39.35100 2.82600 49.64400
H  37.60100 2.97900 49.21500
H  38.50800 4.40000 49.64700
H  38.21200 4.59500 45.61800
H  39.57200 5.52500 45.15000
H  38.00900 7.43400 46.29600
H  36.81800 6.09400 46.18900
H  41.30700 -1.88500 46.33900
H  40.31000 -0.63100 46.84200
H  41.07600 -1.47500 48.12900
H  46.64000 -1.84800 47.26700
H  46.14200 -0.80400 45.75500
H  46.18100 -2.53100 45.69600
H  48.31600 2.20500 46.55800
H  48.55600 4.75600 48.34100
H  47.93400 1.64900 49.35000
H  49.17200 2.81600 49.26800
H  49.44600 1.37400 48.34100
H  48.65800 5.64800 45.78500
H  49.16600 3.88500 45.58900
H  51.13100 4.49200 46.55400
H  50.52200 5.76000 47.59200
H  50.85800 6.07400 45.81300
H  46.04600 9.73200 48.41800
H  45.17000 10.36200 47.04200
H  46.59900 9.36700 46.80300
H  40.36300 8.20300 46.31600
H  37.03200 10.12300 48.53600
H  37.96600 9.47100 49.97200
H  37.21500 8.37900 48.85300
Mg -11.44600 38.21900 42.73100
C  -9.39400 35.53800 41.49200
C  -9.27700 40.41400 41.33400
C  -13.92400 40.42700 43.18600
C  -13.71600 35.62800 43.57600
N  -9.63100 37.97700 41.54200
C  -8.92800 36.83800 41.14300
C  -7.70100 37.08900 40.25600
C  -7.59400 38.62800 40.53300
C  -8.92200 39.06000 41.17300
C  -6.36600 38.99700 41.33400
C  -8.01700 36.69900 38.76400
C  -7.18500 35.62600 38.06400
H  -6.14500 35.90900 36.97800
N  -11.56800 40.17600 42.30200
C  -10.54400 40.95900 41.78200
C  -10.96600 42.36800 41.93300
C  -12.25300 42.35000 42.56500
C  -12.64400 40.96100 42.68400
C  -10.07400 43.55400 41.59700
C  -12.97400 43.64600 42.89200
O  -12.62900 44.78800 42.58300
C  -14.18700 43.49900 43.62100
N  -13.52600 38.04500 43.30700
C  -14.30600 39.14200 43.47500
C  -15.78900 38.81000 43.73400
C  -15.69900 37.24400 43.98600
C  -14.24900 36.94500 43.52100
C  -16.35800 39.43800 45.04700
C  -16.74800 36.35900 43.39800
C  -18.03000 36.42600 44.25000
N  -11.48900 36.01500 42.83000
C  -12.50100 35.16800 43.16600
C  -11.96500 33.77800 43.14900
C  -10.75700 33.84600 42.40000
C  -10.50000 35.29100 42.27300
C  -12.52500 32.53800 43.72500
C  -9.57800 33.13500 41.84300
O  -9.30500 31.98500 41.86500
C  -8.61000 34.21600 41.26200
C  -7.14800 34.09700 41.58700
O  -6.60700 34.39700 42.64700
O  -6.40900 33.42000 40.65600
C  -5.03600 33.02800 40.98200
H  -8.45300 41.12600 41.24700
H  -14.86100 40.97900 43.28000
H  -14.33800 34.82100 43.96800
H  -6.83300 36.58400 40.67900
H  -7.51500 39.16700 39.58800
H  -6.62700 39.56600 42.22700
H  -5.64400 39.48400 40.67800
H  -5.84300 38.10800 41.68600
H  -8.18500 37.55800 38.11400
H  -8.99600 36.24200 38.90800
H  -7.88500 34.86500 37.71900
H  -6.57500 35.13400 38.82200
H  -10.56700 44.15900 40.83500
H  -9.07400 43.25800 41.27900
H  -9.89600 44.07300 42.53800
H  -14.90400 42.91400 43.04400
H  -14.59200 44.50200 43.75800
H  -14.13000 43.04200 44.60900
H  -16.40700 39.05500 42.87000
H  -15.57900 37.03200 45.04900
H  -16.72000 38.70200 45.76500
H  -17.25800 40.00100 44.80200
H  -15.65700 40.09200 45.56600
H  -16.55200 35.28800 43.35000
H  -16.85000 36.78100 42.39800
H  -17.88300 36.89700 45.22200
H  -18.56100 35.47600 44.31800
H  -18.80500 37.02900 43.77600
H  -11.72700 31.99200 44.22800
H  -13.17400 31.99100 43.04100
H  -13.27300 32.74600 44.49100
H  -8.66500 33.84100 40.24000
H  -4.85400 32.97100 42.05500
H  -4.47000 33.87900 40.60500
H  -4.61800 32.18900 40.42500

