158

Mg 17.33900 -1.40900 27.53400
C  16.42100 0.50400 30.39300
C  19.66600 -3.11400 29.48000
C  18.67200 -2.86300 24.71700
C  15.70100 0.93100 25.61500
N  17.90500 -1.34200 29.69200
C  17.25200 -0.58500 30.69300
C  17.92500 -0.82400 32.08500
C  19.08200 -1.94600 31.69700
C  18.88500 -2.16000 30.18300
C  20.49800 -1.57600 32.24600
C  16.83500 -1.40900 33.07900
C  16.73500 -0.86500 34.53200
H  18.07300 -0.22800 34.98900
N  18.81200 -2.89200 27.13500
C  19.66800 -3.50100 28.06100
C  20.41000 -4.47700 27.44800
C  20.03000 -4.52200 26.05700
C  19.06400 -3.40300 25.89600
C  21.39800 -5.40900 28.23200
C  20.62100 -5.38900 24.99400
O  20.23600 -5.36400 23.81700
C  21.70400 -6.37400 25.34000
N  16.93500 -1.30300 25.52500
C  17.71800 -1.88300 24.52600
C  17.44100 -1.33400 23.07900
C  16.38800 -0.24800 23.37700
C  16.41200 -0.14500 24.91600
C  18.68200 -0.92300 22.24300
C  15.01800 -0.44800 22.81200
C  14.90400 -0.10500 21.34300
N  16.18400 0.30800 27.82600
C  15.59700 1.18300 26.94800
C  14.95800 2.25600 27.64700
C  15.15400 1.94600 28.99800
C  15.95100 0.80200 29.05100
C  14.21000 3.47600 27.14900
C  14.80700 2.39200 30.36700
O  14.06300 3.31500 30.73800
C  15.64300 1.43500 31.32900
C  16.51700 2.34600 32.09600
O  17.71500 2.58700 31.85900
O  15.68900 2.84200 33.07000
C  16.40600 3.75800 33.96100
H  20.31200 -3.71400 30.12500
H  19.19800 -3.28300 23.85700
H  15.18300 1.70900 25.05000
H  18.33300 0.12700 32.42800
H  18.83000 -2.92700 32.09900
H  20.92600 -2.29500 32.94500
H  20.50800 -0.59100 32.71200
H  21.12800 -1.51900 31.35800
H  17.06900 -2.46300 33.22800
H  15.85500 -1.12500 32.69400
H  16.37600 -1.68300 35.15600
H  16.01500 -0.04900 34.59200
H  21.50100 -5.33100 29.31400
H  22.37900 -5.45800 27.75900
H  20.88300 -6.36600 28.14100
H  21.26400 -7.13400 25.98600
H  22.35700 -5.64800 25.82500
H  22.17300 -6.89900 24.50800
H  17.00300 -2.10200 22.44100
H  16.81100 0.70900 23.07300
H  18.62000 -1.06100 21.16400
H  19.60000 -1.28200 22.70800
H  18.79100 0.15900 22.33100
H  14.25300 0.04200 23.41500
H  14.68400 -1.47800 22.93900
H  15.18600 -0.96400 20.73500
H  15.37300 0.84300 21.07600
H  13.83900 0.12300 21.29800
H  13.86200 3.34600 26.12400
H  14.87500 4.34000 27.11900
H  13.34900 3.58200 27.80900
H  14.96800 0.84100 31.94600
H  16.68300 4.67800 33.44600
H  17.37500 3.34000 34.23100
H  15.78900 3.83600 34.85700
Mg 48.16200 46.01800 44.10800
C  44.96000 46.64900 42.91600
C  48.15900 42.94200 42.53900
C  51.46400 45.87900 44.68100
C  48.13000 49.40700 45.40900
N  46.65100 45.00800 42.84300
C  45.46800 45.41000 42.46600
C  44.83200 44.36400 41.57100
C  45.65800 43.04500 41.90000
C  46.94300 43.70100 42.44700
C  45.01100 42.23100 43.09700
C  44.78900 44.70800 40.02700
C  43.76300 44.05100 39.16800
H  44.18500 43.26700 37.92100
N  49.62000 44.50900 43.70400
C  49.39200 43.36500 43.04200
C  50.61700 42.67800 42.96300
C  51.67400 43.47600 43.58400
C  50.96600 44.69600 43.96000
C  50.68600 41.32100 42.31200
C  53.08100 42.94600 43.82700
O  53.44500 41.88300 43.35800
C  54.18300 43.72700 44.54200
N  49.57800 47.44300 44.89600
C  50.91400 47.11000 45.08100
C  51.67300 48.23500 45.80300
C  50.64200 49.38600 45.84600
C  49.32000 48.74900 45.44800
C  52.29600 47.94400 47.24000
C  51.02300 50.62100 44.92600
C  51.95100 51.66100 45.50600
N  46.86400 47.67700 44.17400
C  47.00700 48.97100 44.75600
C  45.78300 49.67400 44.62100
C  44.94700 48.80000 43.99000
C  45.64600 47.61300 43.72800
C  45.42600 51.02200 45.12100
C  43.67100 48.62900 43.39200
O  42.73600 49.40700 43.38100
C  43.57500 47.23300 42.72600
C  42.52800 46.38700 43.43000
O  42.75700 45.59900 44.31200
O  41.42400 46.38200 42.64300
C  40.50700 45.36300 43.06800
H  48.08200 41.89200 42.25000
H  52.54500 45.74900 44.77300
H  47.99200 50.36500 45.91600
H  43.79600 44.25100 41.88800
H  45.90800 42.40200 41.05600
H  43.96500 42.53400 43.14100
H  45.52500 42.42500 44.03800
H  45.08300 41.14900 42.99500
H  45.73000 44.51200 39.51400
H  44.70100 45.79400 39.99100
H  42.95300 44.69500 38.82500
H  43.30700 43.29300 39.80600
H  49.84600 41.06400 41.66700
H  50.66700 40.52900 43.06000
H  51.61000 41.31100 41.73300
H  53.73600 44.05300 45.48100
H  54.31100 44.59400 43.89400
H  55.16000 43.25000 44.62300
H  52.49400 48.49300 45.13400
H  50.59600 49.67700 46.89500
H  51.56700 47.82600 48.04200
H  53.07300 48.68200 47.43800
H  52.64900 46.93300 47.03800
H  50.09800 51.07700 44.57500
H  51.55400 50.30800 44.02700
H  51.48700 52.64600 45.44700
H  52.90600 51.60600 44.98400
H  52.23600 51.54300 46.55100
H  44.64800 51.43300 44.47900
H  46.30600 51.66500 45.09900
H  45.02800 50.94500 46.13300
H  43.25400 47.39500 41.69700
H  40.88500 44.34100 43.04800
H  39.60800 45.47900 42.46300
H  40.22900 45.45300 44.11800

