158

Mg 45.02100 3.82100 47.89200
C  42.63800 6.50000 47.20600
C  42.34900 1.69600 47.80200
C  47.22100 1.39500 48.14300
C  47.49700 6.17100 47.50400
N  42.78200 4.01000 47.26100
C  42.04400 5.20800 47.15700
C  40.56400 4.94800 47.00700
C  40.42000 3.45500 47.42700
C  41.93200 3.04000 47.53300
C  39.53800 3.15700 48.73000
C  39.96700 5.29900 45.64200
C  38.59700 6.01800 45.55200
H  37.92200 6.05200 44.13300
N  44.81800 1.79700 47.80700
C  43.60600 1.08200 47.82200
C  43.93200 -0.34500 47.93700
C  45.31600 -0.44300 48.10500
C  45.85400 0.94600 48.03100
C  42.89700 -1.45000 48.10500
C  45.97200 -1.70400 48.26200
O  45.32200 -2.75500 48.14800
C  47.50300 -1.85900 48.58600
N  47.08200 3.74600 47.70300
C  47.82700 2.62500 47.97900
C  49.32600 2.89600 48.15700
C  49.34200 4.46300 47.80100
C  47.90800 4.85800 47.61600
C  49.92000 2.46000 49.56900
C  50.08500 4.80900 46.59600
C  51.21200 5.88200 46.84900
N  45.09300 5.90100 47.48700
C  46.17000 6.70500 47.41800
C  45.77400 8.07000 47.24600
C  44.42200 8.06300 47.13000
C  44.02200 6.67900 47.26600
C  46.74900 9.21000 47.16200
C  43.24000 8.89400 46.97700
O  43.13300 10.13900 46.83900
C  42.01300 7.86700 47.07000
C  41.19000 8.31700 48.26500
O  41.35200 7.95100 49.38800
O  40.19900 9.14000 47.77300
C  39.27400 9.77100 48.79000
H  41.53100 1.01700 48.05400
H  47.94900 0.59300 48.27700
H  48.32300 6.88600 47.49300
H  40.00900 5.53400 47.73900
H  39.90500 2.93100 46.62100
H  39.03200 4.09100 48.97600
H  40.08100 2.83000 49.61700
H  38.89500 2.34600 48.38600
H  39.86900 4.44100 44.97800
H  40.58100 5.99300 45.06800
H  38.50400 7.00000 46.01500
H  37.92100 5.44300 46.18600
H  42.90300 -2.17100 47.28800
H  41.92400 -0.98000 48.24800
H  43.00700 -1.99100 49.04500
H  48.00000 -1.47500 47.69500
H  47.79200 -2.90900 48.62800
H  47.79800 -1.31100 49.48100
H  49.95400 2.28000 47.51300
H  49.75700 5.04200 48.62600
H  49.05700 2.41400 50.23300
H  50.55300 3.25400 49.96600
H  50.43000 1.50700 49.42600
H  49.50800 5.27500 45.79700
H  50.61500 3.93300 46.22300
H  52.20600 5.53500 46.56700
H  51.28600 6.22400 47.88100
H  50.86600 6.70700 46.22500
H  46.86300 9.40000 46.09500
H  47.68500 8.86700 47.60300
H  46.45800 10.14600 47.63800
H  41.42200 7.98200 46.16100
H  39.43400 9.48200 49.82900
H  38.28100 9.54600 48.40200
H  39.51700 10.83300 48.83500
Mg -2.22500 35.01200 26.35100
C  -3.70000 33.18700 28.93600
C  -0.85700 37.00000 28.82600
C  -0.78500 36.79300 23.91500
C  -3.52100 32.77200 24.10900
N  -2.48800 35.20000 28.71200
C  -2.94400 34.22600 29.52400
C  -2.66000 34.40000 30.96900
C  -1.77300 35.74700 30.87300
C  -1.72000 36.09400 29.38400
C  -2.20600 36.94600 31.69700
C  -1.94100 33.20300 31.61600
C  -2.53300 32.83100 32.99500
H  -1.55200 32.84700 34.11100
N  -1.02600 36.68000 26.33600
C  -0.58800 37.32700 27.44200
C  0.10900 38.57500 27.03700
C  0.09900 38.52100 25.63700
C  -0.57000 37.29600 25.22600
C  0.72700 39.67800 28.05700
C  0.73900 39.50700 24.56300
O  0.65700 39.29000 23.37600
C  1.22900 40.79000 25.00900
N  -2.23300 34.81600 24.30800
C  -1.58400 35.64200 23.48300
C  -1.67700 35.14800 21.99000
C  -2.02700 33.64900 22.21900
C  -2.62100 33.72900 23.59400
C  -2.75900 35.96700 21.23400
C  -0.82000 32.54900 22.18900
C  -0.84800 31.70800 20.94000
N  -3.51700 33.42500 26.40800
C  -4.03000 32.58800 25.44600
C  -4.80900 31.48100 26.02200
C  -4.68700 31.70700 27.42100
C  -3.92000 32.90700 27.57900
C  -5.41900 30.26300 25.21500
C  -5.07100 31.12800 28.65700
O  -5.60900 30.11100 28.92900
C  -4.47700 32.10900 29.70800
C  -5.60000 32.74300 30.52100
O  -6.37000 33.55200 30.10900
O  -5.51200 32.22100 31.80000
C  -6.43200 32.70300 32.87000
H  -0.21100 37.46200 29.57500
H  -0.31700 37.35000 23.10100
H  -3.73900 31.99200 23.37600
H  -3.57400 34.59100 31.53100
H  -0.75600 35.48900 31.16600
H  -1.34500 37.40000 32.18800
H  -3.01400 36.82000 32.41700
H  -2.58000 37.69700 31.00100
H  -0.89400 33.47400 31.75400
H  -1.92300 32.31200 30.98900
H  -3.09900 31.89900 32.98400
H  -3.27000 33.60000 33.22700
H  0.53200 40.68800 27.69800
H  1.79200 39.55400 28.25500
H  0.08700 39.74400 28.93700
H  1.61700 41.38500 24.18200
H  1.98200 40.65900 25.78600
H  0.38300 41.31700 25.45100
H  -0.74900 35.32900 21.44600
H  -2.87200 33.46600 21.55500
H  -2.78500 35.94200 20.14400
H  -2.76600 36.97600 21.64700
H  -3.77400 35.68500 21.51300
H  -0.92900 31.78200 22.95600
H  0.12700 33.07400 22.31100
H  -1.06000 32.42400 20.14600
H  -1.68500 31.01200 20.88800
H  0.09300 31.20200 20.72400
H  -5.96200 30.71300 24.38400
H  -6.00100 29.69700 25.94200
H  -4.62200 29.67200 24.76500
H  -3.80500 31.53000 30.34200
H  -7.14200 33.43000 32.47800
H  -5.88200 33.10700 33.72000
H  -7.01500 31.81800 33.12500

