158

Mg 42.14000 41.87200 26.66500
C  41.36300 44.27500 29.07000
C  43.18600 39.79500 29.18100
C  42.59300 39.44800 24.37400
C  40.93500 44.05300 24.22700
N  42.39400 42.10100 28.87600
C  41.87200 43.11000 29.65100
C  41.64900 42.70700 31.04500
C  42.39700 41.35600 31.19200
C  42.72800 41.04700 29.70100
C  43.64000 41.47500 32.16200
C  40.14500 42.50500 31.41300
C  39.53800 43.48400 32.46400
H  39.17000 43.00100 33.88800
N  42.84900 39.87200 26.81200
C  43.18900 39.21800 27.90700
C  43.68900 37.88600 27.59800
C  43.42400 37.68900 26.21200
C  42.93700 39.04700 25.69600
C  44.28800 36.96700 28.64100
C  43.57900 36.49800 25.46800
O  43.34400 36.50000 24.28200
C  43.93600 35.13200 26.05400
N  41.89300 41.85800 24.64500
C  42.11300 40.74800 23.86700
C  41.83800 40.98800 22.39500
C  41.17800 42.37900 22.37100
C  41.31400 42.81700 23.89200
C  43.13700 40.90100 21.51900
C  39.65500 42.28500 22.02200
C  38.71900 41.73200 23.00600
N  41.57100 43.89100 26.55000
C  41.00400 44.56800 25.51200
C  40.59900 45.86400 25.96600
C  40.67000 45.81400 27.38500
C  41.26300 44.57000 27.68900
C  40.22500 46.97300 25.13300
C  40.48000 46.52500 28.60500
O  40.19700 47.70600 28.79100
C  40.81600 45.55900 29.77300
C  41.73700 46.22500 30.69200
O  42.93400 46.24500 30.55100
O  41.02000 46.81300 31.75200
C  41.71400 47.22800 32.87900
H  43.38700 39.16400 30.04900
H  42.85700 38.70600 23.61800
H  40.48000 44.68700 23.46400
H  42.03900 43.31000 31.86500
H  41.78300 40.56500 31.62300
H  43.60200 42.32900 32.83700
H  44.54500 41.53500 31.55800
H  43.79800 40.53000 32.68200
H  39.84600 41.55000 31.84400
H  39.62300 42.45200 30.45700
H  38.62300 43.84200 31.99100
H  40.16700 44.33800 32.71400
H  45.28400 36.60000 28.39600
H  43.64000 36.12400 28.88200
H  44.41900 37.50300 29.58100
H  43.99700 34.46200 25.19700
H  43.28100 34.68100 26.79900
H  44.91800 35.29100 26.49800
H  41.19800 40.13100 22.18600
H  41.73900 43.03000 21.70000
H  43.75600 41.52000 22.16900
H  42.95100 41.33300 20.53600
H  43.35700 39.83300 21.50500
H  39.52000 41.70200 21.11100
H  39.31000 43.27800 21.73000
H  38.22500 42.42300 23.68900
H  39.19300 40.99500 23.65500
H  37.90100 41.15300 22.57700
H  39.23500 47.42300 25.21200
H  40.37200 46.82100 24.06400
H  41.03500 47.69600 25.22900
H  39.86500 45.26500 30.21700
H  42.79900 47.21100 32.78700
H  41.49400 46.59900 33.74200
H  41.33000 48.23600 33.03900
Mg 6.52500 54.38300 40.59100
C  6.19300 50.90300 40.56300
C  9.94500 53.87400 39.99300
C  6.80900 57.52900 40.01400
C  3.10300 54.62200 41.11000
N  7.87400 52.60600 40.21500
C  7.52100 51.26000 40.21000
C  8.75800 50.37700 40.05100
C  9.94500 51.34700 40.38000
C  9.23400 52.71100 40.18500
C  10.74600 51.01700 41.68600
C  8.92000 49.81200 38.57100
C  9.07000 50.75500 37.34500
H  7.81500 51.10000 36.58500
N  8.05300 55.52400 39.95000
C  9.41900 55.16300 39.82000
C  10.19500 56.29000 39.61100
C  9.31900 57.41400 39.63900
C  7.95800 56.88000 39.79100
C  11.71600 56.29300 39.34600
C  9.81900 58.87500 39.45000
O  11.02000 59.05200 39.29900
C  8.90300 60.17300 39.51500
N  5.06700 55.81700 40.34800
C  5.49800 57.10100 40.30200
C  4.32700 58.09400 40.48600
C  3.14200 57.16900 40.81900
C  3.81200 55.80700 40.77600
C  4.71700 59.26700 41.50600
C  1.87100 57.33000 39.94700
C  0.70000 58.03800 40.69100
N  4.94800 53.12300 40.77900
C  3.61400 53.35000 41.08400
C  2.93100 52.14900 41.37400
C  3.98400 51.10200 41.15700
C  5.14800 51.79200 40.82100
C  1.43800 51.97900 41.75000
C  4.21900 49.73900 41.09500
O  3.48200 48.81600 41.26800
C  5.64500 49.45000 40.72300
C  5.64400 48.69400 39.43200
O  5.21300 49.07600 38.38200
O  6.32400 47.53700 39.65300
C  6.14600 46.60000 38.61600
H  11.03500 53.91900 39.95200
H  6.90400 58.61100 40.13300
H  2.07100 54.87500 41.36400
H  8.73400 49.55800 40.76900
H  10.68200 51.25800 39.58200
H  10.70800 51.86300 42.37200
H  11.73000 50.58600 41.49500
H  10.22900 50.21900 42.21800
H  7.97000 49.31900 38.36700
H  9.71000 49.06100 38.56200
H  9.80700 50.32900 36.66400
H  9.48800 51.70400 37.68100
H  11.95400 57.00800 38.55800
H  11.98000 55.31300 38.94800
H  12.22100 56.35600 40.31000
H  8.12200 60.06800 38.76200
H  9.59700 61.01100 39.44600
H  8.51800 60.20300 40.53400
H  4.26100 58.60100 39.52300
H  2.91700 57.38400 41.86400
H  5.65800 58.86800 41.88500
H  3.97400 59.35700 42.29800
H  4.87000 60.26100 41.08500
H  1.59600 56.42000 39.41300
H  2.11500 57.82900 39.00900
H  0.70100 59.11600 40.52600
H  0.72900 57.79500 41.75300
H  -0.29500 57.64500 40.48200
H  1.28900 50.97300 42.14200
H  0.76900 52.07900 40.89600
H  1.10300 52.66200 42.53000
H  6.11900 48.82900 41.48300
H  5.07700 46.39100 38.56000
H  6.80200 45.79100 38.93600
H  6.41700 47.00200 37.64000

