158

Mg 25.91200 50.27600 26.41900
C  23.59300 51.52400 28.70600
C  28.04700 49.54900 29.04500
C  28.14800 49.52000 24.11700
C  23.70100 51.53500 23.79400
N  25.79000 50.55300 28.67200
C  24.72000 51.07800 29.39600
C  24.94800 50.84900 30.89700
C  26.37900 50.47600 30.88600
C  26.81600 50.18600 29.42100
C  27.40800 51.32300 31.72000
C  23.96600 49.82200 31.56900
C  24.16400 49.37100 33.03800
H  24.68700 50.36100 34.08100
N  27.83400 49.52000 26.51500
C  28.53700 49.22400 27.69000
C  29.83800 48.64300 27.29900
C  29.82800 48.64700 25.86800
C  28.57600 49.27200 25.41200
C  30.88500 48.21500 28.36000
C  30.94800 48.09300 24.92900
O  30.77700 48.01500 23.66500
C  32.29700 47.49900 25.45200
N  25.78600 50.24400 24.22000
C  26.90100 49.98000 23.53200
C  26.60000 50.22400 22.02300
C  25.12200 50.70700 21.98800
C  24.85800 50.83500 23.43700
C  27.55500 51.06800 21.33400
C  23.99500 49.82400 21.40000
C  23.05100 50.62500 20.35200
N  23.91200 51.31500 26.22200
C  23.18800 51.68000 25.12700
C  21.99000 52.27800 25.56300
C  22.11000 52.25300 26.94300
C  23.28900 51.67000 27.30800
C  20.87100 52.83200 24.74900
C  21.40000 52.58800 28.19200
O  20.36200 53.15200 28.41600
C  22.32300 52.14500 29.34900
C  22.72500 53.20500 30.19800
O  23.48100 54.10500 29.90700
O  22.27600 52.95900 31.44300
C  22.35600 54.17600 32.41200
H  28.66100 49.28800 29.90900
H  28.79100 49.23800 23.28100
H  23.05600 51.93400 23.00900
H  24.99000 51.80400 31.42100
H  26.42100 49.50800 31.38600
H  27.82700 52.09700 31.07700
H  28.23900 50.81100 32.20500
H  26.88400 51.88700 32.49200
H  24.05800 48.92200 30.96100
H  22.97700 50.22100 31.34000
H  24.67800 48.41100 33.01600
H  23.10800 49.36000 33.31100
H  31.11300 47.16300 28.18900
H  30.48700 48.34300 29.36700
H  31.73900 48.89000 28.41700
H  32.97900 48.26900 25.81200
H  32.57100 46.84200 24.62700
H  32.09200 46.78100 26.24600
H  26.79000 49.25600 21.56100
H  25.07100 51.69400 21.52900
H  28.44700 51.27500 21.92600
H  27.17400 52.08500 21.24400
H  27.95000 50.66500 20.40100
H  23.29100 49.33600 22.07400
H  24.46700 48.97700 20.90100
H  22.81900 49.99000 19.49800
H  23.60200 51.52100 20.06600
H  22.15700 50.89000 20.91700
H  20.32600 53.52700 25.38800
H  20.24700 52.01200 24.39400
H  21.34200 53.42100 23.96200
H  21.86100 51.33900 29.91800
H  22.36500 55.08200 31.80600
H  23.24400 54.04700 33.03100
H  21.49500 54.12500 33.07800
Mg -2.04900 34.70000 26.99500
C  -3.70600 32.79300 29.45000
C  -1.00200 36.84500 29.27500
C  -1.16900 36.62000 24.38100
C  -3.22300 32.33800 24.62100
N  -2.36900 34.85400 29.06600
C  -2.93800 33.89900 29.91300
C  -2.56300 34.14300 31.34300
C  -1.63900 35.39600 31.25900
C  -1.74400 35.79300 29.78400
C  -1.94700 36.48600 32.28200
C  -1.75500 32.96600 31.98500
C  -2.17200 32.47000 33.35500
H  -1.18300 32.61200 34.57900
N  -1.13400 36.54500 26.85100
C  -0.75600 37.26400 27.95500
C  -0.08400 38.49100 27.55100
C  -0.27600 38.49100 26.10900
C  -0.91500 37.19700 25.66900
C  0.55000 39.50900 28.54700
C  0.20100 39.52400 25.10800
O  0.14200 39.34300 23.88800
C  0.86200 40.81100 25.62900
N  -2.27100 34.51700 24.76000
C  -1.68000 35.44400 23.93600
C  -1.62200 34.94800 22.49600
C  -2.14100 33.53100 22.67800
C  -2.51900 33.37600 24.11600
C  -2.55400 35.80200 21.64800
C  -1.09800 32.50400 22.18400
C  -0.02000 32.11300 23.18400
N  -3.24200 32.93900 26.99500
C  -3.67800 32.10100 25.93300
C  -4.53200 31.05300 26.39600
C  -4.52800 31.27800 27.80400
C  -3.69700 32.42100 28.05400
C  -5.30400 30.04100 25.61200
C  -5.05400 30.79300 29.11400
O  -5.79400 29.86800 29.42200
C  -4.40300 31.71500 30.25900
C  -5.45800 32.24300 31.16000
O  -6.16900 33.17300 30.87900
O  -5.53500 31.46700 32.34200
C  -6.49600 31.97200 33.33700
H  -0.54400 37.48300 30.03500
H  -0.75000 37.12600 23.50900
H  -3.45700 31.57600 23.87400
H  -3.51000 34.28500 31.86300
H  -0.60000 35.09700 31.39700
H  -2.36100 37.35800 31.77600
H  -1.05100 36.63800 32.88400
H  -2.69700 36.04500 32.93900
H  -0.71000 33.25300 32.10700
H  -1.70600 32.08600 31.34400
H  -2.35500 31.40100 33.24000
H  -3.14700 32.94300 33.47200
H  1.42100 39.96200 28.07300
H  0.90500 39.06000 29.47500
H  -0.15900 40.29500 28.80800
H  0.90600 41.50600 24.79000
H  1.83700 40.56500 26.05000
H  0.19700 41.23100 26.38300
H  -0.59700 35.03300 22.13500
H  -3.04200 33.44600 22.07100
H  -3.25500 36.33600 22.28800
H  -3.14700 35.25000 20.91900
H  -1.99400 36.59800 21.15700
H  -0.63100 32.87600 21.27200
H  -1.68800 31.70000 21.74500
H  0.10900 32.94000 23.88300
H  0.93100 31.95400 22.67600
H  -0.19200 31.11100 23.57700
H  -5.04400 30.05900 24.55400
H  -6.36400 30.23200 25.77900
H  -5.12400 29.05100 26.03100
H  -3.65500 31.06800 30.71600
H  -7.38600 32.42100 32.89500
H  -6.13600 32.69500 34.06900
H  -6.73800 31.20300 34.07000

