158

Mg -0.46200 7.00800 27.20900
C  -0.16800 9.30200 29.90600
C  -0.29300 4.50500 29.62000
C  -0.95900 4.94100 24.87100
C  -0.07100 9.69900 25.02500
N  -0.23900 6.90600 29.48200
C  -0.25100 7.95100 30.35100
C  -0.15200 7.51600 31.79800
C  0.03700 5.91600 31.67700
C  -0.15200 5.82200 30.17800
C  1.39400 5.37500 32.16900
C  -1.48100 7.83900 32.54400
C  -1.41700 8.07200 34.06400
H  -0.10600 7.59300 34.76200
N  -0.48300 4.97700 27.21900
C  -0.39700 4.12100 28.25000
C  -0.47700 2.75200 27.80900
C  -0.78800 2.82000 26.40400
C  -0.79100 4.29000 26.10600
C  -0.41600 1.57400 28.75100
C  -1.13700 1.81000 25.42400
O  -1.38300 2.02600 24.28000
C  -1.17600 0.32300 25.87100
N  -0.49800 7.35700 25.26900
C  -0.77600 6.28300 24.44500
C  -0.88600 6.71600 22.94800
C  -0.89300 8.31400 23.09000
C  -0.52900 8.47900 24.54000
C  0.14100 6.16400 21.94100
C  -2.13900 9.06900 22.67700
C  -2.45100 9.00900 21.10800
N  -0.16100 9.14700 27.34900
C  -0.04900 10.10700 26.37700
C  0.12900 11.42700 26.95200
C  0.04300 11.16900 28.40200
C  -0.04800 9.80200 28.58300
C  0.34200 12.62400 26.15300
C  0.13400 11.71800 29.75500
O  0.50000 12.80200 30.03800
C  0.01900 10.46400 30.80400
C  1.21800 10.44500 31.70400
O  2.38300 10.22000 31.36700
O  0.83900 10.93000 32.99500
C  1.84800 11.16000 34.05800
H  -0.39800 3.68700 30.33500
H  -1.14700 4.25900 24.03900
H  -0.10800 10.53000 24.31700
H  0.73700 7.93300 32.27200
H  -0.70500 5.43600 32.31600
H  2.01500 6.17200 32.58000
H  2.06100 4.94100 31.42400
H  1.28200 4.62700 32.95400
H  -2.20300 7.02800 32.44700
H  -1.89600 8.70900 32.03500
H  -2.20600 7.56000 34.61600
H  -1.51700 9.15500 34.13900
H  -1.34800 1.03400 28.91800
H  0.00100 1.83800 29.72300
H  0.34600 0.93300 28.30800
H  -2.09600 0.08800 26.40600
H  -0.33800 -0.19100 26.34300
H  -1.26600 -0.28500 24.97100
H  -1.77900 6.23000 22.55200
H  -0.03800 8.64500 22.50100
H  0.17000 6.96700 21.20400
H  -0.31700 5.28600 21.48600
H  1.12700 5.83000 22.26500
H  -1.99500 10.09900 23.00300
H  -3.02400 8.67500 23.17600
H  -1.84700 8.41600 20.42000
H  -2.41900 10.06900 20.85600
H  -3.47400 8.64900 21.00100
H  1.03300 12.47000 25.32400
H  0.74300 13.41400 26.78800
H  -0.58800 12.94800 25.68600
H  -0.90500 10.59500 31.36900
H  2.67700 10.46500 34.19300
H  1.23100 11.27900 34.94900
H  2.28900 12.11200 33.76200
Mg 36.88800 49.45900 25.19900
C  37.03500 47.79500 28.20500
C  35.41000 52.11900 27.02100
C  36.49000 51.03100 22.27500
C  38.06800 46.73900 23.48900
N  36.12300 49.85400 27.32700
C  36.42300 49.04000 28.40700
C  35.91500 49.61200 29.72500
C  35.25900 50.95100 29.27100
C  35.62200 50.99500 27.80400
C  33.75500 51.13400 29.52700
C  37.16700 49.84100 30.64600
C  37.15300 49.24800 32.06900
H  35.82900 49.24900 32.86900
N  36.12600 51.31700 24.75500
C  35.55100 52.24200 25.61600
C  35.00300 53.32400 24.80300
C  35.39300 53.08200 23.46700
C  36.04200 51.76500 23.42600
C  34.23200 54.50900 25.38700
C  35.11700 53.98500 22.29500
O  35.45600 53.68100 21.10700
C  34.58200 55.39200 22.48500
N  37.37100 48.97100 23.15700
C  37.08000 49.76400 22.13500
C  37.43200 49.19100 20.79100
C  38.14600 47.86300 21.22500
C  37.95000 47.86500 22.70200
C  36.25900 49.02200 19.83600
C  39.67100 47.92400 20.96100
C  40.18800 47.72800 19.52300
N  37.45600 47.57600 25.70800
C  37.89200 46.56300 24.87200
C  38.28000 45.50300 25.77000
C  37.99100 45.89000 27.06700
C  37.41800 47.15600 26.99500
C  38.93000 44.23900 25.28100
C  38.07500 45.55300 28.47400
O  38.54500 44.56200 28.99300
C  37.28700 46.73600 29.29300
C  36.07300 46.11100 29.99400
O  34.88800 46.22100 29.68400
O  36.54200 45.50300 31.15300
C  35.59000 44.87800 32.13500
H  35.14800 53.04200 27.54300
H  36.37800 51.63300 21.37100
H  38.35200 45.87200 22.89000
H  35.32500 48.79500 30.14100
H  35.70000 51.80600 29.78200
H  33.30500 50.35100 30.13700
H  33.23300 51.26400 28.57900
H  33.61700 52.05800 30.08900
H  37.38000 50.90800 30.70600
H  38.04600 49.45000 30.13300
H  37.69200 50.01500 32.62500
H  37.64700 48.28000 32.14900
H  34.06000 54.33500 26.44900
H  33.26900 54.71700 24.92000
H  34.88900 55.37400 25.30100
H  35.13100 55.87400 23.29400
H  33.51800 55.43400 22.71900
H  34.74400 55.91400 21.54200
H  38.20900 49.78200 20.30800
H  37.76200 46.93900 20.79500
H  36.59000 49.47000 18.89900
H  35.40100 49.56400 20.23400
H  35.92600 48.03700 19.50700
H  40.03600 47.13200 21.61500
H  40.07500 48.87200 21.31500
H  40.75300 48.61300 19.23200
H  39.42500 47.31900 18.86100
H  40.87800 46.92200 19.77500
H  40.01000 44.27700 25.13900
H  38.48400 43.87200 24.35700
H  38.78700 43.54900 26.11300
H  37.92400 47.09400 30.10200
H  35.86200 43.84200 32.33700
H  34.56200 44.91800 31.77500
H  35.70200 45.41600 33.07700

