158

Mg 23.95700 -5.67500 46.08300
C  26.29400 -3.41000 44.58900
C  21.60300 -4.40600 43.94900
C  22.26100 -8.52800 46.46800
C  26.74600 -7.13800 47.82400
N  23.94500 -3.97600 44.68900
C  24.98700 -3.28600 44.18800
C  24.52000 -2.39100 43.05600
C  22.97300 -2.44100 43.11800
C  22.72500 -3.59500 44.04100
C  22.22900 -1.13400 43.66800
C  25.15000 -2.66700 41.67800
C  25.78100 -1.47600 40.89600
H  25.39200 -1.17000 39.47100
N  22.17300 -6.32400 45.37800
C  21.32900 -5.73200 44.45600
C  20.17600 -6.51900 44.15800
C  20.29000 -7.69100 44.98600
C  21.62900 -7.55900 45.69200
C  19.10600 -6.13900 43.15000
C  19.23100 -8.76300 45.08700
O  18.09800 -8.64500 44.59700
C  19.42400 -9.99300 45.80200
N  24.38500 -7.49100 47.22000
C  23.48800 -8.52700 47.19600
C  23.92400 -9.73100 48.07100
C  25.30100 -9.25900 48.61200
C  25.57500 -7.93000 47.85900
C  22.86200 -10.09800 49.14100
C  26.48700 -10.34600 48.72600
C  27.07500 -10.65900 50.11400
N  26.03800 -5.36400 46.26800
C  27.01800 -5.99800 46.99300
C  28.37000 -5.34800 46.76300
C  28.06500 -4.33300 45.83900
C  26.68900 -4.37100 45.59800
C  29.70000 -5.78300 47.29300
C  28.64800 -3.29900 44.97900
O  29.86200 -2.99400 44.79600
C  27.53400 -2.68900 44.13100
C  27.33300 -1.21600 44.41600
O  26.69300 -0.72700 45.32500
O  28.11300 -0.61100 43.50900
C  28.45900 0.84400 43.72300
H  20.85900 -3.92300 43.31200
H  21.71000 -9.47100 46.48800
H  27.61500 -7.65600 48.23600
H  24.80000 -1.41200 43.44500
H  22.52100 -2.79600 42.19200
H  21.80700 -0.44600 42.93500
H  22.94200 -0.69800 44.36800
H  21.36400 -1.47900 44.23400
H  24.33600 -2.91700 40.99800
H  25.86600 -3.48600 41.75000
H  26.84600 -1.64700 41.05100
H  25.71000 -0.48100 41.33600
H  18.62900 -7.00500 42.69200
H  19.57700 -5.53300 42.37500
H  18.43900 -5.66300 43.86800
H  18.51100 -10.58300 45.87600
H  19.57000 -9.58000 46.80000
H  20.25900 -10.64500 45.54300
H  24.02100 -10.69400 47.57000
H  25.10100 -8.95400 49.63900
H  21.95500 -9.49400 49.18200
H  23.31400 -10.00500 50.12800
H  22.66200 -11.16900 49.10900
H  27.32700 -10.20900 48.04500
H  26.14000 -11.28500 48.29500
H  28.15100 -10.48600 50.11700
H  26.98300 -11.71800 50.35500
H  26.53200 -10.12000 50.89100
H  29.75100 -5.62300 48.37000
H  30.50900 -5.27400 46.76900
H  29.83400 -6.85200 47.12200
H  27.70300 -2.65800 43.05400
H  29.05800 0.91600 44.63100
H  27.54900 1.38100 43.99200
H  28.94700 1.36400 42.89900
Mg 17.58200 53.05400 26.58300
C  19.47400 51.30000 29.00600
C  14.97300 53.26800 28.90500
C  15.63000 54.33400 24.24100
C  19.88000 52.00200 24.15800
N  17.36000 52.40400 28.69200
C  18.36400 51.95600 29.53400
C  17.93300 52.00500 31.01100
C  16.38500 52.27500 30.86700
C  16.26200 52.73100 29.40500
C  15.39400 51.12600 31.25700
C  18.71600 53.06600 31.77500
C  18.60900 53.35400 33.33700
H  17.82200 52.33600 34.12300
N  15.62200 53.96200 26.61700
C  14.75200 53.96300 27.66900
C  13.55000 54.57800 27.23300
C  13.68700 54.89600 25.87500
C  15.01000 54.44000 25.52400
C  12.34500 54.76200 28.18200
C  12.71400 55.60300 24.96600
O  12.99600 55.95500 23.77200
C  11.38000 56.02000 25.42300
N  17.68100 53.16300 24.45900
C  16.78800 53.76800 23.74900
C  17.19400 53.75900 22.22100
C  18.58100 53.15600 22.26000
C  18.76600 52.71800 23.69900
C  16.18000 52.92100 21.33500
C  19.74100 54.12200 21.82700
C  20.32600 55.19500 22.83600
N  19.24900 51.67800 26.55500
C  20.15100 51.47400 25.48100
C  21.23500 50.65000 25.94800
C  21.03300 50.49300 27.33800
C  19.82800 51.25700 27.68100
C  22.36100 50.13000 25.08600
C  21.61400 49.94400 28.55400
O  22.61300 49.27800 28.72500
C  20.53100 50.47900 29.71200
C  20.09600 49.24800 30.44600
O  19.51900 48.24800 29.93600
O  20.38100 49.37900 31.74300
C  20.06100 48.34700 32.74300
H  14.12900 53.16800 29.58900
H  15.25300 54.96700 23.43600
H  20.58600 51.85900 23.33800
H  18.13200 51.01100 31.41100
H  16.05000 53.18400 31.36600
H  15.04300 50.61400 30.36100
H  14.53200 51.59500 31.73200
H  15.83500 50.43400 31.97400
H  18.39400 53.98900 31.29200
H  19.77200 52.86200 31.59700
H  18.23500 54.36000 33.52800
H  19.67100 53.27600 33.57000
H  12.01100 55.79000 28.04200
H  12.65400 54.50200 29.19400
H  11.58100 54.06600 27.83500
H  10.89200 55.13000 25.82000
H  10.90500 56.36100 24.50300
H  11.44600 56.85900 26.11600
H  17.31500 54.80300 21.93300
H  18.79500 52.30000 21.62000
H  16.62100 52.14100 20.71500
H  15.67400 53.60300 20.65200
H  15.35200 52.49600 21.90200
H  19.38300 54.77100 21.02700
H  20.47700 53.46700 21.36100
H  20.08600 54.96400 23.87400
H  19.95000 56.21200 22.72400
H  21.40900 55.18600 22.70700
H  22.00100 49.17900 24.69400
H  23.27800 49.99800 25.66200
H  22.61400 50.84000 24.30000
H  21.11300 51.06400 30.42500
H  20.85900 47.61000 32.82800
H  19.11700 47.88200 32.45900
H  19.93300 48.99500 33.61000

