158

Mg 48.63800 16.50300 28.24400
C  46.61400 15.97900 31.03900
C  50.96700 17.98400 30.15200
C  50.13800 17.48600 25.33500
C  45.82000 15.29400 26.25600
N  48.67200 17.13500 30.35700
C  47.81600 16.70500 31.31400
C  48.34400 17.05600 32.64800
C  49.75400 17.72900 32.38000
C  49.81500 17.65500 30.83800
C  49.89800 19.16500 33.01300
C  48.56500 15.85100 33.64600
C  47.76200 15.87300 34.96700
H  47.39300 17.16800 35.62100
N  50.30300 17.60100 27.81000
C  51.22900 17.96900 28.74300
C  52.33700 18.50100 28.03500
C  52.11200 18.32100 26.65500
C  50.77700 17.78300 26.54200
C  53.51400 19.08600 28.77000
C  53.04000 18.69800 25.46100
O  52.74500 18.48800 24.29500
C  54.36800 19.25200 25.76800
N  48.01800 16.29800 26.06800
C  48.84800 16.85100 25.12300
C  48.19100 16.65200 23.69300
C  46.95600 15.75000 24.00600
C  46.89100 15.83300 25.53600
C  47.77700 18.01600 23.01600
C  47.00900 14.29200 23.45600
C  46.01500 13.85900 22.39900
N  46.72800 15.56700 28.55400
C  45.74500 15.14200 27.65500
C  44.61800 14.61200 28.39600
C  44.95700 14.87300 29.74700
C  46.19700 15.53500 29.76500
C  43.31600 14.08700 27.91800
C  44.46000 14.74100 31.11300
O  43.45600 14.27200 31.62100
C  45.53500 15.46500 32.02700
C  44.77000 16.53900 32.80400
O  44.62400 17.70800 32.45000
O  44.20500 15.99200 33.95900
C  43.25400 16.88100 34.74400
H  51.68300 18.43800 30.84000
H  50.59500 17.69000 24.36500
H  45.02700 14.94600 25.59100
H  47.66900 17.70600 33.20600
H  50.59100 17.10700 32.69800
H  48.96300 19.71000 32.88300
H  50.71300 19.72100 32.54700
H  50.19300 19.06900 34.05800
H  49.59000 15.66400 33.96700
H  48.33700 14.86300 33.24600
H  48.29900 15.31400 35.73300
H  46.81200 15.35100 34.85600
H  54.35900 18.40000 28.70900
H  53.29600 19.33600 29.80800
H  53.80400 20.01600 28.28000
H  54.26400 20.30800 26.01700
H  55.04800 19.03800 24.94300
H  54.74500 18.59600 26.55300
H  48.86200 16.12700 23.01200
H  46.12800 16.27400 23.52800
H  48.37500 18.81500 23.45400
H  46.71700 18.21700 23.16900
H  47.89000 18.02600 21.93200
H  46.99500 13.56800 24.27100
H  47.97500 14.10700 22.98400
H  46.50300 13.79300 21.42700
H  45.36000 14.72700 22.33200
H  45.55800 12.87900 22.54100
H  43.33300 13.01500 27.72000
H  42.93900 14.65700 27.06800
H  42.59200 14.39100 28.67400
H  45.96400 14.69000 32.66200
H  42.32100 17.11800 34.23300
H  43.63400 17.79500 35.20000
H  42.88300 16.25800 35.55700
Mg 49.44900 46.11800 42.88900
C  46.01600 46.21500 41.87600
C  49.59100 42.76300 41.95900
C  52.76400 46.48900 42.70300
C  49.06400 49.52900 43.65800
N  48.02900 44.72300 41.87400
C  46.68700 44.99400 41.69200
C  46.04900 43.69800 41.17100
C  47.05900 42.56400 41.60200
C  48.33800 43.34100 41.79100
C  46.77400 41.56700 42.77100
C  45.76100 43.62700 39.64900
C  44.53100 42.82000 39.24000
H  44.01900 43.12800 37.85200
N  51.03400 44.76900 42.47400
C  50.84300 43.42200 42.15300
C  52.19900 42.89500 41.96500
C  53.16400 43.92800 42.26800
C  52.38700 45.12900 42.47400
C  52.48500 41.42900 41.78700
C  54.63100 43.76700 42.41400
O  55.19000 42.70500 42.16600
C  55.58500 44.87700 42.98600
N  50.79800 47.69800 43.28400
C  52.09000 47.64800 43.08400
C  52.80000 48.93200 43.45400
C  51.65200 49.89200 43.85800
C  50.35300 49.03900 43.53800
C  53.92000 48.91600 44.53500
C  51.67500 51.30100 43.11000
C  51.20600 52.51300 43.90600
N  47.91800 47.61300 42.82900
C  47.91400 48.86900 43.27500
C  46.52700 49.32600 43.27900
C  45.85100 48.37000 42.67300
C  46.67400 47.34600 42.41500
C  46.09900 50.64400 43.86700
C  44.50600 48.06700 42.30000
O  43.58200 48.87300 42.30400
C  44.54600 46.65100 41.76000
C  43.69700 45.84400 42.61100
O  43.86600 45.59800 43.76900
O  42.70600 45.26000 41.83200
C  41.77900 44.32700 42.40200
H  49.49000 41.69100 41.77600
H  53.82300 46.75600 42.67400
H  48.91700 50.58500 43.89600
H  45.12400 43.55400 41.73000
H  47.12500 41.79300 40.83400
H  45.82500 41.90500 43.18900
H  47.60200 41.59000 43.47800
H  46.57500 40.55000 42.43300
H  46.70500 43.30000 39.21100
H  45.55000 44.59800 39.20200
H  43.69800 42.97500 39.92600
H  44.78700 41.76700 39.35900
H  51.55200 40.98800 41.43700
H  52.59600 40.89800 42.73300
H  53.26300 41.12000 41.08900
H  55.67500 45.71000 42.29000
H  56.56400 44.47600 43.24800
H  55.16100 45.18400 43.94300
H  53.24400 49.41800 42.58500
H  51.49400 50.02100 44.92900
H  54.90500 49.03200 44.08400
H  54.08700 48.02500 45.14000
H  53.81000 49.73500 45.24600
H  51.00300 51.29300 42.25200
H  52.69200 51.42000 42.73600
H  50.90100 52.28800 44.92800
H  50.34200 52.98900 43.44200
H  51.98400 53.27600 43.86900
H  46.59800 51.52500 43.46300
H  46.42200 50.72600 44.90400
H  45.02000 50.79200 43.83100
H  44.02000 46.74800 40.81100
H  41.17400 43.71000 41.73700
H  41.15400 44.98200 43.00900
H  42.33500 43.65700 43.05700

