158

Mg -2.16200 17.14500 26.18900
C  -2.50300 14.60700 28.72000
C  -3.19900 19.44300 28.60100
C  -1.88300 19.65700 24.02700
C  -1.87800 14.61200 23.86100
N  -2.62700 17.03600 28.30000
C  -2.55900 15.91000 29.18900
C  -2.80800 16.25300 30.64300
C  -3.46700 17.66900 30.44400
C  -3.15700 18.07600 28.96100
C  -4.94700 17.74200 30.73500
C  -1.41700 16.37500 31.43200
C  -1.47400 17.24100 32.75800
H  -1.01600 16.63200 34.03600
N  -2.52000 19.31000 26.25600
C  -2.97300 20.04600 27.37500
C  -3.13400 21.46600 26.96900
C  -2.79200 21.47200 25.59800
C  -2.32500 20.13100 25.25400
C  -3.44400 22.66700 27.95600
C  -2.79100 22.57900 24.55500
O  -2.57500 22.38400 23.39300
C  -3.12300 23.96400 25.05000
N  -2.00600 17.16600 24.23700
C  -1.86500 18.30200 23.47400
C  -1.57400 17.93400 22.06100
C  -1.39300 16.35400 22.12700
C  -1.73100 16.00200 23.52300
C  -2.70600 18.45900 21.10900
C  0.12300 15.97400 21.83700
C  0.27600 15.00500 20.62800
N  -2.06100 15.01500 26.21900
C  -1.99400 14.12100 25.15000
C  -2.00700 12.77000 25.62000
C  -2.23200 12.91300 27.01100
C  -2.28200 14.32100 27.32500
C  -1.80800 11.54600 24.78800
C  -2.31400 12.18700 28.24700
O  -2.07000 10.99000 28.39400
C  -2.76300 13.25900 29.38600
C  -1.82500 12.99500 30.56200
O  -0.66500 12.85800 30.49600
O  -2.57700 12.96800 31.72500
C  -1.96100 12.44800 32.89200
H  -3.59700 19.95100 29.48200
H  -1.56000 20.39000 23.28500
H  -1.74700 13.90100 23.04300
H  -3.54200 15.64500 31.17200
H  -3.16200 18.46800 31.12000
H  -5.28900 18.73100 30.43100
H  -4.93800 17.71900 31.82500
H  -5.52700 16.94200 30.27600
H  -0.56200 16.67600 30.82500
H  -1.22000 15.33700 31.69700
H  -2.51400 17.53500 32.90500
H  -0.98700 18.21600 32.78400
H  -3.20900 22.42600 28.99300
H  -4.48900 22.97600 27.94400
H  -2.90900 23.57400 27.67400
H  -4.06600 23.81300 25.57700
H  -3.20700 24.59200 24.16300
H  -2.31600 24.24100 25.72800
H  -0.63800 18.37700 21.72100
H  -2.06300 15.85000 21.43200
H  -3.55700 18.51600 21.78700
H  -3.00800 17.74800 20.34000
H  -2.37600 19.43700 20.75700
H  0.62500 15.56000 22.71200
H  0.73800 16.85200 21.63700
H  -0.68500 14.55200 20.38600
H  1.08400 14.27500 20.68100
H  0.43300 15.74800 19.84600
H  -1.10800 11.74000 23.97600
H  -2.76400 11.25000 24.35500
H  -1.35700 10.87400 25.51900
H  -3.80700 13.10400 29.66000
H  -0.87400 12.48500 32.82400
H  -2.28600 11.42500 33.08100
H  -2.45600 12.97000 33.71100
Mg 36.34400 48.99900 24.55300
C  36.40600 47.22100 27.58000
C  35.09500 51.66600 26.30000
C  35.32800 50.46900 21.60200
C  37.15900 46.08900 23.00000
N  35.67200 49.32800 26.70800
C  36.01000 48.55100 27.78900
C  35.77600 49.28100 29.14800
C  35.49300 50.75500 28.66400
C  35.38200 50.59000 27.15000
C  34.22500 51.30700 29.31200
C  36.81800 49.03900 30.30300
C  36.47600 48.65900 31.71100
H  35.06900 48.79800 32.16900
N  35.51200 50.85200 24.00000
C  35.15500 51.85600 24.91700
C  34.66700 52.99600 24.14400
C  34.63700 52.64500 22.76400
C  35.13200 51.25200 22.74300
C  34.15900 54.19800 24.72000
C  34.05200 53.43900 21.54900
O  34.16100 53.11600 20.35300
C  33.66800 54.89400 21.74700
N  36.33000 48.36300 22.53400
C  35.82400 49.16700 21.51100
C  35.89000 48.30800 20.14700
C  36.78400 47.04600 20.56000
C  36.65400 47.10100 22.20500
C  34.53700 47.88700 19.65000
C  38.32600 47.04400 20.13700
C  39.28700 47.79500 21.06700
N  36.86500 47.13600 25.10100
C  37.14800 46.02000 24.34400
C  37.61900 44.95000 25.18600
C  37.26300 45.36000 26.50900
C  36.82300 46.66300 26.34200
C  38.09500 43.58600 24.76300
C  37.23500 44.98900 27.90200
O  37.50800 43.93200 28.43700
C  36.64200 46.10100 28.59800
C  35.31100 45.77500 29.21300
O  34.22900 46.21100 28.85500
O  35.54400 45.08400 30.35800
C  34.41100 44.70000 31.18600
H  34.93900 52.63300 26.78200
H  35.00600 50.86700 20.63800
H  37.54800 45.21200 22.47800
H  34.85500 48.77500 29.44100
H  36.29600 51.43300 28.95300
H  33.86300 50.73900 30.16900
H  33.44200 51.34200 28.55500
H  34.39500 52.27200 29.79000
H  37.20700 50.05600 30.35500
H  37.66600 48.44300 29.96700
H  37.07900 49.25400 32.39700
H  36.75000 47.60400 31.71200
H  34.80700 55.00000 24.36600
H  34.12300 54.11200 25.80600
H  33.13000 54.40200 24.42500
H  33.17500 55.29200 20.86000
H  34.52100 55.47300 22.10100
H  32.86300 55.02200 22.47000
H  36.16800 48.95000 19.31100
H  36.35400 46.10500 20.21700
H  33.88100 47.62200 20.48000
H  34.60200 46.92300 19.14400
H  34.08200 48.54900 18.91400
H  38.43000 47.65000 19.23700
H  38.70500 46.04500 19.92000
H  39.73300 47.16800 21.84000
H  38.90900 48.69700 21.54800
H  40.11200 48.00400 20.38600
H  38.69800 43.56000 23.85500
H  37.20200 43.03600 24.46500
H  38.68200 43.21800 25.60500
H  37.36000 46.33000 29.38600
H  33.99900 43.82600 30.68200
H  33.60600 45.43300 31.13500
H  34.64800 44.67000 32.25000

