158

Mg 47.30800 44.16800 42.37800
C  43.81000 43.77700 41.86800
C  47.58800 40.72800 42.07000
C  50.69000 44.45100 41.95600
C  46.85400 47.51100 42.36100
N  45.81700 42.39700 41.90300
C  44.47900 42.52700 41.86400
C  43.83600 41.12100 41.81800
C  45.01700 40.23200 42.38100
C  46.22400 41.13100 42.06200
C  44.93800 39.74500 43.84100
C  43.28200 40.74400 40.42900
C  43.95700 39.74300 39.46000
H  43.76500 39.90500 37.95300
N  48.89700 42.80700 41.94700
C  48.77100 41.43900 41.91500
C  50.10600 40.87800 41.82600
C  51.04300 41.93100 41.69800
C  50.19700 43.11700 41.80800
C  50.34800 39.45400 41.58900
C  52.54400 41.78200 41.51400
O  53.02600 40.66100 41.43500
C  53.46800 42.91800 41.67100
N  48.56400 45.72400 42.11200
C  49.92300 45.60800 42.06800
C  50.60700 47.04100 42.17900
C  49.31000 48.02800 42.25700
C  48.21500 47.05800 42.22500
C  51.66700 47.26000 43.36100
C  49.11600 48.96400 40.99100
C  49.05400 50.47800 41.27300
N  45.70100 45.45200 42.29300
C  45.65100 46.82100 42.30900
C  44.29500 47.26200 42.23700
C  43.52100 46.10000 42.12100
C  44.42800 45.02600 42.11500
C  43.73200 48.62600 42.25900
C  42.18600 45.53100 41.98400
O  41.08500 46.03700 42.00500
C  42.32900 44.00400 41.88800
C  41.65400 43.43100 43.16100
O  40.57800 42.88900 43.13000
O  42.31400 43.71500 44.33400
C  41.68100 43.62200 45.60300
H  47.74100 39.66000 42.23700
H  51.73800 44.73500 41.83700
H  46.71800 48.58200 42.53000
H  43.00700 41.09000 42.52600
H  45.07400 39.31500 41.79400
H  44.04200 40.12000 44.33700
H  45.74600 40.27100 44.35000
H  45.01200 38.65800 43.82500
H  43.22900 41.59300 39.74800
H  42.28500 40.47000 40.77400
H  43.67500 38.71900 39.70600
H  45.04500 39.73900 39.53400
H  50.90800 39.44400 40.65400
H  49.43100 38.88600 41.43000
H  50.97800 38.99800 42.35300
H  53.31400 43.67600 40.90200
H  54.42400 42.44300 41.45300
H  53.31500 43.28100 42.68700
H  51.16000 47.30000 41.27600
H  49.27300 48.59600 43.18600
H  51.45300 48.17400 43.91500
H  52.68100 47.38600 42.97900
H  51.71300 46.33400 43.93400
H  48.27500 48.77700 40.32400
H  49.98200 48.82200 40.34500
H  48.04200 50.85200 41.12200
H  49.60800 51.07900 40.55300
H  49.42800 50.67700 42.27800
H  42.98500 48.79700 41.48400
H  44.43600 49.36900 41.88400
H  43.27300 48.73500 43.24200
H  41.84300 43.51200 41.04500
H  41.68700 42.53800 45.71100
H  40.70000 44.09600 45.57200
H  42.36500 43.89100 46.40800
Mg -11.65800 38.40600 42.85300
C  -9.61900 35.80300 41.73900
C  -9.46100 40.60400 41.43600
C  -13.82000 40.99600 43.56300
C  -14.28700 36.11500 43.41300
N  -9.82800 38.11800 41.46900
C  -9.14100 36.96800 41.24800
C  -7.88500 37.18900 40.49100
C  -7.78400 38.77100 40.64700
C  -9.09500 39.20600 41.20300
C  -6.55600 39.31600 41.33400
C  -8.01300 36.80100 38.92900
C  -7.11600 35.65100 38.48600
H  -6.03000 35.82100 37.39400
N  -11.67500 40.53500 42.60400
C  -10.63600 41.21800 42.01500
C  -10.89200 42.64600 42.23200
C  -12.13000 42.84300 42.84900
C  -12.56800 41.43500 43.03200
C  -10.10100 43.74800 41.67100
C  -12.78600 44.15800 43.27000
O  -12.24500 45.25700 43.09400
C  -14.00300 44.13300 44.01200
N  -13.85200 38.49600 43.38000
C  -14.43800 39.74300 43.62300
C  -15.91700 39.57800 44.03600
C  -16.09400 37.95100 43.99200
C  -14.68000 37.45800 43.50800
C  -16.32200 40.04800 45.44200
C  -17.22500 37.57900 42.98800
C  -18.43600 36.92100 43.56900
N  -11.91200 36.34200 42.65700
C  -13.02000 35.55700 42.98300
C  -12.67500 34.20500 42.64200
C  -11.31100 34.27000 42.35100
C  -10.93800 35.59600 42.24900
C  -13.56700 33.05200 42.77100
C  -10.14900 33.44000 41.85500
O  -10.08400 32.27600 41.67400
C  -9.03700 34.44700 41.39800
C  -7.86600 34.17400 42.23400
O  -7.72800 34.42300 43.42400
O  -7.04000 33.33700 41.58900
C  -5.99000 32.60300 42.30500
H  -8.64200 41.27000 41.15700
H  -14.61400 41.69700 43.82800
H  -15.12900 35.45200 43.62200
H  -7.04900 36.71600 41.00500
H  -7.72300 39.19800 39.64600
H  -5.88900 39.91700 40.71600
H  -6.08300 38.47400 41.83900
H  -6.86800 39.95100 42.16400
H  -7.72800 37.69300 38.37000
H  -9.05800 36.58100 38.71500
H  -7.87800 34.95300 38.14000
H  -6.57200 35.33400 39.37600
H  -10.85900 44.20700 41.03600
H  -9.31300 43.46600 40.97200
H  -9.75100 44.51700 42.35900
H  -13.96400 43.46700 44.87400
H  -14.72300 43.82700 43.25400
H  -14.32500 45.14200 44.27100
H  -16.53200 40.16500 43.35300
H  -16.26800 37.47400 44.95600
H  -16.81800 39.41000 46.17400
H  -16.94500 40.93700 45.33900
H  -15.41200 40.33700 45.96700
H  -16.90000 36.89400 42.20600
H  -17.62500 38.50800 42.58300
H  -18.34200 35.83900 43.66000
H  -19.26600 37.15400 42.90200
H  -18.61100 37.34700 44.55700
H  -13.34400 32.54900 43.71200
H  -13.45700 32.30500 41.98500
H  -14.60300 33.38400 42.69600
H  -8.87600 34.33100 40.32600
H  -5.26100 33.25400 42.78700
H  -5.36200 32.24100 41.49100
H  -6.40600 31.91300 43.03900

