158

Mg 0.26700 7.93200 26.81100
C  1.20800 9.92900 29.56600
C  -0.26600 5.44100 29.06300
C  -0.46300 6.00600 24.15700
C  0.77900 10.60800 24.67200
N  0.44900 7.74500 29.06700
C  0.75000 8.70100 29.98900
C  0.71500 8.08700 31.42600
C  0.57100 6.52400 31.15900
C  0.12600 6.57500 29.67500
C  1.83500 5.68900 31.40200
C  -0.39600 8.70100 32.40800
C  0.08500 8.59400 33.88200
H  -0.59000 7.46100 34.76800
N  -0.26800 6.02100 26.66300
C  -0.38000 5.11700 27.66900
C  -0.75100 3.84000 27.09800
C  -0.73400 3.94300 25.66500
C  -0.41700 5.38300 25.42300
C  -1.15300 2.74200 27.99200
C  -1.05200 2.93400 24.61700
O  -0.97400 3.21400 23.41900
C  -1.49000 1.53200 24.92800
N  0.33600 8.28300 24.69000
C  -0.17100 7.30700 23.82800
C  -0.34100 7.85600 22.36500
C  -0.13000 9.37000 22.65100
C  0.43900 9.43300 24.09300
C  0.68900 7.30400 21.43600
C  -1.40400 10.18500 22.37600
C  -1.52500 10.66100 20.90100
N  1.03800 9.82000 27.00700
C  1.19600 10.83400 26.03100
C  1.68800 12.02200 26.68700
C  1.84800 11.72600 28.08800
C  1.31300 10.41700 28.21200
C  1.90700 13.46300 26.02800
C  2.12600 12.23200 29.38800
O  2.56500 13.34900 29.70600
C  1.67100 11.17600 30.41700
C  2.75900 10.89400 31.37900
O  3.75200 10.27800 31.15500
O  2.43700 11.40700 32.57900
C  3.25100 11.13700 33.70800
H  -0.49200 4.54800 29.65000
H  -0.72500 5.51000 23.22000
H  0.77500 11.46300 23.99200
H  1.68900 8.34100 31.84500
H  -0.24500 6.11000 31.75100
H  1.51400 4.84200 32.00900
H  2.63100 6.17900 31.96400
H  2.24500 5.31800 30.46300
H  -1.30100 8.10800 32.27500
H  -0.66200 9.72600 32.15100
H  0.01600 9.61600 34.25600
H  1.15600 8.45800 34.03000
H  -2.19500 2.93300 28.25200
H  -0.52900 2.71500 28.88600
H  -1.24700 1.72000 27.62700
H  -1.70600 1.03100 23.98400
H  -2.41800 1.65100 25.48700
H  -0.69100 1.11100 25.53900
H  -1.31300 7.72600 21.88900
H  0.71600 9.65700 22.02600
H  0.94700 8.09700 20.73400
H  0.31000 6.51000 20.79200
H  1.56300 7.04800 22.03500
H  -1.43400 10.98900 23.11200
H  -2.27100 9.53300 22.48800
H  -2.37800 10.12500 20.48400
H  -0.59200 10.52200 20.35500
H  -1.81900 11.70700 20.81900
H  1.01100 14.06700 25.88500
H  2.33100 13.34400 25.03000
H  2.59300 14.06200 26.62600
H  0.82400 11.46700 31.03700
H  3.93400 10.29700 33.57700
H  2.54600 10.80000 34.46800
H  3.79000 12.05200 33.95600
Mg 17.15100 53.23800 26.58300
C  19.23300 51.56900 28.74700
C  14.72700 53.28700 28.99500
C  15.14400 54.46500 24.29800
C  19.33400 52.21900 23.88000
N  17.00300 52.55000 28.68400
C  18.01600 51.97800 29.37400
C  17.59500 51.94100 30.89800
C  16.04200 52.26300 30.84400
C  15.89500 52.70000 29.44600
C  15.09800 51.13200 31.32300
C  18.43900 52.98900 31.76800
C  19.12100 52.51700 33.03200
H  18.16800 51.93100 34.08800
N  15.28300 54.05800 26.72600
C  14.43600 53.87900 27.76500
C  13.12100 54.46000 27.39500
C  13.19000 54.82800 26.05200
C  14.59400 54.49000 25.63300
C  11.87600 54.19400 28.19900
C  12.19400 55.42300 25.16500
O  12.50100 55.66200 24.02400
C  10.82300 55.71700 25.66700
N  17.15000 53.23100 24.44200
C  16.31100 53.97900 23.81700
C  16.52300 54.05000 22.23900
C  17.92700 53.45200 22.11000
C  18.22100 53.00100 23.59200
C  15.46700 53.22700 21.41500
C  19.01600 54.28200 21.41700
C  19.48200 55.49700 22.23200
N  18.94300 52.20300 26.35000
C  19.76100 51.91400 25.21800
C  20.89100 51.19400 25.61600
C  20.76800 51.09800 27.03400
C  19.57100 51.66300 27.40300
C  21.95200 50.71900 24.66100
C  21.44900 50.48800 28.19200
O  22.51100 49.90600 28.43600
C  20.43300 50.91600 29.38600
C  20.13200 49.65000 30.14300
O  19.34500 48.73300 29.81500
O  20.70600 49.79500 31.37700
C  20.52900 48.83000 32.44100
H  13.96000 53.30500 29.77100
H  14.59600 54.94900 23.48700
H  19.92000 52.02900 22.97800
H  17.76300 50.91700 31.23100
H  15.78600 53.17600 31.38100
H  14.35400 51.69200 31.89000
H  15.67600 50.41600 31.90700
H  14.63800 50.67300 30.44800
H  17.76700 53.77500 32.11400
H  19.15100 53.50100 31.12100
H  19.75100 53.30300 33.44900
H  19.77300 51.67900 32.78700
H  11.61500 55.05300 28.81800
H  12.04600 53.33600 28.85000
H  11.02400 53.97700 27.55600
H  10.26700 56.18600 24.85500
H  10.89100 56.37600 26.53300
H  10.33000 54.74900 25.75000
H  16.44300 55.12500 22.08000
H  17.88200 52.49600 21.58900
H  15.92100 52.53700 20.70400
H  14.94500 53.93300 20.76900
H  14.75600 52.72900 22.07400
H  18.77800 54.59900 20.40100
H  19.91100 53.70400 21.18500
H  19.85400 56.32200 21.62500
H  20.23800 55.10000 22.91000
H  18.67200 55.95800 22.79700
H  21.92000 51.39900 23.81000
H  21.84200 49.65300 24.46100
H  22.91900 50.73400 25.16600
H  20.93700 51.62500 30.04200
H  19.46500 48.62500 32.55500
H  20.83600 49.42900 33.29900
H  21.03100 47.88700 32.22600

