158

Mg 52.45000 24.42700 45.67200
C  49.85500 26.59700 44.79700
C  50.78800 21.73000 44.62000
C  55.38900 22.62000 45.99500
C  54.48100 27.31300 46.26500
N  50.57000 24.20400 44.76100
C  49.60100 25.18300 44.51800
C  48.19600 24.54500 44.38100
C  48.52400 23.02000 44.50100
C  50.05700 22.97100 44.61100
C  47.91500 22.34800 45.80800
C  47.43800 24.87100 43.03500
C  48.14200 24.68500 41.70000
H  47.50400 23.73600 40.74300
N  52.95000 22.40500 45.44100
C  52.16000 21.46700 44.97700
C  52.86500 20.15500 45.04900
C  54.11200 20.32000 45.68700
C  54.19400 21.82800 45.77200
C  52.22700 18.85000 44.41600
C  55.05600 19.24300 46.06900
O  54.82600 18.08100 45.78600
C  56.30900 19.55200 46.92100
N  54.63300 24.87800 45.97700
C  55.64000 23.97300 46.05400
C  56.99200 24.55100 46.42500
C  56.72300 26.08600 46.29500
C  55.18100 26.13000 46.25000
C  57.53900 24.01400 47.73600
C  57.33200 26.70100 44.92500
C  57.96000 28.10800 45.18300
N  52.20700 26.55000 45.77500
C  53.07400 27.58100 46.04700
C  52.44300 28.85700 45.99800
C  51.15100 28.49500 45.49100
C  51.09500 27.05800 45.37900
C  53.03500 30.12100 46.34100
C  49.89800 29.09600 45.00300
O  49.45500 30.24600 44.97700
C  48.98800 27.85000 44.44500
C  48.74900 28.03400 43.03100
O  49.40800 27.56300 42.08200
O  47.58300 28.74800 42.88800
C  47.06700 28.95300 41.51800
H  50.20200 20.82500 44.44600
H  56.22800 21.94400 46.17400
H  55.02100 28.25400 46.38800
H  47.47500 24.89000 45.12100
H  48.26700 22.45900 43.60200
H  47.88300 21.26800 45.66300
H  46.92200 22.71100 46.07400
H  48.65800 22.41500 46.60300
H  47.06500 25.89500 43.02000
H  46.57800 24.20200 43.05500
H  49.17100 24.34000 41.80600
H  48.04200 25.65800 41.22000
H  51.37500 19.01000 43.75500
H  51.94700 18.16200 45.21300
H  53.01900 18.40300 43.81500
H  56.69700 18.59200 47.26200
H  55.87600 20.15200 47.72100
H  56.95500 20.07500 46.21500
H  57.71000 24.18600 45.69100
H  57.12700 26.70300 47.09900
H  57.36700 22.95200 47.91300
H  56.99700 24.51500 48.53800
H  58.59600 24.25400 47.84900
H  56.62000 26.85900 44.11500
H  58.09200 26.04500 44.50200
H  59.00400 28.19400 44.87900
H  57.82900 28.47000 46.20300
H  57.58700 28.78900 44.41800
H  52.53800 30.89600 45.75800
H  54.11400 30.18000 46.19600
H  52.96700 30.26400 47.42000
H  48.04000 27.75100 44.97300
H  46.94700 28.02200 40.96500
H  47.80500 29.58100 41.02000
H  46.18400 29.58100 41.63900
Mg 0.35400 42.69800 25.33200
C  2.69900 42.41700 27.94100
C  -2.16900 42.23000 27.69300
C  -1.91300 42.55900 22.91600
C  2.86700 43.03700 23.05100
N  0.34200 42.41100 27.55700
C  1.39400 42.36800 28.40500
C  0.87500 42.20000 29.89100
C  -0.64000 41.93500 29.66600
C  -0.85200 42.26000 28.18600
C  -1.18300 40.59800 30.12100
C  1.20300 43.49700 30.67800
C  0.85600 43.73100 32.15800
H  0.75500 42.45800 32.99700
N  -1.81300 42.47100 25.30300
C  -2.64000 42.41200 26.37600
C  -4.03700 42.46400 25.90000
C  -3.91400 42.59500 24.52600
C  -2.50500 42.61600 24.20500
C  -5.19900 42.41300 26.91500
C  -5.04000 42.78200 23.53600
O  -4.77300 43.11900 22.38500
C  -6.55400 42.71800 23.95000
N  0.44100 42.56100 23.29600
C  -0.60800 42.50700 22.51400
C  -0.27300 42.53700 20.98600
C  1.20700 43.01200 21.00000
C  1.54100 42.88800 22.52500
C  -0.51000 41.21200 20.20000
C  1.34500 44.49400 20.46300
C  2.10700 44.59200 19.07500
N  2.36600 42.68300 25.39200
C  3.30500 42.83400 24.36900
C  4.70300 42.85900 24.90400
C  4.47900 42.68200 26.28200
C  3.12200 42.59300 26.54300
C  6.00800 43.09900 24.25600
C  5.12000 42.49400 27.55600
O  6.30600 42.49900 27.79200
C  4.00500 42.42100 28.69600
C  4.25200 41.14100 29.48900
O  3.79300 40.01100 29.26800
O  4.87300 41.50100 30.61900
C  4.95300 40.50700 31.69900
H  -2.98600 42.29000 28.41500
H  -2.61200 42.23400 22.14200
H  3.69800 43.30800 22.39700
H  1.33100 41.38900 30.45800
H  -1.24400 42.68100 30.18200
H  -0.74700 40.28600 31.07000
H  -1.07200 39.81100 29.37500
H  -2.22300 40.69100 30.43200
H  0.81200 44.25600 30.00100
H  2.27900 43.64900 30.59000
H  -0.08800 44.27700 32.15900
H  1.66600 44.31200 32.59900
H  -5.71300 41.45500 26.83400
H  -5.89500 43.23200 26.73400
H  -4.82800 42.46900 27.93800
H  -6.57900 41.76100 24.47000
H  -7.12500 42.68100 23.02300
H  -6.83200 43.45100 24.70700
H  -0.90700 43.33100 20.58900
H  1.92300 42.38900 20.46300
H  -0.99700 40.56900 20.93300
H  0.43400 40.86900 19.77400
H  -1.17700 41.39200 19.35700
H  1.76900 45.14200 21.23000
H  0.37500 44.97500 20.33900
H  2.18000 43.62200 18.58400
H  3.11600 44.98500 19.20500
H  1.59300 45.29400 18.41900
H  6.93900 43.02700 24.81800
H  5.95800 44.05200 23.73100
H  6.00400 42.25200 23.56900
H  4.03200 43.27200 29.37600
H  3.96200 40.30900 32.10700
H  5.58300 41.11600 32.34700
H  5.60000 39.64200 31.55100

