158

Mg 54.69600 24.55100 44.63700
C  51.95900 26.69000 43.71300
C  53.07700 22.00500 43.04800
C  57.66300 22.91900 44.41300
C  56.24800 27.39900 45.99500
N  52.77200 24.46400 43.53800
C  51.88400 25.41300 43.11600
C  50.84700 24.93400 42.17600
C  50.98500 23.33400 42.37300
C  52.38000 23.22600 43.04000
C  49.81300 22.68700 43.27400
C  51.14800 25.28000 40.62100
C  50.08200 25.97200 39.60900
H  49.70000 25.29000 38.26400
N  55.26100 22.54700 44.08800
C  54.40900 21.65500 43.42100
C  55.24200 20.41400 43.19200
C  56.61100 20.73600 43.55500
C  56.56000 22.12700 44.05600
C  54.62300 19.15800 42.63000
C  57.78300 19.81200 43.45300
O  57.65400 18.73500 42.88000
C  59.13200 20.10500 43.99200
N  56.71400 25.11600 45.15500
C  57.74200 24.25900 44.92600
C  59.06000 24.90600 45.35100
C  58.62300 26.33600 45.79800
C  57.11600 26.28000 45.71400
C  59.87600 24.08500 46.38400
C  59.25700 27.46400 44.94400
C  59.63900 28.61700 45.85100
N  54.22000 26.61500 44.90000
C  54.92900 27.57300 45.58200
C  54.12600 28.78600 45.65200
C  52.97000 28.52900 44.89700
C  53.02700 27.16100 44.50400
C  54.41000 30.02400 46.42900
C  51.78100 29.04200 44.26400
O  51.36100 30.22000 44.14200
C  51.13500 27.86500 43.55800
C  50.76800 28.22900 42.18700
O  51.44400 28.80100 41.32200
O  49.43600 28.14600 42.11700
C  48.68900 28.78500 41.01100
H  52.48100 21.18900 42.63500
H  58.71600 22.63200 44.43300
H  56.72900 28.34000 46.27100
H  49.84400 25.30400 42.38600
H  51.07100 22.79700 41.42800
H  50.14600 22.39300 44.27000
H  49.45800 21.74400 42.85700
H  48.99300 23.40200 43.34200
H  51.44200 24.38900 40.06600
H  52.00800 25.94300 40.71600
H  50.52900 26.95700 39.47700
H  49.17600 26.08000 40.20400
H  53.69600 19.45600 42.14000
H  54.50200 18.40700 43.41100
H  55.28300 18.73500 41.87300
H  59.76200 19.22600 43.85100
H  59.10300 20.48100 45.01400
H  59.46100 20.96400 43.40600
H  59.66900 25.13100 44.47600
H  58.83500 26.49800 46.85500
H  59.27400 23.22900 46.69100
H  60.05700 24.68700 47.27500
H  60.76500 23.65700 45.92000
H  58.58300 27.91600 44.21700
H  60.12400 27.04400 44.43400
H  59.12100 29.53900 45.58600
H  60.70500 28.73300 45.65800
H  59.30700 28.54700 46.88700
H  55.11800 30.61300 45.84700
H  54.85100 29.84000 47.40900
H  53.46700 30.56800 46.47400
H  50.23800 27.92800 44.17400
H  47.94400 28.09100 40.62200
H  49.28900 29.06200 40.14500
H  48.28200 29.69400 41.45500
Mg 26.80800 50.21100 26.18000
C  24.66700 51.47000 28.59800
C  29.15400 49.72100 28.66600
C  28.94500 49.30000 23.80000
C  24.50800 51.17300 23.72600
N  26.92300 50.60500 28.40900
C  25.83800 50.97000 29.21500
C  26.16500 50.98000 30.70800
C  27.68700 50.53900 30.57700
C  27.89100 50.20800 29.13100
C  28.84800 51.48900 31.16100
C  25.21600 50.03900 31.62000
C  25.06500 50.62300 33.06600
H  24.72100 49.57700 34.09300
N  28.83200 49.64000 26.22300
C  29.62500 49.41900 27.35000
C  30.81000 48.69800 26.97000
C  30.76700 48.65000 25.53800
C  29.45500 49.15300 25.10500
C  31.83900 48.14700 27.94800
C  31.75400 48.01200 24.67500
O  31.65800 47.82000 23.45700
C  33.07000 47.50100 25.29400
N  26.71100 50.19900 23.97300
C  27.73500 49.80100 23.23200
C  27.24100 49.65500 21.77500
C  25.78300 50.05500 21.84400
C  25.59100 50.33400 23.31000
C  28.12300 50.51100 20.69500
C  24.68000 48.99200 21.27200
C  24.74500 47.60500 22.00000
N  25.06700 51.20700 26.07000
C  24.22800 51.68900 25.03300
C  23.08900 52.35100 25.48300
C  23.19100 52.28500 26.87600
C  24.42100 51.64700 27.19200
C  22.08900 53.11500 24.58900
C  22.63600 52.76400 28.10000
O  21.68600 53.49600 28.31700
C  23.46300 52.10100 29.29600
C  23.85000 53.20900 30.24300
O  24.69100 54.01600 30.07700
O  22.94300 53.10900 31.34400
C  23.14100 54.01400 32.49200
H  29.82900 49.44800 29.48000
H  29.58600 48.87300 23.02600
H  23.83000 51.57200 22.96900
H  26.28900 52.00900 31.04400
H  27.83200 49.61600 31.14000
H  29.71700 51.59300 30.51100
H  29.20800 51.01100 32.07200
H  28.44100 52.44200 31.49800
H  25.79800 49.11900 31.57100
H  24.25500 49.85700 31.14000
H  24.34200 51.43900 33.08100
H  25.95800 51.17800 33.35500
H  32.83700 48.53800 27.74800
H  31.83700 47.06000 27.86700
H  31.50300 48.31900 28.97000
H  33.49500 48.35100 25.82800
H  33.81600 47.33800 24.51600
H  32.84000 46.62700 25.90300
H  27.34300 48.59300 21.55100
H  25.62500 51.00000 21.32400
H  27.57200 51.26800 20.13600
H  28.50000 49.81100 19.95000
H  28.98000 51.05900 21.08600
H  24.90800 48.85000 20.21500
H  23.66400 49.35500 21.42800
H  25.55800 47.71200 22.71800
H  24.98100 46.82300 21.27800
H  23.88000 47.38000 22.62400
H  21.66600 52.51900 23.78000
H  22.53500 53.94400 24.03900
H  21.31000 53.42200 25.28600
H  22.85500 51.31000 29.73600
H  23.03900 55.02000 32.08400
H  24.12700 53.86500 32.93300
H  22.26300 53.85700 33.11800

