158

Mg 45.10500 4.11000 48.78700
C  43.54700 7.05200 47.89900
C  42.32000 2.36500 48.13500
C  46.97500 1.40900 48.65500
C  48.25400 6.10400 48.97400
N  43.11900 4.71400 48.26800
C  42.68600 5.96200 47.88000
C  41.18300 5.96200 47.69600
C  40.78400 4.48300 47.71800
C  42.13100 3.79600 48.07200
C  39.56700 4.07800 48.59500
C  40.61000 6.84000 46.59300
C  39.23700 6.59500 46.01400
H  38.97200 6.49900 44.45300
N  44.71200 2.10100 48.62400
C  43.44500 1.57100 48.29400
C  43.56800 0.15700 48.02300
C  44.94700 -0.19300 48.07300
C  45.59600 1.15300 48.44300
C  42.32700 -0.65300 47.69300
C  45.52200 -1.51800 47.84300
O  44.82300 -2.45900 47.53500
C  46.93800 -1.84000 48.05300
N  47.28300 3.87000 48.94500
C  47.76200 2.53400 48.89800
C  49.28200 2.48300 49.10900
C  49.68300 4.02200 49.26300
C  48.33300 4.73000 49.02700
C  49.75400 1.45400 50.21100
C  50.99700 4.52100 48.54900
C  51.93400 5.39200 49.45800
N  45.77400 6.18400 48.59000
C  47.06500 6.82200 48.69300
C  46.88100 8.22400 48.46200
C  45.53800 8.36500 48.19400
C  44.90300 7.04300 48.22900
C  48.00200 9.25700 48.50900
C  44.54200 9.25800 47.85500
O  44.53800 10.47700 47.72400
C  43.25000 8.46300 47.71000
C  42.17900 8.96100 48.71400
O  41.76100 8.34600 49.70100
O  41.59800 10.04400 48.12500
C  40.30600 10.40100 48.74300
H  41.39000 1.87400 47.84300
H  47.58600 0.50400 48.67500
H  49.17900 6.67400 48.86200
H  40.73800 6.31600 48.62500
H  40.53000 4.09700 46.73100
H  38.79000 3.58800 48.00900
H  38.95800 4.93500 48.88100
H  39.92300 3.59600 49.50600
H  41.33900 6.65700 45.80400
H  40.61300 7.91600 46.76400
H  38.70800 7.50400 46.29900
H  38.82700 5.75000 46.56900
H  42.54200 -1.23800 46.79800
H  41.38200 -0.13200 47.54000
H  42.14200 -1.40000 48.46500
H  47.22000 -1.65200 49.08900
H  47.51100 -1.45500 47.20900
H  46.99800 -2.91900 47.91300
H  49.77300 2.14000 48.19800
H  49.77800 4.24200 50.32600
H  50.17500 2.02200 51.04100
H  50.66800 0.92500 49.94300
H  48.89900 0.92400 50.63100
H  50.68000 5.21800 47.77300
H  51.55400 3.68700 48.12200
H  51.98400 6.36000 48.95700
H  52.89800 4.88900 49.53400
H  51.56300 5.58400 50.46500
H  48.38400 9.51100 47.52100
H  48.73900 8.82200 49.18400
H  47.55700 10.08800 49.05700
H  42.91500 8.72600 46.70700
H  39.79700 10.96300 47.96000
H  40.36000 10.94400 49.68700
H  39.68500 9.52400 48.92300
Mg 9.57100 48.44500 25.99000
C  7.11100 48.99400 28.36200
C  11.95300 49.47100 28.22300
C  11.85900 47.96800 23.68200
C  7.05500 48.22800 23.54300
N  9.54500 49.08100 28.08100
C  8.41800 49.07600 28.90100
C  8.85500 49.31800 30.37100
C  10.28200 49.95100 30.11300
C  10.62900 49.46100 28.73100
C  10.45500 51.49200 30.25400
C  8.79300 47.97300 31.10400
C  9.45200 47.82400 32.42800
H  8.64300 47.36600 33.69200
N  11.66200 48.58700 25.96700
C  12.46900 49.09900 26.93900
C  13.87700 49.11300 26.50000
C  13.80300 48.58600 25.13800
C  12.40000 48.28900 24.91800
C  15.12700 49.41600 27.31700
C  14.92400 48.23400 24.16300
O  14.84100 47.64200 23.12800
C  16.34600 48.69900 24.53400
N  9.46900 48.25600 23.95500
C  10.56300 47.93800 23.20700
C  10.29300 47.57700 21.72800
C  8.73200 47.83500 21.64200
C  8.34400 48.07900 23.13200
C  11.02600 48.31700 20.68100
C  7.97900 46.75300 20.81700
C  7.19800 47.10600 19.64800
N  7.48400 48.38600 25.94200
C  6.60500 48.33600 24.89300
C  5.25500 48.34800 25.37600
C  5.43000 48.58500 26.74900
C  6.80400 48.66000 27.01500
C  4.04200 48.06100 24.50100
C  4.65400 48.78400 27.99800
O  3.47800 48.80000 28.17300
C  5.71500 49.25700 29.03500
C  5.57700 48.42000 30.24800
O  5.29300 47.26200 30.26900
O  5.36100 49.21800 31.27600
C  4.83900 48.70300 32.60600
H  12.70000 49.83900 28.93000
H  12.57800 47.75900 22.88700
H  6.32500 48.04400 22.75200
H  8.19400 50.03100 30.86400
H  10.87200 49.53700 30.93000
H  9.62200 52.04000 30.69300
H  10.48200 51.84400 29.22300
H  11.32800 51.69000 30.87500
H  9.21500 47.28300 30.37400
H  7.78000 47.60500 31.26500
H  9.94600 48.72500 32.79200
H  10.25600 47.09800 32.31000
H  15.82000 50.05900 26.77300
H  15.61400 48.46700 27.54100
H  14.88000 49.92300 28.25000
H  16.67400 48.28200 25.48600
H  16.39800 49.78800 24.53900
H  17.06400 48.30400 23.81400
H  10.60700 46.53400 21.68800
H  8.63000 48.77900 21.10500
H  12.10200 48.21400 20.82100
H  10.89700 49.38900 20.83600
H  10.64400 48.03400 19.70100
H  7.24000 46.31000 21.48400
H  8.61500 45.89400 20.60100
H  6.13000 46.89000 19.67300
H  7.66200 46.63600 18.78100
H  7.24800 48.18500 19.49700
H  3.53700 48.98000 24.20200
H  3.21500 47.58200 25.02400
H  4.36800 47.50200 23.62400
H  5.63100 50.31600 29.28000
H  4.12700 49.44200 32.97400
H  5.67600 48.72600 33.30500
H  4.26800 47.77700 32.65800

