158

Mg 40.60200 8.18800 29.05400
C  42.55800 9.47200 31.74800
C  38.33600 7.11500 31.33700
C  39.02600 6.70000 26.51900
C  43.27000 9.07100 26.86800
N  40.58800 8.27500 31.27000
C  41.31100 8.99400 32.18900
C  40.69600 8.99500 33.60700
C  39.35000 8.27300 33.37800
C  39.42900 7.88400 31.90700
C  38.99700 7.21200 34.43200
C  40.45400 10.46800 34.09100
C  39.69000 10.70600 35.37400
H  40.34400 11.64700 36.35000
N  38.86900 7.00400 28.95500
C  38.06100 6.65500 30.06400
C  36.98400 5.87200 29.52800
C  37.02300 5.88900 28.05200
C  38.34100 6.56000 27.77500
C  35.91500 5.17000 30.50500
C  35.99900 5.30100 27.14000
O  36.20300 5.36100 25.93900
C  34.63300 4.82200 27.67800
N  41.18200 7.62200 27.10000
C  40.30900 7.20600 26.17200
C  40.85700 7.15600 24.77000
C  42.24000 7.89700 24.94800
C  42.22400 8.28200 26.45800
C  41.12700 5.76800 24.09800
C  42.41800 9.24600 24.08700
C  41.30600 10.30500 24.15100
N  42.59700 9.01900 29.21200
C  43.47000 9.39300 28.25800
C  44.62300 9.93700 28.95000
C  44.25400 10.00500 30.26400
C  43.08200 9.39200 30.44000
C  45.93100 10.34400 28.18700
C  44.76600 10.49100 31.53200
O  45.79200 10.98200 31.86200
C  43.67100 10.15500 32.54500
C  44.23500 9.29900 33.60700
O  44.63200 8.19500 33.44900
O  44.06700 9.85800 34.84000
C  44.49200 9.15700 36.06800
H  37.45800 6.97300 31.97100
H  38.36500 6.42900 25.69300
H  44.09000 9.31600 26.18900
H  41.30600 8.50500 34.36600
H  38.51000 8.96100 33.47200
H  37.97900 7.40600 34.77100
H  39.74000 7.19900 35.23000
H  39.05100 6.19200 34.05100
H  39.95800 10.94600 33.24600
H  41.40900 10.97300 34.23600
H  39.34700 9.77900 35.83400
H  38.80600 11.24200 35.03000
H  36.47700 4.99500 31.42300
H  35.61900 4.19700 30.11200
H  35.06600 5.83900 30.64100
H  34.75300 3.98400 28.36600
H  34.00200 4.63700 26.80900
H  34.26300 5.64500 28.28900
H  40.15100 7.65300 24.10500
H  43.06600 7.22300 24.72000
H  40.68400 5.90300 23.11100
H  40.55200 4.97200 24.57100
H  42.17100 5.52400 23.90000
H  42.24100 8.79900 23.10900
H  43.44900 9.59700 24.13000
H  40.98800 10.42100 25.18700
H  40.45900 10.11000 23.49300
H  41.86600 11.20200 23.88500
H  45.77300 11.39400 27.93600
H  46.17400 9.62500 27.40400
H  46.65400 10.29600 29.00100
H  43.31700 11.09400 32.97000
H  45.35500 9.71400 36.43300
H  44.73100 8.09400 36.05800
H  43.69700 9.20800 36.81200
Mg 7.14400 53.09100 40.41700
C  6.84000 49.63700 40.23100
C  10.54900 52.70300 39.72100
C  7.12600 56.18700 39.21000
C  3.66000 53.30100 40.96000
N  8.50600 51.30200 40.17500
C  8.16900 50.08500 40.03600
C  9.41200 49.18900 39.79000
C  10.57300 50.21500 40.00600
C  9.81900 51.55400 40.05100
C  11.45800 50.03600 41.30800
C  9.56800 48.54100 38.44500
C  9.25400 49.27500 37.11600
H  8.02800 48.92300 36.26800
N  8.63300 54.44300 39.74600
C  9.98200 54.01700 39.52700
C  10.67600 55.19600 39.11000
C  9.67100 56.31500 39.00100
C  8.39600 55.72400 39.40200
C  12.15000 55.30700 38.75300
C  9.97800 57.75500 38.71000
O  11.11600 58.12400 38.44400
C  8.91800 58.77500 38.72100
N  5.62700 54.47800 40.07300
C  5.89200 55.70700 39.51000
C  4.60900 56.57100 39.46300
C  3.69300 55.79000 40.43700
C  4.28200 54.42300 40.41600
C  4.83600 58.02900 39.93700
C  2.12200 55.87600 40.24300
C  1.45800 56.58200 41.43500
N  5.53200 51.81900 40.58400
C  4.21300 52.04400 40.92000
C  3.51900 50.79500 41.18000
C  4.47900 49.76500 40.79000
C  5.72000 50.45700 40.42900
C  2.17800 50.54800 41.54600
C  4.74000 48.31800 40.69100
O  3.98800 47.37200 40.92200
C  6.24700 48.20900 40.27800
C  6.12700 47.58800 38.87100
O  5.65400 48.17900 37.90900
O  6.54700 46.25500 38.88600
C  6.25100 45.50900 37.62100
H  11.60000 52.64100 39.42800
H  7.07800 57.06000 38.55500
H  2.62400 53.32500 41.30600
H  9.48200 48.45700 40.59400
H  11.25200 50.20000 39.15300
H  11.40100 49.08100 41.83000
H  11.10100 50.89200 41.88200
H  12.52500 50.23800 41.21900
H  8.95700 47.64300 38.53100
H  10.58200 48.17500 38.28400
H  10.10600 49.39600 36.44700
H  9.15100 50.30000 37.47100
H  12.10000 55.71600 37.74400
H  12.60000 54.31600 38.70200
H  12.67500 55.95500 39.45500
H  8.41800 58.76000 39.69000
H  8.17300 58.62900 37.93800
H  9.41200 59.74700 38.71300
H  4.14200 56.62200 38.47900
H  3.80800 56.08600 41.48000
H  4.19300 58.63900 39.30300
H  5.83900 58.42800 39.79200
H  4.48900 58.25500 40.94500
H  1.62100 54.92700 40.04900
H  1.83700 56.52500 39.41500
H  1.75800 57.62600 41.51700
H  1.67600 55.98300 42.31900
H  0.37500 56.53700 41.31300
H  2.02700 49.74400 42.26600
H  1.63600 50.32100 40.62800
H  1.71900 51.39200 42.06100
H  6.85000 47.47700 40.81400
H  6.60100 44.48300 37.73500
H  6.98000 45.82600 36.87500
H  5.22200 45.60900 37.27600

