158

Mg 1.88300 -1.97700 43.79900
C  5.05400 -0.62500 43.25900
C  0.63300 0.78800 42.07200
C  -1.11800 -3.48700 43.80300
C  3.36900 -4.74700 45.14800
N  2.74500 -0.21400 42.69900
C  4.04900 0.16600 42.67600
C  4.26700 1.50800 41.93900
C  2.78800 2.11500 42.08500
C  2.02100 0.84700 42.22600
C  2.59200 3.18500 43.20400
C  4.78600 1.37900 40.49100
C  5.46200 2.64400 39.83600
H  5.58900 2.63700 38.28000
N  -0.00500 -1.39200 43.13000
C  -0.27500 -0.27600 42.37100
C  -1.75400 -0.22100 42.11100
C  -2.29400 -1.38000 42.70200
C  -1.13000 -2.19000 43.24600
C  -2.45700 0.92400 41.43300
C  -3.73800 -1.87400 42.77300
O  -4.64700 -1.23500 42.19800
C  -4.22300 -3.12100 43.49200
N  1.18100 -3.85200 44.41100
C  -0.11900 -4.27400 44.39900
C  -0.29100 -5.72800 44.90200
C  1.21800 -6.10100 45.38200
C  1.97200 -4.77400 45.05400
C  -1.37800 -5.93400 45.97400
C  1.71200 -7.27000 44.48600
C  1.48300 -8.63800 45.15500
N  3.77200 -2.60700 44.18700
C  4.20000 -3.75700 44.73100
C  5.62900 -3.73200 44.87200
C  6.01300 -2.53100 44.32900
C  4.83400 -1.88400 43.90100
C  6.43400 -4.78700 45.59300
C  7.10700 -1.65900 44.03600
O  8.30000 -1.87300 44.19700
C  6.53300 -0.39700 43.30800
C  6.82400 0.73100 44.27700
O  6.38800 0.83500 45.40400
O  7.85800 1.52100 43.80200
C  8.34400 2.55900 44.65400
H  0.16100 1.69500 41.68800
H  -1.98100 -4.13100 43.62100
H  3.90100 -5.62800 45.51200
H  4.87400 2.17700 42.54800
H  2.37100 2.56500 41.18400
H  3.50300 3.59100 43.64600
H  1.99300 2.75100 44.00500
H  1.91200 3.95000 42.83200
H  4.00400 1.00200 39.83100
H  5.63100 0.68900 40.49000
H  6.52900 2.53900 40.03000
H  5.01800 3.50800 40.33100
H  -2.27300 0.79600 40.36600
H  -2.20400 1.85200 41.94600
H  -3.54300 0.86900 41.51100
H  -4.10200 -3.96800 42.81600
H  -5.24500 -2.92100 43.81500
H  -3.68600 -3.31000 44.42100
H  -0.61600 -6.41000 44.11600
H  1.32400 -6.30900 46.44700
H  -2.12300 -5.14000 46.01900
H  -1.01100 -6.11300 46.98400
H  -1.78700 -6.92200 45.76100
H  2.75400 -7.11400 44.20600
H  1.13600 -7.29000 43.56100
H  0.83500 -8.76500 46.02300
H  2.52100 -8.92200 45.32200
H  0.92500 -9.31800 44.51200
H  5.95400 -5.16100 46.49800
H  7.44800 -4.49000 45.86100
H  6.48100 -5.62200 44.89400
H  7.10600 -0.24800 42.39300
H  9.01900 2.24800 45.45200
H  7.47800 3.02500 45.12300
H  8.86400 3.23300 43.97400
Mg 37.02700 48.96500 24.97500
C  37.30400 47.04100 27.83900
C  35.18300 51.25800 26.62300
C  36.29000 50.51900 21.97000
C  38.36600 46.27500 23.10600
N  36.19200 48.99300 26.96000
C  36.66900 48.28800 27.97500
C  36.15800 48.84100 29.28100
C  35.24000 50.04900 28.89700
C  35.44700 50.07400 27.39200
C  33.72300 50.02400 29.32400
C  37.39200 49.23200 30.15500
C  37.01500 49.72800 31.52900
H  35.62600 49.64500 32.12300
N  36.08800 50.75700 24.47300
C  35.40800 51.59000 25.30100
C  35.14000 52.80200 24.63300
C  35.21600 52.51500 23.23100
C  35.84200 51.19300 23.17200
C  34.61600 54.05400 25.37200
C  34.92000 53.43900 22.02600
O  34.95500 53.02300 20.89700
C  34.66700 54.87900 22.27500
N  37.09400 48.32800 22.79000
C  36.86400 49.24500 21.80600
C  37.33800 48.65100 20.46300
C  38.20700 47.43900 20.86500
C  37.86100 47.32600 22.38100
C  36.20500 48.30700 19.40800
C  39.71700 47.45700 20.52800
C  40.20400 46.92300 19.19300
N  37.79100 47.12700 25.37300
C  38.24600 46.11400 24.49100
C  38.69600 44.98600 25.33800
C  38.38900 45.33600 26.67700
C  37.70900 46.58900 26.60500
C  39.36200 43.68500 24.82700
C  38.36400 44.82600 28.05800
O  38.70900 43.78200 28.56800
C  37.78400 45.98900 28.87800
C  36.57800 45.50000 29.67000
O  35.41300 45.40600 29.30400
O  36.90000 45.66000 30.97900
C  35.89600 45.08600 31.92800
H  34.64800 52.02700 27.18500
H  36.30500 51.16700 21.09000
H  38.87000 45.60200 22.40800
H  35.64000 47.96500 29.67100
H  35.64500 51.01800 29.19000
H  33.46200 50.90900 29.90400
H  33.67200 49.16900 29.99800
H  33.10600 49.77400 28.46000
H  38.07200 49.97000 29.73000
H  37.95600 48.31600 30.32900
H  37.33500 50.76900 31.47400
H  37.68400 49.14600 32.16300
H  33.77500 54.57300 24.91100
H  35.42700 54.78100 25.39700
H  34.27600 53.80700 26.37800
H  33.70700 55.05200 22.76200
H  34.78600 55.43600 21.34500
H  35.44300 55.14400 22.99400
H  38.02400 49.43100 20.13200
H  37.69000 46.54300 20.52000
H  35.19200 48.28100 19.80800
H  36.63200 47.41300 18.95200
H  36.15100 49.02900 18.59300
H  40.28900 47.02000 21.34600
H  40.19300 48.43600 20.59000
H  39.32500 46.54500 18.67100
H  41.09000 46.29600 19.29500
H  40.47800 47.81600 18.63300
H  39.63600 43.88800 23.79200
H  38.65800 42.85300 24.84300
H  40.33900 43.49000 25.27000
H  38.62100 46.30400 29.50000
H  35.85700 45.56500 32.90700
H  36.24700 44.10100 32.23600
H  34.90400 44.94900 31.49700

