158

Mg 1.09600 6.84800 26.21600
C  1.32900 8.99900 29.08400
C  1.47300 4.17400 28.39400
C  0.78200 4.84400 23.61200
C  1.20100 9.70600 24.19500
N  1.39600 6.63200 28.49700
C  1.26400 7.61700 29.38500
C  1.31000 7.08300 30.82500
C  1.54600 5.55500 30.63300
C  1.53200 5.43200 29.07100
C  2.86100 5.01700 31.28100
C  -0.01200 7.38500 31.61200
C  -0.04900 7.46000 33.17000
H  1.25200 7.19800 33.92800
N  1.06400 4.79600 26.00800
C  1.28900 3.82200 27.02900
C  1.15700 2.50300 26.45700
C  0.89500 2.68500 25.08100
C  0.92200 4.15200 24.82400
C  1.29800 1.17500 27.22400
C  0.57300 1.61400 24.04900
O  0.34000 1.86300 22.88300
C  0.55500 0.12300 24.44100
N  1.02800 7.23400 24.21500
C  0.79600 6.23200 23.36300
C  0.62300 6.80900 21.89900
C  0.47200 8.35800 22.05100
C  0.89100 8.44500 23.60400
C  1.72500 6.31500 20.98700
C  -0.99100 8.82200 21.88200
C  -1.17300 10.00000 20.84200
N  1.32500 8.93600 26.47800
C  1.32700 9.93900 25.54000
C  1.57300 11.21500 26.18100
C  1.55700 10.86700 27.55000
C  1.43000 9.50200 27.71100
C  1.61200 12.61100 25.52600
C  1.56200 11.46700 28.92400
O  1.63700 12.67000 29.28500
C  1.38600 10.32500 29.86000
C  2.55300 10.32200 30.80900
O  3.68500 9.92000 30.68200
O  2.15900 11.04800 31.91200
C  3.16800 11.22500 32.98300
H  1.43400 3.35700 29.11700
H  0.64100 4.30000 22.67600
H  1.07300 10.55600 23.52100
H  2.14600 7.53000 31.36200
H  0.68100 5.05000 31.06300
H  3.44100 5.79300 31.78000
H  3.57500 4.42900 30.70400
H  2.42700 4.30700 31.98500
H  -0.77500 6.67200 31.30100
H  -0.35700 8.36000 31.26900
H  -0.68200 6.63500 33.49700
H  -0.33900 8.48600 33.40000
H  0.31100 0.72300 27.12700
H  1.39000 1.39500 28.28700
H  2.20800 0.67600 26.89000
H  -0.30900 -0.04800 25.08400
H  1.46000 -0.24100 24.92700
H  0.45600 -0.44100 23.51300
H  -0.34600 6.43100 21.57300
H  1.25200 8.89400 21.51000
H  2.53000 5.81200 21.52300
H  2.19100 7.13300 20.43900
H  1.28600 5.60300 20.28800
H  -1.41800 9.18900 22.81600
H  -1.64800 8.02500 21.53400
H  -0.15200 10.32400 20.64000
H  -1.68700 10.88200 21.22600
H  -1.76700 9.74200 19.96500
H  1.13400 13.27700 26.24500
H  0.93400 12.64300 24.67300
H  2.60900 13.01100 25.34200
H  0.42500 10.31000 30.37400
H  3.98500 11.89500 32.71600
H  3.62500 10.26000 33.20500
H  2.78100 11.63100 33.91800
Mg 40.10800 8.65700 29.29300
C  41.84900 9.75800 32.20000
C  37.82900 7.03900 31.45800
C  38.58400 7.58700 26.70500
C  42.87400 9.56800 27.52600
N  39.96100 8.33900 31.67600
C  40.65300 9.10000 32.60500
C  40.00800 8.85500 33.97100
C  38.76100 8.00200 33.79100
C  38.83500 7.76900 32.24100
C  38.74200 6.77300 34.66300
C  39.74400 10.18700 34.70300
C  40.01900 10.29900 36.19200
H  40.38500 11.62500 36.88100
N  38.47900 7.46100 29.13200
C  37.73800 6.83100 30.07800
C  36.60300 6.14300 29.41700
C  36.78900 6.32400 28.03300
C  37.97700 7.18200 27.92300
C  35.53400 5.44400 30.09500
C  35.92900 5.78500 26.85400
O  36.36100 5.82600 25.69200
C  34.56800 5.12500 27.13200
N  40.84800 8.23400 27.38000
C  39.89000 8.01600 26.45400
C  40.45500 8.06600 25.03600
C  41.79300 8.96400 25.29600
C  41.85200 8.95200 26.81600
C  40.89300 6.71800 24.38900
C  41.59900 10.40200 24.80200
C  40.44300 11.22400 25.27500
N  41.88900 9.57900 29.66200
C  42.94200 9.83600 28.85800
C  43.94200 10.56200 29.52800
C  43.54800 10.54000 30.83500
C  42.31200 9.90700 30.90000
C  45.19600 11.06200 28.92100
C  43.98100 10.92800 32.14700
O  44.91200 11.57300 32.54300
C  42.84500 10.41300 33.10500
C  43.34700 9.33200 34.06200
O  43.53900 8.19500 33.68400
O  43.34800 9.72100 35.38400
C  43.96800 8.91200 36.46700
H  37.01500 6.70300 32.10300
H  38.06100 7.32900 25.78200
H  43.73500 9.90500 26.94500
H  40.75000 8.30600 34.55100
H  37.84400 8.57400 33.93600
H  39.56600 6.76200 35.37700
H  38.78200 5.83300 34.11100
H  37.93200 6.76300 35.39300
H  38.69800 10.42900 34.51700
H  40.29800 11.03100 34.29000
H  40.76000 9.51800 36.36600
H  39.07100 10.19300 36.72000
H  35.79700 5.33200 31.14700
H  35.31200 4.44500 29.72100
H  34.56500 5.91900 29.94100
H  34.07300 5.88600 27.73600
H  34.74300 4.22000 27.71300
H  34.04000 4.82600 26.22600
H  39.72200 8.54600 24.38800
H  42.75000 8.58400 24.93800
H  41.89100 6.76100 23.95300
H  40.38000 6.29400 23.52500
H  40.76300 5.91800 25.11800
H  41.56100 10.24700 23.72400
H  42.52100 10.88200 25.13000
H  39.93300 10.74000 26.10800
H  39.74100 11.52200 24.49500
H  40.75200 12.20100 25.64600
H  45.64800 10.30100 28.28500
H  45.87700 11.31700 29.73300
H  44.96400 11.86200 28.21800
H  42.33900 11.12700 33.75400
H  45.01100 9.22100 36.39600
H  43.79200 7.84000 36.38400
H  43.48500 9.26300 37.37900

