158

Mg 44.61800 3.18400 47.09600
C  42.44500 5.87700 46.89700
C  41.74500 1.03100 46.87900
C  46.60600 0.58300 46.66700
C  47.29800 5.35100 46.83300
N  42.39800 3.39700 46.85900
C  41.77300 4.63300 46.82400
C  40.23000 4.51600 46.65100
C  40.12000 2.92600 46.91300
C  41.52500 2.39500 46.75600
C  39.49400 2.58300 48.25500
C  39.73700 5.01100 45.28200
C  38.36800 5.72800 45.25400
H  37.67400 6.03200 43.93400
N  44.24100 1.05500 46.81300
C  42.99100 0.35300 46.76100
C  43.20500 -1.05800 46.47500
C  44.61000 -1.15600 46.19900
C  45.25600 0.21800 46.64100
C  42.11000 -2.12500 46.32700
C  45.27800 -2.36400 45.58900
O  44.76500 -3.46900 45.47900
C  46.76700 -2.38200 45.26100
N  46.66500 2.99700 46.93200
C  47.29900 1.78000 46.77900
C  48.79800 1.94700 46.54400
C  49.03000 3.53200 46.77300
C  47.56800 3.99100 46.86700
C  49.59300 0.96500 47.49000
C  49.83400 4.19800 45.63000
C  51.08800 4.89700 46.09200
N  44.87500 5.23000 46.96300
C  46.05600 5.95200 46.81000
C  45.66000 7.31100 46.73500
C  44.24800 7.37000 46.79900
C  43.84800 6.04700 46.88300
C  46.60000 8.49600 46.62800
C  43.08500 8.24900 46.85900
O  43.01800 9.46300 46.90500
C  41.83700 7.29100 46.71400
C  41.00000 7.55900 47.90300
O  41.30100 7.26900 49.08200
O  39.76500 8.15700 47.49500
C  38.87400 8.32200 48.62400
H  40.86100 0.41700 46.69400
H  47.24800 -0.29100 46.54500
H  48.08400 6.08700 46.64700
H  39.72800 5.16100 47.37100
H  39.42300 2.44800 46.22500
H  39.44800 3.45300 48.91100
H  40.19500 1.89600 48.72900
H  38.55100 2.04200 48.18100
H  39.58500 4.10700 44.69200
H  40.54300 5.61500 44.86500
H  38.41900 6.68800 45.76800
H  37.66200 5.16300 45.86100
H  42.29900 -3.17700 46.54000
H  41.91700 -2.10100 45.25500
H  41.18500 -1.89300 46.85400
H  47.12500 -1.45300 44.81800
H  46.92700 -3.14300 44.49700
H  47.40900 -2.71300 46.07700
H  49.09400 1.78300 45.50800
H  49.36600 3.79600 47.77600
H  48.99500 0.48100 48.26200
H  50.37600 1.56500 47.95400
H  49.92100 0.17300 46.81700
H  49.28600 4.82700 44.92900
H  50.27000 3.44600 44.97400
H  51.93500 4.23300 45.91800
H  51.03000 5.13700 47.15300
H  51.23800 5.74800 45.42800
H  47.26300 8.58500 47.48900
H  45.96700 9.38200 46.58100
H  47.17000 8.42100 45.70200
H  41.43200 7.45900 45.71700
H  37.97400 8.90200 48.41800
H  39.15200 8.73200 49.59500
H  38.54500 7.34200 48.97100
Mg 48.05600 44.60500 43.60800
C  44.61700 43.75000 43.37700
C  48.82200 41.28800 42.49900
C  51.07600 45.54200 42.76200
C  46.96900 48.02100 43.66700
N  46.88200 42.75500 42.99300
C  45.45800 42.70600 42.96600
C  45.02600 41.30300 42.72500
C  46.33800 40.41700 42.60400
C  47.38300 41.54300 42.71200
C  46.46200 39.28200 43.68900
C  43.94100 41.00300 41.64100
C  44.04500 41.86200 40.44300
H  43.70500 41.29000 39.04800
N  49.78900 43.54000 42.98800
C  49.90600 42.25200 42.61000
C  51.26200 41.96600 42.35500
C  52.01500 43.12600 42.35200
C  51.01200 44.14800 42.77200
C  51.74700 40.59400 42.08400
C  53.47500 43.39100 41.93700
O  54.10600 42.38600 41.63800
C  54.17500 44.70200 41.84200
N  48.89300 46.53800 43.39200
C  50.20500 46.61300 42.91200
C  50.65600 48.06700 42.71100
C  49.29800 48.86000 43.00100
C  48.29800 47.74100 43.32200
C  51.90400 48.60400 43.47700
C  48.92700 49.78000 41.77400
C  48.43700 51.11600 42.13800
N  46.22100 45.70000 43.67200
C  45.96000 47.01000 43.85900
C  44.51000 47.21500 44.01800
C  44.00600 45.91700 43.96600
C  45.04700 45.06500 43.67200
C  43.77800 48.53900 44.22600
C  42.73500 45.10200 44.02600
O  41.58300 45.43200 44.32400
C  43.11800 43.68400 43.58500
C  42.64600 42.83300 44.65000
O  41.81700 41.90200 44.49600
O  43.27900 43.12900 45.78500
C  43.03900 42.29400 46.95300
H  49.03200 40.27000 42.16400
H  52.05700 45.92400 42.47000
H  46.67100 49.07100 43.69400
H  44.46800 40.97700 43.60200
H  46.46100 39.95000 41.62700
H  47.10300 39.57000 44.52200
H  46.94500 38.40000 43.26600
H  45.55200 38.93400 44.17600
H  42.90900 41.03600 41.99200
H  44.17900 39.98800 41.32400
H  45.00700 42.37100 40.39500
H  43.35000 42.69500 40.54800
H  52.38600 40.47000 41.20900
H  50.96000 39.84000 42.09800
H  52.41000 40.30900 42.90100
H  53.50700 45.29800 41.21900
H  55.06300 44.46300 41.25800
H  54.35200 45.19900 42.79600
H  50.83500 48.32400 41.66700
H  49.45700 49.52100 43.85300
H  52.32900 47.75800 44.01700
H  51.66300 49.35100 44.23300
H  52.64100 48.98900 42.77300
H  48.04800 49.29700 41.34900
H  49.66700 49.91000 40.98400
H  49.05800 51.88700 41.68200
H  48.60000 51.44900 43.16300
H  47.39900 51.24700 41.83100
H  43.78300 48.89400 45.25700
H  42.75600 48.40200 43.87500
H  44.31800 49.31000 43.67600
H  42.51300 43.56200 42.68600
H  44.02000 42.07400 47.37500
H  42.62200 41.32700 46.67300
H  42.38400 42.80900 47.65500

