158

Mg 47.20400 24.89800 28.76400
C  48.02600 27.41600 31.25800
C  46.55000 22.78200 31.27200
C  46.97200 22.51500 26.45400
C  48.32400 27.15100 26.42300
N  47.37900 25.13100 31.06200
C  47.63500 26.19300 31.83700
C  47.37700 25.85200 33.33700
C  47.16400 24.32300 33.33500
C  47.03900 24.02200 31.82200
C  48.40700 23.51800 33.91500
C  46.19300 26.71600 33.91000
C  46.42300 27.28200 35.32900
H  45.36800 26.89400 36.42300
N  46.84400 22.91200 28.83500
C  46.50000 22.25100 29.97100
C  46.22300 20.80300 29.57100
C  46.39800 20.71000 28.14500
C  46.72600 22.04000 27.74700
C  45.79800 19.78300 30.59300
C  46.15300 19.58200 27.20100
O  46.14800 19.69000 25.98600
C  45.84200 18.23900 27.79700
N  47.89000 24.76800 26.69800
C  47.41800 23.71800 25.95400
C  47.52300 24.04000 24.46400
C  47.67300 25.61000 24.51400
C  48.03400 25.85400 25.92200
C  48.63400 23.20300 23.70800
C  46.35000 26.27800 23.93200
C  45.23200 26.56900 24.94500
N  47.85100 26.91100 28.80100
C  48.27500 27.72400 27.72900
C  48.57100 29.05500 28.10000
C  48.49500 28.95200 29.48300
C  48.09000 27.65900 29.86900
C  49.03000 30.25700 27.32000
C  48.71500 29.71400 30.71100
O  49.15400 30.85400 30.84300
C  48.33400 28.70500 31.96000
C  49.46000 28.74900 32.84300
O  50.61000 28.39400 32.63900
O  48.99900 29.20100 34.08400
C  49.98700 29.21000 35.18400
H  46.02800 22.12700 31.97200
H  46.93300 21.85200 25.58700
H  48.53000 27.74200 25.52800
H  48.34100 26.10200 33.77900
H  46.16600 24.06500 33.68900
H  49.03400 24.17000 34.52200
H  49.02500 23.04400 33.15300
H  47.93800 22.81400 34.60200
H  45.27900 26.13200 33.79800
H  45.89000 27.57100 33.30500
H  46.37600 28.36400 35.20600
H  47.38600 26.99700 35.75400
H  45.48800 20.18800 31.55600
H  46.54800 18.99200 30.61100
H  44.91500 19.31400 30.15800
H  46.74700 18.00700 28.36000
H  45.69900 17.47900 27.02900
H  45.03200 18.21000 28.52600
H  46.56200 23.87500 23.97700
H  48.63800 25.89700 24.09700
H  49.20900 22.67000 24.46400
H  49.34500 23.81000 23.14800
H  48.16200 22.47000 23.05400
H  45.83300 25.62700 23.22700
H  46.57000 27.22800 23.44400
H  44.41400 25.88400 24.72100
H  44.79000 27.56000 24.84800
H  45.45000 26.38700 25.99800
H  48.78300 31.06300 28.01100
H  48.43200 30.36500 26.41600
H  50.10800 30.19000 27.16900
H  47.50800 29.18900 32.48100
H  50.89200 28.63900 34.97200
H  49.52300 28.90100 36.12100
H  50.34700 30.21900 35.38300
Mg 26.43800 50.28900 27.14500
C  24.27700 51.27500 29.68200
C  28.53700 49.02400 29.48800
C  28.31600 49.13400 24.68200
C  24.23400 51.76600 24.85800
N  26.37100 50.12800 29.32400
C  25.37000 50.58000 30.19700
C  25.69500 50.26400 31.63600
C  27.13500 49.66600 31.52400
C  27.38400 49.58800 30.03200
C  28.21200 50.42000 32.41700
C  24.67100 49.33500 32.40700
C  24.08200 49.83800 33.73300
H  24.22400 48.82200 34.90600
N  28.19200 49.12400 27.11200
C  28.94700 48.73200 28.18400
C  30.16900 48.10800 27.69300
C  30.06000 48.18900 26.26700
C  28.77300 48.81100 25.98700
C  31.31100 47.51200 28.52400
C  31.10200 47.73300 25.23100
O  30.95200 47.88700 24.00500
C  32.34800 46.97500 25.66000
N  26.34400 50.56600 25.06700
C  27.24600 49.86400 24.25200
C  26.92200 50.15600 22.77100
C  25.45100 50.72000 22.86000
C  25.29600 51.06300 24.34100
C  28.04300 51.11300 22.11800
C  24.32400 49.80800 22.29000
C  23.56200 48.88400 23.25300
N  24.72700 51.43800 27.21300
C  23.86000 51.87500 26.21300
C  22.73700 52.48300 26.77300
C  22.85400 52.19800 28.13200
C  24.07200 51.64100 28.38100
C  21.64000 53.15700 26.06600
C  22.21200 52.36500 29.38000
O  21.07800 52.77600 29.59600
C  23.08600 51.83600 30.48300
C  23.47600 52.90400 31.44900
O  24.27200 53.72800 31.10000
O  22.73700 52.79800 32.58400
C  22.67900 53.94700 33.56200
H  29.22800 48.69400 30.26700
H  28.86100 48.65800 23.86400
H  23.52200 52.15100 24.12400
H  25.74700 51.19000 32.21000
H  27.17500 48.63900 31.88700
H  28.88900 49.76600 32.96600
H  27.79900 50.98200 33.25500
H  28.64600 51.16500 31.75000
H  25.13500 48.37300 32.62500
H  23.96400 48.98400 31.65500
H  23.01100 50.02600 33.65900
H  24.51500 50.81100 33.96400
H  31.18000 46.43500 28.62300
H  31.23300 47.92800 29.52900
H  32.28800 47.81400 28.14700
H  32.78600 46.80300 24.67700
H  32.18000 45.98200 26.07700
H  33.04400 47.41800 26.37200
H  26.95300 49.18700 22.27300
H  25.44400 51.62900 22.25900
H  28.77200 51.44500 22.85800
H  27.65500 52.03800 21.69000
H  28.53100 50.56200 21.31400
H  24.80600 49.16500 21.55400
H  23.61500 50.47000 21.79300
H  24.26800 48.57000 24.02200
H  23.11000 48.08900 22.66000
H  22.67300 49.38900 23.63200
H  21.98100 54.05800 25.55400
H  20.76000 53.48700 26.61900
H  21.19500 52.46600 25.35000
H  22.49100 51.06900 30.97700
H  22.90900 54.89300 33.07400
H  23.41300 53.64700 34.31000
H  21.70000 53.95500 34.04200

