158

Mg 0.73500 42.98900 25.73100
C  2.35900 43.77500 28.82400
C  -2.15000 42.13400 27.49300
C  -0.50300 41.99900 22.94300
C  3.88800 43.60700 24.21700
N  0.19600 42.96900 27.95000
C  0.96700 43.35000 29.01100
C  0.25500 43.02600 30.33500
C  -1.12200 42.38000 29.85400
C  -1.04400 42.57500 28.31800
C  -1.24700 40.88600 30.20900
C  0.18000 44.38900 31.10700
C  0.65600 44.44400 32.62600
H  0.12800 43.30900 33.61800
N  -1.09400 42.19900 25.31500
C  -2.22600 41.92700 26.11700
C  -3.33900 41.32600 25.35500
C  -2.75900 41.22800 24.01100
C  -1.39900 41.83000 24.03500
C  -4.64800 40.78500 25.87500
C  -3.38200 40.64500 22.82000
O  -2.75300 40.57400 21.78100
C  -4.81300 40.20200 22.72000
N  1.58600 42.77800 23.86300
C  0.79600 42.46200 22.81400
C  1.54500 42.57400 21.46400
C  2.91600 43.15600 21.89600
C  2.82900 43.23800 23.40400
C  1.70500 41.21100 20.82300
C  3.27200 44.53000 21.26600
C  2.87900 45.86200 21.88700
N  2.70600 43.66400 26.37600
C  3.86700 43.85800 25.60100
C  4.98200 44.34900 26.49800
C  4.44100 44.24700 27.76000
C  3.08800 43.96800 27.59900
C  6.40800 44.54700 26.06100
C  4.75500 44.29700 29.16800
O  5.82900 44.47000 29.78000
C  3.39300 43.94300 29.88200
C  3.68200 42.73000 30.66200
O  3.88900 41.61100 30.21500
O  3.65900 42.98000 32.03200
C  3.92300 41.73700 32.80400
H  -2.99400 41.72300 28.05000
H  -0.83400 41.79800 21.92200
H  4.81500 43.91000 23.72500
H  0.87100 42.29300 30.85500
H  -2.01200 42.88000 30.23600
H  -2.09100 40.61900 30.84500
H  -0.40200 40.62200 30.84400
H  -1.34800 40.31100 29.28900
H  -0.88400 44.61800 31.05000
H  0.67800 45.21800 30.60400
H  0.31800 45.36700 33.09700
H  1.74000 44.44900 32.73200
H  -4.68000 39.70600 25.72900
H  -5.51100 41.32000 25.47900
H  -4.75400 40.90100 26.95400
H  -4.92800 39.69600 21.76200
H  -5.40100 41.11900 22.67100
H  -5.05400 39.36400 23.37400
H  0.88900 43.14100 20.80500
H  3.71900 42.42800 21.78400
H  0.94600 41.05400 20.05700
H  1.67000 40.44100 21.59400
H  2.66600 41.20500 20.31000
H  2.98000 44.40900 20.22300
H  4.35900 44.51100 21.19000
H  2.13300 45.71400 22.66800
H  2.44500 46.46000 21.08600
H  3.77700 46.39400 22.20100
H  6.57700 45.62400 26.05300
H  6.68100 44.01200 25.15200
H  7.02100 44.14100 26.86500
H  3.15900 44.62500 30.69900
H  4.90100 41.37000 32.49400
H  3.23500 40.91400 32.61100
H  3.94500 42.03700 33.85200
Mg -1.21700 34.89700 27.17500
C  -2.88200 33.23400 29.84500
C  -0.08200 37.08100 29.60300
C  0.02200 36.80300 24.71100
C  -2.74500 32.75400 24.95100
N  -1.45600 35.17500 29.50300
C  -2.13500 34.30800 30.32200
C  -1.99900 34.78500 31.77900
C  -1.31600 36.13600 31.63700
C  -0.84700 36.11100 30.17800
C  -2.17600 37.36100 32.03200
C  -1.22800 33.64900 32.64300
C  -1.90700 33.37200 33.93900
H  -0.97400 33.17100 35.13300
N  -0.02700 36.56000 27.19600
C  0.37100 37.32400 28.23700
C  1.16700 38.42300 27.75700
C  1.36100 38.28400 26.35000
C  0.41300 37.17500 26.03300
C  1.79800 39.49800 28.56200
C  2.17000 39.03400 25.29400
O  2.16000 38.80000 24.10900
C  3.05400 40.00800 25.69500
N  -1.33300 34.71800 25.12700
C  -0.76600 35.69600 24.27200
C  -1.18500 35.33100 22.84100
C  -1.72900 33.89500 22.93700
C  -2.00100 33.74800 24.39100
C  -2.18800 36.29500 22.13700
C  -0.79100 32.91900 22.18500
C  0.22000 32.14300 23.11900
N  -2.59800 33.34600 27.29000
C  -3.12800 32.56600 26.30200
C  -3.87200 31.45700 26.87600
C  -3.81600 31.71700 28.20700
C  -3.01300 32.85400 28.47400
C  -4.57600 30.32500 26.18000
C  -4.29900 31.15700 29.45600
O  -4.96900 30.16300 29.68500
C  -3.59600 32.08600 30.59100
C  -4.60500 32.46000 31.43400
O  -5.43700 33.28500 31.24000
O  -4.56800 31.71200 32.57900
C  -5.53500 32.09000 33.63300
H  0.31500 37.72400 30.39100
H  0.34400 37.46300 23.90300
H  -3.25600 32.16600 24.18600
H  -3.01000 34.81600 32.18400
H  -0.44200 36.28400 32.27100
H  -2.29700 38.03900 31.18700
H  -1.54100 37.78300 32.81100
H  -3.17600 37.19400 32.43400
H  -0.16600 33.89800 32.65600
H  -1.25800 32.71800 32.07600
H  -2.41400 32.42000 33.78400
H  -2.63200 34.13000 34.23400
H  1.54700 40.48000 28.16100
H  2.87100 39.39000 28.71800
H  1.39700 39.53100 29.57600
H  3.69400 39.63200 26.49400
H  2.34600 40.71800 26.12200
H  3.57800 40.33300 24.79600
H  -0.21400 35.38600 22.34900
H  -2.63900 33.90600 22.33600
H  -2.51300 37.12000 22.77100
H  -3.09500 35.79200 21.80100
H  -1.70000 36.72200 21.26100
H  -0.13900 33.38800 21.44900
H  -1.43400 32.19200 21.68800
H  0.46800 32.65200 24.05100
H  1.16100 32.06000 22.57400
H  -0.11300 31.12400 23.31900
H  -4.17000 29.37400 26.52500
H  -4.40600 30.34800 25.10300
H  -5.58300 30.44400 26.57900
H  -2.94600 31.41800 31.15600
H  -5.33400 33.11600 33.94100
H  -5.39100 31.40900 34.47200
H  -6.47800 31.76600 33.19400

