158

Mg 42.41200 41.85600 26.54600
C  41.57000 44.12200 29.00500
C  43.67600 39.78800 28.97800
C  43.09600 39.66800 24.12100
C  41.36600 44.29700 24.17800
N  42.56200 41.90600 28.75700
C  42.09100 42.88000 29.57400
C  42.40600 42.54900 31.09100
C  43.24200 41.21900 31.02400
C  43.17200 40.99700 29.45700
C  44.72600 41.28300 31.60400
C  41.12900 42.56300 32.02200
C  41.36500 43.21700 33.38000
H  40.49600 42.64300 34.55200
N  43.28400 40.02200 26.62200
C  43.73700 39.34500 27.69700
C  44.23500 38.06000 27.25300
C  44.09300 37.98500 25.84300
C  43.46900 39.22500 25.45400
C  44.75200 37.01300 28.26300
C  44.45000 36.80000 24.91000
O  44.29300 36.79900 23.69800
C  44.95700 35.47000 25.48000
N  42.43300 42.04100 24.43400
C  42.57800 40.89200 23.71900
C  41.95200 41.02700 22.31700
C  41.55100 42.56500 22.22100
C  41.70900 42.98800 23.68100
C  42.79500 40.48800 21.09200
C  40.17400 42.84400 21.71100
C  40.01800 43.97500 20.60100
N  41.81900 43.84600 26.56400
C  41.42300 44.70300 25.53900
C  40.99600 46.00700 26.06000
C  41.04900 45.74300 27.46300
C  41.54800 44.50000 27.67700
C  40.64500 47.27300 25.33700
C  40.71900 46.35900 28.72900
O  40.28500 47.42300 29.02300
C  41.04700 45.29200 29.78200
C  42.05900 45.93000 30.68700
O  43.25600 46.01500 30.59500
O  41.37200 46.49900 31.69200
C  42.05400 47.10800 32.84600
H  43.91000 39.03700 29.73600
H  43.03000 38.91700 23.33100
H  40.88300 45.00800 23.50500
H  43.03600 43.33200 31.51200
H  42.65900 40.47400 31.56500
H  45.06700 42.05300 32.29700
H  45.49000 41.31100 30.82700
H  44.91800 40.30800 32.05200
H  40.93700 41.52000 32.27300
H  40.20400 42.94200 31.58600
H  40.98200 44.21300 33.15600
H  42.43100 43.22400 33.60500
H  43.99400 36.23600 28.37000
H  44.96900 37.34400 29.27900
H  45.67100 36.51800 27.95000
H  45.97900 35.79800 25.66700
H  45.08200 34.72400 24.69400
H  44.44400 35.02100 26.33000
H  40.96700 40.56200 22.34700
H  42.30600 43.12600 21.67100
H  43.09000 41.30000 20.42700
H  42.13200 39.77400 20.60500
H  43.66900 39.88900 21.34900
H  39.51700 43.19300 22.50700
H  39.71400 41.94700 21.29700
H  39.26400 44.68100 20.94700
H  39.79000 43.60200 19.60200
H  40.97000 44.50500 20.56700
H  39.56900 47.31400 25.16500
H  41.12900 47.28600 24.36100
H  40.89400 48.15800 25.92300
H  40.06800 45.09400 30.22000
H  43.02000 47.55700 32.61400
H  42.34100 46.29700 33.51600
H  41.36000 47.71200 33.43100
Mg 26.86900 50.76800 26.75600
C  24.89400 51.77400 29.57300
C  29.15100 49.69400 28.81000
C  28.94400 50.60400 24.03600
C  24.66800 52.64600 24.79900
N  26.97700 50.83400 28.97800
C  26.09500 51.15400 29.93800
C  26.56400 50.70800 31.33300
C  27.91900 50.00900 30.98100
C  28.01500 50.07700 29.42800
C  29.09700 50.67500 31.68400
C  25.58200 49.67900 32.02500
C  24.83100 50.18200 33.31000
H  24.82200 49.38200 34.58800
N  28.72500 50.10400 26.45700
C  29.51500 49.63900 27.43900
C  30.73400 49.07400 26.85600
C  30.73400 49.41000 25.44800
C  29.45700 50.11000 25.23400
C  31.80300 48.30200 27.60700
C  31.75000 48.98800 24.33400
O  31.60700 49.37200 23.14200
C  32.89500 48.02100 24.69100
N  26.66900 51.29500 24.62500
C  27.66900 51.09200 23.72900
C  27.19000 51.47900 22.28400
C  25.71400 52.09700 22.50200
C  25.68000 52.10300 24.08000
C  28.23900 52.39700 21.55900
C  24.57000 51.22200 22.00600
C  23.33500 51.93400 21.19000
N  25.12700 51.76700 27.04500
C  24.41100 52.49800 26.15900
C  23.26900 53.10700 26.75100
C  23.38200 52.85200 28.11600
C  24.55700 52.05100 28.24900
C  22.27500 54.05100 26.08000
C  22.94900 53.18100 29.46600
O  22.10900 53.95100 29.91200
C  23.80500 52.31200 30.44600
C  24.19900 53.36700 31.46400
O  25.22000 53.94700 31.45300
O  23.22200 53.45700 32.49100
C  23.42100 54.50500 33.57500
H  29.85200 49.14300 29.44000
H  29.56700 50.44700 23.15300
H  23.90900 53.10800 24.16500
H  26.65000 51.67400 31.83200
H  27.92100 48.93000 31.13600
H  29.64200 49.91900 32.24900
H  28.61700 51.30700 32.43100
H  29.76800 51.25000 31.04600
H  26.11700 48.77000 32.30200
H  24.81500 49.49700 31.27300
H  23.80200 50.37400 33.00500
H  25.24800 51.08000 33.76800
H  31.66800 48.16300 28.67900
H  32.73300 48.87100 27.60200
H  31.91000 47.30500 27.18000
H  33.47500 48.47900 25.49200
H  33.48900 47.79700 23.80500
H  32.61700 47.00500 24.97100
H  27.19400 50.54500 21.72300
H  25.54200 53.13100 22.20400
H  29.00900 52.70000 22.26800
H  27.69100 53.24900 21.15600
H  28.68800 51.91800 20.68900
H  24.17500 50.55700 22.77300
H  24.94400 50.55900 21.22500
H  22.44700 51.30300 21.21000
H  23.69800 51.93500 20.16200
H  23.09700 52.95100 21.50200
H  22.66900 55.06100 25.96500
H  21.38200 54.14100 26.69900
H  22.14900 53.58900 25.10100
H  23.19000 51.54900 30.92300
H  24.04400 54.00400 34.31600
H  22.45500 54.84400 33.94900
H  24.00100 55.32800 33.15700

