158

Mg 41.09400 41.34200 27.09000
C  40.19500 43.48900 29.77200
C  41.76200 38.91700 29.59500
C  42.12500 39.18000 24.72400
C  40.79900 43.80500 24.96200
N  41.27000 41.35200 29.47600
C  40.59900 42.24100 30.29000
C  40.65100 41.83200 31.80000
C  41.14400 40.31800 31.71800
C  41.48600 40.18100 30.12900
C  42.43400 39.95600 32.51000
C  39.31000 42.09400 32.56000
C  39.01900 41.18700 33.78100
H  38.50000 41.74600 35.16400
N  41.91200 39.42000 27.18600
C  42.06600 38.60900 28.29500
C  42.51800 37.24500 27.85300
C  42.48500 37.26400 26.44400
C  42.13700 38.64200 26.05700
C  43.09300 36.22300 28.88600
C  42.84100 36.07600 25.41000
O  42.82500 36.25800 24.21300
C  43.15100 34.67100 25.87900
N  41.52600 41.43700 25.12100
C  41.84900 40.50600 24.33000
C  41.95600 40.93400 22.93000
C  41.59600 42.48400 22.98700
C  41.31200 42.60700 24.43100
C  43.29500 40.56600 22.17400
C  40.40300 42.84400 22.02600
C  39.01000 42.60400 22.59400
N  40.61400 43.29900 27.23800
C  40.60900 44.21000 26.23000
C  40.09400 45.48800 26.80500
C  39.90800 45.25000 28.14900
C  40.30100 43.90200 28.41100
C  39.67300 46.70000 25.98700
C  39.42200 45.82500 29.36500
O  38.86000 46.88300 29.56100
C  39.65800 44.78000 30.51200
C  40.66500 45.27900 31.54000
O  41.89700 45.37700 31.25100
O  40.14800 45.51900 32.79100
C  41.06200 45.63100 33.92500
H  41.83800 38.11300 30.33000
H  42.46000 38.54600 23.90000
H  40.61400 44.59500 24.23100
H  41.42000 42.48100 32.21900
H  40.40800 39.58200 32.04200
H  43.20300 39.61600 31.81600
H  42.17100 39.24300 33.29100
H  42.82200 40.89000 32.91500
H  38.46400 42.02600 31.87600
H  39.34000 43.12200 32.92100
H  39.94000 40.65700 34.02300
H  38.25100 40.45900 33.51900
H  42.57800 35.28000 28.70300
H  42.79200 36.52800 29.88900
H  44.17400 36.09000 28.88700
H  42.18200 34.36600 26.27200
H  43.81600 34.70100 26.74200
H  43.43400 33.93700 25.12400
H  41.14400 40.44400 22.39400
H  42.36100 43.21600 22.72800
H  43.49100 41.35900 21.45200
H  43.21600 39.67200 21.55500
H  44.06500 40.38500 22.92500
H  40.50200 42.18600 21.16300
H  40.53600 43.90000 21.79100
H  38.73800 43.48900 23.16900
H  38.96600 41.71100 23.21800
H  38.40300 42.41300 21.70900
H  38.73500 46.53300 25.45900
H  40.45500 46.88700 25.25100
H  39.70000 47.60300 26.59700
H  38.67300 44.63300 30.95600
H  42.12300 45.39500 33.83900
H  40.67000 45.08200 34.78200
H  41.00000 46.68300 34.20100
Mg 0.01300 43.08800 25.84900
C  2.49700 42.98900 28.42700
C  -2.32500 42.39500 28.34500
C  -2.15100 42.92000 23.40100
C  2.66500 43.22600 23.51100
N  0.13800 42.60700 28.06600
C  1.23300 42.73000 28.93000
C  0.74000 42.61200 30.41000
C  -0.79400 42.19300 30.28700
C  -0.98500 42.36500 28.75500
C  -1.12000 40.78900 30.95400
C  1.08600 43.94000 31.20800
C  1.35000 43.75900 32.76300
H  0.88600 42.42800 33.42700
N  -2.04900 42.82300 25.85500
C  -2.82200 42.55100 26.95000
C  -4.17000 42.49600 26.49400
C  -4.19300 42.67200 25.05700
C  -2.78500 42.85100 24.69200
C  -5.28700 42.36600 27.47000
C  -5.39700 42.60000 24.09400
O  -5.23700 42.73400 22.89300
C  -6.79200 42.14400 24.50400
N  0.19500 43.24500 23.75300
C  -0.86300 43.05100 22.91600
C  -0.58100 43.11900 21.41700
C  1.00500 43.19500 21.42600
C  1.35300 43.24800 22.95100
C  -1.09700 41.94600 20.62700
C  1.78000 44.37900 20.62700
C  1.24100 45.84100 20.80300
N  2.13700 43.15000 25.88900
C  3.02200 43.23900 24.87800
C  4.32600 43.16800 25.39900
C  4.17300 43.12400 26.76500
C  2.84400 43.11900 27.05900
C  5.71300 43.24200 24.63100
C  4.88500 43.00800 28.04100
O  6.04200 42.80500 28.31600
C  3.77400 43.09200 29.19500
C  4.05800 41.91100 30.09100
O  3.85200 40.73000 29.88000
O  4.57700 42.42800 31.20600
C  4.61300 41.43000 32.35400
H  -3.05400 42.34300 29.15600
H  -2.93900 42.83100 22.65100
H  3.51300 43.07700 22.83800
H  1.36800 41.96100 31.01900
H  -1.41600 42.92700 30.79900
H  -0.30500 40.54400 31.63600
H  -1.29500 40.02100 30.20000
H  -2.07000 40.93800 31.46800
H  0.35600 44.73000 31.03200
H  2.02400 44.41700 30.92300
H  0.92800 44.61500 33.28800
H  2.43500 43.78600 32.85900
H  -6.23900 42.75900 27.11400
H  -5.10900 42.98100 28.35200
H  -5.52400 41.33600 27.74000
H  -7.07100 42.91000 25.22800
H  -6.74800 41.13300 24.90900
H  -7.48400 42.12900 23.66200
H  -0.91800 44.04200 20.94600
H  1.45400 42.21900 21.24500
H  -1.74600 41.41800 21.32600
H  -0.28600 41.33900 20.22400
H  -1.67300 42.29600 19.77000
H  1.77700 44.08700 19.57700
H  2.78000 44.54600 21.02800
H  0.58000 46.07900 19.97000
H  2.03500 46.56700 20.98000
H  0.74200 46.00000 21.75900
H  6.49100 43.53300 25.33700
H  5.72100 43.92300 23.78000
H  5.99200 42.27000 24.22400
H  3.93200 44.03200 29.72200
H  5.67800 41.31600 32.55700
H  4.21600 40.43100 32.17200
H  4.16000 41.90500 33.22400

