158

Mg 8.00400 3.02100 27.59500
C  9.17700 1.57800 30.47600
C  5.94500 5.12400 29.63500
C  6.26700 4.05000 24.87000
C  9.52700 0.58100 25.72600
N  7.62600 3.30500 29.76400
C  8.42200 2.70600 30.74700
C  8.28200 3.41400 32.13900
C  7.09700 4.42500 31.77200
C  6.91500 4.32300 30.28500
C  5.82800 4.23400 32.60200
C  9.52200 3.95800 32.81200
C  9.90700 3.33000 34.09700
H  10.15400 4.23000 35.27900
N  6.36400 4.43900 27.32500
C  5.70600 5.24600 28.27700
C  4.90200 6.22600 27.56200
C  5.06300 6.01600 26.16200
C  5.87700 4.77400 26.04700
C  4.32400 7.47800 28.27900
C  4.46700 6.79700 25.06700
O  4.68900 6.54100 23.84800
C  3.56300 7.96600 25.33900
N  7.95600 2.44600 25.61600
C  7.12400 2.99400 24.71000
C  7.16700 2.23800 23.39600
C  8.38800 1.37000 23.56500
C  8.68600 1.45700 25.04700
C  5.84000 1.59600 22.86700
C  9.68200 1.77000 22.72900
C  10.46700 0.67400 21.96000
N  9.22000 1.36400 27.96200
C  9.75800 0.49300 27.13300
C  10.64400 -0.39700 27.89900
C  10.45200 -0.04100 29.23700
C  9.54700 1.03700 29.24600
C  11.37500 -1.63700 27.39500
C  10.82500 -0.36800 30.59000
O  11.51800 -1.23500 31.06900
C  10.01700 0.69800 31.42100
C  9.11500 0.03500 32.38200
O  7.90700 -0.02900 32.39900
O  9.90900 -0.31900 33.49000
C  9.15400 -0.73500 34.71500
H  5.55600 5.89100 30.30900
H  5.82800 4.29500 23.90100
H  10.09100 -0.15300 25.14700
H  7.87800 2.65200 32.80500
H  7.54000 5.41200 31.90000
H  5.97800 3.36900 33.24700
H  4.94200 4.21200 31.96600
H  5.70100 5.05100 33.31200
H  9.33600 5.02100 32.96400
H  10.30700 3.88900 32.05900
H  10.86100 2.89400 33.80200
H  9.29400 2.48300 34.40500
H  4.70700 8.38500 27.81200
H  4.54100 7.46600 29.34700
H  3.24900 7.41800 28.10900
H  2.70100 7.48300 25.79900
H  3.20100 8.26000 24.35400
H  4.02100 8.82200 25.83500
H  7.46100 3.03600 22.71400
H  8.02600 0.37500 23.30600
H  5.12400 1.68100 23.68400
H  5.93500 0.55500 22.55700
H  5.55500 2.23700 22.03300
H  10.36600 2.21400 23.45200
H  9.45600 2.52200 21.97300
H  11.46200 0.73600 22.40000
H  10.49200 0.76000 20.87300
H  10.15700 -0.31800 22.28800
H  11.24400 -2.39300 28.16800
H  12.43900 -1.45400 27.24900
H  10.85300 -2.09700 26.55600
H  10.76400 1.26200 31.97800
H  8.74100 -1.72000 34.49800
H  8.30500 -0.05500 34.78100
H  9.66700 -0.70700 35.67700
Mg 16.52300 -1.91400 27.85100
C  15.47500 0.31200 30.37400
C  18.79200 -3.31500 30.12000
C  17.71000 -3.72800 25.35900
C  14.43300 0.02400 25.59200
N  17.11100 -1.42300 29.94000
C  16.49500 -0.51600 30.83300
C  16.96900 -0.85100 32.26400
C  18.16400 -1.75400 32.06700
C  18.11000 -2.15400 30.61600
C  19.54700 -1.07700 32.31900
C  15.88300 -1.43500 33.21800
C  15.41300 -0.50900 34.29900
H  16.45300 0.37000 35.10600
N  17.88800 -3.36900 27.83700
C  18.65800 -3.84200 28.85600
C  19.26200 -5.13100 28.50100
C  19.05000 -5.26000 27.12000
C  18.21600 -4.10500 26.71700
C  20.04500 -6.14200 29.38700
C  19.52600 -6.41600 26.17400
O  19.30200 -6.31800 25.00200
C  20.34700 -7.48200 26.72100
N  16.33800 -1.62200 25.72400
C  16.93300 -2.57800 24.91100
C  16.45700 -2.34800 23.46500
C  15.29500 -1.33900 23.61600
C  15.35300 -1.00600 25.10800
C  17.55300 -2.00600 22.44300
C  13.87300 -1.83400 23.12000
C  12.87400 -2.56400 24.07500
N  15.24400 -0.11900 27.91600
C  14.43800 0.44000 26.93500
C  13.60400 1.42700 27.51000
C  13.93100 1.32500 28.89700
C  14.98600 0.44400 29.05200
C  12.63600 2.32900 26.74600
C  13.56300 1.92200 30.17500
O  12.75600 2.82600 30.49400
C  14.56000 1.24900 31.20600
C  15.39200 2.27400 31.94700
O  16.58200 2.58400 31.83300
O  14.59000 2.80300 32.94700
C  15.15500 3.94500 33.57500
H  19.27600 -3.89100 30.91100
H  18.19100 -4.28200 24.55000
H  13.83600 0.53800 24.83600
H  17.30000 0.15600 32.51900
H  18.12300 -2.68900 32.62600
H  19.37500 -0.15400 32.87300
H  20.25300 -0.99500 31.49300
H  20.04100 -1.77000 33.00000
H  16.17800 -2.44000 33.51900
H  14.97500 -1.69300 32.67400
H  14.94000 -1.20700 34.98900
H  14.54200 0.10500 34.07000
H  19.47800 -7.06000 29.54200
H  20.19800 -5.68700 30.36500
H  21.08600 -6.32100 29.11600
H  21.33600 -7.18600 27.07200
H  20.63100 -8.06500 25.84500
H  19.67900 -7.95900 27.43800
H  16.08500 -3.34300 23.22200
H  15.51100 -0.42000 23.07300
H  18.54500 -2.14400 22.87200
H  17.27100 -0.99600 22.14700
H  17.56000 -2.56700 21.50800
H  14.07900 -2.56700 22.34100
H  13.39300 -0.99700 22.61300
H  13.20700 -2.49000 25.11000
H  12.70000 -3.55600 23.65800
H  11.88400 -2.11000 24.04100
H  12.53600 1.93600 25.73400
H  13.03300 3.33600 26.62100
H  11.67000 2.27200 27.24600
H  13.97900 0.64700 31.90400
H  15.25600 4.76100 32.85900
H  16.06800 3.79600 34.15200
H  14.39400 4.44000 34.17900

