158

Mg 2.56600 -3.25500 45.51300
C  5.93000 -2.25600 44.86900
C  1.60000 -0.90200 43.41400
C  -0.42800 -4.76100 45.58500
C  3.98000 -6.10900 47.13700
N  3.67700 -1.93700 44.05400
C  5.00500 -1.56600 44.04200
C  5.25100 -0.45800 42.98800
C  3.83400 0.10600 42.74300
C  2.94500 -0.98100 43.44300
C  3.63800 1.48400 43.51800
C  6.02700 -0.96900 41.75500
C  7.32800 -0.30900 41.34000
H  7.58300 0.06100 39.85400
N  0.83100 -2.84800 44.65900
C  0.59700 -1.72700 43.91500
C  -0.85200 -1.72100 43.59200
C  -1.49000 -2.88100 44.09300
C  -0.31900 -3.57000 44.79500
C  -1.46900 -0.63700 42.79400
C  -2.99000 -3.33100 44.02100
O  -3.84800 -2.64700 43.44200
C  -3.41000 -4.71700 44.48800
N  1.74600 -5.19000 46.37900
C  0.53600 -5.50100 46.30700
C  0.33700 -6.91100 46.93400
C  1.75900 -7.24900 47.44300
C  2.55800 -6.11900 46.94700
C  -0.74800 -6.98500 48.09200
C  2.13900 -8.67900 46.94900
C  2.15400 -9.75300 48.02800
N  4.51700 -3.99600 46.00300
C  4.94600 -5.06400 46.77600
C  6.35200 -4.99500 46.95300
C  6.75100 -3.82700 46.19200
C  5.64800 -3.36000 45.61700
C  7.15400 -5.89200 47.83400
C  7.93600 -3.05100 45.90900
O  9.07600 -3.18100 46.32700
C  7.43300 -1.92500 45.01200
C  7.53900 -0.66100 45.81000
O  6.82100 -0.45100 46.78600
O  8.29800 0.26000 45.15500
C  8.32400 1.63600 45.69900
H  1.22000 -0.07500 42.81000
H  -1.39900 -5.23900 45.72900
H  4.40000 -7.02400 47.56000
H  5.82800 0.35500 43.42900
H  3.60200 0.04800 41.68000
H  4.35200 1.57800 44.33600
H  2.65200 1.73200 43.91000
H  4.03200 2.34400 42.97600
H  5.44300 -0.98100 40.83500
H  6.19900 -1.99600 42.07600
H  8.16500 -0.92900 41.65800
H  7.46900 0.63400 41.86800
H  -1.96800 0.13100 43.38500
H  -2.18400 -1.02300 42.06700
H  -0.73400 -0.16100 42.14500
H  -2.78500 -5.39000 43.90200
H  -4.43200 -4.90400 44.15900
H  -3.40800 -4.73800 45.57800
H  -0.09500 -7.58500 46.19400
H  1.77900 -7.19800 48.53100
H  -1.42600 -6.13800 47.99000
H  -0.38100 -7.01500 49.11800
H  -1.38700 -7.85800 47.96200
H  3.11700 -8.66000 46.46800
H  1.55500 -9.00100 46.08600
H  2.98500 -10.43000 47.82800
H  1.24900 -10.35600 47.96600
H  2.27700 -9.30600 49.01400
H  6.55200 -6.01700 48.73400
H  8.15500 -5.52100 48.05200
H  7.13900 -6.87600 47.36600
H  7.98000 -1.90400 44.07000
H  8.34100 2.32600 44.85600
H  9.14800 1.90200 46.36100
H  7.40800 1.91800 46.22000
Mg 7.40200 53.51800 40.98600
C  6.89600 50.14000 40.66100
C  10.63600 53.06600 39.63100
C  7.62800 56.86500 40.26800
C  4.20900 53.98200 41.98800
N  8.59000 51.81000 40.18600
C  8.13000 50.55900 40.17700
C  9.12400 49.58300 39.52800
C  10.42000 50.48500 39.40600
C  9.93900 51.85600 39.83400
C  11.54200 50.06700 40.37800
C  8.75400 49.02600 38.08900
C  7.97200 49.92100 37.09400
H  7.20200 49.25100 35.91600
N  8.96000 54.77300 40.12800
C  10.17400 54.40600 39.71900
C  11.01000 55.62500 39.60300
C  10.12800 56.76000 39.63700
C  8.82800 56.17100 40.02100
C  12.51000 55.53900 39.15900
C  10.48300 58.19600 39.29500
O  11.59400 58.44400 38.92900
C  9.55700 59.34200 39.33100
N  6.06600 55.24100 41.19600
C  6.37900 56.52300 40.84700
C  5.18000 57.45800 41.08100
C  4.02600 56.50200 41.59800
C  4.79200 55.16800 41.54800
C  5.52100 58.65000 42.00700
C  2.73800 56.32500 40.66500
C  1.48000 56.85700 41.35500
N  5.89600 52.39000 41.46200
C  4.65200 52.67200 41.93500
C  3.93700 51.43700 42.26200
C  4.85200 50.44500 41.82900
C  5.98900 51.02500 41.29400
C  2.52100 51.15900 42.79700
C  4.91400 49.02300 41.69000
O  4.16900 48.06300 42.06100
C  6.25300 48.78200 40.84600
C  5.86100 48.02500 39.55800
O  5.28000 48.48400 38.63900
O  6.25200 46.71500 39.60800
C  5.65100 45.80200 38.60200
H  11.66900 52.91300 39.31300
H  7.57500 57.91100 39.95800
H  3.23300 54.12300 42.45700
H  9.18400 48.71200 40.18100
H  10.92200 50.53600 38.44000
H  11.29200 49.12800 40.87200
H  11.66800 50.83700 41.13900
H  12.51700 49.82800 39.95300
H  8.25700 48.05800 38.15000
H  9.69200 48.94400 37.54000
H  8.70300 50.65900 36.76500
H  7.19000 50.44500 37.64300
H  12.54900 54.83900 38.32500
H  13.01800 55.17200 40.05200
H  12.93400 56.44300 38.72300
H  9.20700 59.40300 40.36100
H  8.78700 59.14500 38.58400
H  10.06300 60.25100 39.00700
H  4.95400 57.82300 40.08000
H  3.64400 56.73800 42.59100
H  5.24800 59.62800 41.61200
H  6.55600 58.66400 42.34900
H  4.89100 58.53900 42.89000
H  2.62600 55.26000 40.45900
H  2.89100 56.91500 39.76100
H  1.36900 57.88000 40.99400
H  1.55000 56.87700 42.44300
H  0.66900 56.22600 40.99300
H  2.09700 52.03600 43.28600
H  2.62600 50.36200 43.53400
H  1.88500 50.88800 41.95400
H  7.02200 48.25300 41.40900
H  4.59400 46.06500 38.65100
H  5.90300 44.77000 38.84400
H  6.11000 46.04600 37.64400

