158

Mg 10.10600 48.11500 24.49800
C  8.10300 48.29400 27.37000
C  12.75300 49.51100 26.39300
C  12.06600 47.94400 21.75100
C  7.22500 47.46700 22.65900
N  10.39500 48.91700 26.56000
C  9.40500 48.80100 27.55100
C  9.86800 49.47000 28.87400
C  11.24300 50.11100 28.40900
C  11.55400 49.40800 27.07900
C  11.17400 51.64900 28.17700
C  10.06800 48.52800 30.10800
C  9.36800 48.88700 31.39000
H  10.30600 49.49500 32.45600
N  12.15700 48.54000 24.17300
C  13.04300 49.00400 25.09000
C  14.36900 49.09800 24.48400
C  14.25600 48.56800 23.21100
C  12.81000 48.25000 22.97400
C  15.51900 49.60600 25.21200
C  15.35200 48.47400 22.14200
O  15.11300 47.86700 21.12200
C  16.70100 49.04100 22.32300
N  9.63400 47.98400 22.47400
C  10.73000 47.85800 21.56100
C  10.14600 47.59700 20.16900
C  8.61000 47.47700 20.38000
C  8.43600 47.53800 21.93900
C  10.58600 48.61300 19.08400
C  7.78000 46.39000 19.59700
C  6.53900 46.89700 18.76300
N  8.07600 47.81200 24.91200
C  7.06100 47.66800 24.04400
C  5.83400 47.50500 24.77900
C  6.15200 47.66300 26.13900
C  7.52000 47.90500 26.14500
C  4.43600 47.38700 24.25000
C  5.66100 47.66600 27.50900
O  4.54800 47.56800 27.92100
C  6.89400 48.13100 28.35100
C  7.00900 47.14300 29.45600
O  7.56800 46.02900 29.36900
O  6.21600 47.53800 30.52600
C  6.03600 46.53000 31.64900
H  13.59700 49.94900 26.92900
H  12.67900 47.83600 20.85400
H  6.29100 47.29400 22.11900
H  9.24000 50.30800 29.17700
H  12.09100 49.95000 29.07500
H  11.85500 52.12800 28.88000
H  10.23600 52.01000 28.60000
H  11.24400 52.06500 27.17100
H  11.13800 48.41400 30.28300
H  9.67900 47.54700 29.83400
H  8.86400 48.04500 31.86500
H  8.46400 49.47200 31.22100
H  15.36900 50.01600 26.21100
H  16.12900 50.34700 24.69500
H  16.19800 48.76800 25.36800
H  16.53000 50.10800 22.18000
H  17.39700 48.67300 21.56900
H  17.23000 48.81100 23.24700
H  10.49700 46.60100 19.90100
H  8.26000 48.50100 20.24600
H  11.49100 49.02500 19.53000
H  9.77400 49.29600 18.83500
H  10.91500 48.00500 18.24000
H  7.43600 45.71500 20.38100
H  8.45000 45.89300 18.89500
H  6.33300 47.94800 18.96200
H  5.57800 46.40800 18.92600
H  6.98700 46.94600 17.77100
H  4.01100 48.33800 23.92800
H  3.77200 47.06300 25.05100
H  4.45300 46.65400 23.44400
H  6.56800 49.08300 28.77000
H  6.77800 45.73800 31.74600
H  5.10200 45.99400 31.48500
H  5.95200 46.95000 32.65100
Mg -10.97800 38.51700 41.84700
C  -8.77200 35.83600 41.04700
C  -8.63300 40.65100 40.29700
C  -13.13600 40.90200 42.15700
C  -13.36100 36.07400 43.08600
N  -8.90100 38.25300 40.75300
C  -8.29500 37.04700 40.48600
C  -7.03100 37.22800 39.65600
C  -6.93900 38.78800 39.59600
C  -8.21700 39.31500 40.29600
C  -5.61900 39.35400 40.08300
C  -7.01700 36.45000 38.32000
C  -5.76500 35.61300 37.97400
H  -5.13800 35.85300 36.60400
N  -10.81300 40.56800 41.48500
C  -9.79000 41.27400 40.87200
C  -10.17400 42.68200 40.81400
C  -11.44100 42.78800 41.36700
C  -11.82600 41.43000 41.73400
C  -9.42400 43.71600 39.94200
C  -12.30000 44.05100 41.60200
O  -11.86600 45.12100 41.14600
C  -13.59200 44.13200 42.28800
N  -12.98100 38.50600 42.44700
C  -13.67900 39.66300 42.49700
C  -15.11600 39.41100 42.94100
C  -15.24200 37.86500 43.10000
C  -13.76800 37.44200 42.81400
C  -15.42900 40.12600 44.20600
C  -16.34400 37.08000 42.31000
C  -17.45100 36.38200 43.15800
N  -11.13700 36.31700 42.06000
C  -12.09600 35.52900 42.71100
C  -11.49400 34.19900 42.91800
C  -10.20800 34.24900 42.27900
C  -10.05100 35.57800 41.77700
C  -12.06500 33.07500 43.66000
C  -9.00300 33.50600 41.95100
O  -8.67000 32.36200 42.23800
C  -8.02400 34.52000 41.11200
C  -6.72600 34.56700 41.84500
O  -5.70100 34.03900 41.57900
O  -6.82100 35.42200 42.94600
C  -5.51800 35.84000 43.63000
H  -7.91500 41.31300 39.80900
H  -13.89500 41.68600 42.12800
H  -14.03500 35.38800 43.60300
H  -6.30900 36.83300 40.37000
H  -7.01100 39.17800 38.58100
H  -5.68500 39.91800 41.01300
H  -5.02500 40.02600 39.46400
H  -4.95000 38.49400 40.11300
H  -7.23300 37.13100 37.49700
H  -7.91700 35.83900 38.25100
H  -6.05100 34.56300 38.03600
H  -4.97000 35.85600 38.67900
H  -8.40900 43.34300 39.80800
H  -9.31400 44.61500 40.54800
H  -9.87400 44.14300 39.04500
H  -13.37700 43.63700 43.23600
H  -14.31800 43.60400 41.67000
H  -13.98000 45.14600 42.38200
H  -15.82600 39.75400 42.18800
H  -15.54600 37.73500 44.13900
H  -14.46400 40.19100 44.70900
H  -16.08800 39.54700 44.85300
H  -15.90900 41.08300 44.00400
H  -15.89400 36.32200 41.66800
H  -16.94500 37.78100 41.73100
H  -17.71300 35.46600 42.62900
H  -18.34300 37.00200 43.24400
H  -17.10100 36.06700 44.14100
H  -11.58500 32.12500 43.42300
H  -13.14900 33.16900 43.60300
H  -11.84200 33.32000 44.69800
H  -7.90300 34.07200 40.12600
H  -5.73500 36.29400 44.59700
H  -4.98800 36.57700 43.02700
H  -4.88100 34.96600 43.76600

