158

Mg 1.33900 -1.32100 43.36700
C  4.77300 -0.72500 42.68300
C  0.65300 1.74400 41.95600
C  -1.83100 -2.35500 43.06400
C  2.21100 -4.58400 44.41000
N  2.55700 0.25700 42.32300
C  3.88800 0.24700 42.09400
C  4.32500 1.58000 41.47700
C  3.04600 2.49300 41.54500
C  2.04000 1.51600 42.05000
C  3.13900 3.66800 42.53300
C  5.08000 1.42600 40.10100
C  4.36500 0.50700 39.08000
H  4.65300 0.68500 37.58600
N  -0.38200 -0.43300 42.60300
C  -0.44700 0.90600 42.16400
C  -1.84800 1.18800 41.92400
C  -2.53900 -0.01000 42.24500
C  -1.59600 -1.01800 42.70200
C  -2.45200 2.55000 41.54000
C  -4.02600 -0.25600 41.98900
O  -4.66300 0.72100 41.59600
C  -4.83300 -1.49600 42.21200
N  0.36300 -3.10900 43.59300
C  -0.98600 -3.34700 43.46300
C  -1.42900 -4.71600 43.98000
C  -0.07400 -5.43700 44.16800
C  0.88800 -4.31100 44.19100
C  -2.34400 -4.72100 45.23300
C  0.21200 -6.57800 43.21500
C  0.67100 -7.91000 43.87400
N  3.09000 -2.40600 43.62200
C  3.33300 -3.68000 44.16400
C  4.75200 -3.82800 44.38000
C  5.32200 -2.75000 43.73000
C  4.31400 -1.87400 43.35400
C  5.44000 -5.02800 44.90000
C  6.62500 -2.23100 43.26800
O  7.75800 -2.74100 43.27600
C  6.29200 -0.83300 42.53400
C  7.05500 0.20900 43.23500
O  8.24300 0.54100 42.96500
O  6.32900 0.74200 44.22900
C  6.88300 1.79200 45.07200
H  0.38000 2.78500 41.76900
H  -2.83400 -2.77600 42.96900
H  2.45900 -5.53700 44.88200
H  5.09000 1.91300 42.17800
H  2.73800 3.01900 40.64100
H  2.99300 3.36300 43.56900
H  2.39000 4.41300 42.26600
H  4.14300 4.09300 42.52500
H  6.08300 1.00900 40.19900
H  5.17200 2.39600 39.61400
H  3.28500 0.61100 39.18400
H  4.75400 -0.48300 39.32000
H  -1.75800 3.37600 41.69300
H  -3.28000 2.81800 42.19600
H  -2.88900 2.42000 40.55000
H  -5.73100 -1.27600 41.63500
H  -5.04800 -1.66400 43.26700
H  -4.33600 -2.32700 41.71000
H  -2.03400 -5.20600 43.21800
H  -0.04300 -5.84200 45.17900
H  -1.78800 -4.77300 46.16900
H  -3.21500 -5.36700 45.11800
H  -2.79800 -3.73500 45.12900
H  0.98300 -6.30700 42.49300
H  -0.71800 -6.68900 42.65800
H  1.74800 -8.01400 43.73800
H  0.15600 -8.66800 43.28400
H  0.42700 -7.82300 44.93300
H  4.78400 -5.39600 45.68700
H  6.42300 -4.71800 45.25500
H  5.49200 -5.71400 44.05400
H  6.73800 -1.07100 41.56800
H  6.23200 2.02400 45.91500
H  7.09700 2.62800 44.40600
H  7.76200 1.26900 45.44700
Mg 27.07000 51.01000 25.37200
C  25.31100 52.20700 28.19200
C  29.66400 50.03600 27.56000
C  28.87800 49.91900 22.61100
C  24.81300 52.56700 23.30400
N  27.45100 51.10800 27.59600
C  26.50000 51.51800 28.59100
C  27.09500 51.28200 29.96500
C  28.50400 50.65000 29.72000
C  28.58400 50.66400 28.20700
C  29.75700 51.24400 30.61400
C  26.27400 50.50300 31.01000
C  26.08600 51.28700 32.37000
H  25.37800 50.50800 33.43500
N  28.92700 50.04100 25.13700
C  29.82400 49.67100 26.20700
C  30.99300 48.97300 25.61200
C  30.67200 48.92500 24.23400
C  29.45600 49.66900 23.94400
C  32.11800 48.44900 26.51300
C  31.35000 48.08400 23.28300
O  30.94600 47.85300 22.14000
C  32.48500 47.29700 23.71100
N  26.92400 51.34400 23.21000
C  27.67000 50.66200 22.29400
C  27.14200 50.87300 20.84600
C  25.76700 51.51500 21.08700
C  25.78900 51.86800 22.61700
C  28.19900 51.53400 19.94600
C  24.50400 50.81600 20.62200
C  23.40200 51.71400 20.06600
N  25.46800 52.27200 25.61200
C  24.67000 52.85300 24.65500
C  23.57200 53.53800 25.23800
C  23.78000 53.32400 26.69000
C  24.92300 52.46700 26.83200
C  22.47600 54.31200 24.55900
C  23.25000 53.58500 28.05400
O  22.28100 54.16700 28.41600
C  24.28500 52.91400 29.07000
C  24.76200 53.87200 30.04200
O  25.80400 54.54900 29.96000
O  23.86700 53.88800 31.03600
C  24.25400 54.76700 32.21900
H  30.32300 49.57200 28.29700
H  29.34500 49.52100 21.70700
H  24.03200 52.93300 22.63400
H  27.15400 52.30300 30.34100
H  28.45400 49.63000 30.10000
H  30.32100 51.83500 29.89200
H  30.42300 50.54400 31.11800
H  29.35800 51.92500 31.36500
H  26.70700 49.51300 31.15000
H  25.31400 50.29500 30.53800
H  25.60700 52.24200 32.15100
H  27.10800 51.44700 32.71300
H  32.19100 47.36200 26.50100
H  32.05400 48.81700 27.53700
H  33.07800 48.85400 26.19200
H  33.27600 48.00100 23.96800
H  32.78200 46.60300 22.92500
H  32.16700 46.65300 24.53100
H  26.97100 49.89500 20.39600
H  25.80600 52.46800 20.56100
H  28.86300 52.12900 20.57300
H  27.74300 52.22200 19.23500
H  28.69600 50.80700 19.30300
H  24.17400 50.34000 21.54500
H  24.71100 50.06500 19.85900
H  23.76200 52.74000 19.98300
H  22.52200 51.67500 20.70700
H  22.99800 51.39700 19.10400
H  22.76100 54.78800 23.62000
H  21.94400 54.98600 25.23000
H  21.80000 53.49600 24.30700
H  23.75800 52.14100 29.62900
H  24.92900 54.15800 32.82000
H  23.35100 54.96300 32.79700
H  24.76900 55.70800 32.02500

