158

Mg 2.46300 -1.52500 43.85200
C  5.77700 -1.18500 42.68700
C  1.61200 1.20800 41.97000
C  -0.67600 -2.45200 44.21500
C  3.53100 -4.65400 45.25000
N  3.58500 -0.16900 42.45800
C  4.89300 -0.21500 42.12200
C  5.26600 0.94300 41.19700
C  4.06400 1.90200 41.39000
C  2.97500 0.97600 42.02400
C  4.25200 3.23000 42.22700
C  5.56300 0.52000 39.74300
C  6.61000 1.41200 39.01700
H  6.17200 2.05500 37.65800
N  0.66800 -0.66200 43.30900
C  0.56600 0.43900 42.47700
C  -0.87900 0.67200 42.28300
C  -1.58500 -0.28200 43.10800
C  -0.51000 -1.16500 43.61400
C  -1.40900 1.84300 41.44200
C  -3.05900 -0.38500 43.33600
O  -3.81000 0.38700 42.79700
C  -3.74800 -1.51000 44.13000
N  1.55600 -3.31700 44.55000
C  0.22400 -3.40100 44.62300
C  -0.18800 -4.77900 45.13500
C  1.15200 -5.42500 45.64300
C  2.18400 -4.42700 45.04100
C  -1.53600 -4.79400 45.98400
C  1.46400 -6.90500 45.22300
C  1.48100 -8.04000 46.24100
N  4.30000 -2.69600 44.05600
C  4.56600 -3.89900 44.68200
C  6.00700 -4.23700 44.65000
C  6.53300 -3.15200 43.84100
C  5.43800 -2.32800 43.49200
C  6.59000 -5.42700 45.25600
C  7.71700 -2.64400 43.21200
O  8.88700 -3.07700 43.23700
C  7.28500 -1.27100 42.57400
C  7.97400 -0.18100 43.25000
O  7.87000 0.08000 44.40300
O  8.77300 0.54000 42.41000
C  9.14500 1.83400 42.88900
H  1.26600 2.17100 41.58900
H  -1.67700 -2.86800 44.35000
H  3.82400 -5.67900 45.48800
H  6.10600 1.50800 41.60200
H  3.65200 2.29800 40.46200
H  5.24200 3.15200 42.67700
H  3.56300 3.40500 43.05300
H  4.21700 4.07800 41.54300
H  4.67600 0.56500 39.11100
H  6.08800 -0.43500 39.75800
H  7.55400 0.86800 39.05200
H  6.82000 2.28300 39.63700
H  -2.40400 2.06500 41.82800
H  -1.43600 1.52000 40.40100
H  -0.75200 2.70400 41.56200
H  -4.81600 -1.29600 44.18300
H  -3.36600 -1.59900 45.14700
H  -3.66800 -2.44400 43.57500
H  -0.37100 -5.09300 44.10700
H  1.23400 -5.32500 46.72500
H  -2.39200 -5.01800 45.34700
H  -1.64000 -3.79800 46.41400
H  -1.49100 -5.54900 46.76900
H  2.29900 -6.91300 44.52300
H  0.62200 -7.07500 44.55100
H  2.23100 -8.78200 45.96800
H  0.55100 -8.59600 46.11500
H  1.45600 -7.78900 47.30100
H  6.75800 -6.11900 44.43100
H  6.03800 -5.87300 46.08300
H  7.57400 -5.30100 45.70700
H  7.70600 -1.24300 41.56900
H  9.48600 1.75700 43.92100
H  8.27600 2.49100 42.92600
H  10.02200 2.21400 42.36400
Mg 35.30600 -0.24100 29.44100
C  33.29900 1.12000 32.02400
C  37.88400 -0.28500 31.70400
C  37.32700 -1.32700 27.03700
C  32.79400 0.43300 27.13100
N  35.53100 0.38800 31.59300
C  34.56900 0.87200 32.42600
C  35.09900 1.09700 33.75600
C  36.62900 1.10300 33.50000
C  36.74100 0.32600 32.17300
C  37.44200 2.41600 33.60400
C  34.56100 -0.06300 34.69500
C  34.17500 0.48100 36.09000
H  35.09200 1.60600 36.70000
N  37.30100 -0.76400 29.42100
C  38.23500 -0.74700 30.41800
C  39.48900 -1.38400 29.99200
C  39.34700 -1.69400 28.61400
C  37.92700 -1.27200 28.27300
C  40.55400 -1.55800 30.98000
C  40.30600 -2.42200 27.73100
O  40.03500 -2.74200 26.56300
C  41.70500 -2.81400 28.25500
N  35.07800 -0.39500 27.39300
C  36.07400 -0.90300 26.59600
C  35.75400 -0.74600 25.11100
C  34.20900 -0.47300 25.16900
C  34.01100 -0.07000 26.62200
C  36.46100 0.34800 24.41200
C  33.38900 -1.68700 24.68900
C  32.86300 -2.82500 25.57700
N  33.39200 0.61900 29.52400
C  32.50200 0.72800 28.49500
C  31.24200 1.13800 29.06700
C  31.53100 1.28700 30.48500
C  32.83100 0.95000 30.69300
C  29.95300 1.47500 28.28300
C  30.90200 1.79900 31.70100
O  29.75400 2.21500 31.90200
C  32.01800 1.58400 32.79600
C  32.19700 2.82500 33.58600
O  32.57400 3.89900 33.14800
O  31.62100 2.66900 34.77200
C  31.56700 3.79700 35.69600
H  38.69400 -0.12300 32.41900
H  38.05000 -1.51800 26.24100
H  31.99300 0.62200 26.41300
H  34.89000 2.08200 34.17100
H  37.05400 0.49300 34.29800
H  37.87700 2.46800 32.60600
H  38.05500 2.36200 34.50400
H  36.81600 3.30700 33.66100
H  35.37400 -0.77900 34.81200
H  33.67400 -0.47100 34.21100
H  34.09200 -0.41300 36.70700
H  33.18900 0.94500 36.11400
H  40.11400 -1.66800 31.97200
H  41.19000 -0.68000 31.08600
H  41.20700 -2.42600 30.89400
H  42.28400 -2.03400 28.75000
H  42.36800 -3.04400 27.42100
H  41.53500 -3.72800 28.82600
H  36.12300 -1.62300 24.58100
H  33.88300 0.35600 24.54000
H  35.94000 1.29100 24.24500
H  36.89200 -0.07900 23.50700
H  37.33800 0.72100 24.94200
H  34.00300 -2.21000 23.95600
H  32.58200 -1.30200 24.06600
H  31.83400 -3.02500 25.27700
H  32.97100 -2.73300 26.65800
H  33.41100 -3.76100 25.46800
H  29.72900 0.62200 27.64200
H  30.18000 2.42700 27.80300
H  29.14100 1.66500 28.98500
H  31.76300 0.72400 33.41500
H  32.48800 3.80500 36.28000
H  30.71000 3.75700 36.36800
H  31.65300 4.77300 35.21900

