158

Mg 26.13600 0.34200 29.69000
C  27.97300 0.17400 32.55500
C  23.10900 0.43900 31.62200
C  24.17500 0.64500 26.85700
C  28.82600 -0.28000 27.73100
N  25.58000 0.23500 31.78900
C  26.56600 0.43300 32.76100
C  25.92800 0.74300 34.07700
C  24.40800 0.38300 33.83800
C  24.36200 0.47000 32.30700
C  24.02900 -1.02000 34.39900
C  26.25000 2.12000 34.71000
C  26.89100 2.10100 36.13700
H  26.91300 3.29400 37.08500
N  24.01200 0.43600 29.36200
C  22.93600 0.42400 30.25000
C  21.70300 0.73000 29.50100
C  21.99300 0.84500 28.16300
C  23.50000 0.62200 28.11700
C  20.46300 0.85200 30.24900
C  21.04700 0.99900 26.92200
O  21.46100 0.95800 25.79300
C  19.51000 1.19200 27.16700
N  26.49800 0.13900 27.60600
C  25.57600 0.38900 26.61300
C  26.09600 0.16700 25.17600
C  27.55600 -0.32600 25.45700
C  27.66400 -0.13300 26.98500
C  25.20600 -0.86100 24.39700
C  28.64700 0.44100 24.65600
C  29.27300 -0.50500 23.56400
N  28.00800 -0.03600 30.01000
C  29.08300 -0.15900 29.15600
C  30.24300 -0.50900 29.89400
C  29.91000 -0.32000 31.26700
C  28.57300 -0.00500 31.22500
C  31.56400 -1.07000 29.45600
C  30.33000 -0.20400 32.69100
O  31.48700 -0.36200 33.20400
C  29.09400 0.03600 33.51900
C  28.88800 -0.93000 34.67900
O  28.59300 -2.13400 34.48500
O  29.25800 -0.43100 35.93600
C  29.08700 -1.45200 36.98700
H  22.34600 0.45700 32.40400
H  23.57500 0.75500 25.95200
H  29.74100 -0.54900 27.19800
H  26.28500 0.04300 34.83200
H  23.76000 1.19900 34.15700
H  23.67000 -0.95700 35.42600
H  24.88700 -1.68900 34.46200
H  23.21600 -1.44200 33.80800
H  25.24500 2.53900 34.67500
H  26.84900 2.70100 34.00900
H  27.96300 1.93100 36.04500
H  26.38600 1.27500 36.63900
H  20.56300 0.81100 31.33300
H  19.82500 -0.01200 30.06300
H  20.04000 1.81500 29.96300
H  19.00300 1.69600 26.34400
H  19.33900 1.94500 27.93600
H  18.98200 0.25900 27.36000
H  26.04800 1.17500 24.76500
H  27.60600 -1.40500 25.31500
H  24.57600 -1.53600 24.97600
H  25.70300 -1.41700 23.60200
H  24.47300 -0.18000 23.96500
H  29.47000 0.85000 25.24200
H  28.21200 1.27100 24.10000
H  29.49100 0.13100 22.70600
H  28.64600 -1.33300 23.23300
H  30.22700 -0.76700 24.02200
H  31.62700 -0.97400 28.37200
H  31.64900 -2.07700 29.86300
H  32.31700 -0.47200 29.97000
H  29.33100 1.00600 33.95700
H  29.67400 -2.35000 36.79100
H  28.05600 -1.72200 37.21700
H  29.44800 -1.19400 37.98300
Mg 48.38700 35.11400 26.93000
C  46.37400 33.69300 29.44000
C  49.09200 37.72000 29.06800
C  49.90000 36.60600 24.42200
C  47.29300 32.49600 24.70100
N  47.77600 35.61900 29.00700
C  47.00300 34.90000 29.88900
C  47.17300 35.43200 31.37100
C  47.53500 36.93500 30.99500
C  48.18800 36.78200 29.54800
C  46.38900 37.96100 31.01400
C  48.27500 34.67100 32.14500
C  47.92600 34.23800 33.52900
H  47.13400 35.20500 34.34400
N  49.33400 36.99100 26.76500
C  49.66000 37.84700 27.78300
C  50.52600 38.83100 27.23800
C  50.61500 38.68000 25.85300
C  49.92500 37.40100 25.63000
C  51.11200 39.88400 28.20300
C  51.33400 39.48800 24.78700
O  51.23300 39.28000 23.56500
C  52.13400 40.53700 25.16700
N  48.47000 34.66600 24.78000
C  49.23900 35.43400 23.97800
C  49.31400 34.87800 22.52400
C  48.74100 33.34700 22.76900
C  48.11600 33.51000 24.18000
C  48.70500 35.79300 21.44700
C  49.80000 32.18900 22.78500
C  49.44800 30.94000 21.99000
N  47.11900 33.44900 26.99400
C  46.82600 32.47000 26.01100
C  45.94200 31.56900 26.60800
C  45.73300 31.97300 27.93200
C  46.44600 33.15100 28.10300
C  45.41200 30.30100 25.89400
C  45.03600 31.67000 29.14000
O  44.17700 30.82900 29.38900
C  45.29200 32.91500 30.07800
C  45.64800 32.35500 31.43400
O  46.59900 31.65100 31.64700
O  44.57500 32.60000 32.27500
C  44.64000 31.88300 33.58200
H  49.45800 38.50500 29.73400
H  50.44000 37.08300 23.60100
H  47.19300 31.70600 23.95300
H  46.23700 35.24500 31.89700
H  48.31800 37.34900 31.63200
H  45.39900 37.59200 31.28000
H  46.41700 38.26200 29.96700
H  46.59600 38.79800 31.68000
H  49.22200 35.19300 32.27700
H  48.36200 33.71500 31.62800
H  48.92400 34.13300 33.95300
H  47.40900 33.28100 33.59800
H  52.08600 40.24600 27.87300
H  51.18300 39.37500 29.16500
H  50.42300 40.72500 28.27600
H  52.42900 41.02000 24.23600
H  53.00200 40.20000 25.73300
H  51.49000 41.24600 25.68800
H  50.36600 34.84500 22.24000
H  47.92000 33.05200 22.11600
H  48.06300 35.18900 20.80600
H  49.55000 36.20700 20.89700
H  48.05100 36.61100 21.74800
H  50.06800 31.95200 23.81500
H  50.68300 32.64400 22.33700
H  50.25100 30.92100 21.25400
H  48.46100 31.02400 21.53500
H  49.44600 30.07600 22.65500
H  45.32500 30.60500 24.85100
H  44.47800 29.91900 26.30500
H  46.17600 29.52900 25.98800
H  44.35600 33.46900 30.14900
H  45.47700 31.22600 33.81600
H  43.67300 31.40500 33.73700
H  44.61900 32.66000 34.34600

