158

Mg 54.80700 24.48400 43.47800
C  52.42200 27.15700 43.27100
C  52.48800 22.31300 42.42400
C  57.31000 22.24900 43.32600
C  57.24000 27.01000 44.17100
N  52.68500 24.83500 42.68900
C  51.92800 25.88800 42.76100
C  50.58900 25.48300 42.16500
C  50.51900 23.97100 42.40800
C  52.01800 23.64700 42.52300
C  49.82800 23.48000 43.70000
C  50.19800 25.96700 40.76500
C  51.37100 26.28400 39.82900
H  51.33300 25.67200 38.36300
N  54.86200 22.62500 42.93900
C  53.84400 21.81800 42.68300
C  54.17400 20.50700 42.67000
C  55.56000 20.43900 42.75300
C  55.95100 21.85600 42.99100
C  53.12700 19.44100 42.47700
C  56.38500 19.15400 42.69100
O  55.82200 18.04100 42.56300
C  57.82100 19.13700 43.04600
N  57.00400 24.64600 43.68600
C  57.81700 23.51200 43.52800
C  59.34200 23.89500 43.58300
C  59.28900 25.43500 43.95600
C  57.75000 25.75800 43.83200
C  60.43700 23.04600 44.37600
C  60.24100 26.44400 43.16200
C  59.58500 27.16800 41.96800
N  54.78400 26.56100 43.78100
C  55.86400 27.36200 44.19200
C  55.30000 28.65600 44.58100
C  53.95400 28.61600 44.20600
C  53.71100 27.36400 43.72600
C  56.01000 29.83700 45.09600
C  52.75900 29.42400 44.15900
O  52.56500 30.54200 44.55900
C  51.63900 28.48900 43.51000
C  51.07100 29.06900 42.23900
O  51.74100 29.42200 41.29000
O  49.69400 29.05400 42.26600
C  48.95100 29.52500 41.09100
H  51.72000 21.60500 42.10600
H  58.17100 21.59800 43.49000
H  58.05800 27.69700 44.39600
H  49.74100 25.83500 42.75200
H  50.29300 23.26500 41.61000
H  50.49000 22.87100 44.31600
H  48.97600 22.84300 43.46300
H  49.46500 24.29400 44.32800
H  49.63500 26.88100 40.95100
H  49.62600 25.16800 40.29400
H  52.34400 25.99000 40.22300
H  51.45700 27.34800 39.60800
H  53.47000 18.89500 41.59800
H  52.09700 19.74500 42.28900
H  53.11400 18.77700 43.34100
H  58.35300 18.19100 42.94700
H  57.83400 19.42500 44.09700
H  58.40800 19.81700 42.42800
H  59.62500 23.71700 42.54500
H  59.40100 25.74900 44.99400
H  60.47500 23.22200 45.45100
H  61.45600 23.24300 44.04500
H  60.28800 21.96800 44.31500
H  60.98200 25.79900 42.69000
H  60.79800 26.96100 43.94300
H  59.58500 28.22600 42.23100
H  58.71600 26.59500 41.64600
H  60.29800 27.12000 41.14500
H  55.28100 30.60900 45.34400
H  56.75600 30.19900 44.38800
H  56.48800 29.53500 46.02700
H  50.82100 28.32400 44.21200
H  49.12000 30.60100 41.05400
H  47.88000 29.32500 41.05200
H  49.36300 28.99600 40.23200
Mg 36.13400 49.92600 25.01700
C  36.39200 47.86700 28.04000
C  34.60800 52.28800 26.92900
C  35.27100 51.32700 22.23100
C  37.02000 46.97200 23.22400
N  35.70400 50.05200 27.24400
C  35.90100 49.12000 28.28500
C  35.61500 49.80200 29.68100
C  34.87900 51.15600 29.28100
C  35.13000 51.16700 27.71800
C  33.39300 51.10600 29.71800
C  36.92200 50.13300 30.41700
C  37.00000 49.80900 31.93300
H  35.70900 49.40900 32.70800
N  35.24800 51.72600 24.65500
C  34.64600 52.52300 25.57500
C  33.92200 53.60200 24.83200
C  34.11900 53.38700 23.43000
C  34.94100 52.11900 23.38200
C  33.05700 54.65300 25.47600
C  33.58700 54.10100 22.17400
O  33.63100 53.68900 21.00900
C  33.03100 55.50900 22.25600
N  36.23400 49.23800 22.96000
C  35.85300 50.06900 22.00400
C  36.07300 49.54800 20.58300
C  36.54000 48.05800 20.91300
C  36.56400 47.99100 22.45200
C  34.88500 49.62400 19.62700
C  37.99600 47.67100 20.43900
C  39.32800 48.28500 21.05700
N  36.77200 47.84700 25.45500
C  37.15000 46.76600 24.63600
C  37.49800 45.60300 25.37800
C  37.20500 45.93600 26.77500
C  36.74700 47.31500 26.71200
C  38.20900 44.38100 24.93700
C  37.17800 45.51100 28.10400
O  37.39500 44.40600 28.55000
C  36.71000 46.74100 29.04000
C  35.55700 46.23100 29.79800
O  34.35400 46.44600 29.51500
O  35.91600 45.41300 30.88800
C  34.77500 45.08700 31.74500
H  34.22200 53.14500 27.48400
H  34.97400 51.74500 21.26700
H  37.25100 46.12300 22.57900
H  34.95600 49.19600 30.30300
H  35.35600 51.97600 29.81900
H  33.13900 50.19200 30.25400
H  32.83300 51.17800 28.78600
H  33.09900 52.05100 30.17500
H  37.17200 51.18000 30.24900
H  37.69300 49.52100 29.94800
H  37.40600 50.69200 32.42600
H  37.74500 49.01900 32.02300
H  31.97200 54.55800 25.42700
H  33.28000 55.60500 24.99600
H  33.37000 54.82800 26.50500
H  33.82600 56.23800 22.41300
H  32.19000 55.55400 22.94900
H  32.67500 55.71200 21.24600
H  36.85900 50.13200 20.10200
H  35.80000 47.34800 20.54300
H  34.93500 48.83900 18.87200
H  34.71800 50.52700 19.04000
H  34.07400 49.33500 20.29500
H  38.08400 47.93400 19.38500
H  38.07100 46.58500 20.38500
H  39.76800 47.43000 21.57100
H  39.08900 49.11100 21.72700
H  40.01100 48.75300 20.34900
H  38.37300 44.42000 23.86000
H  37.64700 43.45100 25.02800
H  39.18100 44.50300 25.41400
H  37.42900 46.97800 29.82400
H  34.18300 44.35300 31.19900
H  34.14100 45.92500 32.03400
H  35.22400 44.72300 32.66900

