158

Mg 25.79400 0.59200 29.29700
C  27.79400 0.20600 32.11700
C  23.13500 1.31800 31.42700
C  23.90600 0.48000 26.68300
C  28.57100 -0.39400 27.32500
N  25.57600 0.93800 31.51100
C  26.54900 0.75400 32.47000
C  26.00400 1.14500 33.86800
C  24.46500 1.32700 33.61200
C  24.39800 1.16100 32.10300
C  23.39100 0.36100 34.29300
C  26.57000 2.38600 34.51800
C  27.06000 2.11900 35.94500
H  26.70400 3.12600 36.98700
N  23.76800 0.85200 29.07700
C  22.83700 1.16700 30.03400
C  21.53600 1.34800 29.41300
C  21.70300 1.17700 28.03600
C  23.17700 0.79500 27.86800
C  20.32800 1.56100 30.31200
C  20.72400 1.31800 26.86400
O  21.04300 1.13800 25.65900
C  19.39700 1.78700 27.23700
N  26.19800 -0.04400 27.27700
C  25.22200 0.20100 26.36800
C  25.78300 -0.03300 24.90800
C  27.31900 0.18700 25.16900
C  27.36900 -0.16500 26.69700
C  25.51400 -1.43000 24.28200
C  27.92200 1.57900 24.78900
C  28.77500 1.45200 23.51900
N  27.84000 0.02400 29.62000
C  28.82100 -0.44400 28.74400
C  30.00500 -0.70600 29.45900
C  29.67000 -0.38900 30.80400
C  28.35200 -0.03300 30.81100
C  31.30200 -1.26700 28.80600
C  30.18100 -0.27700 32.14100
O  31.30700 -0.47100 32.61700
C  29.03300 0.19100 33.01300
C  28.94500 -0.83300 34.10900
O  28.76500 -2.01200 33.87700
O  29.28200 -0.33300 35.29000
C  29.37900 -1.21800 36.40200
H  22.34000 1.58400 32.12700
H  23.34000 0.46800 25.74900
H  29.41700 -0.49600 26.64300
H  26.17100 0.31800 34.55800
H  23.99500 2.28300 33.84300
H  22.63800 0.99600 34.75900
H  23.77000 -0.20100 35.14600
H  22.86400 -0.29700 33.60200
H  25.73500 3.08700 34.50800
H  27.38400 2.85100 33.96100
H  28.14900 2.11900 35.99500
H  26.73400 1.12500 36.25300
H  19.47800 0.90400 30.12300
H  19.93700 2.56600 30.15200
H  20.54400 1.61900 31.37900
H  19.00900 1.09200 27.98200
H  18.72900 1.63000 26.39000
H  19.40900 2.84800 27.48700
H  25.43300 0.83800 24.35400
H  27.78300 -0.65600 24.65700
H  25.12400 -2.05200 25.08700
H  26.32600 -1.98200 23.80900
H  24.86900 -1.29300 23.41500
H  28.59200 1.82600 25.61300
H  27.28400 2.45300 24.65600
H  29.76500 1.77800 23.83700
H  28.38000 2.15200 22.78300
H  28.75200 0.45800 23.07100
H  30.96100 -1.99900 28.07400
H  31.99400 -1.62800 29.56700
H  31.73500 -0.49600 28.16900
H  29.28000 1.15900 33.45000
H  29.46500 -2.26600 36.11400
H  28.49300 -1.27600 37.03500
H  30.26100 -0.89600 36.95700
Mg 40.82600 41.38000 26.63900
C  40.27500 43.81200 29.20200
C  41.67000 39.15800 29.05800
C  41.75300 39.34000 24.11500
C  40.76000 44.12500 24.33500
N  40.90000 41.50500 28.94000
C  40.69600 42.56100 29.77300
C  40.88500 42.17600 31.18400
C  41.28300 40.69500 31.06800
C  41.27400 40.41500 29.62100
C  42.60100 40.37000 31.82200
C  39.54400 42.53800 31.98300
C  39.18500 41.74700 33.33400
H  38.59900 42.61400 34.51400
N  41.52200 39.48400 26.57300
C  41.81300 38.74500 27.69000
C  42.29200 37.46000 27.28300
C  42.20700 37.40000 25.89200
C  41.75400 38.71500 25.44500
C  42.75700 36.39700 28.25000
C  42.50900 36.18500 24.88700
O  42.33100 36.31400 23.65100
C  42.97500 34.86500 25.44600
N  41.31700 41.70000 24.50700
C  41.52300 40.64600 23.65300
C  41.25600 41.02600 22.22100
C  41.30400 42.57400 22.33900
C  41.03000 42.81500 23.78700
C  42.23500 40.41900 21.09600
C  40.34600 43.33700 21.42600
C  38.87000 43.61400 21.81500
N  40.34100 43.52500 26.61100
C  40.50600 44.44100 25.60100
C  40.24800 45.73400 26.19100
C  40.02800 45.50500 27.56900
C  40.20600 44.18800 27.79300
C  40.33100 47.00000 25.44700
C  39.74700 46.24100 28.77900
O  39.57600 47.38200 29.04400
C  39.95200 45.14200 29.89000
C  41.20600 45.50900 30.67200
O  42.31900 45.44000 30.20900
O  40.92200 45.94900 31.91200
C  42.04000 46.02000 32.82800
H  41.94600 38.47700 29.86600
H  41.82200 38.49100 23.43200
H  40.88900 44.98800 23.67800
H  41.69800 42.83200 31.49600
H  40.41400 40.18900 31.48900
H  42.76300 41.03500 32.67000
H  43.46400 40.52800 31.17600
H  42.57000 39.39900 32.31700
H  38.62300 42.45100 31.40700
H  39.63900 43.54400 32.39400
H  40.06200 41.19700 33.67400
H  38.31700 41.15600 33.04000
H  42.90800 36.80100 29.25100
H  43.71700 35.97400 27.95400
H  41.96900 35.64500 28.23200
H  43.24700 34.10600 24.71300
H  42.12400 34.54200 26.04500
H  43.81100 35.00300 26.13200
H  40.19300 40.82800 22.08400
H  42.31400 42.96000 22.20000
H  41.75700 39.52600 20.69400
H  43.22900 40.12400 21.43100
H  42.40400 41.19200 20.34600
H  40.40900 42.83600 20.46100
H  40.85100 44.26300 21.14900
H  38.23400 43.40800 20.95400
H  38.72800 44.68900 21.92500
H  38.58000 43.09200 22.72700
H  41.05600 47.07900 24.63700
H  40.69500 47.67900 26.21700
H  39.31100 47.29900 25.20500
H  39.10300 45.11900 30.57400
H  42.27500 47.07700 32.95000
H  42.92300 45.44400 32.54900
H  41.76000 45.51400 33.75200

