158

Mg 16.94300 51.98900 25.64200
C  18.87500 50.66400 28.28400
C  14.64700 53.00100 27.88000
C  15.29800 53.38200 23.07300
C  19.53200 50.84300 23.43200
N  16.74300 51.67400 27.92200
C  17.68300 51.24800 28.77400
C  17.22800 51.42300 30.29600
C  15.82300 52.15100 29.99000
C  15.76600 52.33800 28.56300
C  14.57100 51.28300 30.44300
C  18.24000 52.37800 31.07200
C  18.49400 52.16900 32.59600
H  17.43900 51.34700 33.30200
N  15.18300 53.00500 25.49600
C  14.38000 53.37900 26.56300
C  13.37200 54.33400 26.01100
C  13.42900 54.19100 24.55000
C  14.69400 53.50800 24.32000
C  12.37000 55.11000 26.90000
C  12.48900 54.73100 23.46000
O  12.64400 54.56900 22.23100
C  11.34900 55.56900 23.87400
N  17.31800 52.03100 23.49400
C  16.53800 52.80400 22.71700
C  17.19800 53.00200 21.28600
C  18.51100 52.13300 21.47000
C  18.48200 51.64400 22.90500
C  16.29600 52.48900 20.17700
C  19.72300 53.05800 21.31900
C  20.73100 52.49200 20.35400
N  18.62400 50.66000 25.72800
C  19.57300 50.33400 24.74700
C  20.71600 49.71300 25.38300
C  20.40200 49.83600 26.78200
C  19.16400 50.44900 26.93400
C  22.00900 49.38200 24.73900
C  21.02200 49.52400 28.02000
O  22.09200 48.97000 28.19000
C  20.03400 50.04800 29.10400
C  19.67400 48.95300 30.09200
O  18.98400 47.99300 29.88800
O  20.35600 49.19800 31.20200
C  20.17000 48.30800 32.37800
H  14.02400 53.65600 28.49200
H  14.72400 53.63400 22.17900
H  20.27800 50.47800 22.72200
H  17.25600 50.48300 30.84700
H  15.77900 53.11400 30.49900
H  14.35300 50.61700 29.60800
H  13.68600 51.84900 30.73500
H  14.83300 50.62800 31.27400
H  17.85500 53.38900 30.94000
H  19.22100 52.31900 30.60000
H  18.45200 53.10800 33.14900
H  19.42000 51.60300 32.68500
H  12.69100 55.00900 27.93700
H  11.31600 54.84800 26.80500
H  12.49700 56.17000 26.68100
H  10.79100 55.81700 22.97100
H  11.81200 56.45000 24.31700
H  10.71500 54.89400 24.44900
H  17.43600 54.05800 21.15200
H  18.54700 51.30300 20.76400
H  15.77100 51.56900 20.43400
H  16.78500 52.33500 19.21600
H  15.62800 53.30800 19.91000
H  20.18200 53.35700 22.26100
H  19.46500 54.07600 21.02500
H  20.20200 51.70000 19.82500
H  21.59000 52.12200 20.91300
H  21.01700 53.19700 19.57300
H  22.65600 48.89000 25.46500
H  22.47600 50.29700 24.37400
H  21.79900 48.63300 23.97500
H  20.53800 50.85500 29.63500
H  21.00100 47.61500 32.50200
H  19.20000 47.81600 32.29800
H  20.12800 49.00400 33.21600
Mg -2.02700 34.92800 26.29900
C  -3.81300 33.61400 28.90700
C  -0.90400 37.39000 28.39900
C  -0.67000 36.15300 23.65400
C  -3.50100 32.48500 24.17400
N  -2.29300 35.42500 28.48000
C  -3.02000 34.70600 29.35400
C  -2.76100 35.13000 30.77100
C  -1.98300 36.54400 30.57400
C  -1.71200 36.48500 29.04800
C  -2.57000 37.90100 31.07400
C  -2.06900 33.95500 31.58000
C  -2.66700 33.67700 32.92400
H  -1.74200 33.50000 34.12000
N  -0.94200 36.47500 26.06700
C  -0.49800 37.40000 27.01900
C  0.26100 38.43800 26.33400
C  0.43000 37.99200 25.00200
C  -0.40400 36.84400 24.88500
C  0.88500 39.66300 27.01100
C  1.26600 38.63000 23.91400
O  1.33800 38.17500 22.76100
C  2.13000 39.88900 24.18200
N  -2.10200 34.33000 24.17600
C  -1.44000 35.10000 23.27800
C  -1.61700 34.59900 21.85600
C  -2.38900 33.24000 22.11000
C  -2.67400 33.36700 23.52600
C  -2.42300 35.64000 20.96500
C  -1.44700 32.00800 21.77400
C  -0.29400 31.70800 22.72900
N  -3.49500 33.40000 26.37100
C  -3.93100 32.44300 25.47900
C  -4.71200 31.43600 26.20300
C  -4.70600 31.82900 27.58100
C  -3.92700 33.05100 27.57700
C  -5.37500 30.20400 25.53800
C  -5.07400 31.50100 28.93000
O  -5.64200 30.52100 29.37500
C  -4.43500 32.51700 29.81600
C  -5.56800 33.06300 30.65700
O  -6.35700 33.87500 30.29900
O  -5.61700 32.40600 31.82800
C  -6.54800 32.85000 32.87900
H  -0.46300 38.11700 29.08400
H  -0.27100 36.60900 22.74500
H  -3.97100 31.71500 23.55900
H  -3.64000 35.45800 31.32600
H  -1.04600 36.39500 31.11000
H  -2.77600 38.55400 30.22500
H  -1.88700 38.35300 31.79300
H  -3.50900 37.68200 31.58300
H  -1.03900 34.21500 31.82400
H  -1.95500 33.04700 30.98800
H  -3.23700 32.75100 32.85700
H  -3.50900 34.29900 33.22700
H  1.96600 39.52900 26.97700
H  0.59200 39.76800 28.05500
H  0.73900 40.57700 26.43500
H  2.64600 39.96900 23.22500
H  2.76400 39.63400 25.03100
H  1.46400 40.73900 24.32900
H  -0.61900 34.42800 21.45400
H  -3.40000 33.13800 21.71500
H  -2.14200 36.64100 21.29100
H  -3.50500 35.58900 21.08800
H  -2.10300 35.42600 19.94500
H  -0.92900 32.16700 20.82800
H  -2.05000 31.11900 21.59100
H  -0.27700 32.46500 23.51300
H  0.58800 31.54800 22.10800
H  -0.55100 30.74800 23.17600
H  -4.72500 29.81900 24.75200
H  -6.33600 30.49200 25.11200
H  -5.51500 29.42400 26.28700
H  -3.73000 32.02200 30.48300
H  -7.34200 33.54500 32.61000
H  -6.04400 33.29000 33.74000
H  -7.01600 31.95900 33.29900

