158

Mg 49.39700 46.26100 43.00200
C  46.37700 46.94900 41.43900
C  49.61400 43.26400 41.09700
C  52.67700 45.95300 43.76100
C  49.59400 49.76300 43.67900
N  48.11700 45.22400 41.41200
C  46.87300 45.69100 41.01800
C  46.19700 44.53500 40.18000
C  47.16500 43.34300 40.43800
C  48.41500 43.96800 40.95900
C  46.63400 42.23900 41.31600
C  45.88000 45.02300 38.74900
C  44.46800 44.67400 38.26700
H  44.37700 44.18400 36.78200
N  50.86600 44.73300 42.62000
C  50.78300 43.60200 41.80400
C  51.95200 42.78800 42.05700
C  52.79600 43.42500 42.93500
C  52.10800 44.75700 43.18900
C  52.14600 41.46600 41.47900
C  54.15200 42.91100 43.44800
O  54.51500 41.78000 43.19500
C  54.97500 43.62000 44.37400
N  50.88500 47.71900 43.56900
C  52.14200 47.24900 43.89700
C  53.00300 48.35400 44.65000
C  52.07900 49.62500 44.50300
C  50.75700 49.06600 43.90600
C  53.34400 48.11700 46.17900
C  52.61400 50.75200 43.66800
C  52.22600 52.15300 44.14000
N  48.12500 47.88900 42.91300
C  48.32100 49.28200 43.20500
C  47.09900 49.95900 43.07400
C  46.28800 49.08000 42.38700
C  47.02300 47.85600 42.24700
C  46.80000 51.31000 43.42700
C  45.00200 48.97900 41.81000
O  44.07000 49.74600 41.90400
C  45.01500 47.58700 41.04100
C  43.89200 46.71200 41.44900
O  43.83300 45.97000 42.44300
O  42.89300 46.93400 40.57200
C  41.59900 46.29900 40.89800
H  49.57000 42.20000 40.85400
H  53.62900 45.85300 44.28700
H  49.65600 50.81700 43.95700
H  45.24300 44.32500 40.66400
H  47.49600 42.90400 39.49700
H  47.40000 41.46400 41.30400
H  45.68000 41.85400 40.95600
H  46.63100 42.53100 42.36600
H  46.62200 44.69100 38.02200
H  46.00900 46.10400 38.78500
H  43.87900 45.58900 38.20000
H  43.92700 43.94600 38.87200
H  52.66000 41.65000 40.53600
H  51.18900 40.98700 41.27000
H  52.63700 40.79200 42.18100
H  55.41700 44.51100 43.92700
H  55.71800 42.95900 44.82200
H  54.25600 43.90400 45.14300
H  53.91800 48.44700 44.06400
H  51.87900 50.11100 45.45800
H  52.74900 48.65700 46.91600
H  54.36200 48.47900 46.32600
H  53.44300 47.04300 46.33100
H  52.07400 50.65500 42.72600
H  53.66400 50.58200 43.43000
H  52.93400 52.96500 43.97400
H  52.00300 52.18900 45.20600
H  51.31800 52.41400 43.59700
H  47.18000 51.95200 42.63300
H  47.38700 51.57100 44.30700
H  45.76700 51.63200 43.56000
H  44.96500 47.77200 39.96800
H  41.12500 46.62300 41.82500
H  41.66300 45.21300 40.84400
H  40.92300 46.53000 40.07500
Mg 1.12000 42.36700 25.50200
C  2.64400 42.50600 28.73900
C  -1.71100 41.09400 27.01300
C  -0.02200 41.78800 22.53900
C  4.16800 43.77200 24.22200
N  0.53700 41.83000 27.72000
C  1.28100 42.11400 28.81000
C  0.47400 41.96400 30.10600
C  -0.88700 41.40500 29.50000
C  -0.70200 41.46200 27.97300
C  -1.21700 39.89900 29.98000
C  0.40600 43.10700 31.14300
C  0.68400 42.63100 32.62100
H  -0.45100 43.00500 33.67300
N  -0.59200 41.56400 24.89900
C  -1.64800 41.19900 25.63100
C  -2.71700 40.61500 24.72100
C  -2.26700 40.86800 23.38800
C  -0.92000 41.44600 23.57600
C  -3.95100 39.83700 25.17100
C  -2.91300 40.62100 22.07400
O  -2.37300 40.90700 21.00900
C  -4.21200 39.90900 21.89700
N  1.98300 42.71900 23.62300
C  1.33400 42.23100 22.49800
C  2.13400 42.55400 21.31300
C  3.22600 43.56300 21.77600
C  3.13100 43.40600 23.32700
C  2.51600 41.45800 20.31800
C  3.03900 44.95000 21.20100
C  3.31900 45.10400 19.75300
N  2.94900 43.03400 26.26100
C  4.11500 43.52000 25.59200
C  5.17200 43.73800 26.55700
C  4.63000 43.36900 27.76100
C  3.30800 42.86700 27.56400
C  6.62100 44.15700 26.23600
C  4.98800 43.09100 29.15200
O  6.02200 43.25200 29.74100
C  3.67100 42.69600 29.87500
C  3.79400 41.56300 30.81300
O  3.88900 40.37100 30.43900
O  3.67200 42.04400 32.08300
C  3.69300 41.12000 33.17700
H  -2.74100 40.95200 27.34700
H  -0.39000 41.77400 21.51100
H  5.05700 44.21200 23.76700
H  0.97000 41.07900 30.50400
H  -1.65100 42.09200 29.86300
H  -0.59000 39.51100 30.78200
H  -1.32600 39.22200 29.13200
H  -2.23000 39.84500 30.37700
H  -0.63800 43.41400 31.20700
H  0.92400 44.01100 30.82300
H  1.51500 43.19200 33.04700
H  0.79100 41.55400 32.74400
H  -3.85100 38.90500 24.61400
H  -4.93300 40.23000 24.90600
H  -3.99500 39.69900 26.25200
H  -3.85600 38.89100 22.05500
H  -4.54100 40.08400 20.87300
H  -5.05300 40.24700 22.50200
H  1.49300 43.23800 20.75600
H  4.21200 43.21600 21.46600
H  2.62200 40.48200 20.79300
H  3.44700 41.64500 19.78300
H  1.72800 41.42300 19.56600
H  3.71000 45.61600 21.74400
H  2.05400 45.21500 21.58600
H  3.90800 46.01900 19.68500
H  2.37800 45.24400 19.22000
H  3.79100 44.22300 19.31800
H  6.98300 44.01000 25.21900
H  7.17500 43.48700 26.89500
H  6.81700 45.17900 26.56100
H  3.55200 43.52900 30.56700
H  2.81300 41.40700 33.75200
H  4.63500 41.12300 33.72500
H  3.50900 40.10200 32.83300

