158

Mg 17.23900 -1.34100 28.40200
C  16.16600 0.64400 30.97900
C  19.46500 -2.96400 30.65300
C  18.89400 -2.79700 25.84300
C  15.68200 0.76600 26.16600
N  17.79900 -1.18500 30.53700
C  17.08000 -0.32900 31.43300
C  17.53800 -0.67100 32.92500
C  18.74300 -1.70100 32.75700
C  18.71500 -1.93700 31.18500
C  20.11200 -1.23000 33.26600
C  16.30000 -1.15700 33.81400
C  16.30200 -0.83600 35.33500
H  17.63800 -0.79400 36.06300
N  18.78600 -2.87700 28.32300
C  19.53400 -3.45600 29.31500
C  20.37000 -4.54000 28.81000
C  20.18100 -4.55200 27.35400
C  19.29500 -3.37400 27.12500
C  21.29700 -5.30800 29.75900
C  20.74000 -5.54400 26.30600
O  20.42400 -5.41800 25.12300
C  21.64500 -6.68500 26.69800
N  17.29500 -0.99100 26.32300
C  18.04500 -1.78400 25.49700
C  17.76700 -1.39200 23.95400
C  16.63500 -0.28800 24.02400
C  16.48900 -0.20800 25.57800
C  19.07700 -0.89900 23.21100
C  15.35600 -0.66000 23.25800
C  14.09500 -1.22200 23.98700
N  16.10700 0.41600 28.49600
C  15.49100 1.13500 27.53300
C  14.73500 2.20000 28.15400
C  15.02800 2.07100 29.52300
C  15.90500 0.93400 29.63800
C  13.82400 3.24700 27.48400
C  14.67100 2.67400 30.77100
O  13.91500 3.55500 31.14500
C  15.33700 1.69300 31.78000
C  16.26000 2.55900 32.66700
O  17.20100 3.16700 32.29800
O  15.92100 2.52400 33.98900
C  16.83500 3.24100 34.92300
H  20.02900 -3.43800 31.46000
H  19.35400 -3.29100 24.98400
H  15.05600 1.42800 25.56400
H  17.85600 0.26300 33.38700
H  18.47200 -2.62400 33.26900
H  20.43600 -1.83600 34.11300
H  19.98800 -0.20000 33.60000
H  20.83400 -1.18800 32.45000
H  16.44000 -2.23800 33.81600
H  15.41100 -0.84400 33.26600
H  15.67300 -1.65800 35.67700
H  15.70000 0.07200 35.38200
H  22.33700 -5.26800 29.43400
H  20.94000 -6.33100 29.87400
H  21.29600 -4.80000 30.72300
H  22.02500 -6.68000 27.72000
H  22.51000 -6.70200 26.03400
H  20.94000 -7.50800 26.58900
H  17.39700 -2.29300 23.46500
H  16.97900 0.70000 23.72000
H  18.94300 0.08300 22.75700
H  19.35000 -1.67200 22.49200
H  19.85800 -0.76200 23.95900
H  15.58000 -1.31900 22.42000
H  15.13300 0.28300 22.76100
H  13.26700 -0.51400 24.02100
H  14.38100 -1.52600 24.99400
H  13.79700 -2.04700 23.34000
H  12.92600 3.17700 28.09800
H  13.57700 3.06100 26.43900
H  14.39900 4.16800 27.57900
H  14.57400 1.20700 32.38700
H  16.22300 3.83500 35.60200
H  17.50900 3.90600 34.38300
H  17.45100 2.59400 35.54800
Mg -1.64100 34.97700 26.92700
C  -3.56100 33.14200 29.28200
C  -0.77200 36.97200 29.51700
C  -0.27100 36.87300 24.75500
C  -2.83200 32.76700 24.36300
N  -1.97200 34.93400 29.24800
C  -2.81600 34.11800 29.93200
C  -2.85600 34.44800 31.43500
C  -2.20800 35.93100 31.40100
C  -1.53600 35.93800 30.01300
C  -3.25800 37.06400 31.51500
C  -2.15000 33.48400 32.42600
C  -2.83700 33.20000 33.81500
H  -2.93200 34.41000 34.83300
N  -0.67600 36.65200 27.11900
C  -0.40100 37.36000 28.25800
C  0.38600 38.51800 27.90100
C  0.61400 38.51400 26.51200
C  -0.07000 37.32600 26.07900
C  0.83900 39.63500 28.91100
C  1.28700 39.47800 25.62700
O  1.40800 39.34200 24.44000
C  1.85800 40.63700 26.28600
N  -1.51500 34.86500 24.83800
C  -0.96400 35.80100 24.13600
C  -0.70400 35.33400 22.69300
C  -1.34100 33.91800 22.60200
C  -1.92700 33.83000 24.00200
C  -1.15500 36.40900 21.62900
C  -0.35600 32.81800 22.27500
C  0.14700 31.86200 23.30900
N  -2.90600 33.34100 26.82400
C  -3.31600 32.55000 25.69800
C  -4.21200 31.48100 26.14400
C  -4.31900 31.66900 27.53400
C  -3.55600 32.82800 27.90600
C  -4.81600 30.36700 25.32700
C  -4.90900 31.13600 28.73900
O  -5.65400 30.20000 28.95300
C  -4.38200 32.05800 29.96200
C  -5.52700 32.54500 30.64300
O  -6.25700 33.45500 30.30000
O  -5.88400 31.67500 31.64600
C  -6.85300 32.20300 32.62500
H  -0.37200 37.58000 30.33100
H  0.27300 37.55600 24.10000
H  -3.13000 32.17100 23.49800
H  -3.92400 34.49300 31.65000
H  -1.44000 35.98900 32.17200
H  -4.25300 36.70500 31.25100
H  -3.07300 37.85100 30.78300
H  -3.30400 37.59300 32.46700
H  -1.15200 33.87000 32.63200
H  -2.17300 32.52200 31.91400
H  -2.27100 32.38700 34.27100
H  -3.86800 32.85300 33.87800
H  1.92800 39.60800 28.87600
H  0.57700 39.38900 29.94000
H  0.40200 40.61700 28.72800
H  1.12100 41.30200 26.73600
H  2.29800 41.18100 25.45100
H  2.63400 40.26300 26.95500
H  0.37700 35.19400 22.71300
H  -2.19900 33.96300 21.93100
H  -1.69100 37.23300 22.10000
H  -1.88700 36.03100 20.91600
H  -0.25200 36.70100 21.09300
H  0.43700 33.28900 21.69400
H  -0.78000 32.07000 21.60500
H  0.25000 32.33200 24.28700
H  1.11800 31.50300 22.96800
H  -0.54500 31.02000 23.32000
H  -4.57400 30.42200 24.26600
H  -5.86700 30.51500 25.57600
H  -4.41200 29.41200 25.66200
H  -3.70000 31.41100 30.51300
H  -7.81500 32.47500 32.19100
H  -6.51000 33.14700 33.04800
H  -6.93400 31.49000 33.44600

