158

Mg 23.90300 -7.50600 46.89700
C  26.66100 -5.66200 45.77600
C  22.00100 -6.06400 44.40300
C  21.55300 -9.76700 47.55900
C  26.28300 -9.45400 48.75400
N  24.40500 -6.16900 45.07100
C  25.55800 -5.47600 44.97400
C  25.41800 -4.43900 43.89400
C  23.91900 -4.62700 43.33100
C  23.37200 -5.62700 44.35400
C  23.19800 -3.24400 43.28600
C  26.46900 -4.73300 42.74300
C  27.07100 -3.51600 42.04500
H  26.85500 -3.32000 40.62200
N  21.99100 -7.87200 46.05000
C  21.35100 -7.10500 45.12900
C  19.93000 -7.54300 45.12900
C  19.78800 -8.57500 46.09800
C  21.11400 -8.79600 46.60200
C  18.91000 -6.94200 44.35100
C  18.50100 -9.30200 46.42700
O  17.44800 -9.04100 45.84600
C  18.56600 -10.61600 47.21600
N  23.93000 -9.32600 47.97200
C  22.75700 -10.12300 48.14000
C  23.10400 -11.43600 48.89800
C  24.49600 -11.10800 49.38800
C  24.94900 -9.84500 48.70500
C  22.11800 -11.87600 50.02100
C  25.38400 -12.37700 49.50200
C  25.84000 -13.02200 48.17400
N  26.01900 -7.45300 47.41500
C  26.84600 -8.39200 48.11000
C  28.20500 -7.96000 48.15400
C  28.18200 -6.81800 47.26400
C  26.83800 -6.66900 46.81100
C  29.27200 -8.43200 48.99600
C  28.93700 -5.71200 46.81200
O  30.13300 -5.38100 46.97900
C  28.00300 -4.95900 45.64000
C  27.95000 -3.56400 45.91800
O  27.20900 -2.91200 46.67100
O  28.82600 -2.95400 45.09400
C  28.90900 -1.50200 45.21300
H  21.41500 -5.49400 43.67900
H  20.88000 -10.56800 47.87100
H  26.99900 -10.14900 49.19700
H  25.56500 -3.50200 44.43000
H  23.91500 -5.07400 42.33700
H  22.76800 -3.13300 42.29100
H  24.01700 -2.53700 43.42200
H  22.43600 -3.18100 44.06200
H  26.04200 -5.37700 41.97400
H  27.17500 -5.42100 43.20800
H  28.16000 -3.55100 42.06800
H  26.82600 -2.62400 42.62300
H  18.52500 -7.69000 43.65800
H  19.23800 -6.01400 43.88300
H  18.10500 -6.55700 44.97800
H  18.82200 -10.38800 48.25000
H  19.26200 -11.29100 46.71900
H  17.62800 -11.15500 47.07800
H  22.99800 -12.22100 48.15000
H  24.30200 -10.88100 50.43600
H  21.49200 -11.02200 50.28000
H  22.68300 -12.11200 50.92300
H  21.62300 -12.77200 49.64800
H  25.01500 -13.13600 50.19100
H  26.31200 -12.05700 49.97700
H  26.91800 -12.92500 48.30700
H  25.42400 -12.58400 47.26700
H  25.47900 -14.05000 48.17900
H  29.03200 -8.60300 50.04500
H  30.00800 -7.62900 48.96400
H  29.65300 -9.41400 48.71700
H  28.51100 -5.18400 44.70100
H  28.85600 -1.11600 46.23100
H  28.15300 -1.03900 44.57900
H  29.84000 -1.15800 44.76300
Mg 30.75700 59.28800 38.83100
C  27.83200 57.37600 38.10700
C  32.59600 56.52000 38.17600
C  33.37700 61.18900 38.79700
C  28.62600 62.03200 39.26200
N  30.21800 57.26800 37.91700
C  28.94700 56.66700 37.92200
C  29.09500 55.21200 37.43400
C  30.55000 54.86800 37.99900
C  31.20900 56.31700 38.04800
C  30.54700 54.41400 39.48400
C  28.77300 55.14400 35.85600
C  27.55500 54.34100 35.46500
H  26.71100 55.03300 34.33600
N  32.65200 58.98300 38.28100
C  33.23500 57.71900 38.10500
C  34.64400 57.84200 37.82200
C  34.94800 59.26500 38.03000
C  33.62900 59.90500 38.40000
C  35.57900 56.71500 37.53200
C  36.34400 59.90800 37.93600
O  37.23200 59.11700 37.63500
C  36.69800 61.37000 38.26600
N  31.00300 61.32900 38.98300
C  32.19300 61.87000 39.11300
C  32.11000 63.35200 39.43500
C  30.58700 63.60100 39.67700
C  30.02300 62.23600 39.27400
C  33.06200 63.73600 40.64100
C  29.98000 64.73600 38.80900
C  28.87600 65.62400 39.43000
N  28.66200 59.66400 38.83500
C  27.97200 60.80900 39.06200
C  26.58300 60.56300 38.87200
C  26.40400 59.25600 38.51500
C  27.73300 58.72300 38.52300
C  25.43000 61.48900 39.06200
C  25.42800 58.26200 38.09700
O  24.17200 58.28000 38.12100
C  26.37600 56.97300 37.81100
C  26.02000 55.82900 38.67100
O  26.29000 55.71500 39.84800
O  25.23400 54.90400 38.02200
C  24.37200 54.13900 38.90400
H  33.16600 55.58900 38.19700
H  34.20400 61.90000 38.83900
H  27.99900 62.89300 39.50300
H  28.41100 54.60700 38.02900
H  31.11700 54.24200 37.31000
H  29.61900 53.91800 39.76700
H  30.64400 55.30500 40.10400
H  31.39800 53.73800 39.56900
H  29.73200 54.79700 35.47200
H  28.61200 56.11400 35.38600
H  27.00800 54.18900 36.39500
H  27.97500 53.43200 35.03500
H  35.13000 55.80300 37.14000
H  36.19900 56.39100 38.36800
H  36.24500 57.01300 36.72200
H  37.75000 61.47600 37.99900
H  36.51400 61.74600 39.27200
H  36.07800 61.92400 37.56100
H  32.44200 63.94600 38.58400
H  30.32000 63.75500 40.72300
H  34.02600 64.04300 40.23500
H  33.25800 62.89700 41.30900
H  32.59400 64.50200 41.25800
H  29.58700 64.30100 37.89000
H  30.74800 65.44700 38.50500
H  29.16900 66.59100 39.84000
H  28.34400 65.09800 40.22200
H  28.27700 65.83100 38.54300
H  24.87900 61.72700 38.15200
H  25.64700 62.24200 39.81900
H  24.72500 60.83600 39.57500
H  26.27500 56.68900 36.76300
H  23.99900 53.29600 38.32300
H  23.44800 54.70700 39.01400
H  24.72800 53.73100 39.84900

