158

Mg 8.96900 4.12800 27.86400
C  10.32700 2.39300 30.58700
C  7.14000 6.01000 30.10900
C  7.30000 5.73800 25.25200
C  10.21400 1.78200 25.68500
N  8.68100 4.07000 30.08900
C  9.47800 3.41800 30.99000
C  9.17200 3.94200 32.43500
C  8.12400 5.01300 32.19900
C  7.97000 5.08200 30.68400
C  6.69600 4.77300 32.93400
C  10.44900 4.39200 33.26900
C  10.28600 5.44400 34.41400
H  10.83900 5.24400 35.78600
N  7.58300 5.81100 27.72800
C  7.03100 6.45500 28.74900
C  6.22300 7.54200 28.24100
C  6.21200 7.42200 26.82500
C  7.06100 6.29700 26.49900
C  5.47500 8.61000 29.16400
C  5.51100 8.26600 25.84100
O  5.75000 8.06200 24.66800
C  4.77500 9.51200 26.27300
N  8.74600 3.74300 25.74900
C  8.01400 4.56400 24.91900
C  8.05100 4.04800 23.47500
C  8.94000 2.78700 23.55300
C  9.36500 2.75200 25.02300
C  6.62800 3.80900 22.83800
C  10.12500 2.81100 22.59900
C  10.42400 1.42000 22.03400
N  10.02900 2.46300 28.07400
C  10.58200 1.66100 27.06500
C  11.54100 0.78200 27.71100
C  11.48200 1.06900 29.04700
C  10.50100 2.04900 29.22900
C  12.22400 -0.35300 26.88200
C  12.00300 0.72900 30.36200
O  12.92700 -0.06200 30.68300
C  11.28900 1.66100 31.42400
C  10.82400 0.89900 32.58900
O  9.87200 0.08800 32.59700
O  11.77300 0.97200 33.58600
C  11.50200 0.26100 34.79300
H  6.72700 6.81000 30.72600
H  6.91500 6.20600 24.34300
H  10.66400 1.07600 24.98400
H  8.69500 3.13600 32.99300
H  8.46800 6.03400 32.36500
H  6.70000 4.32200 33.92700
H  6.11300 4.19100 32.22000
H  6.21000 5.73500 33.09900
H  11.21300 4.79500 32.60400
H  10.81000 3.56400 33.88000
H  9.21200 5.48700 34.59400
H  10.77000 6.32800 33.99800
H  4.41800 8.68900 28.91200
H  5.87000 9.62100 29.06400
H  5.59800 8.19300 30.16400
H  3.74000 9.43500 26.60800
H  4.76800 10.15600 25.39300
H  5.41000 10.06500 26.96500
H  8.54500 4.87500 22.96500
H  8.36300 1.89000 23.32800
H  5.88200 3.75400 23.63200
H  6.55400 2.85000 22.32600
H  6.38900 4.66700 22.21000
H  10.97800 3.07300 23.22500
H  9.94500 3.48800 21.76400
H  11.30200 1.09000 22.58900
H  10.65000 1.48400 20.97000
H  9.65600 0.64800 22.07900
H  13.15200 -0.58800 27.40300
H  12.53600 -0.16300 25.85500
H  11.53100 -1.19400 26.90100
H  12.06400 2.29600 31.85200
H  10.90100 0.97500 35.35500
H  12.39800 0.06400 35.38200
H  10.97700 -0.69400 34.81000
Mg 48.92900 34.19100 27.02800
C  46.43800 33.00900 29.27900
C  49.42900 36.88200 28.98000
C  50.80200 35.47300 24.61100
C  47.96800 31.50500 24.92900
N  48.01900 34.83500 28.89100
C  47.14400 34.15900 29.71500
C  47.07400 34.81800 31.04400
C  47.76200 36.21900 30.73400
C  48.46200 35.98300 29.43400
C  46.85800 37.50300 30.63400
C  47.81500 33.91700 32.05400
C  47.48900 33.99300 33.54200
H  46.50900 34.94400 34.15600
N  50.11500 35.98200 26.82900
C  50.22200 36.92600 27.79900
C  51.19400 37.93900 27.42600
C  51.65000 37.53900 26.09000
C  50.82400 36.28700 25.74200
C  51.59500 39.11200 28.28100
C  52.80100 38.19000 25.17400
O  53.14100 37.65400 24.10700
C  53.58800 39.37800 25.72600
N  49.07400 33.65100 24.95000
C  50.13200 34.30800 24.28700
C  50.43000 33.63900 22.97600
C  49.68400 32.20100 23.15400
C  48.86800 32.42800 24.45600
C  49.72600 34.32700 21.69000
C  50.64600 30.94500 23.31100
C  52.14400 31.10400 22.99500
N  47.49500 32.55200 27.04200
C  47.18200 31.59100 26.12500
C  46.14900 30.67900 26.62800
C  45.79100 31.26400 27.80500
C  46.61000 32.35800 28.04300
C  45.53300 29.50500 25.86000
C  44.88200 31.13000 28.84900
O  44.01300 30.30900 29.06200
C  45.18300 32.30100 29.88400
C  45.48700 31.65200 31.14000
O  46.28600 30.74000 31.35100
O  44.60600 32.15100 31.99100
C  44.58200 31.53400 33.31000
H  49.62400 37.71300 29.66200
H  51.28700 35.92700 23.74400
H  47.75400 30.63200 24.30800
H  46.02700 34.77400 31.34500
H  48.48700 36.49400 31.50000
H  47.14700 38.20700 31.41500
H  45.87300 37.08700 30.84500
H  46.78700 37.98300 29.65800
H  48.87200 34.16700 31.95900
H  47.63300 32.86100 31.85400
H  48.40900 34.15400 34.10300
H  47.11000 33.00200 33.79200
H  50.87400 39.28500 29.08000
H  51.64200 40.08400 27.78900
H  52.56000 39.02700 28.78000
H  52.95000 40.25400 25.85000
H  54.24600 39.82200 24.97900
H  54.18800 39.22300 26.62300
H  51.50400 33.72900 22.81800
H  48.96400 32.01300 22.35700
H  49.96300 33.74400 20.80000
H  50.21200 35.29900 21.61300
H  48.65000 34.39100 21.85600
H  50.17600 30.06600 22.87000
H  50.68900 30.71400 24.37600
H  52.74900 31.65100 23.71900
H  52.16400 31.46400 21.96700
H  52.48400 30.07300 23.09600
H  44.88400 28.92800 26.51900
H  46.39700 28.92000 25.54600
H  44.95000 29.88700 25.02200
H  44.42200 33.08100 29.91000
H  45.58000 31.59000 33.74300
H  44.33600 30.47400 33.24300
H  43.92600 32.07800 33.98900

