158

Mg 53.96700 24.53400 43.86400
C  51.38300 26.90600 43.27900
C  51.65600 21.99800 43.01500
C  56.50600 22.44300 43.82800
C  55.97600 27.15800 44.75700
N  51.87300 24.53800 43.15900
C  51.05000 25.59200 42.92600
C  49.56100 25.16300 42.57600
C  49.65700 23.59400 42.72200
C  51.15200 23.30100 43.07800
C  48.63200 22.91000 43.69000
C  49.04900 25.69600 41.28500
C  50.02100 25.85900 40.04900
H  49.97000 24.90500 38.87200
N  54.02500 22.52700 43.55700
C  52.99900 21.65900 43.22800
C  53.56200 20.37700 43.09900
C  54.98600 20.37800 43.40700
C  55.24000 21.83200 43.57700
C  52.67900 19.27500 42.64400
C  55.95200 19.21800 43.43500
O  55.50200 18.16700 43.02300
C  57.46700 19.24200 43.84900
N  55.94700 24.80600 44.01400
C  56.83100 23.82300 43.99500
C  58.31500 24.30200 44.33400
C  58.04600 25.77500 44.57600
C  56.55600 25.94600 44.35700
C  58.92800 23.53500 45.49400
C  59.00800 26.77300 43.72100
C  58.52800 26.97500 42.23700
N  53.86600 26.68300 43.78300
C  54.71800 27.58900 44.43300
C  54.14900 28.84300 44.58000
C  52.84300 28.68700 44.17600
C  52.67800 27.27000 43.70200
C  54.76800 30.12300 45.14900
C  51.51400 29.27900 44.00500
O  51.11100 30.43800 44.25100
C  50.55400 28.11900 43.40900
C  50.10200 28.72400 42.10600
O  50.87100 28.89200 41.14900
O  48.82200 29.20500 42.07500
C  48.36100 29.90500 40.90800
H  50.95000 21.21700 42.72200
H  57.40800 21.82700 43.83600
H  56.72500 27.89100 45.06300
H  48.92400 25.46800 43.40600
H  49.48300 23.12900 41.75200
H  47.81100 23.61600 43.81400
H  49.09500 22.55900 44.61200
H  48.26500 21.97000 43.27700
H  48.56800 26.64100 41.53500
H  48.28000 24.96600 41.03000
H  50.99400 25.60700 40.46900
H  50.12500 26.83600 39.57700
H  53.24100 18.64700 41.95300
H  51.84600 19.67300 42.06500
H  52.34100 18.76300 43.54600
H  57.59100 18.20400 44.15900
H  57.69900 19.84700 44.72500
H  57.97100 19.37000 42.89100
H  58.86700 24.12800 43.41000
H  58.27800 25.95000 45.62700
H  59.23200 24.29100 46.21800
H  59.74200 22.89600 45.15200
H  58.09100 22.94700 45.87100
H  59.97500 26.31400 43.51400
H  59.12800 27.66700 44.33300
H  58.42700 28.00800 41.90500
H  57.57400 26.50300 42.00400
H  59.24500 26.48400 41.57800
H  53.99900 30.81500 44.80500
H  55.79200 30.28100 44.81300
H  54.77600 29.96300 46.22700
H  49.73200 27.99000 44.11400
H  47.38200 30.33500 41.12200
H  48.36000 29.22300 40.05700
H  49.01100 30.76200 40.73200
Mg 50.63000 48.04300 43.70000
C  47.49100 49.03700 42.41900
C  50.41900 45.12700 41.88900
C  53.83000 47.40600 44.24600
C  51.02400 51.31300 45.03600
N  49.11400 47.14200 42.42700
C  47.93000 47.73300 41.94300
C  47.12800 46.71600 41.08600
C  48.10100 45.42600 41.05300
C  49.28600 45.93500 41.85100
C  47.47000 44.09300 41.58900
C  46.59000 47.23800 39.65000
C  45.06700 47.23200 39.46400
H  44.59200 46.60300 38.14600
N  51.85600 46.25800 43.46400
C  51.61400 45.26300 42.62100
C  52.73900 44.44000 42.51700
C  53.70000 45.00100 43.38000
C  53.18900 46.30000 43.72000
C  52.76600 43.17200 41.62300
C  55.04400 44.43600 43.71700
O  55.27700 43.27700 43.29600
C  56.10900 45.13700 44.56600
N  52.23100 49.29700 44.45200
C  53.50000 48.73600 44.63900
C  54.35800 49.67400 45.46900
C  53.48800 51.01000 45.66500
C  52.19000 50.56200 45.01200
C  55.04800 49.12200 46.85400
C  54.00700 52.24800 44.95100
C  54.29100 53.48200 45.85800
N  49.43700 49.77800 43.85200
C  49.77000 51.02000 44.47600
C  48.64700 51.89800 44.27300
C  47.74700 51.19200 43.50900
C  48.29400 49.88400 43.21400
C  48.49500 53.30200 44.68100
C  46.39100 51.16700 42.92000
O  45.51500 52.01500 42.90400
C  46.18800 49.80000 42.25300
C  45.02700 49.04700 42.75700
O  45.07600 48.26600 43.68500
O  43.91100 49.16600 41.94500
C  42.74700 48.37000 42.25300
H  50.26300 44.32000 41.17100
H  54.90500 47.21300 44.26900
H  50.94700 52.32800 45.43100
H  46.36700 46.50600 41.83800
H  48.50200 45.26600 40.05200
H  47.56500 43.34600 40.80000
H  46.41600 44.28600 41.79300
H  47.93100 43.70100 42.49500
H  46.97700 46.58900 38.86400
H  46.93200 48.27100 39.58900
H  44.82900 48.29500 39.45000
H  44.59000 46.65800 40.25900
H  53.80300 42.92200 41.39800
H  52.23200 43.40000 40.70100
H  52.25200 42.38400 42.17400
H  56.47600 45.97100 43.96900
H  56.89400 44.39400 44.71000
H  55.61200 45.51400 45.45900
H  55.20700 49.94500 44.84200
H  53.31000 51.13400 46.73300
H  56.13300 49.17400 46.94100
H  54.71500 48.08700 46.93600
H  54.64900 49.63600 47.72800
H  53.39500 52.62800 44.13300
H  55.00900 52.05400 44.57000
H  53.80700 53.29000 46.81600
H  53.83300 54.35100 45.38500
H  55.37300 53.48700 45.99100
H  48.55600 54.00900 43.85400
H  49.28300 53.52900 45.39900
H  47.57100 53.51500 45.21800
H  45.87600 49.92000 41.21500
H  42.46200 48.26500 43.30000
H  42.96100 47.40100 41.80300
H  41.94800 48.84100 41.67900

