158

Mg 47.09700 24.77600 28.84100
C  47.86800 27.25800 31.32500
C  45.94100 22.73800 31.37600
C  46.66600 22.48600 26.55900
C  48.53800 26.95200 26.45200
N  46.87600 24.98500 31.13300
C  47.33100 26.03700 31.92900
C  46.89300 25.77800 33.39800
C  46.69100 24.21900 33.43400
C  46.43600 23.96700 31.89100
C  47.88100 23.37400 34.01600
C  45.73900 26.65100 33.92500
C  45.85200 27.48900 35.23700
H  46.54100 26.73500 36.40800
N  46.22800 22.90200 28.88300
C  45.78300 22.26200 30.03800
C  45.22600 21.00100 29.62400
C  45.49500 20.89100 28.21200
C  46.20200 22.08900 27.83600
C  44.62300 19.99300 30.60000
C  45.19800 19.77500 27.20700
O  45.46300 19.80800 26.01700
C  44.41900 18.65900 27.67200
N  47.40400 24.80200 26.69500
C  47.34100 23.63200 26.06000
C  48.17800 23.62100 24.79200
C  48.51600 25.12000 24.58900
C  48.16300 25.68900 25.98100
C  49.44800 22.66200 24.75800
C  47.63800 25.86100 23.46900
C  48.38700 26.41900 22.23800
N  48.08300 26.65500 28.85700
C  48.36100 27.49200 27.76900
C  48.92000 28.74000 28.28800
C  48.60200 28.70700 29.64000
C  48.14100 27.39900 29.93500
C  49.64500 29.80400 27.52400
C  48.69900 29.45300 30.85900
O  49.12000 30.58200 30.99900
C  48.20500 28.55500 31.98500
C  49.27800 28.34900 33.03400
O  50.21600 27.60900 33.05700
O  49.06700 29.33500 33.97700
C  49.83400 29.13500 35.20700
H  45.54800 22.08300 32.15600
H  46.64200 21.65800 25.84700
H  49.11200 27.48000 25.68800
H  47.79100 26.02800 33.96300
H  45.82300 23.98200 34.04900
H  48.65800 23.94500 34.52400
H  48.34500 22.75100 33.25100
H  47.39100 22.67800 34.69700
H  44.88700 26.04000 34.22200
H  45.32900 27.34400 33.19000
H  44.84300 27.80500 35.50200
H  46.38100 28.38800 34.92000
H  43.89600 19.33400 30.12700
H  44.12800 20.55100 31.39400
H  45.52500 19.61100 31.07900
H  44.94300 18.28600 28.55200
H  44.27300 17.97600 26.83500
H  43.45000 19.10700 27.88700
H  47.57300 23.24200 23.96800
H  49.59600 25.20800 24.47200
H  49.25800 21.74800 24.19400
H  49.66500 22.35900 25.78200
H  50.32500 23.18800 24.38000
H  47.08800 26.65300 23.97600
H  46.91900 25.17800 23.01600
H  48.76200 25.62100 21.59700
H  49.25100 26.97800 22.59800
H  47.77700 27.15900 21.72000
H  49.26100 30.80000 27.74500
H  49.26800 29.71900 26.50500
H  50.68100 29.51800 27.70200
H  47.30400 29.04200 32.35800
H  50.91800 29.16200 35.09000
H  49.45600 28.26500 35.74500
H  49.72000 29.91600 35.95800
Mg 47.68800 35.21400 28.16400
C  45.82000 33.37800 30.41200
C  47.70400 37.84100 30.47700
C  49.09300 37.22000 25.77000
C  47.72200 32.45700 25.97200
N  47.00000 35.52300 30.30600
C  46.25900 34.56200 31.00700
C  46.26800 34.88000 32.47100
C  46.48000 36.43100 32.36200
C  47.07100 36.69000 30.93300
C  45.12200 37.08200 32.52400
C  47.61900 34.29400 33.04500
C  48.09500 34.71700 34.41400
H  47.21000 35.44400 35.40000
N  48.38200 37.21100 28.14800
C  48.29900 38.09600 29.17200
C  48.86000 39.33400 28.71400
C  49.34100 39.19900 27.39100
C  48.92000 37.83800 27.06000
C  48.85600 40.60700 29.59600
C  50.21800 40.10000 26.52600
O  50.48200 39.87800 25.32300
C  50.77400 41.35200 27.12500
N  48.28000 34.85000 26.20200
C  48.85500 35.84100 25.40200
C  49.36300 35.28400 24.13800
C  48.94300 33.77200 24.23300
C  48.30900 33.63200 25.61100
C  48.68500 36.05100 22.95400
C  49.95900 32.78200 23.75600
C  50.02000 32.55100 22.19900
N  46.80800 33.36900 28.03000
C  46.88700 32.33700 27.11600
C  46.21200 31.15600 27.52300
C  45.65300 31.57700 28.77900
C  46.14400 32.90000 29.07900
C  45.98000 29.86800 26.76800
C  44.80000 31.21600 29.88600
O  44.18000 30.16800 30.08600
C  44.80600 32.38700 30.96500
C  44.99700 31.72900 32.27800
O  45.89000 30.94900 32.52200
O  44.07000 32.18900 33.16900
C  44.14500 31.63700 34.54000
H  47.87900 38.61900 31.22300
H  49.60300 37.80000 24.99800
H  48.07000 31.56500 25.44900
H  45.35500 34.57200 32.98100
H  47.16100 36.88100 33.08500
H  44.81000 37.64700 31.64600
H  44.99600 37.72800 33.39300
H  44.34200 36.32300 32.45600
H  48.33100 34.67300 32.31100
H  47.55000 33.20700 33.09700
H  48.97300 35.33700 34.22800
H  48.51900 33.84600 34.91400
H  49.74100 40.73100 30.22200
H  47.96600 40.71900 30.21400
H  48.78500 41.49400 28.96700
H  50.88300 41.30300 28.20900
H  50.15600 42.17000 26.75500
H  51.78100 41.50700 26.73900
H  50.44300 35.40000 24.05400
H  48.00600 33.65000 23.69000
H  48.03700 35.41400 22.35200
H  49.60600 36.25300 22.40700
H  48.09700 36.91700 23.25700
H  49.93200 31.79000 24.20900
H  50.96400 33.14500 23.97400
H  50.84200 33.10900 21.74900
H  49.11700 32.73300 21.61600
H  50.15000 31.47200 22.11900
H  46.96000 29.52100 26.44000
H  45.29300 30.14000 25.96600
H  45.50200 29.13700 27.42000
H  43.85900 32.92600 30.95200
H  44.01800 32.49500 35.20000
H  45.17100 31.31500 34.71600
H  43.37800 30.88300 34.71700

