158

Mg 7.90600 3.85500 27.14500
C  9.48500 2.30600 29.88600
C  5.89300 5.52300 29.34800
C  6.62700 5.45800 24.63000
C  9.83700 1.86800 25.06200
N  7.76700 3.88200 29.39500
C  8.46400 3.19600 30.26400
C  8.06000 3.51700 31.73800
C  6.79800 4.40100 31.48100
C  6.79200 4.62300 29.95500
C  5.44200 3.70500 31.85800
C  9.07500 4.16400 32.61200
C  8.62500 4.93000 33.87100
H  9.63000 5.16700 34.99100
N  6.47700 5.35500 27.01400
C  5.79600 5.98400 28.02800
C  4.86800 6.94800 27.49800
C  5.18200 7.03400 26.12600
C  6.07400 5.93100 25.80700
C  3.93100 7.72700 28.40500
C  4.64800 7.91600 25.08100
O  4.86500 7.82700 23.88100
C  3.79200 8.96000 25.52400
N  8.05200 3.57400 25.16500
C  7.45400 4.36700 24.29000
C  7.68000 3.91800 22.85700
C  8.94200 2.94900 23.05100
C  8.99900 2.76900 24.51100
C  6.53500 3.43900 21.88800
C  10.27900 3.46700 22.40600
C  11.28500 4.19800 23.36600
N  9.33800 2.30900 27.32500
C  9.99700 1.58500 26.42300
C  10.74800 0.56000 27.03200
C  10.65200 0.85500 28.43900
C  9.78700 1.95300 28.55100
C  11.62900 -0.51100 26.48900
C  11.10600 0.48800 29.78900
O  11.87100 -0.30700 30.23300
C  10.38900 1.45100 30.71900
C  9.73400 0.52400 31.67100
O  8.72300 -0.12900 31.49800
O  10.42500 0.48500 32.82000
C  9.74600 -0.06500 34.01000
H  5.27800 6.10100 30.04200
H  6.34700 6.01100 23.73100
H  10.47300 1.28500 24.39300
H  7.76300 2.54100 32.12000
H  6.88900 5.35700 31.99700
H  5.56200 2.68400 32.22100
H  4.64200 3.75300 31.11900
H  5.06800 4.31300 32.68200
H  9.64600 4.83200 31.96800
H  9.85500 3.49800 32.98100
H  7.89400 4.25000 34.30800
H  8.19900 5.91700 33.68800
H  4.31800 8.74300 28.47200
H  3.65600 7.33600 29.38500
H  2.96000 7.78100 27.91200
H  2.76600 8.60400 25.61900
H  3.75700 9.65700 24.68600
H  4.37000 9.39300 26.34000
H  8.08200 4.83100 22.41700
H  8.82500 1.94600 22.64100
H  5.60800 3.33900 22.45200
H  6.78500 2.46200 21.47200
H  6.42800 4.20700 21.12200
H  10.13000 4.14800 21.56900
H  10.75500 2.54900 22.06200
H  12.34100 3.92600 23.39400
H  11.08300 4.23200 24.43700
H  11.32400 5.26200 23.13100
H  11.38300 -0.67600 25.44000
H  11.51300 -1.44800 27.03500
H  12.70800 -0.37300 26.42000
H  11.21000 1.97100 31.21100
H  9.40500 0.79400 34.58900
H  10.53800 -0.52000 34.60400
H  8.90600 -0.74800 33.88400
Mg 35.10800 48.77000 25.53200
C  35.57700 46.89900 28.61500
C  33.87800 51.36000 27.66000
C  34.32300 50.43900 22.80500
C  36.11400 45.97100 23.76100
N  34.71700 49.05200 27.81400
C  35.06100 48.15500 28.83200
C  34.75500 48.70800 30.24500
C  34.02400 50.03700 29.83900
C  34.27900 50.16700 28.35200
C  32.53900 49.85700 30.05600
C  36.06500 49.04600 31.05100
C  35.92800 48.92400 32.58900
H  34.65400 48.92300 33.30500
N  34.22600 50.69700 25.25000
C  33.84800 51.60400 26.24300
C  33.57700 52.88300 25.52000
C  33.67700 52.64100 24.16500
C  34.12200 51.23900 23.99900
C  33.21600 54.06200 26.25600
C  33.50700 53.59700 23.01000
O  33.75500 53.28000 21.85100
C  33.02800 55.03200 23.10800
N  35.12500 48.20200 23.66400
C  34.80800 49.10400 22.65300
C  34.81500 48.46300 21.29200
C  35.30000 46.98200 21.61800
C  35.57900 47.03800 23.07500
C  33.38600 48.60000 20.61800
C  36.46400 46.42500 20.68800
C  36.47000 44.97700 20.45000
N  35.67600 46.77000 26.03900
C  36.12900 45.76900 25.19000
C  36.58300 44.66800 26.04100
C  36.37500 45.05300 27.35000
C  35.86800 46.33100 27.29100
C  36.96500 43.33700 25.39700
C  36.54800 44.62100 28.76400
O  37.01300 43.55100 29.20400
C  36.01700 45.87300 29.66000
C  35.04600 45.27800 30.59300
O  34.10200 44.59900 30.22200
O  35.26300 45.54100 31.96200
C  34.35600 45.02500 32.94700
H  33.58100 52.22300 28.26000
H  34.10400 50.97800 21.88000
H  36.63900 45.22300 23.16300
H  34.06300 48.01200 30.72100
H  34.30900 50.86500 30.48800
H  32.12600 49.48100 29.12000
H  32.03900 50.82000 30.16100
H  32.31900 49.26400 30.94400
H  36.19800 50.10200 30.81600
H  36.91600 48.42700 30.76500
H  36.62800 49.55500 33.13500
H  36.35200 47.94200 32.80000
H  32.13100 54.16400 26.24000
H  33.52600 54.92800 25.67200
H  33.43300 54.09300 27.32300
H  32.88000 55.45500 22.11400
H  33.82900 55.59100 23.59100
H  32.11900 55.07500 23.70800
H  35.54300 48.96000 20.65100
H  34.45200 46.29800 21.64600
H  33.14700 47.60900 20.23300
H  33.57200 49.30600 19.80800
H  32.65700 49.05100 21.29200
H  37.40000 46.53600 21.23500
H  36.53400 47.03500 19.78700
H  36.79000 44.78000 19.42700
H  35.46600 44.57100 20.56700
H  37.04200 44.44000 21.20700
H  37.88700 43.35500 24.81600
H  36.19300 43.12100 24.65700
H  36.87100 42.58500 26.18100
H  36.82800 46.28900 30.25700
H  34.67700 45.23600 33.96700
H  34.36700 43.93500 32.92000
H  33.31100 45.32900 32.88200

