158

Mg 17.37500 -2.15100 27.11500
C  16.06600 -0.22900 29.82900
C  19.35800 -3.76300 29.57400
C  18.84500 -3.68700 24.66200
C  15.66000 -0.03300 24.97100
N  17.56400 -2.04400 29.41000
C  16.92300 -1.15900 30.28400
C  17.45800 -1.34600 31.70600
C  18.64500 -2.32700 31.54000
C  18.53800 -2.77500 30.07200
C  20.07000 -1.76300 31.79200
C  16.36200 -2.05000 32.58000
C  16.39100 -1.60400 34.04100
H  17.63800 -0.85000 34.61500
N  18.78300 -3.68600 27.13500
C  19.52900 -4.18600 28.22500
C  20.24100 -5.34600 27.77700
C  20.15900 -5.29000 26.35500
C  19.32600 -4.14900 25.94300
C  20.93200 -6.38000 28.66700
C  20.73700 -6.23700 25.24800
O  20.53600 -6.07700 24.07300
C  21.47600 -7.46600 25.67500
N  17.39800 -1.70900 25.06000
C  17.99900 -2.60600 24.23800
C  17.85300 -2.15800 22.78600
C  16.61000 -1.25500 22.94300
C  16.52500 -0.95600 24.43500
C  19.12100 -1.48800 22.22800
C  15.22900 -1.75300 22.40500
C  14.42000 -0.77400 21.50300
N  16.15300 -0.41500 27.23900
C  15.44400 0.24900 26.32000
C  14.62100 1.29200 26.89600
C  14.76300 1.05600 28.28200
C  15.80400 0.08700 28.46700
C  13.60800 2.06800 26.05900
C  14.32600 1.54800 29.59100
O  13.50200 2.40800 29.88000
C  15.19100 0.76600 30.61300
C  16.08300 1.74400 31.24900
O  17.03500 2.27800 30.74400
O  15.55100 1.98900 32.47600
C  16.27800 3.00500 33.24700
H  19.99800 -4.31100 30.26900
H  19.15700 -4.19800 23.74900
H  15.04800 0.53500 24.26700
H  17.83900 -0.41800 32.13300
H  18.51900 -3.20700 32.17000
H  20.07100 -0.79300 32.29000
H  20.58000 -1.67300 30.83300
H  20.59600 -2.43400 32.47200
H  16.45700 -3.13200 32.49100
H  15.41300 -1.80100 32.10400
H  16.21400 -2.49000 34.65000
H  15.45900 -1.11200 34.32000
H  21.04900 -5.92800 29.65200
H  21.91300 -6.68100 28.30000
H  20.32700 -7.26900 28.84100
H  20.70600 -8.03700 26.19300
H  22.17000 -7.13700 26.44900
H  21.92700 -8.16300 24.96800
H  17.57100 -3.09800 22.31200
H  16.86700 -0.36300 22.37100
H  19.88100 -1.44800 23.00900
H  19.07900 -0.46900 21.84300
H  19.54100 -2.04800 21.39200
H  14.62700 -1.81200 23.31200
H  15.25400 -2.71600 21.89400
H  13.39100 -0.55200 21.78600
H  14.24100 -1.25800 20.54300
H  14.85800 0.20900 21.32900
H  12.66000 2.03900 26.59600
H  13.43000 1.57200 25.10600
H  13.74500 3.13700 25.89800
H  14.46000 0.28500 31.26200
H  15.69800 3.15100 34.15800
H  16.30000 3.98400 32.76600
H  17.27800 2.72500 33.57800
Mg 46.91900 35.52600 29.03800
C  45.11400 33.41700 31.17700
C  47.11000 37.81900 31.59700
C  48.08900 37.76000 26.92200
C  46.46400 33.25300 26.42700
N  46.06900 35.57800 31.06500
C  45.58400 34.52800 31.80800
C  45.79200 34.76700 33.29700
C  45.87500 36.27900 33.34000
C  46.45400 36.61800 31.88200
C  44.47900 37.00900 33.53000
C  47.02400 34.02600 33.83400
C  47.21400 33.83400 35.33700
H  46.28900 34.68400 36.26500
N  47.50300 37.53000 29.27500
C  47.56700 38.27300 30.34900
C  48.37800 39.41800 30.04600
C  48.67500 39.46400 28.70600
C  48.05400 38.29400 28.22400
C  48.84000 40.30900 31.23400
C  49.52200 40.46000 27.88700
O  49.73300 40.31500 26.68300
C  50.14700 41.71400 28.60500
N  47.14900 35.50100 26.87900
C  47.57800 36.63900 26.30600
C  47.46500 36.49700 24.78900
C  47.21700 34.92000 24.59600
C  46.98800 34.49200 26.02700
C  46.42900 37.50400 24.10600
C  48.33200 34.07200 23.94100
C  48.42600 34.36700 22.46200
N  46.08200 33.64400 28.75800
C  45.93000 32.86900 27.66100
C  45.28300 31.63800 28.06200
C  44.91600 31.81500 29.40700
C  45.45400 33.03300 29.85900
C  44.84800 30.53200 27.19400
C  44.16700 31.24500 30.51000
O  43.54300 30.19500 30.62100
C  44.07700 32.45300 31.59400
C  44.15900 31.85700 33.01600
O  44.94300 31.10700 33.43400
O  43.13800 32.38700 33.79400
C  43.07100 32.08700 35.23500
H  47.36700 38.39400 32.48900
H  48.57100 38.40400 26.18400
H  46.50800 32.48700 25.65000
H  44.95700 34.36600 33.87200
H  46.53200 36.64700 34.12900
H  44.60800 37.80000 34.27000
H  43.79500 36.23700 33.88100
H  44.08900 37.48300 32.62900
H  47.92400 34.51200 33.45700
H  46.94700 33.07900 33.29900
H  48.24600 33.93800 35.67200
H  46.84400 32.81200 35.41400
H  48.20300 40.18200 32.11000
H  48.91600 41.34000 30.89000
H  49.77700 39.82800 31.51600
H  50.72200 41.35000 29.45600
H  49.43600 42.43000 29.01800
H  50.69600 42.35600 27.91600
H  48.47100 36.56900 24.37500
H  46.31400 34.82200 23.99300
H  46.85600 38.36200 23.58800
H  45.72100 37.88900 24.84000
H  45.92600 36.86100 23.38400
H  48.30600 32.99700 24.11900
H  49.23700 34.36500 24.47300
H  49.32400 34.94800 22.25200
H  47.51900 34.80400 22.04500
H  48.40700 33.40600 21.94800
H  44.52800 29.63100 27.71800
H  45.76400 30.14200 26.75100
H  44.02700 30.77600 26.51900
H  43.09400 32.90800 31.47700
H  42.17800 31.46300 35.28400
H  42.82700 33.07000 35.63700
H  43.93300 31.50600 35.56100

