158

Mg 47.06400 24.92900 28.12300
C  48.18200 27.27900 30.56900
C  46.87800 22.58900 30.46700
C  46.19900 23.01400 25.68000
C  47.80900 27.62100 25.77800
N  47.81000 24.88400 30.22900
C  47.89200 25.99500 31.02000
C  47.60800 25.62400 32.53800
C  47.36000 24.13800 32.47200
C  47.41800 23.80200 30.96900
C  48.34000 23.17300 33.27600
C  46.43700 26.46400 33.21900
C  45.67900 25.92000 34.46200
H  45.62700 26.85100 35.76600
N  46.40200 23.08000 28.06600
C  46.41100 22.21900 29.16900
C  45.88700 20.93900 28.74300
C  45.65500 21.07300 27.33200
C  46.11500 22.41200 26.95000
C  45.88000 19.74000 29.60500
C  45.06800 20.07700 26.29900
O  44.69600 20.39700 25.21000
C  44.55800 18.73500 26.75400
N  47.06800 25.23200 25.98600
C  46.75100 24.21100 25.17100
C  46.64900 24.73900 23.64200
C  46.97100 26.27300 23.82800
C  47.24100 26.39800 25.30000
C  47.52400 23.98700 22.50500
C  45.86300 27.22600 23.34100
C  46.24200 28.14400 22.23300
N  48.09000 26.99900 28.13800
C  48.28500 27.91000 27.10800
C  48.83100 29.11200 27.62800
C  48.72700 28.98900 29.06000
C  48.29200 27.67000 29.25800
C  49.25800 30.33000 26.86100
C  48.87800 29.61200 30.40200
O  49.35700 30.68600 30.82200
C  48.33500 28.53700 31.40400
C  49.30100 28.40000 32.44300
O  50.42300 27.81100 32.30800
O  48.84300 28.82000 33.64400
C  49.75400 28.80100 34.85800
H  46.66800 21.79900 31.19100
H  45.74400 22.40200 24.89800
H  48.05900 28.45800 25.12300
H  48.54500 25.76400 33.07700
H  46.32400 23.94500 32.75400
H  48.94500 22.63600 32.54500
H  47.72900 22.45500 33.82400
H  48.94200 23.72200 34.00000
H  45.70100 26.67100 32.44200
H  46.80000 27.43500 33.55900
H  46.11900 24.95000 34.69200
H  44.70100 25.71300 34.02700
H  46.63800 19.05300 29.22800
H  44.98200 19.12300 29.61400
H  46.08700 20.04300 30.63100
H  43.92200 18.74400 27.63900
H  45.37500 18.03200 26.91800
H  43.98700 18.42300 25.88000
H  45.61900 24.65100 23.29700
H  47.90600 26.59800 23.37200
H  47.76600 22.94200 22.69600
H  48.45900 24.49700 22.27100
H  46.93300 24.10800 21.59800
H  45.51200 27.86900 24.14800
H  45.06500 26.57300 22.98700
H  45.58700 27.92000 21.39200
H  47.28900 28.15400 21.92800
H  46.01300 29.18100 22.48000
H  49.06700 31.26800 27.38400
H  48.77500 30.28700 25.88500
H  50.31800 30.20000 26.64400
H  47.39400 28.94700 31.77300
H  49.22500 28.20800 35.60500
H  49.98600 29.79300 35.24400
H  50.69300 28.25500 34.76900
Mg -10.22400 17.62200 41.15300
C  -6.84100 17.57100 41.09800
C  -10.14500 21.07700 40.64400
C  -13.57100 17.75400 40.57700
C  -10.35700 14.19600 41.03600
N  -8.63000 19.13000 40.83800
C  -7.31600 18.84200 40.84700
C  -6.57500 20.10500 40.54400
C  -7.61400 21.29000 40.91100
C  -8.86300 20.49100 40.90300
C  -7.35300 22.02200 42.20700
C  -6.06300 20.18100 39.07400
C  -4.64800 19.70900 38.85000
H  -4.34400 18.75700 37.66400
N  -11.63400 19.17200 40.64600
C  -11.37300 20.49200 40.51600
C  -12.65200 21.22800 40.29900
C  -13.65100 20.31700 40.32700
C  -12.99300 19.01200 40.51500
C  -12.73800 22.72200 40.14200
C  -15.12600 20.54900 40.18800
O  -15.43400 21.73000 40.08400
C  -16.14100 19.58200 40.29300
N  -11.75300 16.12100 40.88800
C  -13.03100 16.46600 40.75400
C  -13.92900 15.20600 40.91800
C  -12.90300 14.02500 40.87100
C  -11.61600 14.81900 40.92400
C  -14.76500 15.25600 42.16400
C  -12.96500 13.01300 39.69400
C  -12.31400 13.49300 38.38600
N  -8.87200 16.12900 41.14500
C  -9.08300 14.75000 41.10000
C  -7.78100 14.09900 41.00800
C  -6.90800 15.13900 41.12800
C  -7.56100 16.38400 41.16700
C  -7.61700 12.64900 40.88000
C  -5.49500 15.50400 41.16100
O  -4.52300 14.75400 41.16600
C  -5.37600 17.11300 41.14400
C  -4.69400 17.59000 42.37500
O  -3.54000 17.23800 42.58200
O  -5.48700 18.35300 43.16900
C  -4.80600 19.08100 44.27300
H  -10.13500 22.16600 40.56500
H  -14.64700 17.65800 40.41600
H  -10.47400 13.12100 40.88300
H  -5.74500 20.10500 41.25100
H  -7.79100 21.93200 40.04800
H  -6.28000 22.13800 42.36500
H  -7.84900 21.51100 43.03200
H  -7.87700 22.97600 42.16200
H  -6.33300 21.14900 38.65200
H  -6.67800 19.45100 38.54700
H  -4.01200 19.37000 39.66800
H  -4.16700 20.63000 38.51800
H  -13.24000 22.87000 39.18600
H  -11.79800 23.25700 40.00900
H  -13.39100 23.11600 40.92100
H  -16.06500 18.89800 39.44800
H  -17.14200 20.01400 40.30900
H  -15.93900 19.11400 41.25600
H  -14.60100 15.14600 40.06200
H  -13.08700 13.36900 41.72200
H  -14.39600 15.95200 42.91800
H  -14.83200 14.27100 42.62500
H  -15.74900 15.62200 41.86800
H  -14.01800 12.82200 39.48700
H  -12.55100 12.07900 40.07300
H  -11.41900 12.93000 38.12100
H  -12.19500 14.57600 38.41100
H  -12.96700 13.37400 37.52200
H  -8.25600 12.25700 40.08900
H  -7.89600 12.04400 41.74300
H  -6.59900 12.33100 40.65500
H  -4.85700 17.50500 40.27000
H  -5.38600 18.89600 45.17700
H  -4.88400 20.15900 44.12900
H  -3.79200 18.74500 44.48800

