158

Mg 41.49300 7.85900 29.10300
C  43.53300 9.32200 31.41500
C  39.59800 6.45200 31.64000
C  39.46400 6.41300 26.77100
C  43.70700 8.95300 26.50400
N  41.61000 7.86700 31.29000
C  42.47900 8.67900 32.02900
C  42.15600 8.63200 33.54500
C  40.90600 7.64900 33.59200
C  40.67200 7.27900 32.06900
C  41.00700 6.36500 34.49800
C  41.76200 10.11300 33.95800
C  40.82700 10.31300 35.24300
H  41.22000 11.47700 36.18300
N  39.70200 6.61300 29.22600
C  39.06600 6.15800 30.33800
C  37.87500 5.43400 29.93300
C  37.83400 5.48700 28.49000
C  39.04300 6.19500 28.09500
C  37.06900 4.67400 30.95200
C  36.72500 4.98300 27.53500
O  36.79000 5.12700 26.33700
C  35.54000 4.24700 28.07900
N  41.68900 7.60600 26.93800
C  40.64300 7.03400 26.23700
C  40.86200 7.23600 24.68500
C  42.14200 8.19800 24.62500
C  42.44000 8.38500 26.11300
C  41.11800 5.88200 23.92100
C  41.84700 9.48600 23.80500
C  41.18700 10.58600 24.49100
N  43.28300 8.98600 28.95700
C  44.11400 9.20100 27.85600
C  45.36000 9.80100 28.34500
C  45.10300 9.97800 29.75800
C  43.83200 9.42000 30.03100
C  46.65300 10.17700 27.61000
C  45.65700 10.45800 30.94400
O  46.74200 10.97100 31.27600
C  44.69100 10.10300 32.06200
C  45.36900 9.19500 33.06200
O  45.81500 8.06800 32.87600
O  45.42300 9.83500 34.30100
C  46.05400 9.03600 35.42000
H  39.03800 6.11800 32.51600
H  38.82400 6.14700 25.92600
H  44.47700 9.23800 25.78500
H  42.97200 8.24900 34.15800
H  39.97100 8.10000 33.92300
H  41.32600 5.51100 33.90200
H  40.01400 6.17900 34.90900
H  41.65100 6.47300 35.37100
H  41.25600 10.61400 33.13200
H  42.68400 10.63200 34.21800
H  40.86700 9.37800 35.80200
H  39.79100 10.36000 34.90800
H  37.43000 4.96100 31.94000
H  36.91300 3.60800 30.78300
H  36.04500 5.04400 30.92000
H  35.35400 4.63200 29.08200
H  35.80900 3.19400 28.15500
H  34.74700 4.22500 27.33200
H  39.95800 7.68900 24.27700
H  42.88100 7.70300 23.99400
H  40.45900 5.92900 23.05400
H  40.93000 5.01800 24.55800
H  42.12400 5.68300 23.55300
H  41.24100 9.18400 22.95100
H  42.81200 9.80800 23.41200
H  41.82600 11.46900 24.50700
H  40.99900 10.32900 25.53400
H  40.20200 10.77300 24.06300
H  46.55700 10.01600 26.53600
H  47.61300 9.74700 27.89600
H  46.76000 11.25600 27.72000
H  44.35700 11.00200 32.58000
H  47.12500 9.23900 35.39200
H  45.83200 7.97200 35.34500
H  45.83200 9.39900 36.42300
Mg 48.26900 15.78400 27.88400
C  46.31900 15.01300 30.78400
C  50.38700 17.38200 29.93700
C  49.82200 16.70100 25.18900
C  45.72900 14.17000 26.00500
N  48.25900 16.26300 30.00200
C  47.41200 15.84800 31.03500
C  47.92100 16.22300 32.42100
C  49.01000 17.28700 32.10900
C  49.28100 16.90200 30.62200
C  48.58100 18.81100 32.30100
C  48.26700 14.98300 33.23800
C  47.97600 15.05500 34.74100
H  47.36100 16.31400 35.30300
N  49.98300 16.81000 27.59100
C  50.74500 17.39700 28.53300
C  51.97600 17.91100 27.90900
C  51.75700 17.77000 26.46700
C  50.43600 17.15800 26.36000
C  53.05300 18.56800 28.83800
C  52.64900 18.23800 25.36200
O  52.24900 18.16900 24.18400
C  53.97000 18.88300 25.66200
N  47.85400 15.45000 25.87900
C  48.60100 16.04100 24.87700
C  48.12600 15.54500 23.46700
C  46.86700 14.72500 23.75300
C  46.74300 14.83100 25.28600
C  47.76600 16.80300 22.53100
C  46.88300 13.23900 23.26400
C  47.42100 12.17100 24.27900
N  46.43000 14.77400 28.21400
C  45.54800 14.17000 27.36200
C  44.49700 13.56600 28.10300
C  44.72500 13.80600 29.45500
C  45.94500 14.55200 29.48400
C  43.35200 12.67700 27.48000
C  44.29600 13.67800 30.77800
O  43.32100 13.14500 31.28700
C  45.23600 14.50600 31.69200
C  44.41800 15.57700 32.25500
O  44.35400 16.73100 31.84500
O  43.90000 15.17100 33.48400
C  43.09100 16.12700 34.25800
H  51.06000 17.82500 30.67300
H  50.28500 16.97300 24.23800
H  44.87600 13.72600 25.48800
H  47.00900 16.75000 32.70100
H  49.91200 17.05900 32.67600
H  47.55800 18.95700 32.64500
H  48.73000 19.38400 31.38600
H  49.24500 19.20200 33.07200
H  49.34400 14.82400 33.18000
H  47.88200 14.11600 32.70100
H  48.95900 14.88500 35.18100
H  47.28600 14.23500 34.93800
H  54.00000 18.76500 28.33600
H  53.22200 18.02800 29.77000
H  52.64500 19.48700 29.25900
H  53.77700 19.90900 25.97800
H  54.54700 19.01500 24.74700
H  54.53700 18.22100 26.31500
H  48.89900 14.91600 23.02700
H  45.94700 15.14300 23.34500
H  48.53200 16.98700 21.77800
H  47.82500 17.68700 23.16600
H  46.77200 16.79400 22.08300
H  47.49300 13.16900 22.36400
H  45.92600 12.82600 22.94600
H  47.72900 12.57800 25.24200
H  48.27100 11.64700 23.84300
H  46.56500 11.56300 24.57300
H  43.80300 11.71000 27.25700
H  42.97500 13.23700 26.62500
H  42.48800 12.61600 28.14300
H  45.60900 13.96500 32.56200
H  43.08200 17.09500 33.75600
H  43.64600 16.30600 35.17900
H  42.07400 15.79500 34.46900

