158

Mg 16.36200 -1.52300 28.19300
C  15.18000 0.22500 30.84300
C  18.54300 -3.16300 30.51200
C  17.88500 -3.10600 25.54700
C  14.18800 -0.02100 25.98700
N  16.82000 -1.42900 30.40900
C  16.17000 -0.67500 31.29000
C  16.61700 -0.96000 32.73900
C  17.85300 -1.87800 32.52200
C  17.76200 -2.14700 31.01000
C  19.22500 -1.41300 32.97100
C  15.37800 -1.32200 33.75900
C  15.43100 -0.73900 35.14800
H  16.67300 0.06300 35.62200
N  17.97400 -2.94600 28.05600
C  18.64500 -3.56300 29.13100
C  19.40600 -4.70100 28.56800
C  19.36600 -4.61300 27.16600
C  18.41400 -3.52200 26.84900
C  19.98700 -5.80400 29.51400
C  20.18100 -5.41200 26.12400
O  20.09400 -5.23300 24.87300
C  21.15700 -6.46900 26.62500
N  16.21200 -1.54700 26.08500
C  16.99000 -2.11400 25.18300
C  16.63600 -1.73200 23.76300
C  15.15500 -1.17600 23.98800
C  15.15500 -0.92900 25.43600
C  17.58600 -0.65500 23.04000
C  13.91900 -2.16200 23.68600
C  13.05700 -1.97500 22.47100
N  15.03300 -0.07400 28.26500
C  14.16600 0.43200 27.33600
C  13.37300 1.44600 27.88500
C  13.72300 1.39000 29.32400
C  14.76000 0.45600 29.48600
C  12.30600 2.36000 27.25400
C  13.47800 1.98400 30.62200
O  12.69200 2.89000 30.94400
C  14.42200 1.22800 31.60900
C  15.20000 2.22900 32.37300
O  16.40400 2.37500 32.34500
O  14.40600 2.99700 33.20000
C  15.12700 4.00300 34.10500
H  19.18500 -3.70800 31.20700
H  18.21600 -3.68400 24.68100
H  13.37400 0.26700 25.31800
H  17.05100 0.00200 33.01300
H  17.72600 -2.75100 33.16200
H  19.31600 -1.81500 33.98000
H  19.33900 -0.33100 32.90500
H  20.00800 -1.77200 32.30400
H  15.34500 -2.40900 33.82300
H  14.42800 -1.03700 33.30600
H  15.31700 -1.57400 35.83900
H  14.56300 -0.11100 35.35300
H  20.06400 -5.39400 30.52100
H  21.06300 -5.95400 29.42700
H  19.40100 -6.72300 29.53300
H  21.51700 -7.12800 25.83500
H  20.71200 -7.12300 27.37500
H  21.87000 -5.88600 27.20800
H  16.50600 -2.62400 23.14900
H  14.99800 -0.19700 23.53400
H  17.84800 -1.19700 22.13100
H  18.49300 -0.34600 23.55900
H  17.03100 0.26400 22.85200
H  13.32500 -2.17000 24.60000
H  14.46600 -3.09300 23.53900
H  12.56100 -1.00500 22.51000
H  12.18300 -2.61800 22.57900
H  13.64000 -2.16000 21.56900
H  11.33300 2.31500 27.74300
H  12.36500 2.09900 26.19700
H  12.62800 3.39900 27.33200
H  13.80300 0.65400 32.29700
H  14.52600 4.90600 34.21400
H  16.08000 4.34000 33.69800
H  15.32200 3.45500 35.02700
Mg 50.17900 35.71700 28.09200
C  47.70200 34.14900 30.03700
C  50.38200 38.23400 30.33700
C  52.21400 37.22500 25.97900
C  49.48000 33.33200 25.45000
N  49.21500 35.98700 30.05700
C  48.29200 35.23700 30.72300
C  48.16300 35.65900 32.27800
C  48.81900 37.06000 32.18400
C  49.53500 37.12400 30.78700
C  47.74600 38.21800 32.34100
C  49.12400 34.71400 33.12000
C  48.75600 34.33100 34.60700
H  47.72300 35.19800 35.29100
N  51.13900 37.42700 28.16800
C  51.20900 38.35100 29.22700
C  52.18700 39.39800 28.91900
C  52.74800 39.15700 27.68000
C  52.03600 37.88000 27.19200
C  52.57500 40.39600 29.96700
C  53.69600 40.03400 26.89800
O  54.02200 39.74400 25.73600
C  54.06800 41.36100 27.50800
N  50.63000 35.32900 25.90600
C  51.57600 36.15000 25.36500
C  51.76200 35.78600 23.83400
C  51.05000 34.41200 23.74700
C  50.33900 34.37300 25.05300
C  51.32200 36.84100 22.82100
C  52.02400 33.25600 23.60200
C  51.89100 32.37200 22.41700
N  48.96700 33.98400 27.79200
C  48.76500 33.17400 26.71400
C  47.70100 32.19700 26.94200
C  47.27100 32.52300 28.26400
C  48.08000 33.62000 28.77700
C  47.09200 31.26800 25.93200
C  46.26700 32.25200 29.27500
O  45.45200 31.29900 29.27900
C  46.50000 33.28600 30.51900
C  46.68000 32.44300 31.77600
O  47.34800 31.41600 31.79000
O  46.03800 33.01600 32.86500
C  46.00700 32.20000 34.09100
H  50.38800 38.98300 31.13200
H  52.87200 37.77900 25.30500
H  49.16600 32.49600 24.82100
H  47.12800 35.71600 32.61500
H  49.58700 37.17600 32.94900
H  47.82700 38.96200 31.54900
H  47.84800 38.73500 33.29500
H  46.76600 37.75700 32.22200
H  50.15200 35.07300 33.17100
H  49.12900 33.70600 32.70600
H  49.69800 34.27600 35.15300
H  48.29900 33.34800 34.71700
H  52.14700 40.21000 30.95200
H  52.39400 41.43200 29.68100
H  53.64000 40.26400 30.15900
H  54.71200 41.22100 28.37600
H  53.13700 41.84800 27.79900
H  54.70000 41.90800 26.80700
H  52.82700 35.73600 23.61100
H  50.34300 34.29300 22.92600
H  50.88500 37.67100 23.37700
H  50.54700 36.44200 22.16700
H  52.12900 37.25300 22.21500
H  51.81700 32.61500 24.45900
H  53.01800 33.70100 23.64400
H  51.16100 32.77500 21.71500
H  51.52500 31.36300 22.60700
H  52.85900 32.23200 21.93400
H  47.78700 30.43900 25.80000
H  46.84500 31.85300 25.04600
H  46.14200 30.93000 26.34500
H  45.63800 33.91100 30.75100
H  46.91600 31.63800 34.30500
H  45.13000 31.55200 34.09100
H  45.92300 32.89100 34.93000

