158

Mg 44.92300 3.44500 47.94600
C  42.78800 6.13300 47.14200
C  42.13700 1.31800 47.22900
C  46.92100 0.85300 48.04500
C  47.67200 5.63900 47.48900
N  42.76400 3.66600 47.43000
C  42.16900 4.83200 47.16800
C  40.66900 4.70000 46.68700
C  40.34400 3.16400 47.06600
C  41.83200 2.67200 47.25600
C  39.40600 2.88000 48.28600
C  40.63100 4.98400 45.17900
C  39.59000 5.99900 44.53500
H  38.83900 5.46300 43.30500
N  44.56800 1.36900 47.82900
C  43.38300 0.72700 47.61000
C  43.61400 -0.71000 47.79100
C  44.96100 -0.89800 47.96500
C  45.54900 0.48100 47.96600
C  42.70500 -1.87600 47.55100
C  45.70400 -2.20700 48.12800
O  45.06700 -3.25600 48.39300
C  47.17400 -2.30400 48.30100
N  46.94100 3.32100 47.66800
C  47.54100 2.07500 47.93600
C  49.04500 2.22500 48.19400
C  49.34000 3.70200 47.69000
C  47.94100 4.28300 47.71200
C  49.48200 1.96900 49.66600
C  50.23600 3.85200 46.37100
C  51.18500 5.01300 46.29800
N  45.24100 5.52800 47.53100
C  46.39700 6.25200 47.41500
C  46.02900 7.65600 47.09100
C  44.63600 7.66500 46.99600
C  44.18200 6.37100 47.30100
C  46.96600 8.77700 46.84100
C  43.44000 8.38800 46.71500
O  43.40600 9.56000 46.27300
C  42.19600 7.39600 46.81000
C  41.40200 7.92700 47.84000
O  41.44900 7.51100 48.99500
O  40.60900 8.93600 47.37900
C  39.73400 9.66900 48.34000
H  41.23600 0.72200 47.06600
H  47.70900 0.10800 48.16900
H  48.56400 6.26800 47.45500
H  40.07800 5.47700 47.17300
H  39.92100 2.67300 46.19000
H  38.81000 3.72700 48.62500
H  39.96900 2.45200 49.11500
H  38.79300 2.03300 47.97400
H  40.67500 4.06300 44.59700
H  41.56400 5.46000 44.87600
H  40.15500 6.86900 44.19900
H  38.85600 6.29200 45.28700
H  42.60900 -2.46300 48.46400
H  43.02800 -2.58100 46.78500
H  41.72400 -1.64300 47.13500
H  47.57200 -1.69200 47.49200
H  47.71900 -3.23900 48.43700
H  47.38700 -1.75100 49.21600
H  49.73100 1.60400 47.61800
H  49.81900 4.28000 48.48000
H  50.40300 2.47800 49.95000
H  49.73500 0.92200 49.83000
H  48.57500 2.12000 50.25200
H  49.47300 3.95100 45.59900
H  50.83800 2.98300 46.10500
H  51.10600 5.41100 45.28700
H  52.20600 4.68400 46.49000
H  51.05600 5.81200 47.02800
H  47.97300 8.36100 46.80700
H  46.93800 9.57800 47.57900
H  46.92900 9.28100 45.87500
H  41.68400 7.55400 45.86000
H  39.64800 10.70200 48.00400
H  40.13600 9.64700 49.35300
H  38.79100 9.12300 48.35000
Mg -4.29600 24.69100 26.59200
C  -3.21000 26.77500 29.13900
C  -5.65200 22.59800 28.91300
C  -5.51000 22.80100 24.15200
C  -3.17200 27.03200 24.26300
N  -4.40900 24.75800 28.81100
C  -3.93300 25.66700 29.66600
C  -4.37400 25.25200 31.12500
C  -4.87200 23.78400 31.08300
C  -5.08100 23.69500 29.52300
C  -3.77300 22.76800 31.54800
C  -5.52100 26.22600 31.64100
C  -5.57400 26.58800 33.10500
H  -4.95200 25.54000 34.00700
N  -5.35600 22.89700 26.58000
C  -5.78200 22.19900 27.57400
C  -6.49600 20.95800 27.14300
C  -6.46700 21.01600 25.70800
C  -5.78300 22.27100 25.42900
C  -7.18000 20.03000 28.14000
C  -6.97600 20.02100 24.66900
O  -6.79200 20.06200 23.43400
C  -7.84600 18.88100 25.24600
N  -4.19200 24.89200 24.46300
C  -4.73400 23.90700 23.72200
C  -4.71400 24.25400 22.19400
C  -4.10700 25.72000 22.16200
C  -3.88600 25.94600 23.66000
C  -3.98800 23.21900 21.32500
C  -5.02800 26.78700 21.63000
C  -4.92700 26.95000 20.09500
N  -3.38400 26.51200 26.61500
C  -2.94200 27.36900 25.59500
C  -2.20700 28.47600 26.13600
C  -2.25000 28.28400 27.56000
C  -3.01900 27.12100 27.79000
C  -1.47400 29.44500 25.41300
C  -1.81000 28.73200 28.86600
O  -1.06400 29.65300 29.16200
C  -2.49600 27.81300 29.91800
C  -1.40200 27.42700 30.82000
O  -0.61700 26.50500 30.60900
O  -1.60600 27.90000 32.08800
C  -0.84100 27.24300 33.14300
H  -5.90100 21.87700 29.69400
H  -5.99100 22.28700 23.31700
H  -2.81200 27.83900 23.62200
H  -3.53600 25.37400 31.81100
H  -5.83400 23.59800 31.56100
H  -3.74400 21.95100 30.82600
H  -4.06000 22.30000 32.48900
H  -2.74500 23.12800 31.49600
H  -6.54500 25.92900 31.41300
H  -5.46700 27.14000 31.04900
H  -6.57700 26.63200 33.52900
H  -5.05100 27.54200 33.16400
H  -6.83500 20.11100 29.17100
H  -6.98400 18.99100 27.87500
H  -8.23600 20.27600 28.02700
H  -8.13300 18.29500 24.37300
H  -8.76600 19.38200 25.54900
H  -7.42100 18.27300 26.04500
H  -5.75000 24.33600 21.86500
H  -3.19400 25.63500 21.57300
H  -4.73100 22.73700 20.68900
H  -3.40700 22.57800 21.98800
H  -3.25000 23.66900 20.66100
H  -4.82200 27.71700 22.16000
H  -6.05800 26.55400 21.90000
H  -4.29100 26.18800 19.64500
H  -4.51400 27.92500 19.83500
H  -5.90100 26.87700 19.61300
H  -1.02700 29.10400 24.48000
H  -0.70600 29.87900 26.05300
H  -2.05900 30.32800 25.15200
H  -3.22500 28.30300 30.56400
H  0.19800 27.56700 33.19600
H  -0.86600 26.15400 33.18900
H  -1.34600 27.55300 34.05700

