158

Mg 8.27900 3.93900 27.73100
C  9.56000 2.41500 30.61200
C  6.50600 6.05600 29.49200
C  7.09900 5.18800 24.70900
C  10.04600 1.44100 25.82800
N  8.07000 4.12400 29.82900
C  8.72600 3.51200 30.87900
C  8.32900 4.10800 32.22000
C  7.26000 5.14900 31.78200
C  7.26600 5.14700 30.25900
C  5.83300 4.77300 32.35100
C  9.51500 4.76800 32.84900
C  9.44700 5.32700 34.30600
H  10.42600 4.61800 35.32500
N  6.92600 5.38200 27.19200
C  6.42400 6.24000 28.10800
C  5.68600 7.22800 27.46700
C  5.81800 6.97700 26.02700
C  6.60000 5.77700 25.93500
C  5.02700 8.24500 28.20100
C  5.15200 7.78700 24.82900
O  5.23500 7.47400 23.62700
C  4.48200 9.10200 25.17100
N  8.43800 3.28800 25.55300
C  7.88600 4.00200 24.52300
C  8.31200 3.43000 23.17800
C  9.27500 2.23900 23.52200
C  9.25200 2.29300 25.05000
C  7.16300 3.03300 22.22100
C  10.71700 2.43600 22.98000
C  11.42800 1.31300 22.23000
N  9.51500 2.28100 28.04400
C  10.13900 1.35500 27.22200
C  10.85100 0.40700 28.02100
C  10.66300 0.81400 29.36800
C  9.80800 1.92100 29.35200
C  11.52400 -0.86100 27.64600
C  11.04300 0.58200 30.74200
O  11.79500 -0.25700 31.26900
C  10.30700 1.51300 31.60900
C  9.44700 0.68200 32.45900
O  8.41300 0.07600 32.14100
O  9.91900 0.80600 33.79700
C  9.19700 0.15900 34.90100
H  5.82600 6.61300 30.14000
H  6.81500 5.73900 23.81000
H  10.43000 0.59800 25.24900
H  8.02200 3.35900 32.95000
H  7.52400 6.17400 32.04300
H  5.77900 4.16400 33.25300
H  5.14700 4.37300 31.60500
H  5.38100 5.68400 32.74300
H  9.76900 5.62200 32.22100
H  10.37900 4.11200 32.95600
H  8.50400 5.04100 34.77100
H  9.55800 6.41100 34.34300
H  5.24900 8.32300 29.26500
H  3.95100 8.07000 28.19000
H  5.16200 9.24900 27.80000
H  3.82100 9.52000 24.41200
H  5.23800 9.85100 25.40500
H  3.80700 8.99700 26.02100
H  8.73700 4.27400 22.63400
H  8.96200 1.21600 23.31400
H  6.13300 2.99700 22.57400
H  7.44900 2.08200 21.77300
H  7.10400 3.69500 21.35700
H  11.29300 2.67800 23.87400
H  10.68400 3.30200 22.31800
H  11.51800 1.76000 21.24000
H  10.75100 0.46000 22.27400
H  12.32200 1.10600 22.81800
H  12.56700 -0.70700 27.37100
H  11.02500 -1.32300 26.79500
H  11.32500 -1.51900 28.49200
H  11.14600 1.90300 32.18600
H  9.65100 -0.83100 34.93000
H  8.12100 0.00300 34.81500
H  9.34200 0.65100 35.86200
Mg 46.22700 3.59500 47.59800
C  43.68000 5.83700 46.78100
C  43.82300 1.03700 47.55400
C  48.68200 1.13700 47.36200
C  48.56500 6.05800 46.84900
N  44.00600 3.45900 47.12200
C  43.14900 4.52800 46.84200
C  41.69800 3.97200 46.77000
C  41.79300 2.48400 47.23200
C  43.31700 2.30000 47.26600
C  41.11300 2.22200 48.61700
C  41.02000 4.16700 45.32500
C  39.66200 4.96600 45.27600
H  39.63600 6.04700 44.12900
N  46.26400 1.34800 47.40000
C  45.16300 0.59200 47.58900
C  45.59500 -0.80300 47.73800
C  47.08300 -0.80500 47.71300
C  47.44400 0.61100 47.55200
C  44.70300 -1.98900 47.92200
C  47.93700 -2.06800 47.77900
O  47.38600 -3.16400 47.75300
C  49.45900 -2.15400 47.77700
N  48.32800 3.57600 47.12300
C  49.14800 2.46600 47.24100
C  50.60900 2.84400 47.13600
C  50.51900 4.34600 46.62500
C  49.04100 4.71200 46.89400
C  51.36900 2.77000 48.49300
C  50.85800 4.42700 45.08700
C  52.34500 4.39700 44.74400
N  46.19100 5.62200 47.25700
C  47.22700 6.46700 46.92400
C  46.62700 7.77400 46.50900
C  45.20400 7.60900 46.54600
C  45.01600 6.27200 46.86800
C  47.38700 8.99200 45.94200
C  43.92000 8.26700 46.31000
O  43.62400 9.39800 45.92500
C  42.96800 7.15100 46.61500
C  42.03400 7.44200 47.76800
O  42.09700 6.88100 48.85300
O  41.13900 8.44100 47.43000
C  40.17100 8.97800 48.43900
H  43.09900 0.23100 47.68700
H  49.48200 0.43200 47.59800
H  49.26800 6.84700 46.57600
H  41.05800 4.48500 47.48900
H  41.31000 1.80200 46.53200
H  40.57000 3.04600 49.08000
H  41.83800 1.94300 49.38100
H  40.47500 1.34900 48.47800
H  40.95300 3.22600 44.78000
H  41.72400 4.75100 44.73200
H  39.56300 5.43500 46.25500
H  38.84400 4.29700 45.00800
H  43.65700 -1.68500 47.93000
H  44.99100 -2.37500 48.90000
H  44.88400 -2.66700 47.08800
H  49.89900 -3.14600 47.87600
H  49.74200 -1.60900 48.67800
H  49.89500 -1.62700 46.92800
H  51.14700 2.16600 46.47400
H  51.18100 4.98400 47.21000
H  51.79100 3.73700 48.76700
H  52.19200 2.05600 48.48100
H  50.67700 2.52500 49.29900
H  50.31100 5.22500 44.58500
H  50.54800 3.44400 44.73400
H  52.91400 4.54100 45.66200
H  52.60600 5.21900 44.07700
H  52.66300 3.46900 44.27000
H  48.29300 8.65000 45.44100
H  47.77300 9.42200 46.86600
H  46.73000 9.62900 45.35100
H  42.39800 7.18900 45.68700
H  40.63700 9.91900 48.73100
H  40.03500 8.39300 49.34900
H  39.17900 8.99000 47.98800

