158

Mg 39.67900 8.39500 29.22300
C  41.77000 9.59700 31.82200
C  37.29300 7.76200 31.53600
C  37.99600 6.74100 26.82500
C  42.41600 8.81400 27.05200
N  39.59600 8.59700 31.46900
C  40.48000 9.29000 32.20600
C  39.88900 9.38800 33.63600
C  38.58500 8.57200 33.59600
C  38.42400 8.26500 32.09000
C  38.49400 7.35700 34.58700
C  39.73000 10.82500 34.31200
C  39.13900 10.81300 35.71300
H  40.02600 11.23400 36.90700
N  37.88500 7.44300 29.17900
C  37.00000 7.34600 30.22300
C  35.79200 6.72200 29.70900
C  36.08500 6.27900 28.38400
C  37.38400 6.78900 28.03800
C  34.61600 6.48400 30.65100
C  35.29100 5.47200 27.37500
O  35.57900 5.11400 26.23300
C  33.86800 5.04900 27.80300
N  40.13500 7.87700 27.27600
C  39.29800 7.20300 26.42400
C  39.82300 7.09500 25.01500
C  41.06700 7.94900 25.09100
C  41.27000 8.19400 26.55000
C  40.05300 5.69400 24.38800
C  41.10200 9.29100 24.28200
C  40.32000 10.48200 24.94300
N  41.70700 9.08300 29.30700
C  42.63300 9.22500 28.38600
C  43.84600 9.85800 28.96000
C  43.48000 9.99800 30.28500
C  42.24900 9.41300 30.53200
C  45.01000 10.23800 28.14600
C  43.83700 10.68200 31.52500
O  44.78300 11.46000 31.71700
C  42.87500 10.23000 32.64800
C  43.50300 9.24700 33.56300
O  43.38600 8.02900 33.46400
O  44.26200 9.91400 34.48200
C  44.52800 9.14000 35.72600
H  36.38100 7.69600 32.13200
H  37.45300 6.35300 25.96100
H  43.15600 8.93000 26.25700
H  40.62900 8.84400 34.22300
H  37.69800 9.15600 33.84300
H  37.83300 7.63200 35.40900
H  39.42300 7.09400 35.09400
H  38.02600 6.52700 34.05800
H  39.00400 11.24800 33.61800
H  40.63200 11.43600 34.29100
H  38.80100 9.80300 35.94100
H  38.33600 11.54900 35.66500
H  33.72400 7.00600 30.30500
H  34.82900 6.60000 31.71400
H  34.34100 5.43400 30.54700
H  34.03300 4.26700 28.54300
H  33.36200 4.78600 26.87400
H  33.31600 5.87100 28.26000
H  39.11300 7.58800 24.35100
H  41.90700 7.33800 24.76100
H  41.04400 5.63700 23.93800
H  39.34800 5.48300 23.58400
H  39.95300 4.89000 25.11600
H  40.64900 9.15000 23.30100
H  42.13500 9.61500 24.15300
H  39.62600 10.24500 25.75000
H  39.63700 10.94200 24.22900
H  41.05500 11.25300 25.17500
H  44.74500 10.18000 27.09000
H  45.83900 9.57500 28.39700
H  45.37600 11.24200 28.35800
H  42.70500 11.16500 33.18200
H  43.57600 8.89600 36.19600
H  45.07600 9.85800 36.33600
H  45.17700 8.27200 35.60700
Mg 16.58500 51.60200 25.94500
C  18.78400 50.61700 28.63300
C  14.55300 52.92800 28.29300
C  14.61700 52.44200 23.47500
C  19.02200 50.44400 23.71100
N  16.74100 51.85600 28.11300
C  17.62100 51.22100 29.03800
C  17.26600 51.54000 30.53500
C  15.83600 52.15400 30.39800
C  15.66200 52.30400 28.84700
C  14.75700 51.28900 31.13400
C  18.30100 52.49500 31.16100
C  18.59500 52.26500 32.66200
H  17.62300 51.40000 33.53600
N  14.76800 52.47600 25.93000
C  14.08500 53.01700 26.97200
C  12.82200 53.49000 26.50600
C  12.79500 53.21400 25.11400
C  14.12300 52.70300 24.75000
C  11.82400 54.17000 27.46600
C  11.63500 53.49400 24.15300
O  11.67200 53.44300 22.91700
C  10.40400 53.99500 24.79400
N  16.83300 51.50100 23.76900
C  15.81500 51.92100 22.99800
C  16.06500 51.41400 21.56800
C  17.60900 50.91300 21.62200
C  17.86700 50.98700 23.10000
C  14.99700 50.35100 21.04300
C  18.54700 51.88900 20.81200
C  19.95100 51.41500 20.43500
N  18.55100 50.76100 26.06900
C  19.34400 50.32600 25.06000
C  20.44000 49.54400 25.61400
C  20.30500 49.58300 26.98600
C  19.10600 50.35200 27.26500
C  21.53500 48.88900 24.74500
C  20.86700 49.13200 28.23100
O  21.83700 48.45300 28.63000
C  19.87800 49.76100 29.34600
C  19.49300 48.69400 30.32800
O  18.66500 47.83300 30.11300
O  20.17500 48.86200 31.50400
C  19.77900 47.92800 32.54500
H  13.78200 53.14800 29.03400
H  13.98400 52.68500 22.61900
H  19.76100 50.15800 22.96000
H  17.38400 50.56700 31.01200
H  15.94700 53.14200 30.84600
H  14.05400 52.02000 31.53300
H  15.23200 50.58400 31.81600
H  14.31900 50.71000 30.32100
H  17.99900 53.53600 31.05100
H  19.25600 52.43300 30.63800
H  18.76200 53.23200 33.13500
H  19.46800 51.62000 32.76500
H  11.32100 55.06400 27.09700
H  12.45300 54.59200 28.25000
H  11.02100 53.53500 27.84000
H  10.07000 53.38800 25.63600
H  9.68300 54.11600 23.98600
H  10.53000 55.01400 25.15800
H  15.97900 52.27700 20.90700
H  17.76100 49.95500 21.12400
H  15.37000 49.35500 20.80600
H  14.48500 50.82500 20.20500
H  14.22700 50.16000 21.79100
H  18.59500 52.75900 21.46700
H  18.07100 52.10900 19.85700
H  20.84000 51.86400 20.87800
H  20.19500 51.43500 19.37200
H  19.86400 50.34500 20.62000
H  22.48600 49.04000 25.25600
H  21.60400 49.41400 23.79200
H  21.21600 47.84700 24.69800
H  20.44000 50.37900 30.04600
H  19.92900 48.61100 33.38100
H  20.44000 47.07100 32.67100
H  18.72000 47.67400 32.48900

