158

Mg 26.11500 0.02800 29.21100
C  27.90900 0.02100 32.09600
C  23.21200 -0.06900 31.23600
C  24.19300 -0.31600 26.47100
C  29.01700 -0.27000 27.30100
N  25.61300 -0.13700 31.47000
C  26.57600 0.08000 32.35000
C  25.92900 0.43900 33.72100
C  24.42000 0.24700 33.50500
C  24.35000 -0.06800 31.99200
C  23.90400 -0.82400 34.54500
C  26.24400 1.95200 34.39000
C  27.03800 1.87400 35.72500
H  26.40900 2.41900 37.02000
N  24.00300 -0.13500 28.88900
C  23.04200 -0.10600 29.83200
C  21.73500 -0.03800 29.21600
C  22.01700 -0.10000 27.80900
C  23.44600 -0.14700 27.66100
C  20.38000 0.06600 29.93900
C  20.97600 -0.13300 26.71200
O  21.32000 -0.15100 25.54000
C  19.51200 -0.16800 26.96100
N  26.55200 -0.37600 27.14000
C  25.57500 -0.49600 26.25300
C  26.19600 -0.66700 24.79700
C  27.70000 -0.25800 25.06500
C  27.78000 -0.24400 26.57000
C  25.85800 -2.06600 24.06700
C  28.04300 1.16900 24.45000
C  29.38600 1.22100 23.73500
N  28.10900 -0.04800 29.58400
C  29.18100 -0.17600 28.70100
C  30.41200 -0.19100 29.51100
C  29.94200 -0.18800 30.86100
C  28.53100 -0.06700 30.85000
C  31.80600 -0.55200 28.95100
C  30.41600 -0.17400 32.22100
O  31.54500 -0.26500 32.68800
C  29.15600 0.05200 33.09900
C  29.05900 -0.89800 34.25800
O  28.32300 -1.90100 34.25500
O  29.81300 -0.57500 35.30300
C  29.60900 -1.37300 36.55400
H  22.35600 0.35500 31.76500
H  23.67800 -0.31600 25.50800
H  29.86000 -0.39700 26.61900
H  26.32700 -0.22400 34.48900
H  23.79600 1.13200 33.62600
H  23.88700 -1.78100 34.02400
H  22.89500 -0.52300 34.82500
H  24.53200 -0.92300 35.43000
H  25.32200 2.51700 34.52400
H  26.76600 2.65600 33.74300
H  27.91800 2.48000 35.50800
H  27.37300 0.84600 35.86000
H  19.65800 0.77200 29.53000
H  20.51100 0.49500 30.93300
H  19.98000 -0.94600 30.01600
H  19.18000 -0.94800 27.64700
H  19.10200 -0.39500 25.97700
H  19.11700 0.80500 27.25100
H  25.65500 0.05200 24.18200
H  28.38100 -0.99000 24.63100
H  26.02200 -2.07300 22.98900
H  24.79600 -2.21700 24.26200
H  26.46800 -2.82400 24.55900
H  28.00800 1.95600 25.20400
H  27.24700 1.43700 23.75600
H  29.95000 0.32700 23.99800
H  29.95700 2.13100 23.91900
H  29.25000 1.04100 22.66800
H  31.91100 -0.34800 27.88600
H  32.01100 -1.58400 29.23400
H  32.55700 0.06900 29.43900
H  29.09800 1.03500 33.56700
H  30.51600 -1.19700 37.13300
H  29.34200 -2.42100 36.42100
H  28.74900 -0.90600 37.03400
Mg -1.61000 34.52400 26.68100
C  -3.41200 32.95300 29.20700
C  -0.16500 36.46600 29.07900
C  -0.05900 36.13300 24.30000
C  -3.49500 32.74600 24.31100
N  -1.86000 34.71900 28.83800
C  -2.57300 33.93300 29.73300
C  -2.27400 34.26800 31.20700
C  -1.26800 35.45500 31.04800
C  -1.11400 35.57700 29.54400
C  -1.68200 36.79800 31.77700
C  -1.60700 33.02000 31.92100
C  -2.35600 32.51300 33.15300
H  -1.53100 32.28000 34.42400
N  -0.10900 35.97700 26.66500
C  0.32200 36.70300 27.76500
C  1.30300 37.76600 27.38900
C  1.42200 37.59900 25.96700
C  0.47200 36.53400 25.53500
C  1.88600 38.77100 28.42700
C  2.29500 38.37400 25.03400
O  2.33000 38.18400 23.80300
C  3.22200 39.48500 25.64500
N  -1.72500 34.51400 24.68900
C  -1.00700 35.22500 23.84700
C  -1.33100 34.95100 22.35300
C  -2.15500 33.63400 22.49500
C  -2.47200 33.59000 23.94000
C  -2.07300 36.03100 21.59200
C  -1.38500 32.36000 21.96800
C  -0.04100 32.07300 22.67800
N  -3.22800 33.16600 26.72800
C  -3.84900 32.51600 25.67100
C  -4.69000 31.53000 26.27300
C  -4.63200 31.73500 27.62900
C  -3.65000 32.66800 27.86000
C  -5.45100 30.43700 25.62500
C  -5.08700 31.20700 28.93900
O  -5.90500 30.35600 29.13600
C  -4.26400 32.02200 30.04700
C  -5.35100 32.79000 30.77500
O  -6.04500 33.67600 30.35000
O  -5.41000 32.25800 32.11000
C  -6.44600 32.86400 32.96700
H  0.24800 37.03300 29.91600
H  0.40700 36.60000 23.42900
H  -3.90300 32.16200 23.48400
H  -3.16200 34.66900 31.69500
H  -0.27700 35.24500 31.44900
H  -2.55500 36.69800 32.42100
H  -1.91000 37.43300 30.92100
H  -0.78300 37.19400 32.24900
H  -0.63200 33.38400 32.24600
H  -1.41500 32.21700 31.20900
H  -2.80400 31.53200 32.99200
H  -3.18400 33.19700 33.33700
H  1.65800 39.81000 28.18800
H  2.97200 38.68000 28.42300
H  1.58700 38.61300 29.46300
H  3.87400 39.83900 24.84600
H  3.76600 39.03700 26.47600
H  2.60300 40.31000 25.99700
H  -0.36100 34.76700 21.89200
H  -3.08500 33.73500 21.93500
H  -2.90700 35.78800 20.93300
H  -1.31100 36.39400 20.90300
H  -2.27400 36.84200 22.29100
H  -1.27000 32.60700 20.91200
H  -1.99600 31.46200 22.05900
H  0.79600 32.33900 22.03200
H  -0.07100 31.01100 22.91900
H  0.03100 32.59500 23.63200
H  -6.49200 30.64900 25.86800
H  -5.41500 29.47900 26.14400
H  -5.17500 30.41300 24.57000
H  -3.82500 31.26500 30.69700
H  -7.24800 32.12700 32.99900
H  -6.88000 33.79700 32.60700
H  -6.04500 32.87000 33.98000

