158

Mg 10.38700 47.55400 25.96700
C  8.54300 47.07700 28.96600
C  12.89300 48.99100 27.74400
C  11.99100 48.20600 23.05900
C  7.63300 46.62700 24.27000
N  10.62800 48.05100 28.16900
C  9.79000 47.68400 29.20800
C  10.54400 47.93500 30.58700
C  11.88000 48.66800 30.05300
C  11.80100 48.58600 28.51600
C  12.01700 50.15100 30.62000
C  10.89000 46.65700 31.49300
C  10.15300 46.91700 32.88500
H  10.40900 45.86800 33.94000
N  12.23200 48.43300 25.50400
C  13.16000 48.85600 26.36000
C  14.37200 49.25600 25.63900
C  14.21400 48.82100 24.28000
C  12.80200 48.45400 24.22900
C  15.60800 49.82300 26.43300
C  15.15000 48.81700 23.20200
O  14.92000 48.49000 22.05900
C  16.55200 49.40200 23.42500
N  9.93400 47.46500 23.90900
C  10.73300 47.79700 22.89400
C  9.90600 47.90500 21.59300
C  8.74500 46.92200 21.99300
C  8.75900 46.94500 23.50300
C  9.57700 49.34400 21.11200
C  8.84000 45.54600 21.37700
C  9.88100 44.67100 21.92400
N  8.40600 46.99800 26.49100
C  7.38400 46.70900 25.66400
C  6.16400 46.37700 26.37500
C  6.59800 46.44900 27.72300
C  7.94100 46.87700 27.70300
C  4.79500 45.96800 25.92200
C  6.20300 46.22200 29.00000
O  5.11500 45.83800 29.37700
C  7.51900 46.56300 29.98400
C  7.84500 45.31400 30.61000
O  8.49400 44.42200 30.09300
O  7.16500 45.14800 31.75400
C  6.95500 43.82900 32.43300
H  13.70800 49.23500 28.42900
H  12.38400 48.59300 22.11600
H  6.80900 46.15200 23.73400
H  9.82600 48.59600 31.07300
H  12.78800 48.18600 30.41500
H  12.88400 50.24200 31.27400
H  11.16800 50.19500 31.30200
H  11.89000 50.92300 29.86100
H  11.95200 46.65500 31.73600
H  10.53200 45.69400 31.12800
H  9.07800 47.08600 32.82000
H  10.70200 47.78600 33.24800
H  15.94400 50.61400 25.76300
H  16.33700 49.01400 26.47000
H  15.34100 50.25500 27.39800
H  17.03800 49.59900 22.46900
H  17.20300 48.92400 24.15600
H  16.31800 50.42100 23.73100
H  10.48900 47.41700 20.81200
H  7.78900 47.33900 21.67600
H  10.02600 49.62400 20.15900
H  9.93100 50.10800 21.80400
H  8.49700 49.49300 21.09400
H  8.86400 45.54200 20.28700
H  7.82800 45.19200 21.57300
H  10.42400 45.21700 22.69600
H  10.60400 44.33200 21.18300
H  9.39500 43.80500 22.37300
H  4.66900 45.83100 24.84800
H  4.06600 46.73200 26.19300
H  4.49100 45.01900 26.36300
H  7.47600 47.39300 30.68900
H  5.90400 43.55500 32.34100
H  7.35400 43.71700 33.44100
H  7.41000 42.98300 31.91700
Mg -5.24000 24.95000 26.41200
C  -3.75600 26.40500 29.19700
C  -6.94300 22.78000 28.49800
C  -5.96400 22.89900 23.75600
C  -3.11400 26.85900 24.33400
N  -5.32400 24.64800 28.57600
C  -4.66100 25.37300 29.56500
C  -5.09800 24.96100 30.99100
C  -6.14800 23.73200 30.74200
C  -6.10800 23.69700 29.19500
C  -5.71500 22.40000 31.37700
C  -5.64000 26.10800 31.88300
C  -5.52800 26.11800 33.40700
H  -5.17000 24.80000 34.08400
N  -6.45400 23.29800 26.14800
C  -7.14100 22.60700 27.09600
C  -8.09400 21.67800 26.46900
C  -7.76100 21.64300 25.10000
C  -6.69800 22.65800 24.92300
C  -9.33400 21.04500 27.19700
C  -8.40300 20.82300 24.01400
O  -8.08100 21.00600 22.87200
C  -9.39000 19.71200 24.35700
N  -4.54500 24.81500 24.34800
C  -5.02400 23.87500 23.49400
C  -4.40900 24.08800 22.05300
C  -3.62700 25.42800 22.32000
C  -3.80400 25.76000 23.73600
C  -3.61400 22.81600 21.63800
C  -4.12500 26.64600 21.33200
C  -3.05600 27.44500 20.59700
N  -3.79900 26.42000 26.70900
C  -3.03900 27.14700 25.74300
C  -2.08400 27.95300 26.42900
C  -2.33800 27.76300 27.79100
C  -3.41700 26.78100 27.88600
C  -1.00000 28.75300 25.81700
C  -1.94100 28.02700 29.13700
O  -1.10500 28.88700 29.55600
C  -2.83600 27.14300 30.11000
C  -1.95000 26.13400 30.84700
O  -1.53600 25.08700 30.40700
O  -1.73200 26.52400 32.20000
C  -0.86000 25.66700 32.93800
H  -7.53600 22.12300 29.13800
H  -6.06100 22.15900 22.95800
H  -2.50800 27.52400 23.71600
H  -4.22200 24.59000 31.52300
H  -7.18200 23.93900 31.01800
H  -6.60500 21.80700 31.58900
H  -5.13800 22.54800 32.28900
H  -5.16400 21.78300 30.66700
H  -6.69600 25.89400 31.72100
H  -5.12600 27.00100 31.52900
H  -6.48000 26.45100 33.82000
H  -4.86300 26.87100 33.82900
H  -10.14400 21.18800 26.48200
H  -9.64900 21.71400 27.99900
H  -9.24600 20.01900 27.55200
H  -9.16400 19.23800 25.31200
H  -9.47500 19.03400 23.50800
H  -10.37100 20.18500 24.39400
H  -5.32800 24.19500 21.47700
H  -2.55700 25.26200 22.19400
H  -2.68100 22.96500 21.09400
H  -4.27900 22.24200 20.99300
H  -3.35200 22.26700 22.54300
H  -4.80000 27.28500 21.90200
H  -4.73300 26.09000 20.61800
H  -2.04300 27.05200 20.68000
H  -3.06300 28.43400 21.05400
H  -3.28100 27.40300 19.53200
H  -0.15500 28.09900 25.60400
H  -0.72100 29.46400 26.59500
H  -1.18700 29.18600 24.83400
H  -3.35700 27.79600 30.81000
H  0.15900 26.04100 33.04200
H  -0.88100 24.65500 32.53400
H  -1.19300 25.53200 33.96800

