158

Mg 50.02900 44.96300 40.86400
C  47.11600 45.72200 39.06000
C  49.89900 41.76300 39.56100
C  53.41800 44.72800 41.50300
C  50.25200 48.29900 41.77500
N  48.61000 43.86100 39.51400
C  47.52500 44.42300 38.85100
C  46.74900 43.34100 38.08800
C  47.55900 42.02800 38.48700
C  48.79400 42.54100 39.18100
C  46.71000 40.99100 39.36300
C  46.76300 43.63500 36.51000
C  45.35200 43.56800 35.86400
H  45.05800 44.41600 34.59900
N  51.38700 43.39100 40.71400
C  51.11200 42.15300 40.08800
C  52.33900 41.35800 40.11400
C  53.33600 42.15200 40.84600
C  52.73600 43.49700 41.01200
C  52.47200 39.95200 39.54600
C  54.79700 41.70600 41.24000
O  55.17800 40.55400 40.91600
C  55.73500 42.51200 41.99700
N  51.52900 46.26100 41.68700
C  52.80700 45.94400 41.78900
C  53.68400 47.05100 42.26200
C  52.64300 48.21900 42.52300
C  51.35200 47.53500 42.00100
C  54.86000 46.76500 43.32800
C  53.02000 49.61000 42.01500
C  53.21000 50.63300 43.22000
N  48.81700 46.67900 40.75500
C  49.04300 47.98400 41.09700
C  48.04200 48.83900 40.62100
C  47.20900 48.03700 39.86800
C  47.70500 46.72800 39.91500
C  47.92300 50.31200 41.01500
C  46.04100 48.04500 38.99500
O  45.22300 48.89800 38.58800
C  45.93000 46.55200 38.49400
C  44.67100 45.99600 39.06000
O  43.66800 45.70600 38.36400
O  44.64100 45.98200 40.40100
C  43.33700 46.19500 41.15300
H  49.83900 40.72000 39.24300
H  54.48400 44.65700 41.73300
H  50.17200 49.35900 42.02500
H  45.73200 43.30800 38.47900
H  48.00300 41.51100 37.63600
H  46.88700 39.95400 39.07800
H  45.64300 41.17200 39.23400
H  47.00200 41.13900 40.40200
H  47.40600 42.86600 36.08300
H  47.23900 44.56800 36.20900
H  44.59600 43.84100 36.60100
H  45.15900 42.51800 35.64500
H  53.16200 39.89100 38.70400
H  51.51100 39.74800 39.07300
H  52.70000 39.16900 40.27000
H  55.22200 42.99500 42.82900
H  56.16900 43.25700 41.33100
H  56.59100 41.99700 42.43200
H  54.12200 47.36300 41.31300
H  52.49800 48.25900 43.60300
H  55.78100 46.70300 42.74900
H  54.58200 45.77400 43.68800
H  54.88000 47.53500 44.09900
H  52.19200 50.02700 41.44100
H  53.87700 49.62200 41.34200
H  52.51000 51.46800 43.18300
H  54.24000 50.98500 43.27700
H  53.10200 50.07300 44.14900
H  48.81100 50.92200 40.84700
H  47.80100 50.25700 42.09700
H  47.08200 50.80400 40.52700
H  45.92800 46.51700 37.40500
H  43.45000 47.11800 41.72100
H  43.08500 45.34300 41.78400
H  42.42900 46.32300 40.56300
Mg 5.62300 54.59100 41.69300
C  5.41700 50.93700 41.70200
C  8.60000 54.35400 40.35300
C  5.35500 57.88500 41.28400
C  2.31600 54.60500 43.07300
N  6.80800 52.79200 40.92900
C  6.56200 51.43300 40.98700
C  7.78500 50.60700 40.48200
C  8.93600 51.75600 40.34000
C  8.09500 53.06400 40.50900
C  10.08200 51.58300 41.43300
C  7.55200 49.87000 39.11100
C  6.55100 50.58700 38.12400
H  6.98000 51.26400 36.75200
N  6.89000 55.98400 40.99400
C  8.09600 55.69300 40.49700
C  8.72400 56.85700 40.02200
C  7.82200 57.98300 40.18300
C  6.59100 57.32500 40.81700
C  9.96800 56.83100 39.16400
C  8.06500 59.44300 39.70000
O  9.14300 59.80300 39.27100
C  6.92900 60.44400 39.85700
N  4.05100 56.03700 42.09400
C  4.26700 57.38500 41.94300
C  3.10800 58.10800 42.53400
C  1.90800 57.03700 42.59800
C  2.82800 55.77600 42.63100
C  3.43200 58.78100 43.86800
C  0.88600 56.96500 41.42400
C  -0.53800 57.30900 41.75400
N  4.14900 53.12400 42.26300
C  2.93800 53.31200 42.94000
C  2.40300 52.04000 43.33500
C  3.34700 51.12300 42.83300
C  4.37900 51.79200 42.20500
C  1.16800 51.75200 44.19600
C  3.61100 49.73500 42.78700
O  2.90200 48.82600 43.16100
C  4.97800 49.54800 41.92400
C  4.62900 48.74800 40.76400
O  3.92200 49.10600 39.81600
O  5.25600 47.56000 40.88100
C  5.10400 46.69200 39.67700
H  9.67100 54.19600 40.20400
H  5.36800 58.97300 41.37500
H  1.29000 54.70800 43.43400
H  7.96000 49.83000 41.22600
H  9.31100 51.83500 39.31900
H  10.99900 51.95000 40.97300
H  10.09500 50.49800 41.54100
H  9.78200 52.06400 42.36400
H  7.14500 48.87800 39.30800
H  8.50800 49.81700 38.59000
H  5.95800 51.33700 38.64700
H  5.70700 49.94100 37.88100
H  10.08000 57.68700 38.49800
H  9.85800 55.96400 38.51200
H  10.76200 56.60200 39.87400
H  6.00300 60.06100 39.42900
H  7.22400 61.41700 39.46500
H  6.72500 60.57100 40.92000
H  2.81100 58.97700 41.94800
H  1.46300 57.17300 43.58400
H  2.53000 59.28500 44.21500
H  4.33400 59.39000 43.81200
H  3.61800 58.05100 44.65600
H  1.00600 56.00300 40.92600
H  1.23700 57.73600 40.73800
H  -1.02000 58.01300 41.07400
H  -0.63100 57.62500 42.79300
H  -1.22300 56.46800 41.64800
H  1.38200 50.94500 44.89600
H  0.36600 51.46400 43.51700
H  0.79100 52.59000 44.78200
H  5.79100 49.04900 42.45300
H  5.67600 47.08200 38.83500
H  4.04100 46.64000 39.44300
H  5.49300 45.69900 39.90400

