158

Mg 46.87500 25.54700 27.38400
C  47.62400 27.46100 30.23800
C  46.66400 22.77400 29.46300
C  46.46600 23.55500 24.69200
C  47.85700 28.12600 25.31900
N  47.09800 25.17300 29.66000
C  47.28100 26.14000 30.58800
C  47.17800 25.53700 32.00000
C  46.97600 23.98600 31.69700
C  47.03200 23.93200 30.18900
C  47.97600 22.99200 32.35500
C  46.08900 26.21300 32.91300
C  46.64400 26.84300 34.22700
H  45.59200 27.50700 35.14600
N  46.44500 23.50600 27.15500
C  46.39000 22.50500 28.13400
C  46.05600 21.21400 27.44700
C  46.01100 21.51600 26.04700
C  46.33400 22.91500 25.91400
C  46.09900 19.83900 28.12100
C  45.76400 20.54800 24.94500
O  45.95500 20.85400 23.74000
C  45.21500 19.18200 25.20700
N  46.90000 25.91000 25.29300
C  46.74700 24.94400 24.35900
C  46.79300 25.44700 22.91100
C  47.35800 26.94000 23.11400
C  47.34100 27.07700 24.66000
C  47.72200 24.66800 21.89700
C  46.36600 27.95600 22.41900
C  46.33400 27.80600 20.93500
N  47.55500 27.38900 27.69600
C  47.92800 28.37100 26.72100
C  48.25500 29.61200 27.38700
C  48.21500 29.26500 28.78800
C  47.72300 27.94200 28.88900
C  48.64400 30.84200 26.69500
C  48.47600 29.74700 30.11800
O  48.77900 30.82600 30.38100
C  48.00000 28.65700 31.16400
C  49.17100 28.38200 32.04800
O  50.07100 27.66200 31.77500
O  49.09600 29.15600 33.14300
C  50.10900 28.94600 34.23100
H  46.62400 21.85700 30.05400
H  46.32100 22.99600 23.76500
H  47.94100 28.96500 24.62600
H  48.13100 25.61500 32.52300
H  46.03500 23.79700 32.21400
H  47.42700 22.37700 33.06900
H  48.77500 23.54800 32.84500
H  48.52800 22.30700 31.71100
H  45.20100 25.62800 33.15300
H  45.77200 27.06100 32.30600
H  47.33900 27.65100 34.00000
H  47.24100 26.05400 34.68500
H  45.13600 19.34800 27.98000
H  46.16100 19.97800 29.20000
H  46.97300 19.28500 27.78100
H  45.95600 18.69400 25.84000
H  45.16100 18.69100 24.23600
H  44.22400 19.19200 25.66100
H  45.80400 25.62400 22.49000
H  48.36500 27.04400 22.71000
H  47.14500 24.20400 21.09600
H  48.29900 23.94900 22.47900
H  48.43100 25.32100 21.38800
H  46.66100 28.95800 22.73000
H  45.33400 27.88200 22.76100
H  47.06200 27.08300 20.56700
H  46.60800 28.75800 20.48000
H  45.33900 27.67800 20.50900
H  48.19400 31.73900 27.11800
H  48.34100 30.75300 25.65100
H  49.73100 30.89700 26.76400
H  47.12300 29.09300 31.64200
H  50.02700 27.87700 34.42400
H  49.94600 29.43700 35.19000
H  51.07600 29.26700 33.84300
Mg 16.93400 53.48200 26.97600
C  19.04800 51.78200 29.33900
C  14.85400 54.14200 29.40800
C  14.85300 54.96800 24.62200
C  19.12200 52.46000 24.36000
N  16.86500 52.85400 29.02600
C  17.81400 52.28400 29.76600
C  17.38100 52.16600 31.20900
C  15.89700 52.54900 31.17100
C  15.84700 53.24100 29.79700
C  14.85000 51.40100 31.20500
C  18.29700 53.17700 32.08500
C  18.25800 53.10100 33.58800
H  17.23400 52.14200 34.17600
N  15.21000 54.55200 27.05600
C  14.50800 54.73500 28.19600
C  13.44800 55.66000 27.94900
C  13.38400 55.87000 26.53000
C  14.58800 55.14800 26.01000
C  12.47100 56.21200 29.03700
C  12.56200 56.72100 25.66300
O  12.70000 56.85000 24.51500
C  11.56500 57.59800 26.26600
N  16.96800 53.71900 24.79600
C  15.99500 54.37100 24.04700
C  16.24700 54.25300 22.52800
C  17.77900 53.73400 22.53700
C  17.98600 53.25500 23.96800
C  15.13900 53.33800 21.89400
C  18.88200 54.63600 21.78700
C  20.19400 54.91100 22.57800
N  18.79500 52.33500 26.74500
C  19.53700 52.05400 25.64100
C  20.78000 51.35700 26.19300
C  20.61400 51.26900 27.58500
C  19.38900 51.84500 27.93300
C  21.84900 50.78300 25.35500
C  21.24500 50.69700 28.84500
O  22.34400 50.22300 29.10800
C  20.28600 51.15800 30.00300
C  19.81000 50.02400 30.83300
O  19.09000 49.15300 30.33900
O  20.23700 50.04900 32.11900
C  19.85700 48.93200 32.99200
H  14.14400 54.33600 30.21400
H  14.12800 55.34400 23.89700
H  19.83200 52.04800 23.64100
H  17.45700 51.10900 31.46700
H  15.71500 53.25500 31.98100
H  14.72800 50.91500 32.17300
H  15.21200 50.69600 30.45600
H  13.84900 51.75800 30.96400
H  18.07900 54.19400 31.75700
H  19.34600 52.98200 31.86200
H  18.00500 54.14800 33.75300
H  19.25900 52.98300 34.00300
H  12.88200 55.98200 30.02100
H  11.51900 55.73000 28.81500
H  12.25900 57.27800 28.96100
H  12.17900 58.40700 26.66200
H  10.97600 57.09600 27.03300
H  10.91700 58.02300 25.50000
H  16.21600 55.22400 22.03300
H  17.79800 52.80000 21.97600
H  15.55200 52.46500 21.38800
H  14.62800 53.89600 21.10900
H  14.30500 52.96100 22.48600
H  18.36600 55.46000 21.29500
H  18.97700 53.97700 20.92400
H  19.99400 55.12700 23.62700
H  20.84400 55.68300 22.16400
H  20.80400 54.01500 22.46900
H  22.44100 49.96800 25.77000
H  22.47400 51.57300 24.93900
H  21.31000 50.35300 24.51100
H  20.73300 51.92900 30.63100
H  20.43100 48.85500 33.91600
H  20.05800 48.00600 32.45300
H  18.80000 48.93600 33.25700

