158

Mg 8.86300 2.67200 28.20400
C  10.41400 1.21900 30.88000
C  7.23600 4.86200 30.22900
C  7.18200 3.78800 25.44200
C  10.33700 0.16900 25.97600
N  8.79000 2.91000 30.29000
C  9.60100 2.31500 31.18200
C  9.50800 2.90200 32.60100
C  8.28300 3.86900 32.48100
C  8.03100 3.84700 30.91000
C  7.00900 3.45700 33.22000
C  10.85200 3.44600 33.26500
C  10.97700 3.28900 34.77100
H  9.71500 2.97000 35.55500
N  7.49000 4.13700 27.84900
C  6.99800 4.95000 28.87300
C  5.97200 5.80700 28.28700
C  6.04200 5.60600 26.86700
C  6.94500 4.48000 26.65200
C  5.30600 6.86700 29.08500
C  5.27700 6.38300 25.77100
O  5.42400 6.23700 24.53900
C  4.17100 7.35900 26.17700
N  8.82600 2.06800 25.96700
C  8.00700 2.73600 25.10000
C  8.06000 2.09700 23.70900
C  9.31000 1.09900 23.80300
C  9.50700 1.07100 25.30800
C  6.62700 1.48000 23.45500
C  10.63000 1.49700 22.98300
C  11.23500 0.31900 22.26900
N  9.93200 0.88300 28.33400
C  10.49100 0.05900 27.37600
C  11.35100 -0.96300 28.09500
C  11.31100 -0.54300 29.45700
C  10.48100 0.55700 29.58600
C  12.04300 -2.16400 27.46400
C  11.76500 -0.82300 30.80700
O  12.63500 -1.64100 31.16900
C  11.08800 0.26300 31.83300
C  10.07900 -0.43400 32.72000
O  8.90700 -0.76600 32.42100
O  10.71500 -0.67200 33.92100
C  9.90100 -1.34500 34.97300
H  6.80300 5.51800 30.98700
H  6.46400 4.11000 24.68400
H  10.87900 -0.55300 25.36100
H  9.10000 2.10300 33.22100
H  8.49300 4.82200 32.96700
H  6.20500 3.14200 32.55400
H  6.59700 4.30200 33.77100
H  7.13400 2.64100 33.93200
H  10.74400 4.46700 32.89700
H  11.61900 2.89200 32.72400
H  11.35300 4.24800 35.12600
H  11.63400 2.43600 34.94200
H  5.88900 7.17200 29.95400
H  4.26000 6.62500 29.27600
H  5.30300 7.73900 28.43100
H  3.59000 7.77000 25.35100
H  4.74800 8.25000 26.42400
H  3.53200 6.87700 26.91800
H  8.29800 2.94400 23.06500
H  9.02300 0.09200 23.50100
H  6.03300 1.60100 24.36100
H  6.72500 0.40800 23.28400
H  6.20100 1.88500 22.53700
H  11.35600 2.07600 23.55400
H  10.37400 2.14100 22.14200
H  10.77800 0.36000 21.28000
H  11.16300 -0.70100 22.64800
H  12.26500 0.65400 22.14900
H  11.80400 -2.39600 26.42600
H  11.69500 -3.03000 28.02900
H  13.08700 -1.98000 27.71700
H  11.86600 0.64400 32.49500
H  10.35800 -2.27300 35.31600
H  8.83100 -1.44100 34.78800
H  9.87800 -0.79900 35.91600
Mg 41.65300 41.08000 26.72500
C  41.18700 43.67900 29.16300
C  42.58800 38.99700 29.33200
C  42.81400 38.86500 24.34000
C  41.51100 43.59000 24.24200
N  41.68300 41.29500 28.88200
C  41.41900 42.38200 29.65700
C  41.48900 42.11700 31.13400
C  42.12500 40.74900 31.22700
C  42.05700 40.23000 29.71700
C  43.50400 40.66900 32.00100
C  40.00600 42.28600 31.70100
C  39.80700 41.79800 33.17900
H  40.18800 42.73000 34.36700
N  42.42400 39.14200 26.81200
C  42.70700 38.46200 27.97800
C  43.12700 37.10800 27.56900
C  43.26200 37.04700 26.17700
C  42.89300 38.44900 25.71600
C  43.37400 36.01300 28.58700
C  43.49900 35.93200 25.19400
O  43.41400 35.95600 23.98600
C  43.83600 34.53800 25.73900
N  42.05000 41.20700 24.61300
C  42.28900 40.05900 23.83900
C  42.12600 40.43800 22.43000
C  41.33400 41.86200 22.41000
C  41.71700 42.27400 23.79600
C  43.46900 40.48400 21.68300
C  39.86300 41.89100 22.10600
C  39.01000 40.96700 22.88600
N  41.25900 43.13800 26.59500
C  41.30300 44.04000 25.54600
C  41.03800 45.35200 26.02200
C  41.01200 45.23900 27.39900
C  41.22700 43.92300 27.71800
C  40.88500 46.59300 25.18400
C  40.88800 45.96600 28.61300
O  40.79500 47.15200 28.73800
C  41.03300 45.02900 29.76700
C  42.13500 45.39900 30.62200
O  43.25300 45.00400 30.52700
O  41.72700 46.35800 31.49600
C  42.68300 46.74800 32.55200
H  42.83200 38.32000 30.15300
H  43.18300 38.18300 23.57100
H  41.33500 44.32600 23.45500
H  42.18100 42.87100 31.51100
H  41.43600 40.06100 31.71500
H  43.56400 41.56400 32.62000
H  44.49400 40.55600 31.55800
H  43.50100 39.82500 32.69100
H  39.25000 41.76000 31.11700
H  39.87500 43.35700 31.85800
H  40.43200 40.90800 33.25000
H  38.78000 41.43600 33.24200
H  42.98700 35.02800 28.32800
H  43.09600 36.30800 29.59900
H  44.46100 35.96000 28.51600
H  43.12200 34.06100 26.41100
H  44.80900 34.50100 26.22800
H  44.01800 33.92100 24.85900
H  41.37100 39.82400 21.93900
H  41.83000 42.56800 21.74300
H  44.20100 40.83200 22.41200
H  43.55700 41.13800 20.81500
H  43.74100 39.50100 21.29700
H  39.77000 41.74300 21.03000
H  39.43500 42.87800 22.28100
H  39.60600 40.21900 23.41000
H  38.36200 40.47000 22.16400
H  38.31800 41.50700 23.53300
H  39.90500 46.70700 24.72200
H  41.55300 46.45800 24.33400
H  41.13800 47.47300 25.77500
H  40.11200 45.15700 30.33600
H  42.46500 46.21600 33.47900
H  42.66000 47.82600 32.70800
H  43.75000 46.61900 32.37000

