158

Mg 40.19700 9.92500 29.83300
C  42.10800 11.07200 32.60600
C  37.85800 8.83100 32.12700
C  38.56200 8.74300 27.28100
C  42.79200 10.84300 27.77000
N  39.93000 10.03400 32.07100
C  40.80700 10.60700 32.99200
C  40.27000 10.60800 34.46500
C  39.11700 9.48700 34.29300
C  38.93000 9.43800 32.71200
C  39.47400 8.15600 34.81200
C  39.80200 11.97700 34.93400
C  39.70100 12.09100 36.51800
H  40.72600 12.98600 37.20100
N  38.42500 8.99900 29.75700
C  37.59800 8.59100 30.77800
C  36.43000 7.92600 30.24500
C  36.54400 7.87600 28.80800
C  37.92700 8.51800 28.55300
C  35.25500 7.41600 31.08800
C  35.61800 7.34500 27.79600
O  35.84900 7.29200 26.58900
C  34.27400 6.97900 28.12100
N  40.69800 9.79600 27.81900
C  39.78300 9.31000 26.91700
C  40.24300 9.34600 25.44300
C  41.52800 10.20400 25.57600
C  41.68300 10.28100 27.09500
C  40.34100 8.03900 24.67000
C  41.47800 11.61800 24.83500
C  40.57900 12.71500 25.44000
N  42.07700 10.68700 30.07800
C  43.03300 11.01500 29.13100
C  44.20800 11.61000 29.73200
C  43.89400 11.57800 31.13500
C  42.54900 11.07600 31.28400
C  45.40300 12.21300 29.10900
C  44.40500 11.89800 32.47600
O  45.45000 12.35300 32.83100
C  43.19600 11.65600 33.53200
C  43.69000 10.63500 34.53300
O  44.39700 9.69300 34.27600
O  43.52100 11.22400 35.75200
C  44.13500 10.59400 36.86700
H  37.12800 8.31800 32.75700
H  37.95900 8.29700 26.48700
H  43.50200 11.28600 27.06800
H  41.15000 10.22900 34.98500
H  38.18500 9.79300 34.76900
H  38.93200 7.94000 35.73300
H  40.49100 8.14800 35.20400
H  39.22500 7.37200 34.09800
H  38.79700 12.13200 34.54200
H  40.43400 12.72500 34.45400
H  39.85800 11.11100 36.96800
H  38.74100 12.52900 36.79100
H  34.93800 6.42900 30.75100
H  34.37300 8.04300 30.96200
H  35.51100 7.24700 32.13400
H  33.80400 7.86700 28.54400
H  34.26900 6.06300 28.71100
H  33.70400 6.69200 27.23700
H  39.53100 9.94300 24.87400
H  42.36900 9.63100 25.18600
H  39.58900 7.31000 24.97000
H  41.36400 7.67800 24.77800
H  40.23200 8.16600 23.59200
H  40.92900 11.45100 23.90900
H  42.45400 11.97600 24.50500
H  40.07200 12.39100 26.34800
H  39.83700 13.09600 24.73700
H  41.27900 13.49600 25.73600
H  46.31800 11.68400 29.37700
H  45.34500 13.23900 29.47000
H  45.18900 12.26700 28.04100
H  43.06700 12.60100 34.05900
H  44.19500 9.51200 36.75000
H  43.71200 11.04800 37.76300
H  45.17700 10.91300 36.84000
Mg 26.67100 49.48800 26.29800
C  24.85000 50.56800 29.11000
C  29.22500 48.56300 28.51800
C  28.59300 48.73400 23.62900
C  24.18200 50.90200 24.25300
N  26.94700 49.46200 28.60800
C  25.98300 49.80500 29.48400
C  26.36600 49.48900 30.88700
C  27.92000 49.13300 30.67700
C  28.08000 49.04100 29.18400
C  28.85700 50.13700 31.39500
C  25.39300 48.58100 31.64800
C  24.91600 48.82000 33.08500
H  25.84900 49.36500 34.13700
N  28.62000 48.75300 26.10600
C  29.44900 48.42100 27.11300
C  30.70600 48.06900 26.57900
C  30.58400 48.11800 25.16400
C  29.20100 48.52200 24.92400
C  31.85800 47.70200 27.35600
C  31.60300 47.87800 24.09700
O  31.33600 47.96000 22.91000
C  32.96100 47.68700 24.56400
N  26.53100 49.93400 24.26800
C  27.41200 49.37300 23.35400
C  26.84700 49.49200 21.91300
C  25.40800 50.07300 22.19000
C  25.37500 50.31500 23.59800
C  27.78000 50.40300 21.01300
C  24.32000 49.15400 21.64200
C  22.96500 49.84600 21.17600
N  24.86500 50.54400 26.54200
C  23.97800 51.08100 25.64600
C  22.88800 51.72000 26.32700
C  23.15500 51.47900 27.65200
C  24.43000 50.80400 27.74400
C  21.73500 52.41500 25.68700
C  22.69700 51.78300 28.99300
O  21.67400 52.36400 29.38100
C  23.75400 51.21300 30.04400
C  24.16100 52.38900 30.94300
O  24.96200 53.23200 30.63400
O  23.46300 52.26500 32.09500
C  23.98700 53.06200 33.21200
H  30.02300 48.32800 29.22500
H  29.17000 48.54500 22.72100
H  23.37200 51.17100 23.57200
H  26.22500 50.43100 31.41600
H  28.04700 48.16500 31.16100
H  29.78600 50.17600 30.82800
H  29.17000 49.79600 32.38200
H  28.38900 51.11400 31.51800
H  25.76100 47.56400 31.51100
H  24.45600 48.66100 31.09800
H  24.56500 47.85100 33.44000
H  24.04000 49.46200 32.98800
H  31.72200 47.66300 28.43700
H  32.70300 48.37900 27.23000
H  32.08700 46.71100 26.96700
H  33.74400 47.59800 23.81100
H  33.02400 46.71700 25.05600
H  33.29800 48.49400 25.21500
H  26.86500 48.53600 21.39000
H  25.35600 51.05700 21.72400
H  28.42000 49.82500 20.34600
H  28.50500 51.00200 21.56400
H  27.13600 51.06900 20.43800
H  24.29600 48.43100 22.45800
H  24.70000 48.64000 20.75900
H  23.08500 50.87900 20.85000
H  22.28000 49.80800 22.02300
H  22.47700 49.25100 20.40400
H  20.98700 52.43900 26.47900
H  21.38500 52.01200 24.73700
H  21.95100 53.47400 25.54300
H  23.18700 50.41800 30.52900
H  24.09900 54.11800 32.96900
H  24.94800 52.65600 33.52900
H  23.32700 52.98600 34.07600

