158

Mg 40.50500 9.53800 29.08000
C  42.03400 10.32600 31.99600
C  37.80000 8.28100 30.82000
C  39.26100 8.72400 26.09300
C  43.52700 10.54200 27.36100
N  39.96100 9.31600 31.14200
C  40.77900 9.75300 32.10200
C  40.10700 9.61400 33.47500
C  38.88600 8.71500 33.19000
C  38.80600 8.79000 31.61900
C  38.94500 7.26600 33.75000
C  39.87800 10.88200 34.31400
C  40.53900 10.70400 35.72800
H  40.97900 11.87300 36.62400
N  38.80200 8.65400 28.53700
C  37.79100 8.18200 29.39100
C  36.69100 7.62800 28.54700
C  37.21200 7.65500 27.21900
C  38.50600 8.43700 27.23700
C  35.34400 7.07300 29.11600
C  36.45400 7.25100 25.87100
O  36.88500 7.38400 24.72700
C  34.88800 6.90100 26.03900
N  41.19500 9.79500 26.93500
C  40.46800 9.34400 25.93600
C  41.26300 9.34100 24.61000
C  42.54400 10.13500 25.03300
C  42.40900 10.19000 26.58200
C  41.58100 7.84200 24.21100
C  42.63300 11.55900 24.40500
C  41.78200 12.77200 24.99100
N  42.42300 10.27700 29.46800
C  43.45700 10.67800 28.74100
C  44.43200 11.30200 29.63700
C  43.95800 11.15000 30.90600
C  42.71100 10.44200 30.78700
C  45.74200 11.92400 29.05900
C  44.12800 11.39300 32.35300
O  44.99000 11.97200 32.95700
C  42.96800 10.83000 33.08500
C  43.56000 9.74500 33.93600
O  43.83800 8.61600 33.47800
O  43.89900 10.09800 35.21000
C  44.79600 9.22600 36.00300
H  36.91100 7.93800 31.35300
H  38.94200 8.43500 25.08900
H  44.50700 10.65600 26.89300
H  40.85800 8.96700 33.93000
H  37.97400 9.11400 33.63300
H  38.05200 7.16600 34.36800
H  39.78400 6.99300 34.39000
H  38.92900 6.58100 32.90200
H  38.80600 11.06300 34.39700
H  40.25000 11.73600 33.74700
H  41.43400 10.11600 35.52400
H  39.83800 10.08800 36.29100
H  35.17200 7.40700 30.13900
H  35.40400 5.98900 29.21700
H  34.58800 7.44300 28.42300
H  34.80200 6.03600 26.69800
H  34.36300 6.66500 25.11400
H  34.43000 7.84000 26.34900
H  40.57400 9.78600 23.89300
H  43.45700 9.55700 24.89000
H  41.32200 7.17400 25.03200
H  42.63000 7.63200 24.00300
H  41.04200 7.51600 23.32100
H  42.42200 11.57900 23.33600
H  43.62300 11.95400 24.63300
H  41.31500 12.40100 25.90400
H  40.94500 13.11800 24.38500
H  42.44300 13.57900 25.30600
H  46.48000 11.14900 29.26300
H  46.15700 12.82500 29.51000
H  45.57900 12.17500 28.01100
H  42.46700 11.55400 33.72800
H  44.22600 8.46300 36.53300
H  45.25100 9.94800 36.68100
H  45.45100 8.63400 35.36400
Mg 47.40400 16.47100 29.15400
C  45.20600 16.12500 31.79300
C  49.67200 18.00000 31.25900
C  49.40700 17.10500 26.49700
C  44.97700 14.95900 27.06200
N  47.37300 17.06000 31.20900
C  46.38200 16.82500 32.16500
C  46.83200 17.11800 33.63200
C  48.13600 17.91400 33.39100
C  48.43100 17.61400 31.89900
C  48.18700 19.42200 33.64700
C  46.86300 15.87500 34.62900
C  47.75200 15.97800 35.84500
H  47.54700 17.22400 36.75000
N  49.40100 17.35600 28.86400
C  50.14000 17.87300 29.89900
C  51.41400 18.35700 29.37600
C  51.35600 18.15300 27.95500
C  50.03500 17.50300 27.70100
C  52.59000 18.70200 30.24200
C  52.41500 18.37100 26.81000
O  52.18300 18.07100 25.63200
C  53.69100 18.97900 27.08400
N  47.22700 16.16000 27.09000
C  48.16900 16.53200 26.20100
C  47.71500 16.28400 24.78100
C  46.48100 15.33700 25.04400
C  46.13000 15.51800 26.52600
C  47.43800 17.55200 23.99300
C  46.74800 13.83300 24.63400
C  46.14800 13.23400 23.38300
N  45.41300 15.65300 29.34800
C  44.60800 15.14200 28.44700
C  43.37700 14.76700 29.09700
C  43.55900 15.14000 30.42500
C  44.81500 15.66400 30.52900
C  42.18300 14.15900 28.48400
C  42.97500 15.10500 31.75100
O  41.90600 14.62700 32.10300
C  43.96900 15.85000 32.69900
C  43.36400 17.01100 33.31200
O  42.96100 18.02100 32.79500
O  43.30500 16.72100 34.61500
C  42.50100 17.60500 35.47400
H  50.42400 18.53000 31.84700
H  50.01000 17.30400 25.60900
H  44.19400 14.60400 26.38800
H  46.07300 17.76900 34.06800
H  48.94700 17.47200 33.97000
H  49.18300 19.85200 33.74800
H  47.59800 19.70000 34.52100
H  47.73300 19.70400 32.69700
H  47.29700 15.01200 34.12400
H  45.88000 15.57900 34.99700
H  48.77100 15.81500 35.49500
H  47.41600 15.18700 36.51500
H  53.45000 19.05500 29.67200
H  52.99900 17.91900 30.88000
H  52.22400 19.47000 30.92300
H  53.37100 19.95300 27.45300
H  54.24200 19.05200 26.14700
H  54.11600 18.28800 27.81200
H  48.52100 15.79000 24.23800
H  45.66400 15.78200 24.47500
H  46.86800 18.20700 24.65200
H  46.88300 17.41000 23.06600
H  48.38600 18.04200 23.77000
H  46.39600 13.25300 25.48700
H  47.81400 13.62100 24.56300
H  46.85800 12.51900 22.96600
H  45.90300 13.96100 22.60900
H  45.35900 12.59400 23.77800
H  41.96600 14.87000 27.68800
H  41.43600 14.14900 29.27700
H  42.18500 13.11900 28.15500
H  44.27700 15.16700 33.49000
H  42.35700 17.36700 36.52700
H  41.50600 17.57100 35.03000
H  42.92100 18.61100 35.51300

