158

Mg -2.15500 17.09900 26.55700
C  -2.54500 14.86200 29.33900
C  -3.02600 19.61500 28.68500
C  -2.20800 19.23400 23.91900
C  -1.97500 14.27900 24.45000
N  -2.81500 17.13200 28.69700
C  -2.68500 16.21200 29.75900
C  -2.75700 16.74600 31.19500
C  -3.07000 18.26900 30.84000
C  -2.95900 18.33500 29.32600
C  -4.30200 18.92100 31.51600
C  -1.48100 16.42600 32.03300
C  -1.41200 17.40900 33.22000
H  -0.79300 16.73000 34.45500
N  -2.38100 19.11100 26.38000
C  -2.76400 19.96100 27.36500
C  -2.76100 21.32100 26.87600
C  -2.34400 21.30700 25.51000
C  -2.30300 19.81700 25.18900
C  -3.14100 22.48200 27.78500
C  -2.09400 22.42400 24.62700
O  -1.79100 22.26000 23.46300
C  -2.15100 23.88900 25.07500
N  -1.89100 16.76800 24.48600
C  -2.03200 17.83900 23.59200
C  -1.84200 17.36300 22.09800
C  -1.60800 15.78600 22.33500
C  -1.82100 15.58000 23.83100
C  -3.08500 17.72300 21.29100
C  -0.18700 15.38800 22.01700
C  0.92700 15.95100 22.94000
N  -2.21300 15.05000 26.79000
C  -2.19600 14.05400 25.83600
C  -2.22800 12.78200 26.48800
C  -2.30600 13.05600 27.82100
C  -2.43300 14.43600 27.94200
C  -2.03600 11.48900 25.65200
C  -2.40700 12.40100 29.18400
O  -2.21600 11.25000 29.51000
C  -2.66900 13.59100 30.14800
C  -1.69800 13.31000 31.23000
O  -0.51100 13.49000 31.10400
O  -2.34800 12.87300 32.37200
C  -1.44100 12.78600 33.55700
H  -3.03900 20.40200 29.44200
H  -2.14300 19.80800 22.99200
H  -1.93200 13.35100 23.87600
H  -3.60900 16.35600 31.75100
H  -2.19800 18.82300 31.18800
H  -4.80200 18.24200 32.20600
H  -5.04600 19.18100 30.76300
H  -4.09100 19.80500 32.11900
H  -0.58500 16.67300 31.46300
H  -1.60500 15.45000 32.50300
H  -2.43400 17.71600 33.44500
H  -0.74200 18.24900 33.03900
H  -2.25100 23.10300 27.88800
H  -3.52200 22.25500 28.78100
H  -3.87200 23.18600 27.38800
H  -3.07200 24.23400 25.54600
H  -1.75800 24.58000 24.33000
H  -1.32100 23.80900 25.77800
H  -0.92100 17.85500 21.78600
H  -2.24400 15.22400 21.65100
H  -2.83800 18.51300 20.58200
H  -3.88300 18.01600 21.97400
H  -3.51200 16.88300 20.74300
H  0.09800 15.69600 21.01100
H  -0.03800 14.30900 21.99400
H  0.70600 16.54800 23.82500
H  1.65600 16.38900 22.25800
H  1.43900 15.07400 23.33600
H  -1.37700 11.63000 24.79600
H  -2.99300 11.24500 25.19000
H  -1.76300 10.66600 26.31200
H  -3.67600 13.31700 30.46500
H  -1.77700 13.66800 34.10300
H  -0.37000 12.89700 33.39200
H  -1.52800 11.78200 33.97100
Mg -10.92100 38.78100 41.75100
C  -9.21400 35.83500 40.63200
C  -8.20400 40.63100 40.73800
C  -12.80300 41.45100 42.06700
C  -13.64600 36.74800 42.57800
N  -9.06300 38.22600 40.50900
C  -8.50900 37.01700 40.26600
C  -7.18000 37.11200 39.58700
C  -6.74300 38.60600 39.87000
C  -8.08300 39.22500 40.45800
C  -5.58500 38.68500 40.87100
C  -7.17600 36.63700 38.11000
C  -6.21200 35.52100 37.69900
H  -5.01800 35.98200 36.77600
N  -10.54100 40.82900 41.40800
C  -9.35700 41.39000 41.00900
C  -9.44300 42.79000 40.95400
C  -10.82400 43.08600 41.28600
C  -11.46500 41.77700 41.61700
C  -8.30400 43.73600 40.35600
C  -11.43000 44.50500 41.19900
O  -10.64200 45.44400 40.91800
C  -12.83900 44.83800 41.60000
N  -13.00300 39.04200 42.00400
C  -13.38900 40.23400 42.39200
C  -14.81400 40.17300 43.03400
C  -15.13100 38.73500 43.06300
C  -13.82800 38.12600 42.52700
C  -14.80700 41.00800 44.34900
C  -16.38900 38.30000 42.28800
C  -17.70900 38.30000 43.05200
N  -11.44000 36.70600 41.61500
C  -12.51100 36.06800 42.10600
C  -12.24400 34.59700 42.06000
C  -11.01900 34.43900 41.53200
C  -10.51600 35.75400 41.20400
C  -13.24500 33.56300 42.46100
C  -10.01700 33.42100 41.06700
O  -9.91400 32.19300 41.01200
C  -8.77900 34.36700 40.53700
C  -7.53300 34.07900 41.32700
O  -6.74400 33.16700 41.06000
O  -7.25300 34.93300 42.30300
C  -5.92100 34.78600 42.96000
H  -7.22800 41.12100 40.72000
H  -13.46500 42.31900 42.09100
H  -14.52800 36.25100 42.98700
H  -6.53900 36.46100 40.18100
H  -6.39600 39.04800 38.93600
H  -4.66900 38.32400 40.40400
H  -5.87800 38.16300 41.78200
H  -5.44100 39.74300 41.09000
H  -7.07300 37.48400 37.43200
H  -8.21600 36.34600 37.96400
H  -6.81600 34.74200 37.23300
H  -5.72300 35.13300 38.59300
H  -7.43600 43.11900 40.12300
H  -7.98300 44.38700 41.16900
H  -8.61900 44.32100 39.49200
H  -13.55600 44.13400 41.17700
H  -13.03200 45.87000 41.30800
H  -12.84300 44.71900 42.68300
H  -15.56400 40.68700 42.43300
H  -15.37100 38.42900 44.08100
H  -15.35200 41.92800 44.13900
H  -13.82200 41.34000 44.67800
H  -15.38100 40.42100 45.06500
H  -16.26300 37.33700 41.79400
H  -16.42100 39.04600 41.49400
H  -18.29800 37.39700 42.89600
H  -18.31200 39.13700 42.70000
H  -17.59700 38.37900 44.13400
H  -13.81000 33.84800 43.34900
H  -12.75500 32.60400 42.62400
H  -13.79600 33.31600 41.55300
H  -8.54000 34.04900 39.52200
H  -5.43900 35.76200 43.02500
H  -5.16700 34.14500 42.50500
H  -6.09900 34.40300 43.96500

