158

Mg 2.56600 8.68500 26.39100
C  2.97400 10.97900 29.16300
C  3.03200 6.17300 28.71600
C  2.86200 6.67100 23.79700
C  2.83400 11.41300 24.25000
N  3.06200 8.61800 28.62400
C  3.07800 9.66800 29.55500
C  3.10800 9.11500 30.98400
C  3.07500 7.64100 30.77100
C  3.07600 7.43400 29.28200
C  4.15100 6.87000 31.50800
C  1.85700 9.63000 31.64400
C  1.42700 9.07100 32.99900
H  2.48800 8.43900 33.85100
N  2.78600 6.65200 26.28800
C  2.92900 5.78900 27.37400
C  2.92200 4.45900 26.77800
C  2.88200 4.51100 25.30700
C  2.81800 6.02400 25.06800
C  3.10700 3.17500 27.51700
C  2.84000 3.34800 24.27900
O  2.61700 3.55200 23.05200
C  3.14000 1.94100 24.66600
N  2.60100 9.01500 24.22900
C  2.79200 7.96800 23.42000
C  2.64500 8.40800 21.98100
C  2.84900 9.98700 22.06200
C  2.83100 10.19500 23.59100
C  3.48100 7.63700 20.90900
C  1.74800 10.87000 21.39100
C  0.33800 10.78100 21.81100
N  2.70200 10.79400 26.55300
C  2.81600 11.75600 25.60900
C  2.96600 13.08100 26.22300
C  2.96400 12.79700 27.62200
C  2.87500 11.40900 27.76500
C  3.16700 14.23400 25.45400
C  3.17500 13.43300 28.90100
O  3.36000 14.65100 29.12100
C  3.23500 12.28200 29.97700
C  4.54800 12.37100 30.55300
O  5.63700 12.51700 29.98500
O  4.44000 12.26200 31.91000
C  5.63600 12.16900 32.71700
H  2.94500 5.36500 29.44500
H  2.99100 5.99100 22.95200
H  3.01400 12.26400 23.59000
H  3.99700 9.48700 31.49500
H  2.08900 7.32200 31.10700
H  4.67400 6.40400 30.67200
H  3.51500 6.29500 32.18100
H  4.89900 7.46700 32.02800
H  1.04800 9.35900 30.96700
H  2.01500 10.70700 31.70000
H  0.64700 8.31500 32.90500
H  0.99900 9.89400 33.57200
H  4.03400 2.65200 27.28000
H  2.29600 2.47600 27.31400
H  3.29000 3.33300 28.58000
H  2.90200 1.30600 23.81300
H  2.38500 1.61900 25.38300
H  4.18000 1.81800 24.96900
H  1.58600 8.25600 21.77200
H  3.85700 10.23300 21.72900
H  4.34200 7.08200 21.28200
H  3.83100 8.32800 20.14200
H  2.87800 6.91800 20.35300
H  1.73800 10.61500 20.33100
H  2.01300 11.92700 21.42500
H  -0.34300 11.02100 20.99500
H  0.15400 11.53100 22.58100
H  0.01100 9.84900 22.27100
H  2.28700 14.68000 24.99100
H  3.90500 14.00100 24.68700
H  3.71300 14.97800 26.03500
H  2.39600 12.40800 30.66100
H  6.06400 13.17000 32.66100
H  6.32500 11.38700 32.39900
H  5.28500 11.98700 33.73300
Mg 44.95300 34.84800 28.13900
C  43.50100 32.59900 30.45700
C  45.17000 37.12200 30.70500
C  46.33900 36.93900 25.97800
C  44.58500 32.46600 25.68800
N  44.53100 34.77100 30.33900
C  43.98700 33.74600 31.10500
C  43.95200 34.09100 32.62600
C  43.78000 35.63100 32.41900
C  44.59900 35.86800 31.12900
C  42.27700 36.06400 32.36900
C  45.31700 33.56400 33.23500
C  45.31900 33.44300 34.78700
H  44.40100 34.28000 35.59500
N  45.64700 36.75200 28.32300
C  45.69700 37.50300 29.48000
C  46.23100 38.80200 29.09700
C  46.76800 38.71400 27.78300
C  46.30300 37.43900 27.27200
C  46.30100 39.89800 30.14600
C  47.50000 39.79300 27.09500
O  48.06900 39.57800 26.01600
C  47.63800 41.27500 27.67500
N  45.24800 34.77100 26.08600
C  45.90100 35.75000 25.38400
C  46.27900 35.27600 24.01300
C  45.47000 33.88200 23.89200
C  45.19300 33.62300 25.33600
C  45.76900 36.31700 22.92700
C  46.27300 32.82900 23.04400
C  45.56000 32.14300 21.90800
N  44.32600 32.90200 28.03200
C  44.10900 32.09500 26.93500
C  43.50700 30.86900 27.37500
C  43.06600 31.09300 28.72500
C  43.69600 32.33900 29.08900
C  43.36700 29.66600 26.65000
C  42.47900 30.44000 29.87200
O  41.97400 29.36900 30.02200
C  42.61200 31.45800 31.05500
C  43.10200 30.74500 32.24400
O  44.11000 30.07900 32.33200
O  42.24900 31.06200 33.34100
C  42.54200 30.28500 34.61500
H  45.18500 37.82200 31.54300
H  46.90700 37.59900 25.31800
H  44.64400 31.68600 24.92600
H  43.02900 33.79100 33.12300
H  44.30600 36.08700 33.25800
H  42.14800 36.91300 31.69700
H  42.09100 36.55400 33.32400
H  41.56700 35.28600 32.08900
H  46.17000 34.18500 32.96200
H  45.52600 32.57300 32.83100
H  46.36400 33.61600 35.04500
H  45.06900 32.38800 34.90200
H  45.98900 40.89000 29.81800
H  47.27800 39.92800 30.62700
H  45.67200 39.68000 31.00900
H  48.18000 41.27400 28.62000
H  46.61300 41.62300 27.79700
H  48.13100 41.93900 26.96500
H  47.33500 35.09300 23.81800
H  44.47800 33.95800 23.44600
H  45.03500 35.84600 22.27400
H  46.55100 36.76500 22.31300
H  45.29600 37.19000 23.37800
H  46.72300 32.06200 23.67500
H  47.15400 33.37400 22.70700
H  45.83700 31.09500 21.79700
H  45.79600 32.58700 20.94100
H  44.48000 32.20600 22.03900
H  44.27300 29.06400 26.58300
H  43.14000 29.94500 25.62100
H  42.58800 28.93100 26.85500
H  41.56500 31.73900 31.16400
H  41.73000 30.07100 35.31000
H  43.16800 30.81500 35.33300
H  43.17800 29.41200 34.46200

