158

Mg 1.14000 7.45000 25.11900
C  1.62700 9.27200 28.28000
C  1.03000 4.62100 26.94800
C  1.05600 5.89900 22.19000
C  1.89200 10.57100 23.44800
N  1.50200 6.99600 27.37600
C  1.53800 7.89500 28.46600
C  1.42500 7.11400 29.73600
C  1.48400 5.58100 29.29100
C  1.31400 5.71000 27.77800
C  2.79500 4.79300 29.60600
C  0.14900 7.52300 30.66700
C  0.17800 7.57700 32.20000
H  1.42000 7.00400 33.00700
N  0.99800 5.49700 24.57300
C  0.86600 4.49600 25.49000
C  0.66400 3.25200 24.72600
C  0.66700 3.57300 23.34000
C  0.89900 5.03600 23.29800
C  0.55900 1.79500 25.33900
C  0.57400 2.69100 22.13700
O  0.64400 3.11200 21.01200
C  0.31200 1.26100 22.29600
N  1.32400 8.15800 23.12700
C  1.25600 7.31400 22.10800
C  1.41100 8.04700 20.81600
C  1.60000 9.50400 21.30200
C  1.57800 9.41300 22.74000
C  2.60800 7.51000 19.93200
C  0.47200 10.52300 20.85700
C  -0.89700 10.68800 21.60500
N  1.58800 9.46800 25.69600
C  1.78800 10.66100 24.86000
C  1.92900 11.86900 25.76200
C  1.81800 11.33000 27.07000
C  1.61900 9.91500 27.01200
C  2.10900 13.34700 25.43600
C  1.92100 11.70400 28.58700
O  2.01900 12.81900 29.08400
C  1.72100 10.30900 29.31200
C  2.84800 10.15400 30.28900
O  4.00600 9.87200 30.06200
O  2.29200 10.46800 31.50100
C  3.15800 10.37700 32.67300
H  0.88200 3.70700 27.52700
H  0.87100 5.42100 21.22600
H  2.16500 11.46200 22.87900
H  2.31000 7.37900 30.31400
H  0.63600 5.02400 29.69000
H  3.32300 5.43300 30.31300
H  3.31600 4.43900 28.71700
H  2.60300 3.96000 30.28300
H  -0.57500 6.77000 30.35300
H  -0.20000 8.52800 30.43100
H  -0.76700 7.16600 32.55600
H  0.16400 8.60100 32.57300
H  1.41200 1.15900 25.10000
H  -0.29100 1.23900 24.94400
H  0.45600 1.92300 26.41700
H  -0.56500 1.10500 22.92300
H  1.12500 0.74600 22.80800
H  0.19700 0.72800 21.35200
H  0.50400 8.01400 20.21100
H  2.56900 9.93700 21.05200
H  3.00600 8.30000 19.29600
H  2.32300 6.66700 19.30100
H  3.43800 7.22700 20.58000
H  0.30800 10.17100 19.83900
H  0.89700 11.52600 20.88900
H  -1.72800 10.85000 20.91900
H  -0.70700 11.48900 22.31800
H  -1.06700 9.79100 22.20100
H  2.90700 13.62600 24.74800
H  2.24500 13.88000 26.37700
H  1.17000 13.63200 24.96200
H  0.77100 10.43000 29.83200
H  3.57200 11.38400 32.72900
H  4.04400 9.78500 32.44500
H  2.65400 10.10600 33.60100
Mg 25.47200 1.28900 29.95300
C  27.61600 0.77400 32.70100
C  22.82300 1.37000 32.06500
C  23.53300 1.57600 27.27900
C  28.20900 0.24100 27.83800
N  25.29300 0.98400 32.18900
C  26.29700 1.05500 33.10100
C  25.80300 1.38900 34.49200
C  24.23300 1.39600 34.25400
C  24.07600 1.27600 32.74500
C  23.50400 0.19200 34.92500
C  26.40600 2.73000 34.89600
C  27.23100 2.77800 36.17700
H  26.79800 3.83300 37.19600
N  23.47100 1.48100 29.76100
C  22.54400 1.46500 30.73400
C  21.24000 1.70600 30.12000
C  21.39500 1.65000 28.74000
C  22.82800 1.57000 28.47100
C  19.95100 1.63300 30.90000
C  20.42100 1.64400 27.54500
O  20.74400 1.78300 26.37600
C  18.98300 1.28400 27.93200
N  25.91000 1.00400 27.84400
C  24.88900 1.25700 26.96200
C  25.34800 0.95800 25.48100
C  26.88300 0.60000 25.74600
C  27.00900 0.60100 27.23100
C  24.65600 -0.20800 24.62000
C  27.92400 1.57000 25.08000
C  27.83000 3.03400 25.51900
N  27.56500 0.68700 30.20500
C  28.52100 0.28900 29.25500
C  29.77900 -0.07300 29.96400
C  29.44700 0.19100 31.29700
C  28.10600 0.53400 31.38400
C  31.08100 -0.46300 29.35800
C  29.94400 0.26800 32.64800
O  31.07300 0.03200 33.14700
C  28.75600 0.65600 33.61600
C  28.73300 -0.27700 34.81200
O  27.98500 -1.26200 34.83600
O  29.44300 0.24900 35.82100
C  29.19000 -0.24900 37.18000
H  22.02400 1.53900 32.79100
H  23.03100 1.65500 26.31300
H  29.04100 -0.02200 27.18200
H  26.09400 0.58000 35.16300
H  23.76900 2.31400 34.61400
H  23.09600 0.47100 35.89600
H  24.28300 -0.56700 34.99900
H  22.73200 -0.16800 34.24500
H  25.58200 3.42600 35.05400
H  27.04900 3.07900 34.08800
H  28.28200 2.88500 35.90900
H  27.15600 1.79800 36.64700
H  19.22700 2.31300 30.45200
H  20.16000 1.92400 31.92900
H  19.41000 0.68700 30.87100
H  18.37800 0.92200 27.10100
H  18.51000 2.20800 28.26700
H  18.88000 0.50400 28.68600
H  25.28500 1.90100 24.93800
H  27.13400 -0.40100 25.39600
H  25.45300 -0.72700 24.08700
H  24.09300 0.29700 23.83600
H  24.05300 -0.82800 25.28300
H  27.59500 1.49700 24.04400
H  28.97500 1.28000 25.07300
H  27.41000 3.09400 26.52300
H  27.22300 3.60200 24.81400
H  28.79800 3.53500 25.49300
H  31.17300 -1.52600 29.13800
H  31.94700 -0.26100 29.98800
H  31.12200 0.04800 28.39600
H  28.95200 1.66900 33.96800
H  28.47400 -1.07100 37.20800
H  28.84200 0.56200 37.82000
H  30.15200 -0.64700 37.50100

