158

Mg 8.99200 3.32100 27.37200
C  10.31900 1.97400 30.35200
C  6.76300 5.31600 29.33600
C  7.49100 4.35000 24.50200
C  10.90900 0.98000 25.65100
N  8.58300 3.53200 29.57400
C  9.41900 3.00800 30.60700
C  9.17900 3.75200 31.90500
C  7.90700 4.58900 31.65000
C  7.64300 4.45800 30.11800
C  6.66200 4.32300 32.59400
C  10.35800 4.59700 32.43800
C  10.10800 5.22700 33.84700
H  10.88000 4.58200 35.01600
N  7.38500 4.62900 27.03700
C  6.66200 5.45000 27.97200
C  5.79900 6.31300 27.22400
C  6.02500 6.03800 25.83200
C  6.98500 4.90500 25.74500
C  4.93100 7.40900 27.91100
C  5.36000 6.71800 24.63900
O  5.57500 6.44100 23.43500
C  4.41800 7.83000 24.88200
N  9.09100 2.68200 25.30000
C  8.44600 3.32700 24.29300
C  8.89300 2.84500 22.99000
C  10.22700 2.05900 23.36600
C  10.13200 1.90000 24.86000
C  7.73000 2.05400 22.24300
C  11.60900 2.61900 22.95500
C  12.06100 3.94200 23.66200
N  10.34700 1.77700 27.88900
C  11.02000 0.92300 27.05500
C  11.88000 0.04600 27.85100
C  11.61000 0.39100 29.19200
C  10.67400 1.46600 29.13700
C  12.88000 -0.96800 27.22900
C  12.01300 0.25500 30.58900
O  12.89100 -0.39100 31.01500
C  11.21000 1.25600 31.41700
C  10.45000 0.53100 32.33200
O  9.27600 0.15800 32.12300
O  11.13700 0.31800 33.42600
C  10.27600 -0.21200 34.57400
H  6.32200 6.15200 29.88200
H  6.90800 4.59500 23.61200
H  11.52300 0.27800 25.08200
H  9.07300 2.91800 32.59900
H  8.05800 5.64800 31.86000
H  5.84200 3.82500 32.07700
H  6.40300 5.33800 32.89500
H  7.07900 3.80200 33.45500
H  10.55800 5.40200 31.73100
H  11.29700 4.04300 32.44600
H  9.07600 5.01400 34.12500
H  10.30400 6.29900 33.84400
H  5.45600 8.35700 27.79800
H  4.76000 7.22000 28.97100
H  3.94500 7.38400 27.44600
H  3.37800 7.54300 25.03800
H  4.56800 8.51000 24.04400
H  4.75200 8.47800 25.69300
H  9.25500 3.70900 22.43200
H  10.21900 1.04700 22.96000
H  6.76900 2.01500 22.75400
H  8.11200 1.05800 22.01700
H  7.49000 2.47400 21.26600
H  11.58300 2.60300 21.86600
H  12.38400 1.87300 23.13100
H  11.83200 4.03000 24.72400
H  11.65800 4.84000 23.19500
H  13.15000 4.00300 23.66500
H  13.66200 -0.96200 27.98800
H  13.11900 -0.65200 26.21300
H  12.47200 -1.97800 27.19200
H  11.90300 1.87800 31.98300
H  9.80700 -1.18400 34.42000
H  9.51600 0.50700 34.87900
H  10.99500 -0.42800 35.36400
Mg -10.01800 16.96600 40.44500
C  -6.60900 16.84400 40.54400
C  -9.76700 20.35800 39.57300
C  -13.40000 17.04400 39.95900
C  -10.05800 13.48900 40.44500
N  -8.35200 18.34600 39.96100
C  -7.07600 18.05000 40.10500
C  -6.26500 19.22300 39.53500
C  -7.17000 20.43900 39.74400
C  -8.50400 19.71300 39.75300
C  -6.95000 21.30900 40.98700
C  -5.79100 18.94200 38.07100
C  -4.37800 18.61500 37.66000
H  -4.14500 17.22900 37.01400
N  -11.38200 18.53400 39.92200
C  -11.08300 19.86600 39.54600
C  -12.30800 20.56900 39.28300
C  -13.37600 19.61400 39.44900
C  -12.72100 18.33200 39.82200
C  -12.27700 22.02200 38.99900
C  -14.79100 19.91200 39.36000
O  -15.10400 21.08400 39.13600
C  -15.87000 18.96200 39.59200
N  -11.47900 15.49300 40.18700
C  -12.85600 15.76700 40.06300
C  -13.68500 14.47500 39.98300
C  -12.51000 13.33500 39.95300
C  -11.25600 14.16500 40.19800
C  -14.67100 14.23600 41.10800
C  -12.33000 12.57000 38.58200
C  -12.39500 11.00400 38.63600
N  -8.67500 15.36900 40.57100
C  -8.82700 14.09400 40.64100
C  -7.46200 13.46200 40.98600
C  -6.58300 14.54100 41.06600
C  -7.37000 15.63200 40.70800
C  -7.30300 11.99400 41.20600
C  -5.20900 14.94900 41.25600
O  -4.25700 14.26300 41.66500
C  -5.10900 16.42700 40.82400
C  -4.62600 17.36500 41.93400
O  -5.30200 18.17500 42.53600
O  -3.32900 17.10800 42.24300
C  -2.73800 18.01100 43.24000
H  -9.60500 21.38900 39.25100
H  -14.44700 17.01300 39.65100
H  -10.18500 12.40500 40.47200
H  -5.38000 19.24900 40.17100
H  -7.25700 21.17200 38.94200
H  -6.04800 21.00600 41.51800
H  -7.80200 21.18000 41.65500
H  -6.75600 22.34300 40.70500
H  -6.02300 19.79500 37.43400
H  -6.41600 18.16000 37.64000
H  -3.75500 18.72000 38.54800
H  -4.14500 19.32500 36.86700
H  -12.25200 22.59300 39.92700
H  -13.03100 22.25300 38.24700
H  -11.32800 22.28300 38.52900
H  -15.70100 18.51800 40.57300
H  -15.86100 18.20200 38.81000
H  -16.84600 19.44500 39.56600
H  -14.27800 14.46100 39.06800
H  -12.67200 12.64200 40.77900
H  -14.47300 14.93900 41.91700
H  -14.55400 13.20300 41.43400
H  -15.71100 14.48300 40.89200
H  -11.34200 12.78700 38.17400
H  -13.00900 12.91400 37.80200
H  -12.00800 10.70800 39.61100
H  -11.63900 10.58200 37.97300
H  -13.39800 10.62300 38.44500
H  -6.47100 11.66100 41.82700
H  -7.15100 11.46600 40.26500
H  -8.12200 11.51300 41.74100
H  -4.53100 16.53800 39.90700
H  -2.80400 18.98600 42.75700
H  -1.69400 17.91700 43.54100
H  -3.36100 17.99200 44.13400

