158

Mg 1.72700 8.12100 25.33000
C  2.13900 10.11300 28.20800
C  1.80600 5.30900 27.42000
C  1.68200 6.22500 22.67800
C  1.87400 11.01200 23.35300
N  2.04000 7.76400 27.64700
C  2.13000 8.73800 28.57800
C  2.12500 8.04100 29.97800
C  2.32400 6.51700 29.68600
C  2.00100 6.50000 28.16300
C  3.76600 5.89600 30.00100
C  0.85600 8.31700 30.86500
C  1.21400 8.73500 32.29300
H  2.41400 7.96300 32.91100
N  1.65200 6.06300 25.08600
C  1.58900 5.08500 26.07100
C  1.27500 3.78700 25.49300
C  1.24800 4.03900 24.05600
C  1.61300 5.42500 23.90100
C  1.23900 2.57900 26.40500
C  0.88000 3.03800 23.02200
O  1.01600 3.26700 21.83400
C  0.40900 1.71300 23.39300
N  1.80600 8.58900 23.29100
C  1.75500 7.57600 22.45700
C  1.82000 8.04100 20.95300
C  1.59600 9.60700 21.13000
C  1.83100 9.77900 22.67000
C  3.17700 7.69600 20.26400
C  0.26000 10.17100 20.73400
C  0.41700 11.53300 20.02600
N  2.02100 10.21500 25.59300
C  1.96700 11.31500 24.70300
C  2.12100 12.52800 25.49900
C  2.23300 12.09000 26.81600
C  2.08100 10.67900 26.82900
C  2.36000 13.92800 24.94200
C  2.39700 12.57000 28.12200
O  2.68700 13.67300 28.55700
C  2.20600 11.34500 29.05700
C  3.29600 11.39700 30.10600
O  4.49500 11.29800 29.90800
O  2.66700 11.60900 31.33300
C  3.49600 11.87100 32.50800
H  1.92100 4.45000 28.08400
H  1.44000 5.63000 21.79600
H  1.97800 11.89000 22.71300
H  2.99300 8.35600 30.55700
H  1.60500 5.95900 30.28500
H  4.36600 6.68400 30.45700
H  4.25400 5.46000 29.12900
H  3.54800 4.98600 30.56000
H  0.30300 7.37800 30.85800
H  0.19100 9.06800 30.43800
H  0.37400 8.40600 32.90400
H  1.26800 9.81500 32.42500
H  2.22600 2.11500 26.40900
H  0.39900 1.92000 26.18400
H  1.18600 2.75800 27.47900
H  -0.39700 1.85900 24.11100
H  1.33900 1.21100 23.66200
H  -0.01000 1.09800 22.59600
H  0.92900 7.56400 20.54500
H  2.47700 10.14300 20.77600
H  3.85300 7.24000 20.98800
H  3.70300 8.60000 19.95500
H  3.08000 7.02000 19.41400
H  -0.45400 10.18400 21.55800
H  -0.16800 9.49100 19.99700
H  1.39000 12.02300 20.07900
H  -0.29300 12.14200 20.58500
H  0.17300 11.41200 18.97100
H  2.26500 14.02500 23.86000
H  3.34600 14.27400 25.24900
H  1.71500 14.72400 25.31300
H  1.25800 11.40500 29.59200
H  2.92400 11.71000 33.42200
H  3.72100 12.92700 32.66300
H  4.39900 11.27200 32.40000
Mg 36.31400 49.49300 24.61900
C  36.26100 47.61200 27.65900
C  35.41200 52.28000 26.40300
C  36.20400 51.16500 21.65400
C  36.92000 46.53200 22.97000
N  35.78700 49.88200 26.82300
C  35.96800 48.99700 27.86900
C  35.67300 49.67900 29.21100
C  35.26900 51.12600 28.71800
C  35.47600 51.12000 27.17100
C  33.85500 51.68300 29.14300
C  36.96300 49.67300 30.10000
C  36.61500 49.38400 31.63600
H  35.19800 49.57100 32.22000
N  35.97000 51.45900 24.13300
C  35.68700 52.44600 25.01400
C  35.46400 53.64900 24.27800
C  35.76800 53.40300 22.89300
C  35.96300 51.91200 22.86600
C  35.08900 55.00700 24.86100
C  35.85300 54.39300 21.71000
O  36.13200 53.99900 20.58100
C  35.57500 55.88500 21.83800
N  36.44700 48.91200 22.67300
C  36.39800 49.79200 21.60700
C  36.64100 49.01900 20.20100
C  37.19100 47.69900 20.75000
C  36.79600 47.69300 22.20600
C  35.46800 48.99900 19.25800
C  38.73000 47.45200 20.46100
C  39.70600 48.34300 21.30400
N  36.49300 47.47200 25.18900
C  36.72500 46.35500 24.41100
C  36.75800 45.14400 25.21400
C  36.64700 45.62800 26.50900
C  36.45000 47.01300 26.48500
C  36.84600 43.69800 24.56700
C  36.51400 45.19300 27.91000
O  36.50900 44.07800 28.36500
C  36.36000 46.47900 28.73600
C  35.09800 46.36400 29.65900
O  33.92900 46.51400 29.40000
O  35.57800 45.78700 30.78100
C  34.45300 45.24800 31.64700
H  34.95100 53.18800 26.79800
H  36.13800 51.71800 20.71400
H  37.06200 45.66300 22.32500
H  34.83400 49.22800 29.74200
H  36.04900 51.84800 28.96300
H  33.38400 51.32200 30.05800
H  33.11300 51.73100 28.34600
H  33.99100 52.74000 29.37300
H  37.41600 50.65700 29.98400
H  37.68200 48.94700 29.71900
H  37.33300 50.05900 32.10300
H  36.89500 48.34200 31.78900
H  35.82300 55.70400 24.45700
H  35.28700 54.97900 25.93300
H  34.07600 55.32600 24.61400
H  36.12700 56.43400 22.60100
H  34.49400 56.01200 21.78500
H  36.01000 56.32900 20.94300
H  37.51600 49.47800 19.74100
H  36.61900 46.86300 20.34700
H  36.03400 48.93100 18.32900
H  34.91700 49.93400 19.36100
H  34.79600 48.16800 19.47300
H  38.88400 47.74700 19.42300
H  39.01100 46.40200 20.54100
H  40.45600 48.81300 20.66600
H  40.26000 47.93600 22.14900
H  39.17100 49.11700 21.85300
H  37.43100 43.64900 23.64800
H  35.83600 43.38700 24.30100
H  37.29400 43.03300 25.30600
H  37.21100 46.72400 29.37200
H  34.87500 44.56100 32.38000
H  33.74700 44.69200 31.03000
H  34.00200 46.14400 32.07500

