158

Mg 41.70700 42.12700 26.00000
C  40.98700 44.36100 28.77100
C  42.71700 39.94100 28.38800
C  42.67300 40.22600 23.52300
C  40.90500 44.67400 23.84600
N  41.94300 42.19700 28.42400
C  41.49600 43.13200 29.27500
C  41.71000 42.68300 30.76300
C  42.06200 41.19000 30.57600
C  42.17100 41.06100 29.08100
C  43.25700 40.59500 31.44400
C  40.46900 43.15100 31.63700
C  40.13500 42.41100 32.94900
H  41.16800 42.67400 34.08300
N  42.47600 40.25100 25.94000
C  42.92100 39.58000 27.04800
C  43.52700 38.33300 26.62200
C  43.41100 38.35100 25.18900
C  42.83300 39.58200 24.77500
C  44.17500 37.23800 27.52800
C  43.82300 37.32700 24.12500
O  43.56800 37.52300 22.94300
C  44.51200 36.14300 24.56000
N  41.89100 42.50100 23.98900
C  42.07200 41.44400 23.10100
C  42.04600 41.88200 21.56200
C  41.14900 43.14100 21.81800
C  41.35500 43.48000 23.25900
C  43.38200 42.18400 20.84700
C  39.65300 43.03700 21.30300
C  38.85300 41.76700 21.50800
N  41.14200 44.11600 26.24500
C  40.81200 45.03100 25.22400
C  40.34900 46.30600 25.82400
C  40.42400 46.06400 27.20000
C  40.94400 44.73600 27.39300
C  39.98400 47.56000 25.08700
C  40.12600 46.69600 28.47800
O  39.60200 47.81300 28.70100
C  40.47200 45.56700 29.52400
C  41.35700 46.10600 30.57000
O  42.58600 46.24000 30.41800
O  40.64700 46.47700 31.64600
C  41.39300 46.68900 32.86900
H  42.93300 39.11200 29.06600
H  43.03900 39.68100 22.65000
H  40.58000 45.42600 23.12500
H  42.62400 43.22400 31.00600
H  41.13000 40.66600 30.78900
H  43.92700 40.01000 30.81500
H  42.83900 39.86400 32.13600
H  43.77400 41.43000 31.91700
H  39.56000 43.02500 31.04900
H  40.43900 44.19800 31.94100
H  40.00100 41.33000 32.91900
H  39.18000 42.87000 33.20500
H  45.16100 37.12500 27.07600
H  43.71600 36.26700 27.34100
H  44.10400 37.39000 28.60500
H  44.69000 35.53400 23.67400
H  43.88100 35.64800 25.29800
H  45.45100 36.47200 25.00700
H  41.47100 41.16500 20.97700
H  41.52900 44.06800 21.38800
H  43.73700 43.14300 21.22500
H  43.37700 42.12900 19.75900
H  44.14700 41.44700 21.09200
H  39.81400 43.13100 20.22900
H  39.20400 43.97400 21.63300
H  37.85500 42.10700 21.78500
H  39.37000 41.20500 22.28500
H  38.83700 41.28500 20.53000
H  39.31300 47.19300 24.31000
H  40.93900 47.92700 24.71200
H  39.64700 48.26100 25.85100
H  39.56600 45.29000 30.06400
H  41.14200 45.80800 33.45900
H  40.93000 47.50300 33.42700
H  42.45900 46.87500 32.73800
Mg 0.68300 43.44100 26.02500
C  2.98900 43.22400 28.66300
C  -1.79400 42.66800 28.24200
C  -1.42400 43.35400 23.36000
C  3.32600 43.88000 23.85400
N  0.63300 43.02600 28.20400
C  1.68000 43.07400 29.04600
C  1.13200 43.02100 30.46400
C  -0.28700 42.45500 30.35200
C  -0.55100 42.79200 28.86800
C  -0.52000 41.01000 30.62300
C  1.14600 44.45900 31.11100
C  1.45500 44.50500 32.66700
H  1.23100 43.20100 33.50800
N  -1.33900 42.98400 25.81600
C  -2.18900 42.68100 26.84300
C  -3.58400 42.54700 26.25600
C  -3.47800 42.87300 24.88300
C  -2.04900 43.10300 24.62700
C  -4.81200 42.14600 27.11200
C  -4.56900 42.90000 23.84700
O  -4.42500 43.25600 22.65900
C  -5.92600 42.48500 24.21500
N  0.86400 43.83600 23.93800
C  -0.07100 43.58600 23.05000
C  0.44900 43.59700 21.54800
C  1.88300 44.15900 21.83700
C  2.06700 43.87000 23.27100
C  0.37800 42.20200 20.87600
C  2.05000 45.63800 21.30400
C  1.82200 46.80100 22.28900
N  2.77500 43.52100 26.14600
C  3.71800 43.74000 25.20800
C  5.05400 43.71000 25.76500
C  4.81900 43.48600 27.15200
C  3.44800 43.35800 27.34900
C  6.28300 43.93300 25.01900
C  5.51200 43.32700 28.42600
O  6.68800 43.40500 28.69700
C  4.34500 43.17100 29.47500
C  4.64800 42.04200 30.29900
O  4.25900 40.87300 30.09200
O  5.39800 42.42900 31.44500
C  5.61200 41.36800 32.37000
H  -2.63200 42.52700 28.92800
H  -2.08000 43.32900 22.48700
H  4.07800 44.15600 23.11200
H  1.72100 42.35000 31.09000
H  -1.05800 43.00100 30.89600
H  0.34900 40.47500 31.00600
H  -0.91300 40.55600 29.71300
H  -1.31200 40.88500 31.36000
H  0.15600 44.90700 31.01800
H  1.79300 45.17100 30.59900
H  0.82000 45.29400 33.07200
H  2.51700 44.70000 32.81400
H  -5.62900 42.86500 27.04100
H  -4.49500 41.95000 28.13600
H  -5.19800 41.18900 26.76100
H  -6.07600 41.45600 24.54300
H  -6.52700 42.71400 23.33600
H  -6.10200 43.18100 25.03500
H  -0.21800 44.24100 20.97500
H  2.53100 43.53900 21.21800
H  1.38100 41.77600 20.82700
H  0.07900 42.17000 19.82800
H  -0.29300 41.49500 21.36300
H  1.44300 45.63500 20.39900
H  3.09400 45.72000 21.00200
H  2.59400 47.56700 22.21800
H  1.80900 46.37400 23.29200
H  0.85500 47.26900 22.10700
H  6.81900 44.77500 25.45800
H  6.15300 44.31800 24.00800
H  6.84800 43.00100 25.02800
H  4.41500 44.08400 30.06500
H  6.01200 40.39600 32.08000
H  4.64300 41.13000 32.80900
H  6.31300 41.79400 33.08700

