158

Mg 0.61300 7.63600 25.67700
C  1.32300 9.70600 28.62100
C  1.03300 5.03700 27.89800
C  0.20800 5.72700 23.12600
C  0.61000 10.57700 23.84100
N  1.17400 7.40500 28.04900
C  1.22400 8.39000 29.02600
C  1.49000 7.74300 30.37100
C  1.64600 6.21600 30.07100
C  1.16600 6.18300 28.61600
C  3.00100 5.57500 30.36800
C  0.39000 8.12400 31.30100
C  0.71600 7.98400 32.81200
H  1.76300 6.96700 33.33900
N  0.62900 5.63900 25.53600
C  0.79200 4.72900 26.53500
C  0.67200 3.38800 25.99500
C  0.41900 3.52900 24.55400
C  0.37500 5.00400 24.36600
C  0.71700 2.16200 26.77200
C  0.27700 2.52900 23.46400
O  -0.07900 2.85700 22.33300
C  0.46800 1.08400 23.72100
N  0.63600 8.14900 23.75400
C  0.36100 7.13400 22.80400
C  0.11300 7.79900 21.39800
C  -0.17300 9.29200 21.75600
C  0.40000 9.35000 23.21600
C  1.30600 7.46900 20.43100
C  -1.73600 9.59600 21.77700
C  -2.19100 10.93000 21.21900
N  0.98700 9.74800 26.09500
C  0.92000 10.81700 25.18300
C  1.38600 12.04100 25.87400
C  1.50100 11.70000 27.25000
C  1.28800 10.30100 27.31500
C  1.41200 13.48000 25.25200
C  1.70200 12.20600 28.55800
O  1.95200 13.34900 28.92300
C  1.63400 10.97700 29.49700
C  2.84800 10.81300 30.35300
O  3.87300 10.17300 30.08000
O  2.62400 11.43700 31.52000
C  3.67200 11.37400 32.54200
H  1.04800 4.15500 28.54100
H  0.04100 5.17700 22.19700
H  0.41300 11.40300 23.15500
H  2.42600 8.15600 30.74600
H  0.86100 5.70800 30.63200
H  3.40800 5.36200 29.37900
H  2.90000 4.64200 30.92300
H  3.46300 6.31300 31.02300
H  -0.48800 7.48300 31.22500
H  0.13600 9.15600 31.05800
H  -0.19300 7.71200 33.34900
H  1.04100 8.97900 33.11600
H  -0.00400 1.42400 26.42000
H  0.36900 2.40900 27.77500
H  1.71200 1.72300 26.85500
H  1.35600 0.92800 24.33300
H  0.48800 0.46400 22.82400
H  -0.37000 0.78700 24.35100
H  -0.78700 7.38000 20.94900
H  0.27600 9.92200 20.98900
H  1.95600 6.80500 21.00200
H  1.84800 8.38800 20.20600
H  0.87300 7.04300 19.52600
H  -1.96000 9.66600 22.84100
H  -2.38100 8.80900 21.38600
H  -1.31900 11.44400 20.81400
H  -2.72500 11.54000 21.94800
H  -2.87800 10.76200 20.38900
H  0.62700 14.13600 25.62900
H  1.22800 13.54200 24.18000
H  2.34200 13.98900 25.50300
H  0.82900 11.20200 30.19700
H  4.27500 12.27800 32.44800
H  4.33100 10.51800 32.39600
H  3.11400 11.41600 33.47700
Mg -12.11700 38.41300 42.80600
C  -10.28500 35.68100 41.44400
C  -9.74100 40.57900 41.34000
C  -14.23000 40.96100 43.35200
C  -14.71200 36.13900 43.44700
N  -10.40500 38.15300 41.33900
C  -9.78700 36.95000 41.06200
C  -8.33300 37.14100 40.47400
C  -8.12100 38.70400 40.60800
C  -9.45500 39.16900 41.20000
C  -6.95800 39.09700 41.46100
C  -8.11400 36.48200 39.04500
C  -6.80500 35.66300 38.91400
H  -5.85700 36.21200 37.88400
N  -11.96500 40.48900 42.59000
C  -10.92100 41.17100 41.93700
C  -11.19600 42.60300 41.91400
C  -12.47000 42.75000 42.54600
C  -12.93800 41.39100 42.92400
C  -10.30400 43.68200 41.38600
C  -13.25900 44.05500 42.80500
O  -12.85700 45.11900 42.31900
C  -14.46000 44.06100 43.69800
N  -14.21400 38.56800 43.27800
C  -14.82500 39.69900 43.50700
C  -16.34800 39.52000 43.85400
C  -16.44800 37.95800 43.83300
C  -14.99900 37.52400 43.61100
C  -16.92900 40.13000 45.10000
C  -17.47700 37.44700 42.78900
C  -17.08500 37.26600 41.30300
N  -12.51100 36.28000 42.61700
C  -13.49900 35.50900 43.03300
C  -13.21200 34.10000 42.73000
C  -11.93900 34.09600 42.19400
C  -11.51800 35.46600 42.09400
C  -14.10900 32.90200 42.99000
C  -10.85800 33.28600 41.67000
O  -10.82700 32.09900 41.39300
C  -9.63100 34.31400 41.37000
C  -8.54000 34.19900 42.41100
O  -8.77700 34.24900 43.64100
O  -7.33400 34.12900 41.90200
C  -6.29200 33.89100 42.85700
H  -8.95400 41.32000 41.18600
H  -15.03000 41.69400 43.23000
H  -15.54900 35.47200 43.66800
H  -7.69600 36.64700 41.20700
H  -7.92700 39.06900 39.59900
H  -6.72300 38.40000 42.26500
H  -7.07400 40.07500 41.92800
H  -6.08600 38.99900 40.81500
H  -7.91500 37.33000 38.39000
H  -8.98400 36.07000 38.53500
H  -7.07200 34.61700 38.76200
H  -6.38600 35.77700 39.91400
H  -10.71700 44.65800 41.64200
H  -10.34800 43.71300 40.29800
H  -9.32700 43.65100 41.86900
H  -15.37500 43.77700 43.17900
H  -14.54300 45.08200 44.07200
H  -14.21800 43.52400 44.61500
H  -16.86000 39.86300 42.95500
H  -16.77300 37.58100 44.80200
H  -17.79000 40.77100 44.91400
H  -16.22400 40.66300 45.73800
H  -17.34000 39.35900 45.75200
H  -18.35000 38.08600 42.92900
H  -17.61200 36.43900 43.18000
H  -17.82400 37.67000 40.61000
H  -16.88400 36.21200 41.11100
H  -16.20300 37.88600 41.13700
H  -14.73300 32.72400 42.11500
H  -14.80600 33.17100 43.78400
H  -13.66500 31.92400 43.17800
H  -9.23300 34.06700 40.38600
H  -5.42000 34.45900 42.53300
H  -5.99500 32.84200 42.83000
H  -6.40600 34.11100 43.91900

