158

Mg 53.63300 24.04700 44.62600
C  50.90700 25.95800 43.56900
C  52.06200 21.33400 43.27300
C  56.48300 22.56300 45.02500
C  55.08000 27.17300 45.88400
N  51.76100 23.70700 43.42400
C  50.83700 24.61600 43.07700
C  49.72900 23.97700 42.16800
C  49.80800 22.50200 42.57100
C  51.31000 22.47800 43.07200
C  48.80300 22.10000 43.68800
C  50.03500 24.36500 40.70700
C  48.89300 24.82300 39.76400
H  49.20700 25.23900 38.31900
N  54.20300 22.09500 44.28500
C  53.42200 21.10000 43.69800
C  54.08300 19.86200 43.86600
C  55.41400 20.20100 44.33400
C  55.44800 21.70200 44.58500
C  53.44500 18.56500 43.38700
C  56.52600 19.17900 44.48100
O  56.39300 17.96800 44.24600
C  57.83400 19.57100 45.01500
N  55.57300 24.84700 45.18100
C  56.58700 23.92600 45.26100
C  57.83500 24.52800 45.96200
C  57.36500 26.12100 45.99200
C  55.90700 26.03800 45.69400
C  58.32800 24.00200 47.37600
C  58.07100 27.00200 44.90400
C  58.92600 28.05300 45.55700
N  53.21500 26.18300 44.71700
C  53.79600 27.25900 45.34000
C  52.86400 28.39800 45.36900
C  51.75300 27.91200 44.70100
C  51.99600 26.51100 44.31800
C  53.06300 29.70900 45.95500
C  50.42800 28.23900 44.26600
O  49.80900 29.26600 44.39100
C  49.83600 26.97700 43.52800
C  49.29200 27.39200 42.26600
O  49.96800 27.71300 41.31200
O  47.92100 27.43500 42.27400
C  47.17400 27.84900 41.03200
H  51.43200 20.45900 43.09300
H  57.49000 22.14000 45.03700
H  55.57200 28.03500 46.34000
H  48.71800 24.28800 42.43200
H  49.71200 21.90600 41.66300
H  49.26400 21.21200 44.12100
H  47.88800 21.81000 43.17200
H  48.63700 22.92500 44.38100
H  50.49900 23.48500 40.26200
H  50.75800 25.17500 40.79200
H  48.23500 25.55500 40.23200
H  48.24300 23.95000 39.69800
H  52.44600 18.39000 43.78800
H  54.08300 17.69200 43.52300
H  53.40100 18.78200 42.32000
H  57.54500 20.11500 45.91400
H  58.43200 20.25600 44.41300
H  58.39600 18.68900 45.32200
H  58.70200 24.42500 45.30900
H  57.55100 26.41600 47.02500
H  58.03700 22.96100 47.52000
H  57.88000 24.56000 48.19800
H  59.39500 24.11000 47.57000
H  57.33400 27.38800 44.20100
H  58.87900 26.46200 44.41100
H  59.97900 27.81400 45.41000
H  58.83500 28.14200 46.63900
H  58.81200 29.04400 45.11800
H  52.59900 30.31400 45.17600
H  54.12700 29.92700 46.04600
H  52.58800 29.73200 46.93600
H  49.02100 26.57100 44.12800
H  46.58800 28.72700 41.30100
H  46.54700 27.04300 40.65000
H  47.85600 28.05400 40.20700
Mg 0.42200 44.20200 25.30800
C  2.66400 43.89900 27.93500
C  -2.04400 42.90800 27.34300
C  -1.72700 44.11300 22.68200
C  3.02700 44.92500 23.21300
N  0.37900 43.48900 27.48400
C  1.38000 43.52300 28.34600
C  0.85800 43.29600 29.82300
C  -0.68000 42.87700 29.57900
C  -0.80300 43.09700 28.03200
C  -1.06100 41.43000 30.01500
C  0.89800 44.58700 30.68500
C  1.46000 44.40100 32.09500
H  1.30500 43.03000 32.81700
N  -1.60400 43.68100 25.08600
C  -2.44100 43.15200 26.03100
C  -3.75800 42.89700 25.45600
C  -3.66700 43.32000 24.09000
C  -2.30500 43.75300 23.87800
C  -4.89100 42.44800 26.35200
C  -4.76600 43.30700 23.02400
O  -4.67300 43.76700 21.87200
C  -6.13100 42.67100 23.33700
N  0.62900 44.36600 23.20700
C  -0.46000 44.48200 22.36800
C  0.00900 44.83500 20.91300
C  1.53300 45.09500 21.09800
C  1.77500 44.82800 22.59800
C  -0.45300 43.79400 19.90100
C  2.06500 46.43100 20.54500
C  1.76900 47.77600 21.38300
N  2.48700 44.39800 25.51900
C  3.43500 44.67600 24.52900
C  4.78000 44.60000 25.15800
C  4.48100 44.54600 26.52300
C  3.09600 44.23800 26.64000
C  6.08300 44.75100 24.48600
C  5.04900 44.26800 27.74400
O  6.25700 44.13200 28.00500
C  3.88700 44.05700 28.77200
C  4.26500 42.83800 29.47200
O  3.96000 41.68100 29.10300
O  4.75100 43.08900 30.65200
C  5.24700 41.93100 31.45000
H  -2.75000 42.30100 27.91400
H  -2.42300 44.20800 21.84600
H  3.79100 45.19600 22.48200
H  1.29500 42.41700 30.29700
H  -1.43700 43.56400 29.95900
H  -1.44900 41.39700 31.03300
H  -0.12500 40.88400 30.13100
H  -1.78700 40.83500 29.46100
H  -0.10900 44.97300 30.84000
H  1.57700 45.22800 30.12300
H  1.05100 45.26700 32.61700
H  2.53000 44.54700 31.94800
H  -5.02000 41.36600 26.32700
H  -5.84800 42.86200 26.03600
H  -4.83600 42.83300 27.37000
H  -6.06200 41.73300 23.88800
H  -6.73300 42.55600 22.43600
H  -6.58100 43.39600 24.01600
H  -0.30300 45.83100 20.59600
H  2.11600 44.35200 20.55400
H  0.29100 43.03900 19.64900
H  -0.70300 44.28400 18.96000
H  -1.38600 43.30000 20.17200
H  1.67900 46.65600 19.55100
H  3.14900 46.35200 20.47000
H  1.32200 47.57600 22.35700
H  1.04000 48.35300 20.81500
H  2.72000 48.30000 21.47600
H  6.87600 44.89300 25.22000
H  6.00800 45.51000 23.70800
H  6.21700 43.74200 24.09600
H  3.85600 44.84700 29.52200
H  5.93500 41.41200 30.78300
H  4.44500 41.30400 31.83700
H  5.78200 42.32100 32.31600

