158

Mg 47.53300 45.32900 43.60800
C  44.43600 45.97500 42.19100
C  47.42400 42.23600 41.91400
C  50.85600 44.91200 44.12300
C  47.94300 48.77000 44.06200
N  46.09300 44.16500 42.22500
C  44.78500 44.64000 41.98000
C  43.99600 43.63800 41.24900
C  44.88900 42.35300 41.17000
C  46.22800 42.92800 41.82000
C  44.32700 41.07600 41.91700
C  43.50000 44.02400 39.81900
C  42.16200 43.58600 39.39500
H  42.07500 42.54700 38.19600
N  48.92800 43.74400 43.24800
C  48.66200 42.53500 42.58300
C  49.70500 41.65500 42.82700
C  50.71400 42.36500 43.58000
C  50.22000 43.78200 43.62100
C  49.72200 40.21200 42.41200
C  51.92300 41.79400 44.18600
O  52.13400 40.58200 44.05600
C  52.92200 42.62200 45.10800
N  49.19100 46.70700 43.79800
C  50.39200 46.21700 44.25700
C  51.36100 47.33200 44.70500
C  50.41000 48.64500 44.68600
C  49.14400 48.03000 44.11300
C  52.13200 47.05800 45.97900
C  51.03900 49.76200 43.81900
C  52.34300 50.39900 44.48800
N  46.38100 46.96200 43.54900
C  46.64800 48.34100 43.76700
C  45.34800 49.06800 43.65200
C  44.52500 48.13700 43.05200
C  45.18300 46.93000 42.89900
C  45.07900 50.54000 43.94100
C  43.21300 47.98600 42.51000
O  42.36400 48.80700 42.44700
C  43.07400 46.61600 41.79000
C  41.90800 45.88200 42.46600
O  41.88200 45.25100 43.53700
O  40.81300 45.95500 41.66200
C  39.59900 45.28300 42.30000
H  47.31700 41.23300 41.49500
H  51.89300 44.74400 44.42100
H  48.03500 49.82500 44.33000
H  43.10900 43.40800 41.83900
H  45.12700 42.16200 40.12400
H  44.77200 40.26800 41.33700
H  43.24900 40.96500 41.80200
H  44.78000 41.03800 42.90800
H  44.20000 43.83800 39.00400
H  43.45700 45.11300 39.81100
H  41.46700 44.40600 39.21400
H  41.78000 43.01000 40.23800
H  50.69700 39.86300 42.07200
H  49.16400 40.11800 41.48000
H  49.28900 39.56300 43.17200
H  52.40100 43.29600 45.78800
H  53.60000 43.16300 44.44900
H  53.47000 41.98900 45.80700
H  52.16400 47.44500 43.97800
H  50.24400 48.86100 45.74200
H  53.17000 46.98100 45.65400
H  51.74300 46.15000 46.44000
H  51.96400 47.88900 46.66400
H  50.33500 50.59000 43.73900
H  51.31800 49.34600 42.85100
H  53.20100 49.92300 44.01400
H  52.43500 50.12600 45.53900
H  52.21600 51.47400 44.35700
H  44.06500 50.90800 43.78600
H  45.64200 50.88400 43.07400
H  45.45700 50.92500 44.88800
H  42.83200 46.75600 40.73600
H  39.83200 44.22100 42.38500
H  38.84100 45.21700 41.52000
H  39.15200 45.71900 43.19400
Mg -1.63200 35.06500 26.85900
C  -3.21400 33.64000 29.68500
C  -0.48500 37.55000 28.75400
C  -0.91500 36.67300 23.93600
C  -3.49900 32.67100 24.90100
N  -2.02200 35.53600 29.02900
C  -2.47100 34.78300 30.00600
C  -2.14400 35.33100 31.36500
C  -1.34600 36.68200 30.99100
C  -1.13200 36.51100 29.50000
C  -2.01300 38.01300 31.44600
C  -1.30200 34.28400 32.15900
C  -1.92600 33.86700 33.59300
H  -0.97300 34.13100 34.74300
N  -0.76600 36.85400 26.39900
C  -0.30500 37.72100 27.37800
C  0.36000 38.78700 26.69900
C  0.26500 38.55300 25.30700
C  -0.55800 37.33800 25.14000
C  0.90400 39.92300 27.47600
C  0.88200 39.34200 24.20400
O  0.76600 39.05300 23.04600
C  1.71800 40.51700 24.57400
N  -2.25600 34.70500 24.79300
C  -1.63900 35.45700 23.76400
C  -1.91400 34.87100 22.35600
C  -2.82000 33.66200 22.66300
C  -2.81900 33.62200 24.23100
C  -2.50200 35.88200 21.28500
C  -2.42300 32.40100 21.92900
C  -1.06900 31.76600 22.36700
N  -3.00300 33.41000 27.15200
C  -3.65100 32.63200 26.30000
C  -4.38400 31.64400 27.00600
C  -4.22400 31.96800 28.34100
C  -3.39700 33.11300 28.39000
C  -5.15700 30.56000 26.38000
C  -4.62500 31.50600 29.64700
O  -5.33800 30.60300 30.02700
C  -3.93200 32.57600 30.64700
C  -5.01000 33.14800 31.41800
O  -5.88100 33.93700 31.09000
O  -4.82200 32.67100 32.65900
C  -5.86800 32.91800 33.65900
H  -0.02400 38.27700 29.42700
H  -0.46600 37.04700 23.01400
H  -4.19100 31.99900 24.38800
H  -3.13500 35.49900 31.78600
H  -0.30800 36.79100 31.30500
H  -2.73100 37.96100 32.26400
H  -2.46700 38.43800 30.55100
H  -1.13800 38.57600 31.77000
H  -0.25900 34.58200 32.25900
H  -1.35800 33.36500 31.57600
H  -2.17700 32.80600 33.58600
H  -2.85700 34.37400 33.84500
H  1.00300 39.70800 28.54000
H  0.34100 40.85100 27.37300
H  1.93600 40.09400 27.17000
H  1.27200 41.29800 25.18900
H  2.03400 40.95200 23.62600
H  2.59300 40.14200 25.10600
H  -0.89200 34.61000 22.08100
H  -3.86300 33.81300 22.38800
H  -2.51400 36.79900 21.87400
H  -3.48800 35.50400 21.01600
H  -1.77700 35.79300 20.47500
H  -2.50800 32.68500 20.88000
H  -3.13100 31.58600 22.08200
H  -1.43200 30.75700 22.56000
H  -0.69700 32.20400 23.29300
H  -0.29100 31.74700 21.60400
H  -5.51100 29.77600 27.05000
H  -4.56300 30.10200 25.58900
H  -6.01500 30.92600 25.81700
H  -3.25200 31.99200 31.26700
H  -5.24900 33.08700 34.54000
H  -6.40800 31.98400 33.81400
H  -6.52500 33.75300 33.41600

