158

Mg -0.01500 7.84800 26.46900
C  0.84000 9.84400 29.39900
C  -0.28900 5.15800 28.59200
C  -0.42100 6.11900 23.78900
C  0.42400 10.74800 24.63100
N  0.48900 7.51400 28.72900
C  0.59200 8.49000 29.75900
C  0.44500 7.83900 31.11300
C  0.20600 6.32600 30.73100
C  0.13500 6.32400 29.24700
C  1.33500 5.39100 31.33300
C  -0.71300 8.39200 31.94300
C  -0.39800 8.74000 33.40300
H  0.83500 8.11900 33.99200
N  -0.28000 5.91400 26.22800
C  -0.41800 4.93500 27.18800
C  -0.83600 3.67300 26.58400
C  -0.81000 3.92600 25.18400
C  -0.55400 5.39000 25.01400
C  -1.23600 2.45600 27.38600
C  -1.04500 3.00100 24.01100
O  -1.02600 3.30600 22.82200
C  -1.29400 1.50300 24.21200
N  0.02500 8.26800 24.51300
C  -0.14700 7.37100 23.49800
C  0.05100 8.05300 22.14000
C  -0.26600 9.56800 22.44600
C  0.00500 9.53500 23.99700
C  1.36300 7.91300 21.36100
C  -1.71500 9.95500 22.30400
C  -2.10600 10.60600 20.99800
N  0.55100 9.90700 26.79400
C  0.76400 10.93200 25.97300
C  1.21700 12.15800 26.67700
C  1.13700 11.73900 28.02300
C  0.81600 10.36700 28.02000
C  1.54400 13.46800 26.02400
C  1.34900 12.19400 29.30400
O  1.68300 13.31700 29.64900
C  1.16000 10.97700 30.28600
C  2.33500 10.95000 31.13800
O  3.31500 10.28100 30.81100
O  2.20300 11.73900 32.24700
C  3.28000 11.82200 33.29800
H  -0.63300 4.27500 29.13400
H  -0.41400 5.56000 22.85000
H  0.61300 11.53500 23.89900
H  1.43300 7.85700 31.57300
H  -0.73100 5.91500 31.10600
H  0.99200 5.11000 32.32900
H  2.30500 5.87300 31.21200
H  1.48700 4.48300 30.74900
H  -1.58600 7.74500 32.03200
H  -1.01400 9.28600 31.39800
H  -1.27600 8.41100 33.95900
H  -0.28600 9.81300 33.55400
H  -0.90000 1.56400 26.85600
H  -2.31700 2.50200 27.25200
H  -0.87800 2.39200 28.41400
H  -0.53500 0.93800 24.75300
H  -1.54600 1.11300 23.22600
H  -2.20900 1.44700 24.80300
H  -0.72100 7.66800 21.47400
H  0.40700 10.25900 21.94000
H  2.05200 8.74100 21.53000
H  1.19300 7.71400 20.30300
H  1.94200 7.11100 21.81700
H  -1.97200 10.74000 23.01600
H  -2.33800 9.07900 22.48900
H  -1.55200 10.41700 20.07800
H  -2.01600 11.69100 21.06600
H  -3.10300 10.31000 20.67100
H  0.60600 14.02000 25.96000
H  2.06200 13.28900 25.08200
H  2.11800 14.07200 26.72600
H  0.27100 11.21900 30.86900
H  4.16900 11.41700 32.81500
H  3.18800 11.22000 34.20300
H  3.44600 12.86100 33.58100
Mg 26.46500 49.36800 26.21300
C  24.44700 50.44100 28.99100
C  28.83500 48.52400 28.47600
C  28.29500 48.65700 23.54700
C  24.07000 50.85200 24.10500
N  26.58500 49.51900 28.52500
C  25.67200 49.94000 29.43400
C  26.16900 49.64800 30.89200
C  27.64600 49.09400 30.71700
C  27.72900 49.14600 29.13000
C  28.75600 49.93200 31.36400
C  25.27600 48.57600 31.68900
C  24.76600 49.19500 32.97800
H  25.71900 49.86000 33.93700
N  28.31700 48.66600 25.97800
C  29.12300 48.32300 27.06300
C  30.28600 47.61900 26.48900
C  30.20500 47.70800 25.02700
C  28.88000 48.39900 24.79100
C  31.46600 47.13800 27.44800
C  31.04200 47.11800 23.95300
O  30.87400 47.40100 22.77700
C  32.24000 46.32100 24.24800
N  26.24200 49.75700 24.17400
C  27.17300 49.26900 23.27100
C  26.62500 49.34700 21.88500
C  25.24900 50.11200 22.00800
C  25.19100 50.21300 23.54300
C  27.52300 49.93700 20.78400
C  24.13900 49.24900 21.40700
C  23.58900 49.68700 20.06900
N  24.62600 50.32400 26.48000
C  23.78500 50.89100 25.52800
C  22.66500 51.43100 26.17100
C  22.82700 51.23400 27.56300
C  24.07400 50.60300 27.68900
C  21.54300 52.05600 25.49000
C  22.22900 51.53700 28.88200
O  21.15900 52.02200 29.24900
C  23.25800 50.98100 29.89500
C  23.60900 52.14000 30.78100
O  24.48300 52.94400 30.54800
O  22.86900 52.15100 31.92000
C  23.31700 53.10300 32.91700
H  29.49100 48.06700 29.22000
H  28.84400 48.37200 22.64700
H  23.35200 51.31500 23.42600
H  26.19000 50.58400 31.45100
H  27.70100 48.08500 31.12600
H  29.19900 50.50100 30.54700
H  29.44800 49.19400 31.77000
H  28.41500 50.63400 32.12500
H  25.73000 47.61300 31.92400
H  24.30800 48.50400 31.19300
H  24.36900 48.29800 33.45400
H  23.98500 49.91800 32.74600
H  31.48800 47.66400 28.40200
H  32.39600 47.42800 26.95900
H  31.44200 46.04900 27.49600
H  32.51300 45.56500 23.51200
H  31.92200 45.73300 25.10800
H  32.95200 47.06300 24.61100
H  26.44700 48.30100 21.63400
H  25.28900 51.09300 21.53500
H  28.39100 50.47200 21.16700
H  26.90500 50.66400 20.25800
H  27.84300 49.15200 20.09900
H  23.21100 49.19800 21.97700
H  24.42200 48.20800 21.24600
H  24.19000 50.57500 19.87400
H  22.53200 49.95600 20.07900
H  23.91400 48.96400 19.32100
H  21.38200 51.47100 24.58400
H  21.87400 53.08900 25.39200
H  20.67600 52.06700 26.15000
H  22.98400 50.18200 30.58400
H  23.43100 54.11200 32.52000
H  24.34400 52.83600 33.16600
H  22.64800 53.00300 33.77100

