158

Mg 1.05200 -0.89800 42.47200
C  4.51500 -0.43500 41.70100
C  0.36800 1.95300 41.08400
C  -2.12400 -1.90600 42.65900
C  1.97300 -4.22700 43.53400
N  2.32200 0.56400 41.47500
C  3.66300 0.60800 41.20600
C  4.11600 1.95300 40.67900
C  2.81500 2.80600 40.84300
C  1.77700 1.69800 41.07600
C  2.88400 3.86300 41.94700
C  4.56000 1.71600 39.18400
C  5.85300 2.38900 38.73500
H  5.89400 3.50400 37.69200
N  -0.64100 -0.01800 42.03700
C  -0.73200 1.13800 41.37800
C  -2.12500 1.49000 41.23500
C  -2.90300 0.41500 41.78000
C  -1.90400 -0.62000 42.14000
C  -2.51900 2.85100 40.72200
C  -4.39700 0.41500 42.00900
O  -5.10100 1.26500 41.55900
C  -5.06600 -0.66400 42.75800
N  0.05900 -2.88300 43.07600
C  -1.24500 -2.91300 43.11000
C  -1.79500 -4.27600 43.45600
C  -0.40800 -5.01500 43.89800
C  0.64400 -4.03300 43.47400
C  -2.78700 -4.20900 44.65000
C  -0.10200 -6.43700 43.33600
C  -1.22200 -7.21300 42.67100
N  2.81100 -2.14000 42.51100
C  3.01100 -3.39200 43.06400
C  4.41400 -3.75300 43.08500
C  5.01300 -2.65200 42.44300
C  4.03600 -1.66200 42.24100
C  4.99200 -4.91700 43.80400
C  6.29700 -2.14700 41.99300
O  7.31000 -2.81600 42.09600
C  6.03300 -0.63400 41.56100
C  6.81500 0.43100 42.28000
O  6.46000 1.01100 43.33100
O  7.88000 0.90100 41.52400
C  8.56800 2.07800 42.07500
H  0.07100 2.86500 40.56100
H  -3.19500 -2.11600 42.62200
H  2.27700 -5.11300 44.09500
H  4.96100 2.36400 41.23200
H  2.56600 3.28100 39.89400
H  2.39100 3.44600 42.82500
H  2.48100 4.78700 41.53100
H  3.95100 3.96600 42.14700
H  3.80300 2.20800 38.57300
H  4.51100 0.65100 38.95900
H  6.40400 1.54900 38.31300
H  6.45200 2.69000 39.59400
H  -3.52500 2.89100 40.30500
H  -1.80300 3.26600 40.01300
H  -2.51000 3.49500 41.60100
H  -5.15000 -1.58100 42.17400
H  -6.05900 -0.40900 43.12800
H  -4.50300 -0.72500 43.68900
H  -2.19100 -4.70500 42.53500
H  -0.42500 -5.03200 44.98800
H  -3.64500 -4.81500 44.35900
H  -3.17600 -3.20300 44.80800
H  -2.52100 -4.63100 45.61900
H  0.11800 -7.06000 44.20300
H  0.77300 -6.56200 42.69800
H  -1.23600 -8.28000 42.89000
H  -1.05800 -7.20300 41.59300
H  -2.20700 -6.80200 42.89300
H  4.66800 -5.84000 43.32300
H  4.59500 -5.03600 44.81300
H  6.06700 -4.84400 43.97200
H  6.29800 -0.46100 40.51800
H  9.04600 1.94400 43.04600
H  8.02600 3.02000 41.98100
H  9.39000 2.23400 41.37700
Mg 25.78800 0.46700 30.08600
C  27.57600 0.03100 32.97700
C  22.87800 0.62300 31.90400
C  24.16100 0.69500 27.07100
C  28.78900 -0.32300 28.18600
N  25.35400 0.31000 32.16500
C  26.19700 0.30100 33.19500
C  25.45600 0.61500 34.52300
C  23.91400 0.31100 34.16600
C  24.03400 0.36100 32.64300
C  23.35600 -1.03300 34.76900
C  25.72900 2.00700 35.05500
C  26.66500 2.09900 36.24300
H  26.21700 2.94700 37.42700
N  23.79900 0.78800 29.53500
C  22.75100 0.88800 30.45200
C  21.50400 1.16500 29.67800
C  21.85500 1.07900 28.29600
C  23.31700 0.85400 28.24300
C  20.27000 1.46300 30.55000
C  20.93900 1.30600 27.12100
O  21.29800 1.49800 25.94200
C  19.46300 1.42700 27.26800
N  26.37600 0.06500 27.84600
C  25.50700 0.37600 26.91300
C  26.20400 0.37200 25.55000
C  27.68600 0.05900 25.84400
C  27.67400 -0.05600 27.34800
C  25.64200 -0.68600 24.54800
C  28.63000 1.16300 25.39500
C  28.31900 2.62800 25.78100
N  27.77900 -0.15500 30.45000
C  28.88700 -0.31700 29.61500
C  30.04100 -0.63000 30.48700
C  29.60600 -0.47900 31.80600
C  28.18800 -0.20100 31.71300
C  31.41400 -0.97900 30.07500
C  30.02300 -0.42300 33.19900
O  31.13400 -0.52500 33.63900
C  28.66300 -0.27000 34.02600
C  28.45100 -1.53300 34.70300
O  27.47500 -2.25700 34.56200
O  29.52200 -1.77900 35.62000
C  29.12700 -2.70200 36.65400
H  21.96400 0.69000 32.49900
H  23.52000 0.67000 26.18700
H  29.68500 -0.55900 27.60900
H  25.89600 -0.12300 35.19400
H  23.40600 1.17000 34.60400
H  24.19100 -1.51200 35.28100
H  22.92700 -1.56200 33.91800
H  22.67300 -0.79300 35.58400
H  24.90000 2.64700 35.35800
H  26.21100 2.57500 34.25900
H  27.62500 2.50200 35.92100
H  26.97900 1.10200 36.55100
H  20.28400 1.75800 31.59900
H  19.53000 0.68900 30.34400
H  19.90800 2.39000 30.10500
H  19.32200 2.34100 27.84400
H  19.04500 0.54200 27.74800
H  19.03500 1.56700 26.27500
H  26.00800 1.37500 25.17100
H  27.96900 -0.81800 25.26100
H  24.89000 -0.16500 23.95500
H  25.22900 -1.52100 25.11500
H  26.37800 -1.13300 23.87900
H  28.62200 0.99900 24.31700
H  29.61200 0.88000 25.77200
H  27.63200 2.68400 26.62500
H  27.94000 3.17900 24.92000
H  29.25600 3.01800 26.17700
H  31.74400 -0.62100 29.09900
H  31.53400 -2.06100 30.02400
H  32.04500 -0.66700 30.90700
H  28.71800 0.50500 34.78900
H  29.95400 -2.92400 37.32800
H  28.95700 -3.68200 36.20700
H  28.18300 -2.51200 37.16500

