158

Mg 23.43600 -6.36400 45.19300
C  25.72800 -4.15900 43.83800
C  20.94400 -4.84900 43.23700
C  21.38300 -9.14300 45.46800
C  25.99700 -7.97500 46.85900
N  23.33100 -4.45500 43.85700
C  24.47300 -3.81300 43.43500
C  24.07700 -2.79100 42.39000
C  22.47300 -2.84500 42.46400
C  22.25100 -4.15000 43.21500
C  21.85900 -1.67100 43.32900
C  24.63500 -3.26200 41.11100
C  25.48200 -2.23000 40.31200
H  25.08400 -1.94500 38.86500
N  21.46000 -6.91100 44.52400
C  20.64700 -6.14400 43.82000
C  19.32600 -6.78000 43.64900
C  19.56700 -8.10400 43.99900
C  20.86500 -8.15200 44.67200
C  18.17100 -6.08800 42.88800
C  18.51700 -9.19900 43.68300
O  17.31300 -8.92100 43.37800
C  18.82400 -10.62100 44.13300
N  23.69600 -8.28200 45.93200
C  22.64800 -9.17400 46.07300
C  23.15300 -10.43600 46.91200
C  24.58700 -9.99300 47.42000
C  24.79600 -8.69200 46.67500
C  22.32600 -10.82800 48.12000
C  25.74500 -11.01600 47.32500
C  26.62000 -11.26600 48.58600
N  25.48300 -6.06700 45.41000
C  26.38700 -6.80100 46.17900
C  27.73200 -6.29800 45.96700
C  27.50100 -5.27500 45.03700
C  26.15600 -5.18400 44.73000
C  29.03800 -6.83500 46.59900
C  28.14700 -4.17800 44.31400
O  29.32700 -3.90900 44.18200
C  26.97100 -3.45700 43.41400
C  27.05600 -2.01500 43.97000
O  26.63900 -1.55000 45.05000
O  27.85200 -1.27400 43.12800
C  27.94400 0.19300 43.36900
H  20.25200 -4.31300 42.58400
H  20.87000 -10.10600 45.51600
H  26.73900 -8.50100 47.46400
H  24.38900 -1.77100 42.61700
H  21.99400 -2.83000 41.48500
H  22.53800 -0.89200 43.67400
H  21.36600 -2.04100 44.22800
H  21.05600 -1.16700 42.79100
H  23.79700 -3.47300 40.44600
H  25.23400 -4.17000 41.18000
H  26.55000 -2.44900 40.28900
H  25.36900 -1.25300 40.78200
H  17.95100 -6.56600 41.93400
H  18.34100 -5.02700 42.70200
H  17.19400 -6.20800 43.35600
H  18.14500 -11.27900 43.59100
H  18.68600 -10.76400 45.20500
H  19.85400 -10.80000 43.82700
H  23.26700 -11.32600 46.29300
H  24.51500 -9.70000 48.46700
H  21.63000 -10.02400 48.36000
H  22.92800 -11.19000 48.95300
H  21.80500 -11.73300 47.80700
H  26.41100 -10.66400 46.53700
H  25.38600 -12.03100 47.15500
H  26.60300 -12.34900 48.71000
H  26.13200 -10.85800 49.47100
H  27.52700 -10.66400 48.53600
H  29.22300 -7.79400 46.11500
H  28.88300 -7.01000 47.66300
H  29.90800 -6.22400 46.35800
H  27.18900 -3.41500 42.34700
H  27.72500 0.37900 44.42100
H  27.29000 0.62000 42.60900
H  28.93100 0.63700 43.24700
Mg 44.32900 4.24800 47.16300
C  42.52000 7.37600 47.27200
C  41.48000 2.60200 46.87600
C  46.13300 1.58100 46.15500
C  47.20000 6.30100 46.84700
N  42.26400 4.95300 46.98500
C  41.73000 6.24200 47.25100
C  40.24200 6.13100 47.43800
C  39.91900 4.62100 47.29400
C  41.29500 4.00100 47.16400
C  39.08000 3.96900 48.41500
C  39.58100 6.95400 46.30100
C  40.20500 7.25600 44.89100
H  39.38900 6.99800 43.58500
N  43.83900 2.29100 46.67100
C  42.63000 1.82200 46.68900
C  42.64100 0.39500 46.31800
C  44.00200 0.08400 45.99700
C  44.72500 1.34800 46.26100
C  41.37900 -0.37600 46.15900
C  44.56400 -1.23000 45.41700
O  43.82000 -2.16700 45.12600
C  46.08500 -1.48100 45.16200
N  46.27600 3.99300 46.61800
C  46.84500 2.81100 46.31700
C  48.35400 2.81300 46.46900
C  48.72700 4.24500 46.83000
C  47.32300 4.90400 46.77500
C  49.04800 1.70400 47.45600
C  49.76000 4.93100 45.91100
C  51.07300 5.39700 46.56900
N  44.84500 6.45600 47.04400
C  46.03100 7.05000 46.98800
C  45.81300 8.44700 47.11100
C  44.42900 8.69900 47.29100
C  43.89600 7.40800 47.20400
C  46.92400 9.49900 47.19400
C  43.36300 9.63200 47.67000
O  43.28600 10.82500 47.89700
C  42.08300 8.78800 47.68500
C  41.61100 8.70400 49.13900
O  42.06100 7.96500 49.99400
O  40.51400 9.53500 49.25600
C  39.79400 9.41900 50.54100
H  40.56700 2.00200 46.87000
H  46.80300 0.77200 45.85600
H  48.09900 6.91800 46.91800
H  40.02900 6.53400 48.42900
H  39.28000 4.44300 46.42900
H  38.21500 4.62400 48.52200
H  39.73300 3.78900 49.26800
H  38.61300 3.03300 48.10900
H  39.28200 7.89600 46.76000
H  38.63400 6.46400 46.07400
H  41.10100 6.64400 44.79000
H  40.57700 8.27600 44.98600
H  41.27400 -1.19400 46.87200
H  41.60100 -0.93000 45.24600
H  40.45900 0.16100 45.93000
H  46.87000 -1.33700 45.90500
H  46.20600 -1.00300 44.19000
H  46.00900 -2.55200 44.97500
H  48.68300 2.72300 45.43300
H  49.02300 4.22800 47.87900
H  48.37700 0.93200 47.83400
H  49.46500 2.24600 48.30500
H  49.91900 1.24500 46.98700
H  49.38300 5.83600 45.43400
H  50.11900 4.21100 45.17500
H  51.90600 4.70100 46.47400
H  50.99600 5.72900 47.60400
H  51.43400 6.33600 46.15100
H  47.00100 9.66100 48.26900
H  46.60600 10.42100 46.70800
H  47.83100 9.12800 46.71600
H  41.25700 9.07100 47.03200
H  38.95300 10.10200 50.42300
H  40.24400 9.83900 51.44100
H  39.40800 8.43100 50.78900

