158

Mg 0.93600 8.01500 24.91400
C  2.04300 9.93600 27.68800
C  0.69000 5.34700 26.92600
C  0.65200 6.24700 22.22300
C  1.35600 10.97800 22.92400
N  1.58700 7.68600 27.07100
C  1.81600 8.63300 27.99500
C  1.70400 8.05300 29.42000
C  1.61400 6.53500 29.12700
C  1.20100 6.50700 27.62300
C  2.96300 5.74600 29.28900
C  0.56900 8.65800 30.38200
C  1.05200 9.13500 31.71100
H  2.01300 8.28600 32.49100
N  0.57100 6.15900 24.54400
C  0.41700 5.16600 25.53100
C  0.20800 3.84200 24.81200
C  0.33300 4.08900 23.40800
C  0.45600 5.55900 23.36000
C  -0.00500 2.45300 25.53500
C  0.19800 3.13000 22.18900
O  0.27700 3.52700 21.04600
C  -0.08900 1.59600 22.46400
N  1.01600 8.56600 22.83400
C  0.91400 7.60000 21.89100
C  1.34800 8.23300 20.51900
C  1.19700 9.71900 20.70400
C  1.18300 9.79900 22.18900
C  2.76500 7.71200 20.22600
C  -0.13100 10.31700 20.13400
C  -1.52500 9.63900 20.38200
N  1.48700 10.08700 25.17500
C  1.59800 11.12000 24.27900
C  1.98300 12.33900 25.06300
C  2.03000 11.96600 26.40900
C  1.89300 10.53900 26.40100
C  2.13400 13.71200 24.46800
C  2.29900 12.43300 27.73000
O  2.50900 13.53400 28.17300
C  2.21000 11.12800 28.64300
C  3.31900 11.06300 29.54300
O  4.41900 10.48100 29.41200
O  3.08300 11.96300 30.57300
C  4.27100 12.07600 31.47800
H  0.54200 4.50200 27.60300
H  0.62100 5.82500 21.21600
H  1.52100 11.86700 22.31000
H  2.60500 8.32400 29.97000
H  0.74600 6.10000 29.62200
H  2.73000 4.86600 29.88900
H  3.68600 6.36700 29.81600
H  3.36500 5.43000 28.32700
H  -0.16300 7.86900 30.55500
H  0.17800 9.56000 29.91100
H  0.20300 9.39000 32.34500
H  1.49000 10.13200 31.66900
H  -0.82600 1.87000 25.11700
H  -0.18100 2.54500 26.60700
H  0.83800 1.80000 25.30800
H  0.78000 1.05700 22.84200
H  -0.42300 1.14700 21.52900
H  -0.93000 1.52600 23.15300
H  0.61300 8.01900 19.74300
H  2.05800 10.21500 20.25600
H  3.24100 7.06500 20.96200
H  3.44500 8.53000 19.99300
H  2.69500 7.21800 19.25700
H  0.11900 10.49900 19.08900
H  -0.29300 11.26700 20.64300
H  -1.41000 8.70600 20.93400
H  -1.91200 9.52700 19.37000
H  -2.24200 10.29600 20.87400
H  1.19000 14.01700 24.01600
H  2.91800 13.59100 23.72100
H  2.35700 14.36700 25.31000
H  1.32800 11.32600 29.25200
H  3.93000 12.75800 32.25700
H  5.13800 12.46900 30.94700
H  4.47800 11.12300 31.96700
Mg 16.40900 51.53200 25.70600
C  18.17900 50.49900 28.54800
C  13.75000 52.26900 27.83900
C  14.74900 52.41500 22.91100
C  18.97800 50.05800 23.78400
N  16.05400 51.43400 28.03900
C  16.97600 51.08900 28.97500
C  16.45900 51.41300 30.34700
C  14.92400 51.84200 30.11500
C  14.84700 51.79900 28.55700
C  13.88400 50.91700 30.89000
C  17.46500 52.49100 30.99400
C  17.82400 52.11300 32.45400
H  17.00900 51.04600 33.23800
N  14.55500 52.37700 25.42300
C  13.59400 52.54900 26.39300
C  12.39700 53.05400 25.72200
C  12.60500 53.02400 24.32400
C  13.97500 52.54700 24.13900
C  11.14300 53.57600 26.49800
C  11.73200 53.53700 23.22500
O  12.02400 53.49800 22.01200
C  10.30200 54.10800 23.46600
N  16.67600 51.14800 23.66900
C  16.00900 51.80300 22.71700
C  16.60000 51.71300 21.28100
C  17.95800 50.96600 21.63000
C  17.88800 50.71900 23.09800
C  15.65200 50.69000 20.45900
C  19.25400 51.75900 21.39400
C  20.33900 50.94700 20.69100
N  18.03800 50.40800 25.98800
C  19.05500 49.93400 25.12300
C  20.12400 49.36000 25.87700
C  19.77600 49.50900 27.19000
C  18.56900 50.23100 27.23900
C  21.40900 48.77100 25.32800
C  20.33600 49.34100 28.52200
O  21.44400 48.82300 28.87600
C  19.26900 49.94300 29.51700
C  18.76500 48.85600 30.36700
O  17.81100 48.13300 30.12400
O  19.68600 48.56200 31.38800
C  19.48800 47.26600 32.12400
H  12.90900 52.43100 28.51600
H  14.36800 52.66100 21.91800
H  19.72800 49.58700 23.14600
H  16.44700 50.51100 30.95900
H  14.75400 52.88200 30.39200
H  14.20600 50.73800 31.91600
H  13.78400 49.94100 30.41400
H  12.82400 51.16900 30.88800
H  16.85000 53.38900 31.05800
H  18.33000 52.75600 30.38600
H  17.68100 53.00300 33.06700
H  18.88100 51.86800 32.55900
H  11.15100 54.61700 26.17400
H  11.26900 53.71800 27.57200
H  10.21000 53.06900 26.25400
H  9.70200 53.46400 24.11000
H  9.82800 54.16500 22.48600
H  10.56700 55.04800 23.94900
H  16.62700 52.72700 20.88000
H  17.93000 49.98300 21.15900
H  14.89100 51.26800 19.93400
H  15.20800 49.98800 21.16500
H  16.27300 50.06200 19.82000
H  19.62700 52.25600 22.29000
H  19.07700 52.65600 20.79900
H  20.08400 50.02600 20.16600
H  21.07500 50.63800 21.43400
H  20.89900 51.59000 20.01200
H  22.32300 49.32100 25.55300
H  21.46300 48.61300 24.25100
H  21.50600 47.79500 25.80200
H  19.62700 50.76500 30.13700
H  19.12400 47.46600 33.13200
H  20.43000 46.74600 32.29900
H  18.86600 46.53900 31.60200

