158

Mg 8.88600 2.85300 27.02600
C  10.12700 1.48300 30.05000
C  6.96100 4.90000 28.75600
C  7.34100 3.61100 24.15800
C  10.67100 0.22500 25.31600
N  8.39000 2.88200 29.24200
C  9.14500 2.47900 30.29500
C  8.70700 3.09100 31.64900
C  7.64000 4.13300 31.17600
C  7.62900 3.98200 29.57400
C  6.22700 4.13800 31.87300
C  9.95800 3.58200 32.40000
C  9.92500 4.56000 33.59500
H  10.49000 3.98500 34.89800
N  7.39600 4.12200 26.53100
C  6.71000 4.89700 27.38400
C  5.80100 5.75400 26.64900
C  5.95200 5.40200 25.27700
C  6.89900 4.33100 25.25800
C  4.95700 6.80600 27.31200
C  5.22500 5.88500 24.08200
O  5.41300 5.50400 22.93800
C  4.18500 6.86000 24.28200
N  9.00700 1.99600 25.06600
C  8.30900 2.59300 24.00400
C  8.73700 2.01300 22.67100
C  9.65700 0.81200 23.11600
C  9.83800 1.07200 24.59100
C  7.63700 1.70600 21.54900
C  10.94200 0.67900 22.23800
C  10.93600 -0.27100 21.07600
N  10.19700 1.23900 27.53200
C  10.85700 0.34300 26.70200
C  11.69900 -0.54600 27.56400
C  11.46300 -0.14900 28.90500
C  10.46700 0.90500 28.82200
C  12.69700 -1.47900 27.08000
C  11.78600 -0.39100 30.25800
O  12.54900 -1.25700 30.74300
C  10.86900 0.57500 31.07700
C  9.99000 -0.21600 31.99100
O  8.96400 -0.79900 31.63400
O  10.48700 -0.18100 33.29900
C  9.51000 -0.73300 34.17100
H  6.43300 5.58400 29.42200
H  6.82600 3.83100 23.22100
H  11.18400 -0.61800 24.85000
H  8.19400 2.39500 32.31400
H  8.08400 5.10700 31.37900
H  6.39400 4.65300 32.81900
H  5.92000 3.11600 32.09300
H  5.43600 4.68500 31.35900
H  10.66700 4.08300 31.74200
H  10.41800 2.65500 32.74500
H  8.85600 4.71600 33.74300
H  10.47800 5.42300 33.22500
H  3.92100 6.48300 27.21600
H  5.07800 7.71500 26.72300
H  5.26800 7.05900 28.32600
H  3.72300 7.26700 23.38200
H  4.47500 7.79800 24.75600
H  3.45100 6.43400 24.96500
H  9.23600 2.91500 22.31500
H  8.96800 -0.02000 22.97000
H  6.71900 1.33100 22.00200
H  7.94700 1.00000 20.77800
H  7.35600 2.64200 21.06700
H  11.80400 0.45300 22.86600
H  11.13200 1.69500 21.89200
H  11.79000 -0.94700 21.11200
H  11.06200 0.23800 20.12100
H  10.00300 -0.83500 21.05200
H  12.95700 -1.18400 26.06300
H  12.41200 -2.52100 26.93500
H  13.56500 -1.43900 27.73800
H  11.45800 1.12100 31.81300
H  8.58400 -0.22600 33.90100
H  9.65400 -0.32600 35.17200
H  9.45200 -1.82000 34.13600
Mg 36.57100 49.02800 24.27100
C  36.75300 47.27200 27.45900
C  35.41600 51.77500 26.01200
C  35.93200 50.43400 21.29900
C  37.55900 46.09700 22.69700
N  35.97100 49.35400 26.44900
C  36.36300 48.60500 27.58900
C  36.17700 49.39600 28.86200
C  35.44100 50.76400 28.35300
C  35.67300 50.65900 26.80300
C  33.93000 50.80500 28.64700
C  37.45000 49.58500 29.74900
C  37.32300 49.00700 31.12700
H  35.89300 48.92500 31.79500
N  35.87300 50.83200 23.76200
C  35.48200 51.87000 24.62200
C  35.08600 53.04000 23.84700
C  35.15800 52.62900 22.43100
C  35.71400 51.25300 22.43000
C  34.73200 54.41400 24.46400
C  34.90500 53.49800 21.20200
O  34.98300 53.05400 20.08600
C  34.34000 54.96800 21.29500
N  36.54400 48.29500 22.25500
C  36.34400 49.10400 21.14200
C  36.72900 48.42000 19.83100
C  37.35400 47.10300 20.33200
C  37.25000 47.18100 21.87100
C  35.54600 48.25200 18.90300
C  38.74000 46.82600 19.82300
C  40.03200 47.31700 20.62600
N  37.01600 47.09800 24.87300
C  37.36900 45.99800 24.09800
C  37.65000 44.84500 24.95800
C  37.48000 45.31200 26.26200
C  36.97100 46.68600 26.17900
C  38.16400 43.49900 24.60900
C  37.57900 44.95800 27.65700
O  37.94600 43.94200 28.23600
C  37.04900 46.28000 28.47000
C  35.84600 45.77600 29.16600
O  34.66300 45.88900 28.90200
O  36.29900 45.10900 30.34700
C  35.19100 44.77000 31.28500
H  35.09300 52.59500 26.65700
H  35.71700 50.91500 20.34200
H  38.08800 45.25300 22.25100
H  35.44800 48.85900 29.46900
H  35.93800 51.69600 28.62200
H  33.65300 50.16500 29.48400
H  33.36300 50.66800 27.72600
H  33.70000 51.83500 28.91600
H  37.76400 50.61500 29.91300
H  38.20800 49.12800 29.11100
H  37.88300 49.65600 31.80000
H  37.81400 48.03500 31.16700
H  35.24400 54.49000 25.42300
H  33.65200 54.56600 24.46300
H  35.27400 55.22400 23.97600
H  33.99800 55.19900 20.28600
H  35.11700 55.59500 21.73300
H  33.45800 54.87800 21.92900
H  37.43200 49.06700 19.30600
H  36.74900 46.28500 19.94000
H  35.62100 47.29100 18.39400
H  35.59400 49.11600 18.23900
H  34.58100 48.31100 19.40500
H  38.85200 47.31900 18.85700
H  38.85300 45.78100 19.53500
H  40.60600 47.94800 19.94700
H  40.56200 46.41600 20.93600
H  39.95800 48.00500 21.46900
H  37.40000 42.75200 24.39200
H  38.79800 43.11900 25.40900
H  38.76400 43.65500 23.71300
H  37.73500 46.54000 29.27600
H  34.79100 43.77600 31.08900
H  34.39000 45.50800 31.30400
H  35.61500 44.89200 32.28300

