158

Mg 41.51200 8.70400 29.67800
C  43.42600 10.04200 32.05300
C  39.33600 7.47100 31.97700
C  39.54400 7.64200 27.08400
C  43.99700 9.56400 27.30300
N  41.43700 8.80100 31.79500
C  42.31800 9.43800 32.63500
C  41.82200 9.36500 34.07600
C  40.74000 8.21500 33.97400
C  40.46500 8.15300 32.45800
C  41.10800 6.80600 34.59200
C  41.36100 10.73700 34.62700
C  40.75300 10.93700 36.06400
H  41.42200 11.82700 37.11800
N  39.63300 7.80600 29.58100
C  38.87300 7.35800 30.63600
C  37.60100 6.84600 30.15300
C  37.59900 7.03400 28.73200
C  38.97500 7.50700 28.42900
C  36.72600 6.03800 31.00700
C  36.47300 6.74600 27.72800
O  36.48200 6.79900 26.49100
C  35.17800 6.24500 28.29300
N  41.70900 8.68700 27.46300
C  40.81500 8.11700 26.64900
C  41.34900 8.05000 25.16700
C  42.60100 9.00500 25.22500
C  42.82100 9.12700 26.76600
C  41.44700 6.61200 24.68200
C  42.48500 10.43600 24.55500
C  43.68700 10.89300 23.67100
N  43.36600 9.57200 29.67000
C  44.24900 9.84200 28.62200
C  45.40300 10.52200 29.16700
C  45.10000 10.66400 30.51600
C  43.87200 10.05400 30.70900
C  46.57500 11.13400 28.47000
C  45.57700 11.19100 31.82100
O  46.57300 11.79600 32.19800
C  44.42000 10.89200 32.80300
C  45.08100 10.14800 33.96400
O  45.71900 9.11500 33.87300
O  44.97500 10.89400 35.08100
C  45.51100 10.26400 36.29700
H  38.78800 7.01200 32.80200
H  38.82700 7.30300 26.33300
H  44.71300 9.71300 26.49200
H  42.66200 8.96200 34.64200
H  39.85500 8.64200 34.44500
H  42.11800 6.84100 35.00000
H  40.93900 6.00700 33.87000
H  40.49100 6.67200 35.48100
H  40.79700 11.22800 33.83500
H  42.34500 11.20300 34.57100
H  40.63700 9.98500 36.58300
H  39.79500 11.43500 35.91400
H  37.00400 6.03000 32.06100
H  36.66400 5.02800 30.60400
H  35.78800 6.59100 30.95900
H  34.37200 6.29500 27.56100
H  34.90500 6.93900 29.08800
H  35.26300 5.21000 28.62100
H  40.57400 8.53000 24.56900
H  43.50800 8.46700 24.94900
H  41.04800 5.94200 25.44400
H  42.51200 6.40900 24.56500
H  40.84300 6.50600 23.78100
H  42.39900 11.21400 25.31400
H  41.56700 10.54600 23.97800
H  43.39800 11.35000 22.72400
H  44.32200 10.00800 23.65300
H  44.21900 11.69400 24.18500
H  47.00900 10.58300 27.63500
H  47.33400 11.41800 29.19900
H  46.22200 12.08800 28.07700
H  44.00700 11.84500 33.13400
H  44.64400 9.96200 36.88400
H  45.91700 11.12600 36.82600
H  46.34600 9.56600 36.25100
Mg 35.07900 48.29300 25.81500
C  35.10600 46.38800 28.88900
C  33.82400 50.97000 27.67100
C  34.61900 50.02900 22.94900
C  35.54000 45.37200 24.18400
N  34.57800 48.58300 28.01100
C  34.87000 47.79000 29.06500
C  34.82700 48.53900 30.42700
C  33.99400 49.78900 29.96700
C  34.17300 49.85000 28.46700
C  32.50200 49.82200 30.49700
C  36.24000 48.56100 31.18100
C  36.36300 48.09500 32.64500
H  36.34100 49.19400 33.68800
N  34.49400 50.25500 25.37000
C  34.09800 51.18900 26.24300
C  33.81100 52.45400 25.55400
C  34.14000 52.16700 24.20500
C  34.44300 50.71900 24.13500
C  33.34400 53.73700 26.25800
C  34.14900 53.12800 23.00900
O  34.70300 52.84900 21.93500
C  33.63000 54.49400 23.09500
N  35.17800 47.78300 23.80800
C  34.91900 48.67800 22.75900
C  34.89700 47.93300 21.41400
C  35.46700 46.50000 21.85500
C  35.32800 46.52200 23.37300
C  33.57400 47.93200 20.68900
C  36.86600 46.14700 21.40100
C  37.05700 44.89300 20.49900
N  35.25000 46.21800 26.33400
C  35.51400 45.13000 25.55400
C  35.74800 43.91100 26.40600
C  35.61500 44.44400 27.73600
C  35.22800 45.76300 27.63300
C  36.10700 42.53400 25.97800
C  35.66700 44.11200 29.09800
O  36.10100 43.07500 29.57800
C  35.51500 45.38500 29.92100
C  34.45800 45.03200 30.96200
O  33.39400 44.45000 30.72700
O  34.97500 45.22700 32.20500
C  34.18500 44.87400 33.40900
H  33.35600 51.80000 28.20500
H  34.31200 50.52500 22.02500
H  35.72800 44.43200 23.66100
H  34.16600 47.94100 31.05400
H  34.36400 50.73000 30.37400
H  32.45000 50.51900 31.33400
H  32.29100 48.83700 30.91400
H  31.76300 50.05200 29.72900
H  36.51200 49.61600 31.22100
H  36.98400 47.94700 30.67300
H  37.22400 47.42700 32.64000
H  35.52300 47.46400 32.93900
H  34.03000 54.48700 25.86300
H  33.44700 53.85200 27.33700
H  32.31300 53.94500 25.97400
H  32.70400 54.45400 23.66900
H  33.54700 54.73700 22.03500
H  34.47400 54.99700 23.56700
H  35.65800 48.46200 20.84000
H  34.69900 45.77600 21.58600
H  32.80100 48.33400 21.34500
H  33.16900 46.97700 20.35400
H  33.60000 48.52600 19.77600
H  37.47400 45.83500 22.25000
H  37.42800 46.96100 20.94400
H  37.78300 44.20600 20.93500
H  37.41600 45.23400 19.52900
H  36.04400 44.50100 20.41200
H  35.21600 41.91400 26.08400
H  36.94800 42.13200 26.54300
H  36.47100 42.61600 24.95400
H  36.54300 45.50800 30.26300
H  33.20900 45.35000 33.50300
H  34.68200 45.22800 34.31200
H  34.05000 43.79200 33.37400

