158

Mg 26.04400 50.30300 27.10700
C  24.09600 51.43400 29.84400
C  28.46200 49.32300 29.45300
C  27.95500 49.21600 24.56400
C  23.62900 51.44300 24.96300
N  26.26200 50.29300 29.40100
C  25.27000 50.83700 30.26200
C  25.63900 50.36500 31.72100
C  27.09100 49.82200 31.57400
C  27.28600 49.80900 30.05600
C  28.23500 50.51200 32.39700
C  24.52700 49.35400 32.39700
C  23.88700 49.82900 33.71100
H  24.93400 50.15800 34.87500
N  27.89000 49.47200 26.96500
C  28.77900 49.26800 28.05400
C  30.04700 48.71500 27.55500
C  29.95300 48.62500 26.08900
C  28.55000 49.07700 25.85400
C  31.11500 48.29200 28.48100
C  30.99500 48.12000 25.12900
O  30.70500 48.02900 23.92400
C  32.38700 47.73700 25.61300
N  25.90900 50.38100 25.06000
C  26.76500 49.76600 24.18900
C  26.36100 50.01300 22.68200
C  24.84600 50.22000 22.92400
C  24.70300 50.71300 24.43700
C  27.19200 51.13600 21.95000
C  23.91400 49.00400 22.61000
C  23.31200 48.09500 23.75200
N  24.32200 51.33600 27.27400
C  23.42500 51.70700 26.27800
C  22.26900 52.34100 26.85600
C  22.51600 52.28800 28.28300
C  23.76800 51.65600 28.47800
C  21.07500 52.97300 26.17100
C  21.98300 52.63200 29.59900
O  20.86500 53.10500 29.89400
C  23.00600 52.08600 30.69500
C  23.42200 53.10900 31.58900
O  24.54200 53.64900 31.58300
O  22.46400 53.33200 32.61100
C  22.82200 54.22800 33.75600
H  29.24900 48.99600 30.13500
H  28.50300 48.83800 23.69800
H  22.83200 51.54600 24.22400
H  25.64900 51.32600 32.23500
H  27.08500 48.78800 31.91800
H  28.83100 49.65200 32.70100
H  27.86200 51.00800 33.29300
H  28.90500 51.05100 31.72700
H  25.03100 48.44300 32.71800
H  23.79100 49.17000 31.61500
H  23.40300 48.97000 34.17700
H  23.16600 50.63600 33.57800
H  30.93900 47.25300 28.76200
H  31.13300 48.79800 29.44600
H  32.10100 48.32300 28.01700
H  32.80700 48.62900 26.07800
H  33.07600 47.57100 24.78500
H  32.26700 46.87000 26.26200
H  26.50700 49.05100 22.19200
H  24.41800 51.01400 22.31100
H  28.03900 51.61700 22.43900
H  26.43200 51.82900 21.58900
H  27.52300 50.57200 21.07800
H  24.28400 48.38500 21.79300
H  23.03100 49.40300 22.11100
H  23.75100 47.09800 23.70900
H  22.24500 47.95300 23.58400
H  23.43900 48.46300 24.77000
H  21.02100 52.54500 25.17000
H  21.12300 54.06100 26.21700
H  20.17400 52.66300 26.70000
H  22.42800 51.48400 31.39600
H  22.61800 55.27900 33.54900
H  23.89200 54.14400 33.94700
H  22.13400 54.04800 34.58200
Mg 0.43600 43.04800 25.83900
C  2.46000 43.27300 28.56200
C  -2.29000 42.20600 28.01300
C  -1.58100 42.72400 23.12700
C  3.10500 44.03700 23.75300
N  0.06800 42.89800 28.01100
C  1.08800 43.10400 28.95900
C  0.56900 43.07400 30.34700
C  -0.79100 42.22600 30.19200
C  -1.06800 42.49500 28.61400
C  -0.81200 40.72900 30.53800
C  0.40100 44.37500 30.97900
C  0.58800 44.44900 32.54800
H  0.32600 43.19600 33.39800
N  -1.72200 42.63200 25.62300
C  -2.60400 42.25000 26.64500
C  -3.84700 41.87500 25.97500
C  -3.59000 41.87200 24.58600
C  -2.27100 42.49400 24.35300
C  -4.98800 41.34200 26.77600
C  -4.43300 41.45000 23.42100
O  -4.25000 41.80800 22.28100
C  -5.72500 40.70700 23.79600
N  0.70100 43.48400 23.71100
C  -0.31000 43.27600 22.85800
C  0.25600 43.40100 21.49000
C  1.70700 43.99200 21.60600
C  1.84900 43.91300 23.13400
C  0.27200 42.07000 20.73400
C  1.82000 45.52900 21.13400
C  3.06800 45.82000 20.25900
N  2.42900 43.42400 26.01100
C  3.40700 43.75100 25.13300
C  4.68500 43.86300 25.78300
C  4.32500 43.65300 27.17300
C  2.93600 43.43200 27.27400
C  6.01300 44.26300 25.17200
C  4.93800 43.70600 28.45700
O  6.13100 43.80500 28.84000
C  3.68600 43.47000 29.42900
C  3.91800 42.36500 30.33100
O  3.63600 41.22000 30.16800
O  4.29000 42.96100 31.50100
C  4.34700 42.02600 32.61900
H  -3.07300 41.85100 28.68500
H  -2.17200 42.45800 22.24800
H  3.79000 44.56200 23.08300
H  1.27900 42.46300 30.90400
H  -1.67200 42.72800 30.59200
H  -1.56100 40.21100 29.94000
H  -0.97700 40.70300 31.61500
H  0.17600 40.31500 30.33500
H  -0.59100 44.75600 30.73800
H  1.23400 45.00000 30.65700
H  -0.02400 45.24500 32.97200
H  1.56100 44.88800 32.77100
H  -5.93500 41.83000 26.54500
H  -4.90200 41.72300 27.79300
H  -5.05200 40.25700 26.85800
H  -5.35000 39.98100 24.51800
H  -6.07300 40.13300 22.93700
H  -6.55300 41.40700 23.90800
H  -0.44500 44.08400 21.01000
H  2.55800 43.45200 21.19100
H  -0.28900 42.31700 19.83300
H  -0.20800 41.30100 21.33900
H  1.26300 41.73800 20.42500
H  2.00100 46.11700 22.03400
H  0.94500 45.98100 20.66700
H  3.57900 44.88600 20.02600
H  3.73000 46.46400 20.83800
H  2.71100 46.26400 19.33000
H  5.92700 44.41800 24.09700
H  6.73500 43.45000 25.25700
H  6.40400 45.13800 25.69100
H  3.44400 44.37800 29.98100
H  4.48800 42.65700 33.49700
H  5.18700 41.34700 32.47600
H  3.41500 41.46200 32.61000

