158

Mg 9.36300 3.30000 27.70200
C  10.38000 1.67100 30.50100
C  7.73500 5.59600 29.78000
C  8.45100 5.01700 24.89400
C  10.71100 0.70600 25.67300
N  9.00200 3.54600 29.88000
C  9.74400 2.89200 30.75800
C  9.56700 3.48000 32.23500
C  8.43600 4.59400 31.95400
C  8.28600 4.54900 30.42000
C  7.14100 4.22700 32.72000
C  10.84500 4.04100 32.91800
C  10.68500 4.19200 34.44200
H  11.41500 3.19200 35.37500
N  8.19600 5.08200 27.37000
C  7.65900 5.92500 28.36400
C  6.95400 7.02000 27.67000
C  7.08900 6.89400 26.27300
C  7.98300 5.65400 26.12400
C  6.16500 8.08200 28.43100
C  6.55800 7.73100 25.14800
O  6.81700 7.54600 23.94500
C  5.75300 8.92000 25.44400
N  9.43200 2.79400 25.59100
C  9.13200 3.75700 24.69200
C  9.43500 3.24800 23.27000
C  10.27900 1.99600 23.51100
C  10.14100 1.77500 25.01300
C  8.25700 3.05600 22.27700
C  11.75500 2.20900 23.09300
C  11.97000 2.37300 21.61400
N  10.20800 1.37300 28.02600
C  10.86200 0.57700 27.10300
C  11.51500 -0.46900 27.90100
C  11.43900 -0.08300 29.23400
C  10.56500 1.05500 29.24100
C  12.22000 -1.65400 27.22800
C  11.88000 -0.36200 30.61600
O  12.53600 -1.31700 31.05200
C  11.26300 0.77400 31.45600
C  10.50300 0.14700 32.55600
O  9.50300 -0.50800 32.30700
O  11.06100 0.46300 33.78700
C  10.43000 -0.13400 34.99000
H  7.27700 6.37700 30.39200
H  8.22700 5.38000 23.88900
H  11.22800 -0.08500 25.12500
H  9.16700 2.63400 32.79300
H  8.83900 5.56700 32.23800
H  6.38400 3.83900 32.03800
H  6.75900 5.10300 33.24500
H  7.25000 3.50700 33.53100
H  11.03100 5.02200 32.48000
H  11.65100 3.38900 32.58100
H  9.62900 4.05700 34.67800
H  10.97100 5.20800 34.71400
H  6.68200 8.99600 28.72400
H  5.83700 7.58800 29.34600
H  5.30400 8.30100 27.79900
H  4.71300 8.61200 25.55400
H  5.62100 9.52800 24.54900
H  6.04600 9.61100 26.23500
H  10.08700 4.04000 22.89900
H  9.93600 1.06300 23.06600
H  7.32900 3.39800 22.73600
H  8.22100 2.01500 21.95500
H  8.61200 3.73100 21.49900
H  12.24400 1.28300 23.39500
H  12.11200 3.00700 23.74300
H  12.11100 3.39200 21.25200
H  11.04200 1.97300 21.20600
H  12.78900 1.79900 21.18100
H  11.52700 -2.43000 26.90500
H  12.83100 -2.17300 27.96700
H  12.74000 -1.42600 26.29800
H  12.10500 1.41300 31.72100
H  9.39500 -0.35700 34.73400
H  10.46800 0.43500 35.91900
H  10.92700 -1.06800 35.25100
Mg -9.47200 18.40300 42.65700
C  -6.02000 17.40400 42.43000
C  -8.56500 21.47300 41.89200
C  -12.76000 18.96500 42.25600
C  -10.19400 14.92300 42.82900
N  -7.45500 19.27500 42.17700
C  -6.20900 18.74200 42.12300
C  -5.13000 19.82800 41.84900
C  -6.01200 21.12300 41.88400
C  -7.46400 20.59900 42.00200
C  -5.60700 22.19800 42.89400
C  -4.32200 19.47000 40.54800
C  -5.15400 19.20500 39.28200
H  -4.79100 19.86900 38.02300
N  -10.51800 20.06900 42.16500
C  -9.97200 21.25000 41.78500
C  -10.97800 22.24300 41.47300
C  -12.18200 21.53000 41.60100
C  -11.89500 20.12500 42.05200
C  -10.70000 23.71100 41.22600
C  -13.52200 22.14500 41.27200
O  -13.64000 23.32700 40.98300
C  -14.80100 21.32100 41.22400
N  -11.16500 17.05800 42.26200
C  -12.36700 17.60100 42.45700
C  -13.51100 16.49500 42.69500
C  -12.72400 15.16800 42.59100
C  -11.26300 15.73500 42.51500
C  -14.27600 16.74900 44.04600
C  -13.15400 14.22000 41.39900
C  -13.55700 12.72900 41.80500
N  -8.35400 16.49600 42.62300
C  -8.81000 15.16400 42.74400
C  -7.71200 14.22400 42.83800
C  -6.51400 15.01900 42.76000
C  -7.00700 16.40800 42.61300
C  -7.77300 12.75700 43.13700
C  -5.09500 15.02600 42.79400
O  -4.25900 14.11800 42.90800
C  -4.71000 16.55300 42.55200
C  -3.83400 16.91700 43.64500
O  -2.62800 16.78300 43.60300
O  -4.52600 17.44100 44.70900
C  -3.70900 17.94800 45.79100
H  -8.33200 22.53900 41.83100
H  -13.81400 19.25200 42.23800
H  -10.35800 13.86200 43.03000
H  -4.47400 19.88100 42.71800
H  -5.82800 21.60500 40.92400
H  -5.29900 23.10900 42.37900
H  -4.78800 21.89200 43.54400
H  -6.43400 22.39500 43.57600
H  -3.63900 18.62800 40.65600
H  -3.71100 20.32300 40.25300
H  -6.21300 19.43500 39.39800
H  -5.08900 18.13500 39.08200
H  -11.22400 24.43400 41.85200
H  -10.96300 23.86500 40.18000
H  -9.67500 24.02400 41.42500
H  -15.06400 21.08400 42.25400
H  -14.62400 20.43300 40.61800
H  -15.59900 21.89300 40.74900
H  -14.25000 16.52600 41.89400
H  -12.89300 14.64100 43.53000
H  -13.90700 17.65800 44.52100
H  -14.06500 15.98600 44.79500
H  -15.32100 17.01800 43.89400
H  -12.27000 14.13100 40.76800
H  -13.96400 14.67700 40.83000
H  -13.44400 12.46100 42.85500
H  -12.92800 12.07000 41.20500
H  -14.57600 12.49800 41.49500
H  -8.82000 12.47900 43.01800
H  -7.24200 12.40500 44.02200
H  -7.34100 12.18800 42.31500
H  -4.10700 16.67400 41.65200
H  -2.98900 18.73000 45.55100
H  -3.36400 17.07400 46.34300
H  -4.38300 18.58600 46.36300

