158

Mg 26.46900 1.33400 29.48100
C  28.26000 1.07100 32.40500
C  23.54800 1.61100 31.35800
C  24.70400 1.56000 26.64800
C  29.39000 0.65900 27.67100
N  25.99900 1.39300 31.63900
C  26.85900 1.31100 32.65500
C  26.19300 1.56800 34.00000
C  24.66400 1.73900 33.63600
C  24.70300 1.55200 32.14700
C  23.65700 0.83000 34.46900
C  26.98600 2.65400 34.92900
C  26.13700 3.22700 36.09300
H  26.48300 2.73100 37.47700
N  24.42500 1.50000 29.03700
C  23.38800 1.62900 29.94500
C  22.08700 1.89400 29.23700
C  22.37300 1.84900 27.84100
C  23.91000 1.64300 27.80300
C  20.77200 2.08600 29.97800
C  21.46900 1.86400 26.61000
O  21.86800 1.57800 25.43900
C  19.99300 2.16000 26.78600
N  26.97200 1.06000 27.47300
C  26.06700 1.27800 26.47000
C  26.69000 1.16400 25.06100
C  28.22600 0.87000 25.37900
C  28.20900 0.81300 26.90300
C  25.98700 0.26300 24.06200
C  29.18400 1.95900 24.78400
C  29.36300 1.98000 23.25700
N  28.44500 0.86600 29.87400
C  29.55000 0.63600 29.04900
C  30.72300 0.45100 29.83400
C  30.25100 0.63200 31.14500
C  28.90100 0.92200 31.09900
C  31.95900 -0.13800 29.29000
C  30.63800 0.66300 32.50900
O  31.78600 0.63800 32.97500
C  29.42600 0.95100 33.36900
C  29.34000 -0.07500 34.38800
O  28.73200 -1.12300 34.23200
O  30.00000 0.33600 35.55300
C  29.54900 -0.50400 36.71300
H  22.63500 1.66200 31.95600
H  24.28300 1.85300 25.68400
H  30.29600 0.62500 27.06400
H  26.22800 0.62300 34.54200
H  24.37000 2.76500 33.85700
H  24.07900 0.28700 35.31500
H  23.19500 0.16100 33.74300
H  22.88800 1.54700 34.75500
H  27.46800 3.52300 34.48100
H  27.76000 2.08000 35.43900
H  25.07500 3.07900 35.89800
H  26.27600 4.30800 36.10500
H  20.16500 2.91600 29.61900
H  20.92000 2.02400 31.05700
H  20.23800 1.24900 29.52900
H  20.00700 3.22100 27.03800
H  19.54400 1.48300 27.51300
H  19.45600 1.99000 25.85300
H  26.63300 2.17700 24.66400
H  28.41600 -0.16500 25.09700
H  25.14800 -0.19900 24.58300
H  26.55400 -0.59800 23.70700
H  25.61600 0.90000 23.25900
H  30.17000 1.86400 25.23800
H  28.90800 2.98100 25.04200
H  28.94600 1.11500 22.74100
H  30.44300 1.98800 23.11700
H  28.92400 2.88200 22.83000
H  32.50400 -0.57600 30.12600
H  32.69000 0.58000 28.91800
H  31.77800 -0.90700 28.53800
H  29.66700 1.92200 33.80200
H  30.50200 -0.76900 37.17200
H  29.29600 -1.55100 36.54900
H  28.78300 0.00400 37.29800
Mg -10.49200 40.05500 39.79700
C  -9.19100 36.88200 39.19600
C  -7.36800 41.34400 39.17100
C  -11.85400 43.10500 39.73200
C  -13.75500 38.62200 39.85900
N  -8.59900 39.21200 39.13500
C  -8.26500 37.88400 38.97700
C  -6.77500 37.70700 38.43800
C  -6.21900 39.13700 38.74300
C  -7.47300 39.96200 39.08600
C  -5.01500 39.12400 39.78800
C  -6.63800 37.18200 36.99800
C  -7.40300 37.90400 35.88900
H  -8.67500 37.30900 35.30600
N  -9.71200 41.96200 39.58400
C  -8.39400 42.25400 39.38200
C  -8.25600 43.67600 39.32700
C  -9.48200 44.27700 39.51200
C  -10.43000 43.12600 39.68400
C  -6.88800 44.31400 39.05200
C  -9.82100 45.80400 39.58500
O  -8.91900 46.64700 39.46400
C  -11.18100 46.25700 40.04600
N  -12.50700 40.75500 39.66100
C  -12.82500 42.07200 39.80400
C  -14.29000 42.33100 40.00900
C  -14.87300 40.89800 40.16100
C  -13.64900 40.01700 39.85200
C  -14.74200 43.36900 41.09400
C  -16.11500 40.48500 39.27800
C  -17.38600 41.32600 39.56200
N  -11.33600 38.24200 39.66700
C  -12.69600 37.78300 39.79200
C  -12.72600 36.34900 39.68600
C  -11.37400 35.99000 39.45700
C  -10.59300 37.17200 39.46500
C  -13.93900 35.45300 39.64800
C  -10.63200 34.77700 39.11100
O  -10.93800 33.62100 38.89500
C  -9.17500 35.30300 39.02200
C  -8.41200 34.63100 40.12000
O  -8.75800 34.52200 41.24600
O  -7.19400 34.18200 39.70400
C  -6.41600 33.31000 40.58600
H  -6.34200 41.70900 39.10200
H  -12.34600 44.07800 39.79000
H  -14.75800 38.21300 39.99900
H  -6.30800 36.96300 39.08300
H  -5.78600 39.68400 37.90600
H  -4.95200 38.22600 40.40300
H  -5.22100 39.86500 40.56000
H  -4.03100 39.33000 39.36500
H  -6.91400 36.12700 36.97900
H  -5.59500 37.19200 36.68300
H  -6.68700 37.98900 35.07200
H  -7.66400 38.91200 36.21000
H  -6.53700 43.95900 38.08300
H  -6.25500 44.08900 39.91100
H  -6.97900 45.39000 38.90600
H  -11.63200 45.66200 40.84100
H  -11.72900 46.33600 39.10700
H  -11.06800 47.29300 40.36700
H  -14.58600 42.67600 39.01700
H  -15.08800 40.71900 41.21400
H  -15.29800 44.20400 40.66800
H  -13.90300 43.85900 41.58800
H  -15.43500 42.91200 41.80000
H  -16.39000 39.48700 39.62000
H  -15.82000 40.56600 38.23100
H  -18.15200 40.55400 39.62700
H  -17.42600 42.03100 38.73200
H  -17.34500 41.99600 40.42100
H  -14.90000 35.95100 39.52400
H  -13.90100 34.95000 40.61500
H  -13.80800 34.72400 38.84800
H  -8.75600 35.06900 38.04400
H  -6.11500 32.39000 40.08500
H  -6.92000 33.07400 41.52300
H  -5.51000 33.71600 41.03500

