158

Mg 36.54200 49.06900 26.30800
C  36.38000 46.98500 29.22000
C  35.61900 51.64000 28.29200
C  35.89000 50.76000 23.48900
C  36.91000 46.09500 24.39000
N  36.17500 49.22800 28.44000
C  36.27800 48.33700 29.44800
C  36.18900 48.94700 30.84700
C  35.53100 50.34800 30.56600
C  35.75100 50.44000 28.94000
C  33.97400 50.47500 30.85900
C  37.47100 49.12300 31.65600
C  37.36400 48.72500 33.13100
H  37.21600 49.83100 34.13600
N  36.04800 51.01100 25.95600
C  35.70500 51.94900 26.90900
C  35.63100 53.28600 26.24700
C  35.70200 53.06200 24.82000
C  35.88900 51.55400 24.69600
C  35.45300 54.57200 26.96700
C  35.53700 54.00300 23.63800
O  35.74500 53.64300 22.46500
C  35.22600 55.40200 23.94500
N  36.35900 48.58200 24.23500
C  36.17300 49.43600 23.25500
C  36.26900 48.84600 21.85600
C  36.87900 47.38000 22.17700
C  36.73100 47.34500 23.69900
C  34.80400 48.79800 21.11000
C  38.37300 47.13500 21.70800
C  38.62500 45.86600 20.94200
N  36.61700 46.98600 26.65100
C  36.79100 45.93100 25.78200
C  36.83000 44.67900 26.53700
C  36.63100 45.04400 27.87000
C  36.53700 46.44500 27.92300
C  37.01800 43.26800 25.96300
C  36.41700 44.51100 29.22000
O  36.35200 43.37000 29.66500
C  36.43400 45.80100 30.10900
C  35.19300 45.74800 30.94700
O  34.07000 45.72700 30.56200
O  35.61400 45.80600 32.31400
C  34.52400 45.95200 33.29500
H  35.28100 52.52100 28.84200
H  35.54200 51.38900 22.66600
H  37.10000 45.21500 23.77200
H  35.45200 48.39500 31.43000
H  36.08600 51.17300 31.01200
H  33.48900 49.50400 30.96200
H  33.53600 51.11000 30.08900
H  33.76600 51.04800 31.76300
H  37.83100 50.15100 31.63500
H  38.23700 48.49900 31.19600
H  38.18300 48.05000 33.38200
H  36.49400 48.07100 33.18500
H  34.52500 54.91100 26.50800
H  36.22500 55.32700 26.82000
H  35.37900 54.44600 28.04700
H  35.17100 55.90400 22.97900
H  35.99600 55.89100 24.54200
H  34.29800 55.36300 24.51600
H  36.92400 49.51600 21.29900
H  36.26000 46.57300 21.78600
H  34.05600 49.16800 21.81100
H  34.44900 47.80900 20.81900
H  34.80500 49.45800 20.24300
H  39.00600 47.16400 22.59500
H  38.65200 48.02800 21.14800
H  37.80900 45.15300 21.05500
H  39.55300 45.41600 21.29500
H  38.71300 46.15300 19.89400
H  38.09000 43.23100 25.77100
H  36.45400 43.14800 25.03800
H  36.63600 42.45900 26.58500
H  37.42000 45.80400 30.57400
H  33.57000 45.90700 32.77000
H  34.70600 46.77000 33.99200
H  34.61700 45.04100 33.88600
Mg 16.40900 51.73100 26.76900
C  18.29500 50.86200 29.54600
C  13.75500 52.50600 29.04100
C  14.46400 52.73600 24.19500
C  18.79700 50.58400 24.60400
N  16.10100 51.76000 28.99500
C  17.09400 51.42400 29.88900
C  16.50400 51.63400 31.38500
C  15.07800 52.16800 31.19700
C  14.95400 52.18400 29.66300
C  14.01300 51.20100 31.77700
C  17.43900 52.65400 32.21500
C  17.77500 52.37400 33.67000
H  16.93900 53.01700 34.80100
N  14.39300 52.53200 26.64800
C  13.55400 52.84400 27.71000
C  12.38300 53.54700 27.15100
C  12.51300 53.56400 25.71800
C  13.80100 52.91200 25.39700
C  11.41800 54.23100 28.11800
C  11.57100 54.16100 24.63000
O  11.79500 54.15500 23.45700
C  10.17800 54.64700 25.09300
N  16.63300 51.69300 24.68500
C  15.73100 52.19100 23.86900
C  16.26600 52.08400 22.35100
C  17.67500 51.61900 22.55800
C  17.73600 51.25900 24.07800
C  15.39500 51.19900 21.42600
C  18.75900 52.60500 22.14400
C  19.29700 53.61100 23.16500
N  18.20800 50.79400 26.96800
C  19.04800 50.34800 25.98300
C  20.25900 49.81300 26.63600
C  19.94900 49.93000 28.05100
C  18.64900 50.51800 28.19900
C  21.40700 49.27700 25.93500
C  20.39000 49.64300 29.45800
O  21.33200 48.92800 29.77700
C  19.37300 50.27300 30.44900
C  18.84300 49.23800 31.38500
O  18.20000 48.28400 31.03800
O  19.25700 49.54300 32.64900
C  19.10000 48.53500 33.75100
H  13.02200 52.84200 29.77800
H  13.88400 52.99500 23.30700
H  19.63900 50.36500 23.94300
H  16.41800 50.62700 31.79300
H  14.98100 53.17600 31.60000
H  13.15200 51.81300 32.04500
H  14.34500 50.69100 32.68100
H  13.70200 50.41600 31.08700
H  17.02400 53.66000 32.27500
H  18.40100 52.84300 31.74000
H  18.80600 52.72600 33.70900
H  17.82200 51.29900 33.84100
H  11.67800 55.28500 28.02800
H  11.52500 54.03900 29.18500
H  10.38600 53.95900 27.89400
H  9.65100 55.00200 24.20700
H  10.37000 55.45300 25.80200
H  9.68600 53.80200 25.57400
H  16.24200 53.06900 21.88500
H  17.88500 50.74300 21.94300
H  15.85900 50.43700 20.80000
H  14.82400 51.96000 20.89300
H  14.60000 50.71500 21.99300
H  18.47200 53.18700 21.26800
H  19.56800 51.93000 21.86500
H  20.38000 53.55400 23.26500
H  18.89500 53.58600 24.17800
H  18.95100 54.59100 22.83600
H  21.65100 49.97400 25.13300
H  21.19200 48.24500 25.65800
H  22.22500 49.27300 26.65500
H  19.77000 51.10200 31.03500
H  18.48900 48.97000 34.54100
H  20.05000 48.48600 34.28200
H  18.73700 47.56500 33.41000

