158

Mg 46.91700 14.79600 28.73100
C  45.14400 14.65400 31.69400
C  49.11900 16.97300 30.14300
C  48.66600 14.70500 25.81000
C  44.35600 12.86400 27.20000
N  46.96400 15.91800 30.67800
C  46.26800 15.56800 31.80100
C  46.91300 16.11900 33.12700
C  47.98400 17.04400 32.52500
C  48.06500 16.63300 30.99000
C  47.74600 18.51800 32.68200
C  47.43800 14.98300 34.11300
C  47.11500 15.23300 35.61400
H  48.26100 15.08100 36.55600
N  48.61400 15.78000 28.08900
C  49.41400 16.59600 28.84500
C  50.66400 16.89300 28.15900
C  50.54200 16.25700 26.86100
C  49.25900 15.51700 26.85400
C  51.82800 17.61200 28.80600
C  51.52300 16.24300 25.69000
O  51.31600 15.59000 24.73100
C  52.74100 17.04400 25.78600
N  46.48500 14.08300 26.64500
C  47.44700 13.89300 25.74300
C  46.88400 13.20200 24.49200
C  45.61800 12.52300 25.01300
C  45.43800 13.22300 26.36000
C  46.78300 14.25400 23.28200
C  45.67900 10.93600 25.01900
C  47.02400 10.29800 25.52200
N  45.03200 14.07700 29.24700
C  44.10500 13.26000 28.57800
C  43.06700 12.80900 29.50300
C  43.42400 13.34900 30.74100
C  44.62900 14.05800 30.55600
C  41.80300 12.13900 28.99000
C  42.98600 13.39000 32.06500
O  41.99200 12.95200 32.62300
C  44.06300 14.30100 32.76800
C  43.44200 15.59400 33.24900
O  43.14800 16.63900 32.63300
O  43.27700 15.48500 34.64300
C  42.77000 16.65200 35.34600
H  49.88000 17.58700 30.62900
H  49.23700 14.63900 24.88100
H  43.71900 12.09100 26.76400
H  46.10700 16.71300 33.56000
H  48.94100 16.90400 33.02800
H  46.97600 18.67200 33.43800
H  47.44200 19.12500 31.83000
H  48.63500 19.07500 32.97600
H  48.52400 14.92000 34.04000
H  47.07600 13.99700 33.82400
H  46.32100 14.51400 35.81200
H  46.73000 16.23100 35.82400
H  52.76900 17.20900 28.43000
H  51.81500 17.50100 29.89100
H  51.74800 18.66500 28.54000
H  52.55300 18.09200 26.01900
H  53.17500 17.00400 24.78700
H  53.47500 16.69000 26.51000
H  47.61400 12.47300 24.13900
H  44.76700 12.80500 24.39300
H  46.78600 15.25100 23.72100
H  46.10800 13.92500 22.49200
H  47.80300 14.25800 22.89600
H  45.46900 10.51800 24.03500
H  44.84300 10.48700 25.55500
H  47.48400 11.06800 26.14200
H  47.63700 9.97100 24.68200
H  46.77600 9.35700 26.01200
H  41.72500 12.01100 27.91000
H  40.95200 12.71500 29.35300
H  41.70500 11.16800 29.47600
H  44.43200 13.70800 33.60500
H  41.68400 16.55800 35.36500
H  43.07500 17.63300 34.98200
H  43.06200 16.51700 36.38800
Mg 47.02800 34.44800 27.61000
C  45.18300 32.88800 30.12200
C  47.18100 37.14800 29.82500
C  47.99600 36.31800 25.07200
C  46.24500 31.81300 25.46300
N  46.27800 34.89500 29.68000
C  45.67100 34.08700 30.56800
C  45.71800 34.58900 31.96300
C  45.95800 36.09700 31.73400
C  46.52300 36.04300 30.31700
C  44.78500 37.06400 31.86600
C  46.91700 33.84000 32.61400
C  46.88800 33.55400 34.07200
H  46.07700 34.65000 34.91400
N  47.51600 36.53200 27.43400
C  47.67600 37.36500 28.50900
C  48.31200 38.56700 27.92800
C  48.56000 38.40500 26.58800
C  47.99500 37.06400 26.30100
C  48.46400 39.82900 28.85200
C  49.31400 39.29700 25.62500
O  49.63400 38.84400 24.51700
C  49.77600 40.62900 25.95500
N  47.09000 34.11800 25.49900
C  47.57500 35.05400 24.68400
C  47.64500 34.50100 23.23900
C  47.14800 33.00600 23.36500
C  46.84100 32.91200 24.87300
C  46.70900 35.27900 22.32500
C  48.26900 31.87200 23.01000
C  47.63900 30.60200 22.38200
N  46.13900 32.59900 27.73900
C  45.80300 31.66100 26.81400
C  45.07000 30.59400 27.44200
C  44.88100 31.03200 28.78500
C  45.40700 32.27400 28.88200
C  44.75600 29.29800 26.78500
C  44.16600 30.73600 29.94900
O  43.46000 29.71400 30.18200
C  44.19700 31.91400 30.88600
C  44.47300 31.45100 32.23600
O  45.44000 30.82000 32.67200
O  43.37600 31.66400 32.98700
C  43.33900 31.32100 34.35900
H  47.28800 38.06300 30.41200
H  48.30600 36.97700 24.25800
H  45.99200 30.98100 24.80400
H  44.79300 34.29900 32.46100
H  46.62600 36.64700 32.39800
H  44.77500 37.76300 31.02900
H  44.87600 37.84800 32.61800
H  43.77700 36.66500 31.97600
H  47.78600 34.46000 32.39800
H  47.06900 32.88200 32.11800
H  47.91300 33.37800 34.39700
H  46.49300 32.56100 34.28600
H  47.52900 40.38200 28.94400
H  49.26400 40.47600 28.49100
H  48.71500 39.41000 29.82700
H  49.92700 41.11900 24.99300
H  50.67900 40.59800 26.56500
H  49.03100 41.11300 26.58700
H  48.59300 34.63100 22.71800
H  46.22300 32.86500 22.80400
H  46.19500 36.09200 22.83700
H  45.84500 34.78500 21.88000
H  47.28500 35.71300 21.50700
H  48.82100 31.55400 23.89500
H  49.01200 32.24000 22.30200
H  47.54900 29.89800 23.20900
H  48.34000 30.11400 21.70300
H  46.69000 30.77900 21.87600
H  45.08600 29.27900 25.74700
H  43.66600 29.26700 26.79500
H  45.18200 28.43700 27.30000
H  43.23100 32.41800 30.86400
H  43.98800 32.00600 34.90500
H  43.74200 30.33400 34.58900
H  42.35000 31.51000 34.77500

