158

Mg 46.96200 16.57000 27.98300
C  45.45300 16.14400 31.10200
C  49.36900 18.56800 29.47200
C  48.20400 17.20800 24.91100
C  44.21700 15.07900 26.54200
N  47.40100 17.20500 30.05300
C  46.66300 16.86700 31.17100
C  47.34900 17.27300 32.45400
C  48.42200 18.27500 31.90800
C  48.42800 18.03400 30.39000
C  48.19700 19.81900 32.26400
C  47.93200 16.14900 33.35400
C  47.38200 16.05300 34.80000
H  46.96300 17.38900 35.45400
N  48.67200 17.64000 27.31800
C  49.42900 18.47400 28.06800
C  50.49200 19.01400 27.22100
C  50.25400 18.48600 25.92600
C  49.02800 17.71500 25.98500
C  51.48100 19.94500 27.68000
C  51.04900 18.81800 24.67900
O  50.71900 18.26900 23.60000
C  52.20900 19.81100 24.67800
N  46.18100 16.33900 25.94500
C  47.03800 16.52900 24.85600
C  46.38900 16.13200 23.58400
C  45.17100 15.24900 24.08800
C  45.19200 15.51600 25.60600
C  46.07400 17.32000 22.67300
C  45.28900 13.73600 23.74600
C  45.84000 12.82100 24.81500
N  45.15900 15.80100 28.64600
C  44.13900 15.21900 27.93100
C  43.09800 14.82700 28.79700
C  43.58500 15.13300 30.07800
C  44.82400 15.75800 29.91300
C  41.94100 14.01900 28.36900
C  43.22400 14.98000 31.49500
O  42.25600 14.47400 32.05000
C  44.53800 15.63100 32.23400
C  44.10000 16.81500 33.07400
O  44.08100 18.00100 32.76500
O  43.49100 16.30800 34.21600
C  42.55100 17.22600 34.79400
H  50.08100 19.26500 29.91800
H  48.58900 17.34000 23.89800
H  43.43000 14.47700 26.08300
H  46.73100 17.87700 33.11700
H  49.33700 17.95900 32.41000
H  47.70400 19.89300 33.23300
H  47.62000 20.22100 31.43100
H  49.19200 20.25500 32.35200
H  49.02200 16.16000 33.36400
H  47.48900 15.30400 32.82700
H  48.11000 15.48600 35.38000
H  46.50800 15.43600 35.00500
H  51.31100 20.89300 27.17000
H  52.44800 19.48600 27.47700
H  51.44600 20.31000 28.70700
H  52.65900 19.90000 23.68900
H  52.94800 19.44600 25.39100
H  51.78500 20.75600 25.01900
H  47.07400 15.52600 22.99100
H  44.22300 15.55200 23.64200
H  46.27700 18.23800 23.22600
H  44.99600 17.33700 22.51300
H  46.52300 17.46800 21.69100
H  45.80000 13.62100 22.79000
H  44.27400 13.37200 23.58500
H  46.57900 12.09000 24.48700
H  45.01700 12.23300 25.22000
H  46.28400 13.39000 25.63200
H  41.33800 13.77600 29.24400
H  42.31500 13.17400 27.79000
H  41.35000 14.58300 27.64700
H  45.01100 14.88700 32.87500
H  41.79100 17.59300 34.10400
H  43.00500 18.06200 35.32600
H  42.02800 16.61100 35.52600
Mg 30.52100 57.80100 40.40600
C  27.66100 56.15700 38.92600
C  32.46300 55.13800 39.60200
C  33.12900 59.82400 40.79500
C  28.31100 60.50700 41.13600
N  30.12700 55.95700 39.26700
C  28.87700 55.39300 38.80900
C  29.05700 53.99900 38.32200
C  30.38700 53.57300 38.97900
C  31.09600 54.97400 39.28500
C  30.32100 52.58000 40.12700
C  29.00700 54.05300 36.76300
C  28.16500 52.95600 36.03300
H  27.41900 53.49800 34.76300
N  32.54400 57.60400 40.12900
C  33.16800 56.39700 39.89500
C  34.59200 56.52800 39.94900
C  34.86400 57.89700 40.09900
C  33.53400 58.53900 40.34000
C  35.51500 55.38500 39.78500
C  36.25300 58.54100 40.28200
O  37.31400 57.85900 40.15800
C  36.46200 59.97900 40.46500
N  30.60500 59.88300 40.66400
C  31.87700 60.43700 40.98300
C  31.66400 61.90800 41.33600
C  30.18500 62.01200 41.63900
C  29.70000 60.72200 41.09100
C  32.57200 62.47400 42.36000
C  29.51600 63.35200 41.06700
C  28.39000 63.97700 41.90800
N  28.38000 58.23800 40.21400
C  27.64800 59.32300 40.64700
C  26.25700 59.19100 40.22100
C  26.18500 57.88100 39.59100
C  27.50800 57.40600 39.57700
C  25.16800 60.16400 40.51100
C  25.34300 56.79100 38.86200
O  24.13800 56.84200 38.60400
C  26.26200 55.74300 38.55500
C  25.89400 54.59500 39.38500
O  25.78100 54.57900 40.57700
O  25.51500 53.61700 38.53600
C  24.67700 52.53700 39.00700
H  33.06800 54.23600 39.49100
H  34.00500 60.47000 40.87500
H  27.63900 61.29300 41.48700
H  28.20300 53.39100 38.62200
H  30.84800 53.06900 38.13000
H  30.93700 53.05600 40.88900
H  30.78100 51.64900 39.79500
H  29.29100 52.45800 40.46100
H  29.99900 53.96900 36.31900
H  28.56600 54.98500 36.40700
H  27.26500 52.74200 36.61000
H  28.78000 52.07700 35.84100
H  35.44300 55.09200 38.73800
H  35.21400 54.61100 40.49000
H  36.52600 55.51300 40.17300
H  36.19900 60.24600 41.48800
H  35.85700 60.50800 39.72900
H  37.44100 60.31200 40.11900
H  31.85600 62.36700 40.36600
H  29.95700 62.00700 42.70500
H  33.15000 61.67700 42.82800
H  32.07800 63.01100 43.16900
H  33.09900 63.24600 41.79900
H  28.99900 62.99600 40.17600
H  30.15500 64.07500 40.56000
H  28.04700 63.35100 42.73200
H  27.53700 64.17600 41.25900
H  28.71000 64.91800 42.35500
H  25.37700 60.49900 41.52700
H  24.23000 59.61100 40.47600
H  25.17300 61.00900 39.82200
H  26.27900 55.52000 37.48800
H  24.48700 51.92500 38.12600
H  23.81000 52.83800 39.59400
H  25.20400 51.87800 39.69800

