158

Mg 3.67700 0.40500 44.14900
C  6.33500 2.54100 44.10300
C  1.75300 2.89800 42.48800
C  1.32900 -2.03300 43.31200
C  5.55100 -1.95900 45.66200
N  4.01600 2.43600 43.36600
C  5.20700 3.12200 43.41100
C  5.13600 4.55600 42.75200
C  3.61800 4.61200 42.43600
C  3.06200 3.21900 42.75900
C  2.88800 5.69200 43.22900
C  6.11800 4.77900 41.61200
C  6.52800 3.63600 40.67700
H  7.35800 3.92200 39.44600
N  1.73200 0.41300 43.06400
C  1.09700 1.60200 42.63100
C  -0.23100 1.24400 42.24600
C  -0.40800 -0.20500 42.52300
C  0.95200 -0.70400 42.97300
C  -1.21200 2.23300 41.70300
C  -1.69500 -0.91600 42.14700
O  -2.66000 -0.25400 41.75800
C  -1.94000 -2.40400 42.16000
N  3.57400 -1.75600 44.15900
C  2.50400 -2.49900 43.94600
C  2.74200 -3.99500 44.16400
C  4.09000 -3.91700 44.97100
C  4.41400 -2.42500 44.95500
C  1.65300 -4.70000 44.94600
C  5.18700 -4.82400 44.31900
C  5.94500 -5.61000 45.39700
N  5.55900 0.29900 44.76000
C  6.19200 -0.75200 45.40200
C  7.44600 -0.27000 45.83100
C  7.61200 1.01700 45.29800
C  6.38700 1.29100 44.67600
C  8.40000 -0.98900 46.73900
C  8.51900 2.18800 45.12700
O  9.69800 2.29000 45.45700
C  7.70800 3.26300 44.40700
C  7.46400 4.39300 45.44700
O  8.36000 5.03900 45.97200
O  6.15500 4.54500 45.77800
C  5.76500 5.70900 46.59600
H  1.18400 3.65000 41.93800
H  0.50100 -2.73400 43.18800
H  6.10600 -2.66700 46.28000
H  5.56900 5.23400 43.48800
H  3.42800 4.63800 41.36300
H  3.54800 6.52100 43.48200
H  2.29100 5.28900 44.04600
H  2.20800 6.07300 42.46700
H  6.96900 5.16400 42.17400
H  5.75100 5.59700 40.99300
H  5.63700 3.13500 40.29900
H  7.06100 2.97400 41.35900
H  -1.20100 2.02400 40.63400
H  -0.93100 3.27200 41.87600
H  -2.22300 2.13200 42.09900
H  -2.10500 -2.88200 43.12600
H  -1.07400 -2.92600 41.75200
H  -2.77000 -2.51900 41.46200
H  2.85100 -4.52700 43.21900
H  3.83600 -4.26600 45.97200
H  1.16600 -3.87200 45.46100
H  1.92800 -5.45300 45.68500
H  0.94400 -5.19300 44.28100
H  5.94100 -4.14300 43.92400
H  4.78600 -5.39300 43.48000
H  7.01600 -5.59100 45.19700
H  5.71000 -6.67000 45.30600
H  5.78200 -5.13700 46.36600
H  9.16400 -0.32500 47.14400
H  9.07000 -1.72400 46.29200
H  7.87900 -1.57000 47.50000
H  8.27900 3.53400 43.51900
H  4.70000 5.93800 46.55900
H  6.24200 6.66200 46.36800
H  5.94000 5.50400 47.65200
Mg -8.05200 19.36400 42.64800
C  -4.62000 18.78800 42.74700
C  -7.35400 22.71700 42.34400
C  -11.31900 19.89800 42.52000
C  -8.51400 15.87600 42.43900
N  -6.19000 20.55400 42.48800
C  -4.89900 20.08600 42.47600
C  -3.87200 21.16400 42.23200
C  -4.79700 22.48200 42.32700
C  -6.19300 21.92000 42.45300
C  -4.46600 23.48500 43.53400
C  -3.16400 21.15100 40.84900
C  -3.72500 20.35100 39.64300
H  -3.30300 20.84600 38.17100
N  -9.19200 21.08900 42.46900
C  -8.70800 22.33500 42.35100
C  -9.82400 23.23700 42.22700
C  -10.95900 22.43900 42.29600
C  -10.55800 21.06300 42.46800
C  -9.61200 24.69000 42.09600
C  -12.39600 22.93900 42.30900
O  -12.62400 24.10100 42.68100
C  -13.64100 21.98400 41.91400
N  -9.64100 18.11600 42.50200
C  -10.87800 18.60700 42.67800
C  -11.94600 17.41400 42.54200
C  -10.98400 16.16700 42.44200
C  -9.63300 16.74300 42.47500
C  -12.90000 17.47100 43.75100
C  -11.27300 15.29900 41.21500
C  -11.47200 13.84900 41.56100
N  -6.82200 17.59100 42.65900
C  -7.14500 16.26700 42.70700
C  -5.94400 15.46700 42.92500
C  -4.95200 16.46800 42.94500
C  -5.55200 17.67800 42.75600
C  -5.77500 14.05000 43.28500
C  -3.52100 16.67400 43.15000
O  -2.61300 15.83200 43.49300
C  -3.19800 18.20600 42.97100
C  -2.40900 18.66500 44.18200
O  -1.27800 19.09100 44.17600
O  -3.19000 18.51800 45.34400
C  -2.53100 19.02000 46.61300
H  -7.18000 23.77700 42.14700
H  -12.39000 20.03100 42.68400
H  -8.76800 14.82300 42.57900
H  -3.11800 21.17500 43.01900
H  -4.71500 22.96400 41.35300
H  -5.29300 23.87900 44.12400
H  -4.04900 24.37400 43.06000
H  -3.73200 23.11500 44.25000
H  -2.19200 20.66500 40.92100
H  -3.02100 22.17200 40.49300
H  -4.80600 20.24000 39.72100
H  -3.42100 19.32600 39.85700
H  -10.55000 25.03000 41.65800
H  -8.84800 24.98200 41.37600
H  -9.45700 25.24800 43.02000
H  -14.00300 21.44000 42.78600
H  -13.46600 21.24000 41.13600
H  -14.47500 22.62300 41.62200
H  -12.51400 17.67000 41.64800
H  -11.13800 15.52500 43.31000
H  -13.27800 16.45600 43.87500
H  -13.82700 18.02900 43.62300
H  -12.29900 17.69000 44.63300
H  -10.46800 15.53200 40.51800
H  -12.12100 15.66900 40.63800
H  -12.39000 13.50500 42.03800
H  -10.74600 13.50000 42.29500
H  -11.10600 13.21300 40.75500
H  -5.29100 13.64500 42.39600
H  -6.65900 13.44800 43.49100
H  -4.96300 13.87800 43.99200
H  -2.55200 18.28000 42.09600
H  -3.03800 19.95300 46.85800
H  -1.46900 19.25600 46.54800
H  -2.45700 18.24700 47.37800

