158

Mg -0.72700 34.56600 26.65600
C  -3.05500 32.88600 28.83700
C  -0.02400 36.65700 29.29700
C  0.89100 36.56400 24.55400
C  -1.87300 32.56000 24.06700
N  -1.47800 34.71300 28.89600
C  -2.36500 33.91100 29.56400
C  -2.38600 34.37200 31.04200
C  -1.58800 35.67500 30.96600
C  -0.90300 35.65600 29.61300
C  -2.39200 36.85600 31.13400
C  -1.92200 33.24100 32.07600
C  -3.01100 33.05100 33.12600
H  -3.14900 34.14300 34.22300
N  0.42000 36.24800 26.92300
C  0.63700 36.92800 28.09900
C  1.52000 38.00100 27.89100
C  1.90600 37.96900 26.48100
C  1.03600 36.93700 25.89400
C  1.91900 38.90000 29.06800
C  2.79100 38.83300 25.66000
O  2.90400 38.76800 24.46800
C  3.51200 39.96000 26.35100
N  -0.46200 34.54100 24.56800
C  0.22600 35.51000 23.90100
C  0.27000 35.16100 22.37200
C  -0.33900 33.72900 22.29500
C  -0.98200 33.56400 23.74000
C  -0.56700 36.24400 21.53400
C  0.62800 32.52200 22.06400
C  1.69300 32.25600 23.18400
N  -2.15200 32.99700 26.39100
C  -2.53200 32.32500 25.26500
C  -3.61700 31.52100 25.56000
C  -3.80800 31.61200 26.96600
C  -2.90100 32.51400 27.44800
C  -4.48100 30.77800 24.60400
C  -4.66800 31.16400 28.05400
O  -5.61500 30.35200 28.15600
C  -4.10100 31.92000 29.35500
C  -5.21900 32.58900 29.95200
O  -5.72900 33.61900 29.51700
O  -5.58900 31.88200 31.09300
C  -6.71000 32.51600 31.81400
H  0.24800 37.30500 30.13300
H  1.35700 37.20900 23.80600
H  -2.09600 31.82600 23.29000
H  -3.43500 34.53500 31.28900
H  -0.85300 35.73000 31.76900
H  -2.43200 37.46500 30.23100
H  -2.02500 37.37800 32.01700
H  -3.41800 36.60700 31.40900
H  -1.03300 33.48900 32.65700
H  -1.77400 32.35300 31.46100
H  -2.69600 32.12100 33.60000
H  -4.04300 32.99700 32.77900
H  1.71000 39.86300 28.60300
H  2.95700 38.84300 29.39400
H  1.32400 38.86900 29.98100
H  2.66100 40.55400 26.68700
H  4.32300 40.35500 25.73900
H  4.11800 39.62800 27.19400
H  1.34900 35.18000 22.22100
H  -1.14600 33.61900 21.57000
H  -1.27300 36.73500 22.20300
H  -1.29300 35.79800 20.85500
H  0.03400 36.97500 20.99300
H  1.17200 32.84900 21.17800
H  0.05100 31.62400 21.84200
H  1.50500 31.49700 23.94300
H  1.94400 33.21600 23.63600
H  2.61700 31.82700 22.79700
H  -5.29500 30.22300 25.07100
H  -3.86200 30.13500 23.97900
H  -4.97800 31.53900 24.00200
H  -3.72200 31.25100 30.12800
H  -6.38400 33.37300 32.40300
H  -7.09900 31.89300 32.61900
H  -7.62000 32.68400 31.23800
Mg -10.86900 17.59300 41.33000
C  -7.25600 17.43100 41.87100
C  -10.48700 20.92700 40.59200
C  -14.12500 17.51800 40.36200
C  -10.72100 14.06200 41.28100
N  -9.04700 18.93800 41.30700
C  -7.74000 18.70400 41.50000
C  -6.86500 19.92000 41.31700
C  -7.98200 21.03000 41.42400
C  -9.26700 20.26600 41.06200
C  -8.10000 21.77800 42.71400
C  -6.35400 19.97100 39.78600
C  -4.90400 19.55700 39.47900
H  -4.72200 18.59900 38.30500
N  -12.11300 19.05800 40.65700
C  -11.77700 20.34800 40.49400
C  -12.92900 21.10700 40.07900
C  -14.05400 20.18300 40.03700
C  -13.52800 18.83400 40.33200
C  -12.84300 22.62300 39.69300
C  -15.42600 20.61200 39.45800
O  -15.72700 21.78700 39.31700
C  -16.46000 19.54200 39.16300
N  -12.26100 15.96000 40.86600
C  -13.60600 16.20500 40.55300
C  -14.39300 14.90500 40.41000
C  -13.23000 13.85600 40.43000
C  -11.96800 14.63700 40.94400
C  -15.37200 14.56500 41.59400
C  -12.94400 13.06200 39.16800
C  -13.88500 12.01400 38.82000
N  -9.30700 16.01500 41.61900
C  -9.46800 14.65400 41.61500
C  -8.23300 14.03200 42.07000
C  -7.37200 15.08600 42.10500
C  -8.06100 16.24500 41.85700
C  -7.82700 12.62400 42.39900
C  -5.99900 15.39200 42.36500
O  -5.00100 14.66900 42.49400
C  -5.86200 16.99300 42.31600
C  -5.48700 17.57200 43.64200
O  -4.51500 18.34900 43.71000
O  -6.24100 17.11500 44.66800
C  -6.03800 17.81100 45.89900
H  -10.24800 21.97500 40.39900
H  -15.19200 17.49900 40.13100
H  -10.77200 12.98900 41.47700
H  -6.15500 20.09600 42.12500
H  -7.91800 21.72400 40.58600
H  -8.87500 21.31600 43.32600
H  -8.49300 22.77000 42.49000
H  -7.11400 21.75400 43.17700
H  -6.32300 21.02200 39.49800
H  -6.99000 19.35100 39.15300
H  -4.49700 19.12200 40.39100
H  -4.34500 20.48600 39.36700
H  -13.10500 22.48300 38.64400
H  -11.84900 22.97500 39.97200
H  -13.57700 23.15300 40.30000
H  -15.96300 18.79500 38.54400
H  -17.24100 19.93100 38.51000
H  -16.74800 19.06700 40.10100
H  -14.92400 14.85200 39.46000
H  -13.21500 13.07000 41.18600
H  -15.09900 15.31700 42.33500
H  -15.18700 13.53300 41.89000
H  -16.38000 14.64000 41.18700
H  -11.98700 12.59800 39.40700
H  -12.75100 13.66900 38.28400
H  -14.41500 11.54900 39.65100
H  -13.27600 11.24600 38.34300
H  -14.65200 12.33000 38.11200
H  -7.44900 12.00100 41.58900
H  -8.58700 12.09100 42.97000
H  -6.95400 12.73400 43.04300
H  -5.08500 17.20700 41.58200
H  -5.80900 17.02600 46.62000
H  -6.95900 18.30000 46.21400
H  -5.17500 18.46800 46.00700

