158

Mg 55.37300 23.80600 44.22400
C  53.01500 26.47500 43.42900
C  53.10700 21.58900 43.17800
C  57.87700 21.64100 44.45300
C  57.74500 26.49200 44.65800
N  53.23000 24.12400 43.20300
C  52.41100 25.19900 43.21800
C  51.03500 24.83400 42.68900
C  51.04900 23.26500 42.87500
C  52.53000 22.93900 43.17300
C  50.21200 22.73300 44.03900
C  50.74600 25.26100 41.22100
C  49.25100 25.22500 40.88500
H  49.08500 24.55800 39.45500
N  55.48600 21.86800 43.83600
C  54.39200 21.09300 43.56700
C  54.84800 19.74600 43.59100
C  56.26600 19.70700 43.88800
C  56.58700 21.13900 44.08100
C  53.88800 18.69300 43.26000
C  57.12800 18.50000 44.04300
O  56.65700 17.38200 43.77900
C  58.59300 18.47100 44.36500
N  57.48700 24.06500 44.30900
C  58.32100 22.98000 44.48800
C  59.69100 23.27400 44.89500
C  59.69300 24.90100 45.05000
C  58.24600 25.18600 44.61200
C  60.15100 22.70800 46.32400
C  60.83600 25.76800 44.24200
C  61.34300 27.12100 44.80200
N  55.42100 25.97600 44.15700
C  56.38400 26.92500 44.43100
C  55.82500 28.21700 44.44500
C  54.53300 28.05900 44.05400
C  54.33200 26.71300 43.83400
C  56.41400 29.47600 44.90300
C  53.39300 28.80600 43.86100
O  53.14100 29.99100 44.12800
C  52.35900 27.83200 43.23700
C  52.21900 28.17000 41.81300
O  52.98600 27.68800 40.96400
O  51.13800 29.00200 41.59400
C  51.05600 29.43900 40.14200
H  52.39600 20.80900 42.89500
H  58.71000 20.97800 44.69100
H  58.45200 27.29100 44.89100
H  50.24600 25.23500 43.32600
H  50.66000 22.76000 41.99100
H  50.89400 22.46300 44.84500
H  49.71100 21.84700 43.64600
H  49.48500 23.41900 44.47300
H  51.41600 24.63800 40.62900
H  50.98100 26.29400 40.96100
H  48.83700 26.21900 41.05100
H  48.78200 24.54900 41.60000
H  53.39000 18.16200 44.07100
H  54.38600 18.01100 42.57100
H  53.01200 18.93800 42.66100
H  59.27300 18.76500 43.56500
H  58.87700 17.45600 44.64400
H  58.74300 19.04000 45.28300
H  60.39500 23.04300 44.09500
H  59.61400 25.30500 46.05900
H  59.93600 23.33900 47.18600
H  61.20500 22.43100 46.29300
H  59.62200 21.76100 46.43200
H  60.45700 25.95700 43.23800
H  61.74000 25.16100 44.18500
H  62.43100 27.11600 44.73900
H  61.09500 27.12500 45.86300
H  61.04200 28.02900 44.27800
H  55.66500 30.26100 44.80200
H  57.23900 29.76700 44.25400
H  56.72400 29.40600 45.94600
H  51.39200 27.95000 43.72500
H  50.81000 28.48500 39.67400
H  52.02200 29.83100 39.82400
H  50.21800 30.08200 39.87200
Mg 47.17400 16.63900 27.57400
C  45.27600 16.66100 30.55600
C  49.77400 18.21300 29.43100
C  48.85200 17.24700 24.66500
C  44.46400 15.57300 25.88700
N  47.50700 17.40300 29.75900
C  46.58800 17.10300 30.80100
C  47.17300 17.61900 32.10200
C  48.43800 18.36800 31.70300
C  48.60100 17.99100 30.15900
C  48.56600 19.87500 32.06400
C  47.37900 16.47800 33.22600
C  46.73900 16.65300 34.58900
H  46.93500 17.98200 35.31700
N  49.06400 17.39500 27.11200
C  50.01600 17.92200 27.98600
C  51.30900 18.17600 27.33100
C  51.02900 17.96200 25.90800
C  49.57900 17.48200 25.79400
C  52.53700 18.58800 28.01100
C  52.02600 18.04700 24.78300
O  51.79800 17.91600 23.58600
C  53.48800 18.45300 25.06100
N  46.53400 16.70900 25.50800
C  47.46000 16.82100 24.48900
C  46.88400 16.49100 23.18400
C  45.60700 15.74900 23.59900
C  45.49300 16.00400 25.08300
C  46.69100 17.76100 22.25100
C  45.56500 14.25800 23.24200
C  44.73100 13.81900 22.08100
N  45.27200 16.16800 28.05800
C  44.28000 15.68700 27.23700
C  43.07200 15.37700 27.94600
C  43.47000 15.73100 29.33000
C  44.80200 16.22400 29.29400
C  41.69900 14.94100 27.41300
C  42.96300 15.71100 30.68600
O  41.89300 15.28700 31.06500
C  44.26500 16.22200 31.57900
C  43.73900 17.29900 32.35400
O  43.73700 18.47200 32.02300
O  43.27100 16.83800 33.52900
C  42.63300 17.82100 34.49900
H  50.60100 18.68500 29.96400
H  49.40200 17.30900 23.72300
H  43.69000 15.11300 25.27000
H  46.37600 18.26200 32.47400
H  49.38400 18.02200 32.12000
H  48.34900 20.48900 31.19000
H  49.54700 20.09600 32.48400
H  47.90800 20.17700 32.87900
H  48.44300 16.25100 33.29900
H  46.87900 15.58300 32.85600
H  47.12700 15.90600 35.28200
H  45.69100 16.35300 34.59600
H  53.25900 17.77800 27.90500
H  52.35600 18.60800 29.08500
H  52.99500 19.49400 27.61400
H  54.05400 18.31600 24.14000
H  53.91200 17.82800 25.84700
H  53.53400 19.48200 25.41700
H  47.46100 15.69800 22.70800
H  44.70200 16.22400 23.22100
H  45.64400 17.75800 21.94800
H  47.31300 17.68800 21.35900
H  46.83800 18.65400 22.85800
H  45.35500 13.62200 24.10200
H  46.60600 13.97100 23.09200
H  44.18200 12.89400 22.26100
H  45.39900 13.61600 21.24400
H  43.99100 14.61600 22.00800
H  41.00300 15.57900 27.95600
H  41.56300 13.86200 27.49300
H  41.59800 15.16700 26.35100
H  44.64000 15.35800 32.12800
H  41.66700 18.09000 34.07200
H  43.22500 18.73500 34.54700
H  42.47000 17.41200 35.49600

