158

Mg 8.84600 3.70100 27.39700
C  10.01000 2.20000 30.28500
C  6.53600 5.37300 29.26900
C  7.33200 4.74000 24.51400
C  10.53300 1.14600 25.51500
N  8.18900 3.59400 29.62300
C  9.02800 3.14000 30.60900
C  8.72900 3.80400 31.93500
C  7.52800 4.75800 31.48200
C  7.40300 4.59500 30.03500
C  6.18000 4.67800 32.25700
C  9.83200 4.65500 32.63400
C  10.17500 4.16200 34.07000
H  10.27600 5.21400 35.21500
N  7.30600 4.95200 26.94100
C  6.49700 5.58300 27.84500
C  5.61800 6.50000 27.11500
C  5.88700 6.41300 25.73800
C  6.88800 5.29400 25.70300
C  4.71400 7.51400 27.87800
C  5.42400 7.27300 24.57500
O  5.54000 6.98600 23.37200
C  4.70800 8.68800 24.84700
N  8.87900 3.04900 25.27900
C  8.29100 3.71600 24.29500
C  8.77300 3.12400 22.91500
C  9.83700 2.08800 23.24600
C  9.81100 2.13900 24.76000
C  7.59400 2.60400 22.03200
C  11.23700 2.47500 22.80100
C  11.37800 2.56300 21.30300
N  10.16400 2.10500 27.76100
C  10.70900 1.15300 26.94000
C  11.55400 0.29000 27.74200
C  11.34800 0.68500 29.07000
C  10.44600 1.76100 29.01500
C  12.35500 -0.92600 27.30700
C  11.66900 0.37300 30.43800
O  12.40700 -0.46300 30.93900
C  10.95000 1.50700 31.30300
C  10.22500 0.87200 32.36500
O  9.07600 0.43400 32.24500
O  10.93800 0.77100 33.49900
C  10.24200 0.04300 34.56100
H  6.04800 6.17800 29.82400
H  7.05600 5.13100 23.53200
H  11.03400 0.31200 25.02000
H  8.27000 3.08300 32.61200
H  7.68000 5.82500 31.64600
H  5.47500 4.16100 31.60700
H  5.84600 5.63100 32.66900
H  6.21200 3.95900 33.07600
H  9.48900 5.66600 32.85100
H  10.65500 4.86300 31.95000
H  11.14900 3.69000 33.93800
H  9.49400 3.39400 34.43800
H  3.80000 7.42100 27.29200
H  5.05700 8.54700 27.83300
H  4.49400 7.35000 28.93300
H  4.52200 9.03100 23.82900
H  5.38400 9.38600 25.34000
H  3.81200 8.54600 25.45200
H  9.09100 4.04100 22.41900
H  9.59400 1.07900 22.91200
H  7.70000 1.53100 21.87200
H  7.74800 3.00700 21.03100
H  6.62800 2.83400 22.48100
H  11.80500 1.59200 23.09600
H  11.76600 3.35700 23.16200
H  11.72400 3.50300 20.87300
H  10.37700 2.28200 20.97600
H  11.99300 1.73700 20.94400
H  12.42300 -0.89600 26.22000
H  11.83700 -1.84400 27.58500
H  13.38000 -0.97600 27.67700
H  11.69200 2.16400 31.75500
H  10.05000 -1.02100 34.42000
H  9.36600 0.61900 34.85900
H  10.90800 -0.04700 35.41900
Mg 25.66000 1.51000 29.56000
C  27.53000 1.12000 32.39300
C  22.91000 1.79000 31.43300
C  23.82600 1.32500 26.56700
C  28.50100 0.82100 27.67500
N  25.28500 1.59700 31.65400
C  26.20600 1.42200 32.64200
C  25.63400 1.82400 34.06400
C  24.10200 1.89600 33.73900
C  24.05700 1.72700 32.19900
C  23.29800 0.83500 34.52300
C  26.27500 3.14900 34.58400
C  25.92300 3.50700 36.10300
H  27.02500 3.58200 37.12600
N  23.65800 1.66000 29.01500
C  22.72200 1.90500 29.97600
C  21.46500 2.03900 29.27700
C  21.73100 1.89300 27.87000
C  23.13900 1.70300 27.74400
C  20.18300 2.29900 29.93700
C  20.79700 2.07700 26.69800
O  21.10500 1.99300 25.51100
C  19.33000 2.20200 26.91400
N  26.03900 0.87400 27.41000
C  25.18800 1.09600 26.35400
C  25.88000 0.97000 24.96400
C  27.35900 0.98000 25.39700
C  27.30100 0.93200 26.94300
C  25.48200 -0.30200 24.07800
C  28.15200 2.15800 24.78900
C  28.11400 3.40700 25.72000
N  27.62300 0.99900 29.87400
C  28.65000 0.64400 29.02800
C  29.84500 0.57400 29.77300
C  29.40900 0.64600 31.12900
C  28.04900 0.90700 31.12600
C  31.27300 0.19500 29.24900
C  29.90200 0.66100 32.46600
O  31.04200 0.36100 32.85200
C  28.68000 0.99900 33.37600
C  28.48800 0.04800 34.46600
O  27.92500 -1.00400 34.36200
O  29.05500 0.44800 35.68000
C  28.97700 -0.52200 36.74600
H  22.02400 1.89900 32.06100
H  23.14700 1.25700 25.71500
H  29.48100 0.82100 27.19400
H  25.84800 0.99700 34.74100
H  23.80400 2.87600 34.11400
H  23.13200 1.19800 35.53800
H  23.95500 -0.03500 34.52300
H  22.32000 0.72700 34.05500
H  25.93700 3.98700 33.97400
H  27.35900 3.23100 34.51700
H  25.15300 2.81200 36.43900
H  25.38500 4.45400 36.07400
H  19.51200 1.48200 29.67300
H  19.72800 3.21900 29.57200
H  20.23000 2.35600 31.02500
H  19.40000 3.18800 27.37200
H  18.91200 1.42500 27.55400
H  18.83900 2.31000 25.94600
H  25.63800 1.81800 24.32300
H  27.81100 0.03200 25.10500
H  25.20800 -1.07200 24.80000
H  26.25400 -0.59200 23.36500
H  24.52400 -0.04500 23.62600
H  27.68600 2.59200 23.90300
H  29.21600 1.95900 24.66300
H  27.40900 3.40500 26.55100
H  27.96800 4.26100 25.05900
H  29.10600 3.58300 26.13500
H  32.04000 0.54300 29.94100
H  31.55200 0.59500 28.27300
H  31.31900 -0.88300 29.40100
H  28.85700 1.99200 33.78900
H  28.66100 -1.53800 36.51200
H  28.41700 -0.09900 37.58000
H  29.99300 -0.66500 37.11400

