158

Mg 43.51900 3.98400 47.64300
C  41.50100 6.82500 47.09900
C  40.71800 2.03900 47.35200
C  45.62400 1.39400 47.51200
C  46.41500 6.22000 47.76600
N  41.47500 4.41300 47.23500
C  40.78800 5.62000 47.30600
C  39.26900 5.42500 47.35700
C  39.14000 3.88700 47.59000
C  40.59300 3.40000 47.32400
C  38.51500 3.50100 48.97200
C  38.46700 5.98700 46.04200
C  38.83900 5.36800 44.63000
H  39.33500 6.24200 43.47400
N  43.24000 1.94300 47.53100
C  41.98700 1.31500 47.40500
C  42.23500 -0.11600 47.27500
C  43.62100 -0.27700 47.28400
C  44.24700 1.07800 47.51500
C  41.25200 -1.22100 47.27600
C  44.32100 -1.66300 47.14000
O  43.62300 -2.62300 46.85300
C  45.75400 -1.88100 47.31400
N  45.75900 3.85200 47.58900
C  46.29200 2.61800 47.62800
C  47.83200 2.71600 47.83300
C  48.08400 4.23600 47.94000
C  46.68400 4.81100 47.77000
C  48.30100 1.87800 49.01900
C  49.09800 4.81100 46.94400
C  50.53900 4.36000 47.05000
N  43.92800 6.15600 47.53800
C  45.12300 6.84800 47.54600
C  44.75900 8.27500 47.48500
C  43.33500 8.31300 47.30900
C  42.88500 6.97300 47.25600
C  45.80600 9.39500 47.63500
C  42.13500 9.11100 47.23000
O  41.91100 10.31100 47.20300
C  40.91200 8.20800 47.10700
C  39.95500 8.40400 48.29200
O  40.23600 8.14300 49.46500
O  38.77000 8.76300 47.84800
C  37.79200 8.95900 48.93300
H  39.76600 1.50500 47.31800
H  46.23800 0.53700 47.79700
H  47.35300 6.77600 47.70900
H  38.99900 5.93000 48.28400
H  38.54000 3.42700 46.80500
H  39.21400 2.97800 49.62500
H  37.65900 2.84200 48.82700
H  38.03600 4.36700 49.42700
H  38.65900 7.05100 45.90100
H  37.42000 5.81100 46.28900
H  38.03000 4.70400 44.32500
H  39.64200 4.63000 44.62700
H  41.41400 -2.05900 47.95400
H  41.17800 -1.61700 46.26300
H  40.28800 -0.71700 47.34700
H  45.97000 -1.46600 48.29800
H  46.36600 -1.35000 46.58500
H  45.82800 -2.96700 47.24500
H  48.33200 2.35800 46.93300
H  48.47900 4.43800 48.93500
H  48.58100 0.88300 48.67400
H  47.46700 1.82600 49.71900
H  49.20800 2.32900 49.42100
H  49.19400 5.89300 47.03300
H  48.82300 4.47300 45.94500
H  51.22000 5.21000 47.00900
H  50.70100 3.74600 46.16400
H  50.81800 3.75000 47.90900
H  45.30200 10.35300 47.50900
H  46.61600 9.32700 46.90900
H  46.34700 9.39600 48.58100
H  40.33000 8.43400 46.21300
H  36.91200 9.45000 48.51800
H  38.20500 9.61100 49.70300
H  37.50600 7.99200 49.34700
Mg 36.93700 49.88400 24.54800
C  37.16400 48.11800 27.57100
C  35.27700 52.36400 26.15400
C  36.27700 51.25800 21.46600
C  37.88300 46.85900 22.82700
N  36.47900 50.21100 26.68400
C  36.68100 49.39300 27.75300
C  36.34200 50.14500 29.02300
C  35.76400 51.51800 28.50600
C  35.84900 51.44300 27.01900
C  34.28500 51.82000 29.02000
C  37.67900 50.28800 29.80400
C  37.68700 50.00000 31.35000
H  36.32100 49.81000 32.01300
N  36.04400 51.65700 23.89500
C  35.48600 52.55200 24.70300
C  35.11800 53.75700 23.90600
C  35.38900 53.44600 22.55500
C  35.89800 52.02400 22.54900
C  34.48200 54.94600 24.61800
C  35.24200 54.29800 21.33700
O  35.46900 53.91700 20.16700
C  34.85000 55.83000 21.53700
N  37.04400 49.08700 22.44200
C  36.80400 49.93400 21.39200
C  37.21400 49.21800 20.10300
C  37.78500 47.87200 20.53200
C  37.63400 47.90100 22.01500
C  36.11300 49.12600 19.00900
C  39.33100 47.64900 20.15600
C  40.32600 48.82400 20.57600
N  37.58200 47.94600 25.02100
C  37.82400 46.82000 24.21400
C  38.04100 45.67000 25.03500
C  37.81800 46.16200 26.32200
C  37.44400 47.50700 26.29100
C  38.44300 44.35100 24.55100
C  37.79000 45.72800 27.75100
O  37.97900 44.62500 28.24500
C  37.41500 47.02700 28.56800
C  36.24800 46.62700 29.39200
O  35.09700 46.74800 29.01500
O  36.68200 46.10000 30.58900
C  35.65600 45.47900 31.42100
H  34.99700 53.23400 26.75200
H  36.06600 51.77800 20.53000
H  38.14200 45.94600 22.28800
H  35.65200 49.52200 29.59100
H  36.42900 52.31100 28.84900
H  33.61600 51.63900 28.17900
H  34.20900 52.88400 29.24300
H  33.82300 51.17400 29.76700
H  37.91800 51.34800 29.72000
H  38.53400 49.70500 29.46300
H  38.26700 50.76800 31.86100
H  38.23800 49.06500 31.44500
H  33.45600 55.24000 24.39900
H  34.98400 55.83100 24.22800
H  34.59600 54.95500 25.70200
H  33.82100 55.91800 21.88500
H  34.65600 56.30600 20.57600
H  35.72800 56.22000 22.05300
H  37.99400 49.81300 19.62700
H  37.23400 47.01600 20.14200
H  35.16700 49.39300 19.48200
H  36.10300 48.25000 18.36200
H  36.28300 49.99100 18.36700
H  39.43100 47.64100 19.07000
H  39.55900 46.71100 20.66300
H  39.89100 49.52500 21.28700
H  40.65100 49.44100 19.73800
H  41.19300 48.29800 20.97600
H  39.47900 44.18200 24.84300
H  38.19200 44.28700 23.49200
H  37.86100 43.55700 25.02000
H  38.28200 47.36300 29.13700
H  34.91700 46.20000 31.77000
H  36.14400 44.98900 32.26400
H  35.15000 44.68800 30.86700

