158

Mg 16.97600 -1.59400 28.57200
C  15.82200 0.59800 31.10000
C  18.91900 -3.18200 30.96100
C  18.51800 -3.31400 26.09800
C  15.48000 0.61100 26.25500
N  17.13200 -1.47800 30.83600
C  16.61800 -0.43500 31.60900
C  17.14000 -0.55700 33.05600
C  18.33000 -1.68100 32.91800
C  18.12700 -2.07100 31.43700
C  19.70900 -1.12100 33.29800
C  15.92600 -1.07900 33.87400
C  15.72800 -0.38300 35.23500
H  16.84300 0.25400 35.98800
N  18.29300 -3.16000 28.61700
C  18.95100 -3.72600 29.68600
C  19.56700 -4.94800 29.20000
C  19.61200 -4.92000 27.81900
C  18.80200 -3.74500 27.43200
C  20.15900 -6.01800 30.09300
C  20.20700 -5.93800 26.85100
O  20.12000 -5.85100 25.68600
C  21.12200 -7.00200 27.37900
N  17.16900 -1.23100 26.46200
C  17.80300 -2.20100 25.66500
C  17.53600 -1.89500 24.21600
C  16.40400 -0.81200 24.27400
C  16.31600 -0.42900 25.72300
C  18.94200 -1.48600 23.57300
C  15.04500 -1.25800 23.63900
C  14.38600 -0.22000 22.66000
N  15.72300 0.12000 28.63100
C  15.21000 0.89600 27.57700
C  14.34200 1.95100 28.12400
C  14.52200 1.83300 29.49600
C  15.45600 0.76500 29.73700
C  13.61500 3.06300 27.35800
C  14.17400 2.45400 30.79100
O  13.44400 3.34100 31.10900
C  15.14800 1.73100 31.85500
C  16.07300 2.78900 32.48600
O  17.00700 3.33100 31.84200
O  15.68700 3.15300 33.77400
C  16.48200 4.19800 34.40200
H  19.55200 -3.53100 31.78000
H  19.03000 -3.81700 25.27400
H  14.89100 1.19300 25.54400
H  17.53200 0.41000 33.37000
H  18.09700 -2.55800 33.52000
H  19.70800 -0.15100 33.79400
H  20.37700 -1.14600 32.43700
H  20.22700 -1.81600 33.96000
H  15.87800 -2.15000 34.07200
H  15.03100 -0.87400 33.28600
H  15.47200 -1.26500 35.82100
H  14.80300 0.18800 35.31100
H  21.20100 -6.07300 30.40600
H  19.68900 -6.94100 29.75200
H  19.69600 -5.81000 31.05800
H  21.99600 -6.62800 27.91300
H  21.42500 -7.60300 26.52200
H  20.51400 -7.68500 27.97100
H  17.14500 -2.79900 23.74900
H  16.62000 0.14500 23.79800
H  19.00000 -0.40500 23.44400
H  19.07100 -1.97300 22.60600
H  19.80900 -1.74500 24.18100
H  14.48400 -1.50200 24.54200
H  15.09400 -2.20000 23.09200
H  15.20200 0.38300 22.26100
H  13.69900 0.36800 23.26700
H  13.82400 -0.65500 21.83300
H  13.83900 3.16500 26.29700
H  13.91900 4.05300 27.69900
H  12.58200 2.79400 27.58100
H  14.49300 1.43700 32.67500
H  16.47400 5.00500 33.67000
H  17.46400 3.74900 34.54900
H  16.03600 4.48100 35.35600
Mg -12.98800 16.12200 41.29700
C  -9.79000 14.77100 40.74900
C  -11.82900 19.17400 40.19600
C  -16.13200 17.32000 41.48400
C  -14.19800 12.89400 41.81500
N  -11.03000 16.85600 40.48700
C  -9.86100 16.11000 40.44000
C  -8.70200 16.96700 39.97200
C  -9.24600 18.48300 39.96200
C  -10.79700 18.21100 40.21800
C  -8.72400 19.39400 41.10800
C  -8.19600 16.53400 38.62000
C  -6.63200 16.28500 38.55400
H  -6.06300 16.03400 37.11600
N  -13.87300 17.89900 40.86900
C  -13.21100 19.03000 40.40800
C  -14.20600 20.11200 40.24500
C  -15.44100 19.64000 40.80000
C  -15.18100 18.23000 41.10100
C  -13.95200 21.35300 39.35900
C  -16.66000 20.52600 40.94500
O  -16.62000 21.73300 40.67800
C  -18.07100 20.10000 41.38000
N  -14.92700 15.16400 41.33700
C  -16.01700 15.88100 41.56600
C  -17.26400 15.01800 41.78700
C  -16.66700 13.57700 41.68500
C  -15.18300 13.86400 41.61700
C  -17.91500 15.31600 43.14500
C  -17.14000 12.79800 40.43200
C  -17.24200 11.24000 40.59300
N  -12.21200 14.20400 41.32500
C  -12.83600 12.99100 41.53900
C  -11.78600 11.93700 41.47200
C  -10.57500 12.63500 41.14700
C  -10.93600 13.98600 41.04100
C  -12.01700 10.41000 41.61500
C  -9.17800 12.37400 41.05500
O  -8.48700 11.36200 40.98000
C  -8.60400 13.84700 40.80600
C  -7.76700 14.23900 41.97500
O  -8.14200 14.98400 42.89700
O  -6.61900 13.45900 42.06600
C  -5.67300 13.75300 43.10000
H  -11.35600 20.14200 40.01500
H  -17.13200 17.73500 41.62500
H  -14.65800 11.90500 41.87300
H  -7.87000 16.91500 40.67400
H  -9.10300 19.08700 39.06500
H  -8.29100 20.27000 40.62500
H  -7.97100 18.88000 41.70400
H  -9.56800 19.76200 41.69200
H  -8.55400 17.32800 37.96600
H  -8.70100 15.69100 38.14800
H  -6.50300 15.39800 39.17300
H  -6.09200 17.06500 39.09100
H  -12.91500 21.40800 39.02600
H  -14.17900 22.32700 39.79200
H  -14.62700 21.24300 38.51000
H  -18.36600 19.16100 40.91200
H  -18.71800 20.91100 41.04600
H  -17.93900 19.99700 42.45700
H  -17.98600 15.21600 40.99500
H  -16.86300 13.08000 42.63600
H  -17.57200 16.27100 43.54300
H  -17.68400 14.52300 43.85500
H  -18.97600 15.37300 42.89900
H  -16.37700 12.96300 39.67200
H  -18.04900 13.23900 40.02200
H  -16.95900 10.92900 41.59800
H  -16.64800 10.78400 39.80100
H  -18.29700 11.00800 40.44800
H  -11.28000 9.98800 42.29700
H  -12.08300 9.86200 40.67500
H  -13.03700 10.25100 41.96600
H  -7.92400 13.86500 39.95400
H  -5.05700 12.87100 43.27500
H  -6.21900 14.17200 43.94500
H  -5.03500 14.61300 42.89600

