158

Mg 2.23000 -1.86900 44.29000
C  5.67100 -1.35800 43.96500
C  1.62900 0.72600 42.15800
C  -1.03200 -2.70400 44.36300
C  3.04200 -5.02300 45.73200
N  3.55400 -0.52600 43.09400
C  4.98600 -0.45800 43.17400
C  5.41900 0.68400 42.21200
C  4.10400 1.41100 41.71100
C  3.02500 0.49900 42.40300
C  3.89500 2.86300 41.98400
C  6.28500 0.15000 41.03800
C  7.62800 0.90600 40.90400
H  7.99300 1.24100 39.45600
N  0.53800 -1.09800 43.32000
C  0.53500 -0.01100 42.49600
C  -0.81400 0.22100 42.13400
C  -1.59100 -0.77300 42.79100
C  -0.72800 -1.58100 43.54800
C  -1.20800 1.35100 41.27100
C  -3.06600 -0.96500 42.44000
O  -3.54100 -0.29800 41.55200
C  -3.95400 -1.86100 43.19500
N  1.18700 -3.67000 44.85300
C  -0.17000 -3.67000 44.88200
C  -0.75300 -4.89900 45.56200
C  0.61200 -5.76100 45.56500
C  1.70400 -4.80600 45.33200
C  -1.43100 -4.71600 46.91200
C  0.74200 -7.09600 44.67400
C  0.23300 -8.36900 45.35100
N  3.93700 -3.00500 44.82100
C  4.12600 -4.21000 45.40300
C  5.56800 -4.43300 45.70100
C  6.18400 -3.24400 45.24600
C  5.17500 -2.49100 44.61700
C  6.17500 -5.61800 46.41900
C  7.39600 -2.46000 45.13500
O  8.52100 -2.79600 45.53300
C  7.14200 -1.32100 44.27000
C  7.35100 -0.01600 44.87800
O  6.89100 0.42100 45.93800
O  8.16400 0.77600 44.09000
C  8.21400 2.18000 44.40100
H  1.50500 1.56300 41.46700
H  -2.09300 -2.94600 44.44400
H  3.35400 -5.95600 46.20600
H  5.99200 1.42500 42.76900
H  4.01900 1.31500 40.62900
H  4.09900 3.42900 41.07500
H  4.59300 3.31100 42.69100
H  2.85300 3.06200 42.23500
H  5.74200 0.03200 40.10000
H  6.57800 -0.89600 41.12300
H  8.40900 0.20800 41.20400
H  7.61900 1.83000 41.48100
H  -2.18500 1.74100 41.55600
H  -1.35700 0.99700 40.25100
H  -0.59700 2.25300 41.26400
H  -4.98400 -1.67300 42.88900
H  -3.79200 -1.55300 44.22700
H  -3.65900 -2.88900 42.98400
H  -1.51300 -5.38800 44.95200
H  0.70000 -6.10300 46.59600
H  -2.32300 -4.09900 46.79600
H  -0.61500 -4.29000 47.49600
H  -1.67000 -5.62000 47.47200
H  1.78900 -7.20400 44.38900
H  0.09900 -6.97300 43.80300
H  1.05300 -8.71600 45.98000
H  0.15600 -9.22500 44.68000
H  -0.63500 -8.25300 46.00000
H  6.25000 -6.47200 45.74700
H  5.46300 -6.01700 47.14100
H  7.11600 -5.27800 46.85100
H  7.85100 -1.33800 43.44200
H  8.66500 2.37900 45.37300
H  7.25500 2.68800 44.29700
H  8.87000 2.74800 43.74100
Mg 8.61000 3.04800 27.80200
C  9.97600 1.69800 30.75500
C  6.88900 5.19600 29.85000
C  6.95700 4.12300 25.17200
C  10.09900 0.54200 25.96600
N  8.47000 3.36900 30.13100
C  9.10100 2.69300 31.07200
C  8.80900 3.33600 32.46600
C  7.65400 4.35400 32.20000
C  7.69000 4.34200 30.65000
C  6.28500 3.82300 32.63300
C  10.08100 4.10900 32.94600
C  10.50200 3.81700 34.34700
H  10.74900 4.97100 35.41800
N  7.23800 4.51600 27.55300
C  6.66700 5.32700 28.47700
C  5.75300 6.31100 27.94900
C  5.79900 6.03000 26.51300
C  6.70300 4.86800 26.37800
C  5.15600 7.46000 28.78300
C  5.22100 6.73400 25.38600
O  5.35100 6.46800 24.22400
C  4.58900 8.07100 25.64500
N  8.42500 2.33400 25.88400
C  7.67100 2.92100 24.92100
C  8.00000 2.36300 23.51800
C  9.02800 1.26900 23.83400
C  9.20800 1.37300 25.31500
C  6.74600 1.92900 22.78000
C  10.24300 1.36100 22.89200
C  10.47000 0.01000 22.17200
N  9.72400 1.41300 28.20900
C  10.33000 0.55800 27.37300
C  11.25100 -0.28600 28.07500
C  11.05800 0.09800 29.41800
C  10.17300 1.17300 29.45100
C  12.10200 -1.28100 27.41800
C  11.62900 -0.11200 30.76300
O  12.52800 -0.86400 31.09300
C  10.94600 0.96200 31.71200
C  10.17300 0.27500 32.80200
O  9.29000 -0.56600 32.67300
O  10.68000 0.71900 33.92900
C  9.95100 0.23700 35.11600
H  6.19400 5.78500 30.45200
H  6.40600 4.30100 24.24700
H  10.64800 -0.14600 25.32000
H  8.52400 2.57800 33.19500
H  7.83500 5.39100 32.48600
H  5.57600 4.62200 32.84900
H  6.45400 3.11900 33.44800
H  5.83300 3.28400 31.80000
H  9.89900 5.18400 32.93200
H  10.85200 3.94500 32.19300
H  11.48800 3.35300 34.32800
H  9.86600 3.07500 34.83000
H  5.22600 8.45600 28.34600
H  5.64700 7.56800 29.75100
H  4.10400 7.26300 28.99000
H  5.27700 8.76700 26.12500
H  3.75900 7.95400 26.34200
H  4.19700 8.49000 24.71900
H  8.39300 3.23000 22.98900
H  8.51600 0.32200 23.67100
H  5.91200 1.90200 23.48100
H  6.92600 0.96900 22.29500
H  6.50400 2.70000 22.04900
H  11.10600 1.68400 23.47400
H  9.99300 2.12400 22.15500
H  10.30500 0.06900 21.09600
H  9.79200 -0.75600 22.54900
H  11.50500 -0.29400 22.32800
H  11.56300 -2.22900 27.39800
H  13.02000 -1.39200 27.99500
H  12.24100 -0.98600 26.37800
H  11.65900 1.58300 32.25400
H  10.32500 0.72900 36.01400
H  10.10900 -0.84000 35.16800
H  8.86300 0.24600 35.04800

