158

Mg 16.80000 -1.21700 28.48100
C  15.53800 0.90800 31.06300
C  18.66100 -2.86700 30.81200
C  18.25900 -2.93800 26.00100
C  15.19300 0.87600 26.21100
N  17.08800 -0.89000 30.73500
C  16.37700 -0.05300 31.58200
C  16.81800 -0.37600 33.03900
C  17.88100 -1.61000 32.90400
C  17.99800 -1.74800 31.39700
C  19.16200 -1.35300 33.71400
C  15.62300 -0.75300 33.96600
C  15.41800 0.06900 35.19900
H  16.60700 0.44000 36.03600
N  18.34500 -2.64400 28.46700
C  18.76500 -3.31300 29.51400
C  19.58000 -4.43800 29.08700
C  19.42500 -4.49700 27.69400
C  18.65200 -3.28800 27.32900
C  20.48000 -5.26900 29.92100
C  20.03900 -5.58200 26.67900
O  20.00200 -5.49800 25.41700
C  20.77500 -6.74600 27.23700
N  16.88000 -0.99500 26.44300
C  17.51600 -1.82600 25.58100
C  17.30500 -1.44300 24.09900
C  16.39100 -0.19100 24.16900
C  16.16800 -0.03700 25.73400
C  18.60300 -1.25900 23.34300
C  15.16200 -0.43300 23.22400
C  13.96800 -1.00500 23.78400
N  15.55700 0.51700 28.59900
C  14.95300 1.25500 27.57500
C  14.08600 2.31700 28.17300
C  14.28800 2.23900 29.57300
C  15.25100 1.15600 29.72200
C  13.22400 3.28900 27.35500
C  13.95200 2.80300 30.80600
O  13.30100 3.80800 31.11700
C  14.76200 1.98100 31.93300
C  15.70900 2.98800 32.55300
O  16.82400 3.25600 32.11200
O  15.19300 3.25700 33.80400
C  16.00800 4.24600 34.47700
H  19.06900 -3.43300 31.65200
H  18.60000 -3.59900 25.20200
H  14.70900 1.53100 25.48300
H  17.21800 0.56100 33.42900
H  17.44000 -2.53300 33.28100
H  19.43500 -0.33200 33.98300
H  20.07200 -1.69400 33.22000
H  19.22000 -1.80500 34.70400
H  15.64000 -1.82600 34.15800
H  14.63300 -0.60100 33.53700
H  14.77200 -0.60600 35.76100
H  14.92000 0.99100 34.90000
H  20.74500 -4.77600 30.85600
H  21.46100 -5.29900 29.44600
H  20.25500 -6.31200 30.14300
H  20.22900 -7.23000 28.04700
H  21.73800 -6.35600 27.56400
H  21.01000 -7.48900 26.47500
H  16.75300 -2.27400 23.65900
H  16.92900 0.69800 23.83900
H  18.64300 -0.31800 22.79400
H  18.60000 -1.89000 22.45400
H  19.47800 -1.45500 23.96200
H  15.41700 -1.04600 22.35900
H  14.90500 0.57100 22.88700
H  14.19700 -1.12100 24.84300
H  13.68100 -1.99000 23.41400
H  13.04900 -0.44000 23.62500
H  13.71100 3.60500 26.43200
H  13.10200 4.19600 27.94700
H  12.28100 2.75300 27.24000
H  14.00600 1.54500 32.58600
H  16.26300 5.11600 33.87300
H  16.99600 3.82400 34.66100
H  15.55100 4.54200 35.42200
Mg 45.51200 4.23600 47.66400
C  43.52000 6.97100 47.05800
C  42.90100 2.14400 47.01900
C  47.78500 1.69000 47.23800
C  48.25600 6.41900 47.74100
N  43.44700 4.55200 47.17200
C  42.83600 5.76900 46.92400
C  41.33200 5.62600 46.59900
C  41.05600 4.06400 46.88700
C  42.51900 3.51900 47.06200
C  40.09700 3.67800 48.00100
C  40.84400 6.38700 45.23400
C  40.71100 5.51300 43.97900
H  40.48100 6.24100 42.64800
N  45.35300 2.16700 47.26900
C  44.17000 1.50700 47.05500
C  44.47000 0.11100 46.93400
C  45.85400 -0.08300 46.97000
C  46.40400 1.27700 47.17800
C  43.37000 -0.96000 46.80700
C  46.57300 -1.35200 46.83000
O  45.84300 -2.37100 46.68400
C  48.04300 -1.53800 46.91200
N  47.69100 4.11800 47.80200
C  48.34000 2.98300 47.47100
C  49.89300 3.17500 47.65600
C  50.00800 4.64100 47.91500
C  48.58800 5.10300 47.88800
C  50.56300 2.20500 48.60700
C  51.02900 5.39900 46.94800
C  51.85800 6.56500 47.67700
N  45.87800 6.29800 47.64400
C  47.01700 7.07700 47.66400
C  46.70900 8.45800 47.54800
C  45.35200 8.50400 47.44200
C  44.88400 7.13700 47.47400
C  47.67900 9.55400 47.56900
C  44.16400 9.37800 47.32800
O  44.07100 10.60600 47.39000
C  42.96400 8.36100 47.10400
C  42.08800 8.55800 48.29500
O  42.28200 7.99400 49.41700
O  41.05700 9.50100 48.07700
C  40.20800 9.63600 49.26800
H  42.04900 1.46400 47.09400
H  48.40600 0.84000 46.95000
H  49.11600 7.08400 47.84800
H  40.80700 6.14800 47.39800
H  40.73500 3.67300 45.92100
H  40.13700 4.36100 48.84900
H  40.40500 2.73900 48.46200
H  39.09400 3.59200 47.58300
H  41.66000 7.03700 44.91900
H  39.83300 6.77000 45.37300
H  39.82600 4.88900 44.10000
H  41.50400 4.78300 43.81700
H  43.40100 -1.66300 47.64000
H  43.56900 -1.60900 45.95500
H  42.36100 -0.54900 46.76400
H  48.44300 -1.07400 47.81400
H  48.39500 -1.05900 45.99900
H  48.52100 -2.51800 46.92800
H  50.37900 3.06000 46.68700
H  50.33400 4.61000 48.95400
H  49.79600 1.70500 49.19900
H  51.28800 2.75400 49.20700
H  51.10000 1.40300 48.10100
H  50.49000 5.89100 46.13800
H  51.74300 4.81600 46.36500
H  52.52100 6.06900 48.38600
H  51.28200 7.26700 48.28000
H  52.33200 7.13100 46.87600
H  47.19500 10.50000 47.32700
H  48.57500 9.36400 46.97800
H  47.94600 9.67000 48.62000
H  42.50200 8.68800 46.17300
H  40.82300 9.69200 50.16600
H  39.40300 8.92100 49.43700
H  39.67700 10.58800 49.24200

