158

Mg -1.54200 17.22000 26.59000
C  -1.55800 14.85200 29.26600
C  -2.46500 19.51900 29.01600
C  -2.33200 19.30100 24.13800
C  -1.51600 14.65700 24.36400
N  -1.92600 17.20400 28.95800
C  -1.81900 16.11200 29.78800
C  -2.30300 16.47200 31.24400
C  -2.78600 17.95000 31.06400
C  -2.38800 18.27000 29.60500
C  -4.39400 18.06000 31.25800
C  -1.11900 16.23400 32.19000
C  -0.61300 17.40800 33.11400
H  0.29700 17.00500 34.26100
N  -2.11600 19.14100 26.62500
C  -2.35100 19.98300 27.71200
C  -2.65300 21.28300 27.24800
C  -2.56000 21.26900 25.87700
C  -2.35400 19.85500 25.49400
C  -2.82200 22.48100 28.29600
C  -2.72600 22.41500 24.84100
O  -2.57700 22.28100 23.63300
C  -3.05800 23.81200 25.34100
N  -1.71600 17.04400 24.58600
C  -2.14200 18.01500 23.75400
C  -2.45100 17.47800 22.33400
C  -1.59300 16.14500 22.41900
C  -1.49600 15.96000 23.88400
C  -3.92700 17.28600 21.91900
C  -0.12400 16.26000 21.77800
C  0.05700 15.56600 20.44100
N  -1.44400 15.23200 26.75700
C  -1.46500 14.31700 25.72500
C  -1.32800 12.99200 26.29100
C  -1.29800 13.18900 27.64200
C  -1.45200 14.50500 27.90000
C  -1.28200 11.64600 25.55500
C  -1.20800 12.44100 28.80100
O  -0.98100 11.24600 29.00000
C  -1.53300 13.41300 29.87500
C  -0.59000 13.29400 30.99700
O  0.61500 13.46700 30.96800
O  -1.25600 12.92800 32.15200
C  -0.45800 12.65200 33.34000
H  -2.76800 20.26700 29.75200
H  -2.61800 19.94700 23.30500
H  -1.36200 13.91600 23.57600
H  -3.17300 15.89000 31.54900
H  -2.16000 18.65300 31.61200
H  -4.87800 17.18200 31.68600
H  -4.78700 18.13900 30.24400
H  -4.77300 18.92100 31.80800
H  -0.22900 15.98800 31.61100
H  -1.40100 15.33000 32.73000
H  -1.47400 17.91900 33.54500
H  -0.18600 18.13100 32.41800
H  -2.40500 23.41800 27.92800
H  -2.39300 22.33900 29.28800
H  -3.89300 22.67000 28.37500
H  -3.96700 23.78000 25.94100
H  -3.34600 24.38500 24.45900
H  -2.17700 24.26700 25.79300
H  -2.12300 18.12200 21.51800
H  -2.06700 15.35000 21.84300
H  -4.42200 17.49600 22.86700
H  -4.14600 16.26100 21.62100
H  -4.26800 18.12100 21.30600
H  0.62400 15.82400 22.44000
H  0.11100 17.29500 21.53200
H  1.03400 15.79900 20.01800
H  -0.72500 15.80300 19.72000
H  0.05700 14.47700 20.49700
H  -0.54100 11.40000 24.79500
H  -2.25200 11.49300 25.08100
H  -1.29000 10.76100 26.19100
H  -2.48700 13.05300 30.25800
H  -0.34300 11.58200 33.51800
H  -0.91800 13.04300 34.24800
H  0.50100 13.16100 33.43800
Mg 17.10200 -2.20200 27.25200
C  16.11500 -0.50200 30.20000
C  18.69500 -4.41500 29.33200
C  17.94200 -3.76000 24.47300
C  15.53000 0.39500 25.45100
N  17.23500 -2.54300 29.51500
C  16.85700 -1.64600 30.48100
C  17.39600 -2.10000 31.91700
C  18.27200 -3.29500 31.58300
C  18.08200 -3.42900 30.03600
C  19.71100 -3.39500 32.14300
C  16.20900 -2.38200 32.89200
C  16.25900 -1.75300 34.33400
H  17.53200 -0.91100 34.69200
N  18.13800 -3.95500 26.97400
C  18.68600 -4.72600 27.96400
C  19.22200 -5.90400 27.28600
C  19.07200 -5.75200 25.88300
C  18.38500 -4.42700 25.69900
C  19.83900 -7.11200 28.01100
C  19.39400 -6.63500 24.66900
O  18.98700 -6.40900 23.56700
C  19.94200 -8.00600 24.94000
N  16.81000 -1.75800 25.32500
C  17.25700 -2.51600 24.31800
C  17.12500 -1.80500 22.94200
C  16.05200 -0.76700 23.31600
C  16.21500 -0.65400 24.81600
C  18.44900 -1.35700 22.25000
C  14.60800 -0.97900 22.84400
C  13.58700 -1.67700 23.76700
N  16.04900 -0.34600 27.69500
C  15.42300 0.48100 26.83500
C  14.72900 1.52800 27.60500
C  14.95400 1.18000 28.92200
C  15.80800 0.00300 28.90700
C  14.03900 2.74200 27.02100
C  14.72300 1.53000 30.29000
O  14.07600 2.49100 30.66000
C  15.50300 0.48300 31.16100
C  16.59900 1.20800 31.91300
O  17.78800 1.38800 31.55500
O  16.00900 1.82000 32.90500
C  16.75000 2.97900 33.44400
H  19.31400 -5.07600 29.94200
H  18.23700 -4.11000 23.48200
H  15.03800 1.21700 24.92800
H  17.98000 -1.23100 32.22000
H  17.78500 -4.13300 32.08000
H  20.43000 -3.56100 31.34000
H  19.73800 -4.23100 32.84100
H  20.11700 -2.51400 32.64100
H  16.24700 -3.44800 33.11200
H  15.29000 -2.40500 32.30700
H  16.30500 -2.57200 35.05100
H  15.37200 -1.12500 34.40900
H  20.82100 -7.39100 27.62900
H  19.01600 -7.82400 27.95200
H  19.91600 -6.87200 29.07100
H  21.03100 -8.04000 24.96300
H  19.59100 -8.63700 24.12400
H  19.62500 -8.56300 25.82200
H  16.67600 -2.67100 22.45500
H  16.35400 0.17100 22.85000
H  18.88900 -2.05400 21.53700
H  19.28400 -1.15700 22.92200
H  18.31100 -0.43000 21.69400
H  14.62500 -1.40000 21.83800
H  14.24500 0.04000 22.70900
H  14.09900 -2.23100 24.55300
H  12.93100 -2.38500 23.26000
H  12.99700 -0.88200 24.22500
H  13.95900 3.51200 27.78900
H  13.08100 2.44000 26.60000
H  14.62300 3.10000 26.17300
H  14.82900 -0.06900 31.81600
H  17.24000 3.51900 32.63400
H  17.56200 2.77600 34.14200
H  16.08200 3.57300 34.06900

