158

Mg 9.11900 4.39500 27.50700
C  10.02000 2.59800 30.35600
C  7.16500 6.40000 29.35200
C  8.43400 6.24000 24.75400
C  10.51400 1.98700 25.51100
N  8.58100 4.36400 29.60200
C  9.20500 3.66600 30.65500
C  8.88000 4.32700 32.04900
C  7.83500 5.47300 31.67300
C  7.77400 5.37100 30.09400
C  6.48200 5.45400 32.46700
C  10.13200 4.60900 32.94400
C  9.65700 5.27200 34.22100
H  10.08200 4.62800 35.55100
N  7.98800 6.16600 27.11200
C  7.20700 6.82100 28.04900
C  6.36900 7.82100 27.41500
C  6.93400 7.87600 26.11700
C  7.86800 6.71900 25.92900
C  5.37700 8.68700 28.13300
C  6.69500 8.94300 25.00800
O  7.25500 8.87500 23.88200
C  5.67500 10.03000 25.17500
N  9.43800 4.13900 25.46600
C  9.15900 5.04300 24.48400
C  9.44800 4.51000 23.06700
C  9.99100 3.08300 23.34100
C  9.93200 3.03500 24.87200
C  8.20800 4.65400 22.11800
C  11.30300 2.72500 22.63300
C  11.30500 1.41100 21.87500
N  10.06500 2.57800 27.77000
C  10.66700 1.72000 26.88500
C  11.35400 0.60700 27.59100
C  11.15600 1.00000 28.98100
C  10.32300 2.08900 29.01500
C  12.06700 -0.56600 27.07800
C  11.51900 0.66600 30.32000
O  12.18700 -0.31100 30.63900
C  10.82100 1.67600 31.24500
C  9.96900 0.96100 32.20300
O  8.84400 0.59700 32.00800
O  10.57300 0.82100 33.40600
C  9.84200 0.22900 34.51500
H  6.58700 7.00900 30.05100
H  8.12600 6.71600 23.82000
H  11.00600 1.22800 24.89900
H  8.37800 3.59600 32.68200
H  8.24700 6.46900 31.83500
H  5.65600 5.42100 31.75600
H  6.24000 6.36800 33.00800
H  6.45700 4.64900 33.20100
H  10.75400 5.23900 32.30900
H  10.70500 3.70500 33.15100
H  8.56800 5.30400 34.21200
H  10.13100 6.25300 34.18300
H  5.59800 9.74000 27.95400
H  5.46700 8.58000 29.21400
H  4.35100 8.39700 27.90600
H  5.74500 10.74700 24.35700
H  6.04300 10.54300 26.06300
H  4.73500 9.50400 25.33900
H  10.24400 5.11700 22.63500
H  9.23500 2.36600 23.02100
H  7.99000 3.65400 21.74200
H  8.47300 5.25300 21.24700
H  7.39700 5.09300 22.70000
H  12.18600 2.76000 23.27200
H  11.51500 3.52500 21.92400
H  10.31600 1.02000 21.63500
H  11.78800 0.76200 22.60500
H  11.78000 1.43300 20.89500
H  11.40000 -1.08500 26.38900
H  12.38000 -1.17700 27.92500
H  12.96000 -0.25100 26.53800
H  11.62100 2.10500 31.84900
H  9.07600 0.95800 34.78000
H  10.40200 -0.07600 35.39900
H  9.30600 -0.65200 34.16100
Mg 46.12400 24.41600 28.58900
C  46.99800 26.71600 31.11600
C  45.83900 22.02400 30.99600
C  45.50500 22.18700 26.07800
C  47.21000 26.74300 26.24000
N  46.19800 24.46200 30.78200
C  46.53500 25.51200 31.56800
C  46.42900 25.12400 33.04300
C  46.52900 23.51700 33.03500
C  46.10600 23.30400 31.51400
C  47.92300 22.92900 33.44700
C  45.12800 25.69100 33.61500
C  45.37700 26.84000 34.64800
H  44.68700 26.75500 35.99000
N  45.58000 22.39800 28.59200
C  45.54300 21.57400 29.72800
C  45.29500 20.18600 29.27100
C  45.33300 20.23100 27.79000
C  45.46200 21.60300 27.40200
C  45.39300 19.00300 30.18500
C  45.38900 18.99600 26.82000
O  45.44600 19.07800 25.59400
C  45.48900 17.65500 27.41200
N  46.38600 24.42300 26.52800
C  45.96200 23.48200 25.69800
C  46.17600 23.80800 24.19300
C  46.49800 25.28700 24.30500
C  46.71100 25.50900 25.74900
C  47.30500 22.83000 23.67600
C  45.37400 26.14300 23.74500
C  45.72400 27.39000 23.00500
N  47.02300 26.25900 28.58900
C  47.34300 27.11300 27.56000
C  47.67600 28.42700 28.04900
C  47.57600 28.30400 29.45600
C  47.18800 26.98600 29.71100
C  48.17500 29.52500 27.25000
C  47.77400 28.96200 30.78700
O  48.30400 30.04500 30.95000
C  47.37400 27.98400 31.91500
C  48.66000 27.74000 32.75100
O  49.60500 27.29700 32.25000
O  48.56400 28.17900 34.05300
C  49.78000 28.07200 34.85500
H  45.82700 21.30100 31.81400
H  45.24600 21.54100 25.23700
H  47.47900 27.42100 25.42700
H  47.29400 25.52300 33.57200
H  45.77200 23.06100 33.67300
H  48.30000 22.34700 32.60600
H  47.69400 22.40500 34.37500
H  48.63300 23.75400 33.51500
H  44.48100 24.94800 34.08200
H  44.54600 26.01700 32.75300
H  44.83400 27.69600 34.24700
H  46.45600 26.94600 34.76900
H  45.49400 19.30600 31.22800
H  46.31500 18.42700 30.11000
H  44.49000 18.39400 30.16400
H  46.46800 17.56400 27.88200
H  45.46800 16.88100 26.64400
H  44.63800 17.43600 28.05700
H  45.17900 23.64800 23.78200
H  47.41800 25.50900 23.76400
H  48.22300 23.41000 23.58900
H  47.04100 22.60000 22.64400
H  47.31700 21.92100 24.27800
H  44.66000 26.34200 24.54400
H  44.90900 25.58500 22.93300
H  45.59500 27.30300 21.92600
H  46.80400 27.52400 23.07500
H  45.20200 28.24900 23.42600
H  47.71300 29.45900 26.26500
H  49.25900 29.50000 27.14200
H  47.82200 30.43100 27.74200
H  46.56800 28.22800 32.60700
H  49.57100 27.56200 35.79500
H  50.02900 29.11800 35.03200
H  50.59800 27.60600 34.30700

