158

Mg 7.85500 3.23500 27.37500
C  9.37300 1.96100 30.16300
C  6.01600 5.34300 29.41200
C  6.17100 4.06800 24.67400
C  9.21500 0.38900 25.56300
N  7.88300 3.73900 29.50400
C  8.58400 3.04900 30.40900
C  8.28900 3.54100 31.84800
C  7.25700 4.71500 31.55800
C  7.07400 4.61200 30.05300
C  5.87800 4.67800 32.32300
C  9.55900 3.90400 32.74800
C  9.33900 4.82300 33.98000
H  10.27600 4.90500 35.23000
N  6.50800 4.66400 27.03500
C  5.79600 5.38600 28.01700
C  4.88200 6.27600 27.34700
C  5.05700 6.02700 25.92800
C  5.95600 4.90300 25.80800
C  3.96600 7.30500 27.94700
C  4.55100 6.83900 24.79400
O  4.94300 6.63600 23.60800
C  3.63000 7.93500 24.92900
N  7.90000 2.43700 25.31100
C  7.03300 3.03300 24.40700
C  7.06800 2.26400 23.06500
C  8.15600 1.18600 23.33800
C  8.43100 1.30500 24.78400
C  5.70900 1.76000 22.59100
C  9.37700 1.25900 22.41900
C  9.69200 0.09200 21.44600
N  9.03200 1.58000 27.71300
C  9.51700 0.56100 26.90900
C  10.37900 -0.37400 27.63800
C  10.32800 0.16100 28.93100
C  9.48700 1.28800 28.94000
C  11.11000 -1.58800 27.15200
C  10.75500 -0.03700 30.31600
O  11.45300 -0.92600 30.77800
C  10.17400 1.12500 31.10000
C  9.41700 0.51200 32.19900
O  8.28700 0.04700 32.14100
O  10.04900 0.69000 33.43500
C  9.39900 0.30900 34.65100
H  5.28100 5.96400 29.92900
H  5.55200 4.37000 23.82700
H  9.60900 -0.44500 24.97900
H  7.74400 2.87900 32.52000
H  7.74500 5.67600 31.72600
H  5.54900 5.66600 32.64500
H  5.93000 4.25500 33.32600
H  4.93900 4.38500 31.85200
H  10.29300 4.43700 32.14400
H  10.08700 3.00700 33.07300
H  8.40500 4.48800 34.43200
H  9.32100 5.84500 33.60000
H  4.30700 8.28900 27.62700
H  4.01200 7.21200 29.03200
H  3.01800 6.99700 27.50600
H  4.16100 8.69900 25.49700
H  2.72300 7.71400 25.49100
H  3.30200 8.43200 24.01600
H  7.40400 2.91200 22.25600
H  7.74600 0.18400 23.21200
H  4.93900 2.10000 23.28300
H  5.80000 0.67400 22.56400
H  5.46000 2.05600 21.57200
H  10.26800 1.33200 23.04100
H  9.36000 2.14800 21.78800
H  8.74900 -0.38400 21.17900
H  10.47300 -0.50800 21.91400
H  10.21500 0.49600 20.57900
H  11.55600 -1.28900 26.20300
H  10.39300 -2.39700 27.01000
H  11.86500 -1.92600 27.86100
H  10.99700 1.76100 31.42500
H  10.00800 -0.13500 35.43900
H  8.58300 -0.39000 34.46600
H  8.97300 1.23400 35.04000
Mg -12.04400 38.10100 41.35500
C  -9.79400 35.53000 40.55200
C  -9.92400 40.31600 39.73300
C  -14.60500 40.28600 41.29200
C  -14.33900 35.73800 42.58000
N  -10.19200 37.94900 40.10700
C  -9.39800 36.78100 40.06300
C  -8.05400 37.01800 39.34800
C  -8.02800 38.66100 39.38700
C  -9.49300 39.00700 39.76900
C  -6.97700 39.07200 40.50500
C  -8.02600 36.31600 37.93300
C  -6.76400 35.39500 37.68900
H  -5.69400 35.90300 36.70400
N  -12.25100 40.06300 40.68600
C  -11.23200 40.81800 40.12400
C  -11.66600 42.18100 40.18900
C  -13.09600 42.17100 40.45900
C  -13.34500 40.83400 40.81400
C  -10.79600 43.41400 39.67300
C  -14.10200 43.33100 40.43300
O  -13.73200 44.49300 40.36100
C  -15.61400 43.20400 40.60100
N  -14.10500 38.08700 41.97100
C  -14.93100 39.08800 41.84700
C  -16.36300 38.86100 42.35800
C  -16.22600 37.39500 42.88200
C  -14.81500 37.04000 42.49300
C  -16.90800 39.83800 43.47000
C  -17.30400 36.40000 42.25000
C  -17.91800 35.38700 43.20500
N  -12.09300 35.98800 41.65200
C  -13.06600 35.19300 42.21600
C  -12.59100 33.81500 42.21900
C  -11.26600 33.89800 41.65200
C  -11.04000 35.22200 41.27500
C  -13.31400 32.68000 42.80500
C  -10.00700 33.22100 41.22500
O  -9.66800 32.06800 41.32800
C  -9.09200 34.20400 40.51300
C  -7.76500 34.24900 41.18600
O  -6.89400 33.47000 40.86700
O  -7.65300 35.25400 42.08100
C  -6.39400 35.25400 42.85700
H  -9.22200 41.05600 39.34500
H  -15.51000 40.88100 41.42900
H  -15.14500 35.12900 42.99200
H  -7.26600 36.55700 39.94400
H  -7.78100 39.09500 38.41800
H  -6.78000 38.24500 41.18800
H  -7.39200 39.88700 41.09800
H  -6.03500 39.44800 40.10500
H  -7.90900 37.03300 37.12000
H  -8.96200 35.79900 37.72100
H  -6.98200 34.39100 37.32300
H  -6.31200 35.12100 38.64200
H  -11.03100 43.51500 38.61400
H  -9.73400 43.20100 39.79300
H  -11.19200 44.30200 40.16600
H  -16.05400 44.14400 40.26600
H  -15.79700 42.98400 41.65300
H  -15.86200 42.35900 39.95900
H  -17.06500 38.92100 41.52600
H  -16.31300 37.21000 43.95200
H  -16.11800 40.45700 43.89400
H  -17.33800 39.28400 44.30400
H  -17.66200 40.45000 42.97300
H  -16.92700 35.95100 41.33200
H  -18.12000 36.98900 41.83100
H  -17.35400 35.34500 44.13700
H  -17.95200 34.36100 42.84000
H  -18.90400 35.80200 43.41600
H  -13.25300 31.79100 42.17800
H  -14.36400 32.93800 42.94700
H  -12.77200 32.53400 43.73900
H  -8.81000 33.91900 39.49900
H  -6.47800 35.89000 43.73800
H  -5.56300 35.62600 42.25700
H  -6.28400 34.26300 43.29800

