158

Mg 16.93600 -1.64100 28.29500
C  15.99000 0.54600 31.05200
C  18.79800 -3.47500 30.55100
C  18.61600 -2.97300 25.72900
C  15.90000 1.08500 26.15300
N  17.36700 -1.35200 30.52300
C  16.85500 -0.48200 31.45200
C  17.33900 -0.80900 32.83600
C  18.36200 -2.06500 32.60800
C  18.17200 -2.32900 31.08900
C  19.87100 -1.90400 32.93200
C  16.25800 -0.99700 33.89500
C  16.52700 -0.44900 35.27500
H  17.91800 0.01900 35.68500
N  18.30800 -3.19600 28.12100
C  18.89300 -3.88100 29.19600
C  19.63900 -5.02800 28.60400
C  19.59600 -4.85700 27.22100
C  18.75400 -3.65800 26.96100
C  20.28200 -6.07800 29.43000
C  20.17600 -5.71800 26.14100
O  20.02400 -5.46800 24.89900
C  21.05100 -6.89700 26.49100
N  17.14500 -1.05800 26.23300
C  18.00600 -1.73900 25.41200
C  18.05600 -1.16000 24.01100
C  17.04800 0.07300 24.11500
C  16.72300 0.06900 25.60300
C  19.41300 -0.77200 23.49900
C  15.82200 0.05800 23.18400
C  14.69600 -0.90500 23.57800
N  15.90800 0.23300 28.54800
C  15.58600 1.13500 27.56700
C  14.79600 2.25900 28.22300
C  15.03700 2.05200 29.58600
C  15.66400 0.82400 29.72600
C  14.08600 3.32300 27.49100
C  14.70800 2.58800 30.91800
O  14.11900 3.56200 31.18000
C  15.37800 1.66400 31.92600
C  16.34800 2.51400 32.73300
O  17.46900 2.82400 32.35700
O  15.78800 2.89400 33.88000
C  16.56800 3.95900 34.60900
H  19.33100 -4.03500 31.32300
H  19.08300 -3.42800 24.85300
H  15.61500 1.93600 25.53100
H  18.00100 0.03200 33.04700
H  18.01900 -3.00100 33.04800
H  20.17000 -2.62800 33.68900
H  20.01500 -0.90100 33.33500
H  20.51400 -2.01200 32.05900
H  16.27100 -2.08400 33.96500
H  15.36600 -0.62700 33.38900
H  16.21700 -1.23900 35.95900
H  15.93300 0.46400 35.32100
H  20.31600 -5.87400 30.50000
H  21.22500 -6.43700 29.01700
H  19.61300 -6.93300 29.34100
H  21.92300 -6.42600 26.94400
H  21.30600 -7.34600 25.53200
H  20.63400 -7.66900 27.13800
H  17.68500 -1.87400 23.27600
H  17.58300 0.97600 23.82400
H  20.10100 -0.84000 24.34200
H  19.41100 0.24400 23.10300
H  19.75400 -1.61600 22.90000
H  16.08100 -0.24400 22.16900
H  15.47200 1.08800 23.24200
H  13.81200 -0.35600 23.90300
H  14.91700 -1.58300 24.40300
H  14.36700 -1.53800 22.75300
H  14.23600 4.28000 27.99100
H  13.00600 3.21900 27.59600
H  14.44300 3.46600 26.47100
H  14.64600 1.18900 32.57900
H  16.73200 4.76700 33.89600
H  17.56100 3.63800 34.92300
H  16.04400 4.40100 35.45600
Mg 48.93200 45.68700 42.29000
C  45.61600 46.51500 41.62300
C  48.67900 42.84500 40.43500
C  52.28200 45.19000 42.51500
C  49.33600 49.06600 43.47800
N  47.35700 44.82700 41.17300
C  46.04600 45.27300 41.06200
C  45.22600 44.36900 40.13300
C  46.14400 43.07400 40.08000
C  47.50100 43.62200 40.56100
C  45.55700 41.84600 40.87200
C  44.99500 44.89100 38.71500
C  43.64800 44.55800 37.98300
H  43.75100 43.51900 36.87200
N  50.33200 44.12500 41.64400
C  49.93500 42.99400 40.97700
C  51.07300 42.13100 40.90600
C  52.21600 42.82700 41.38800
C  51.62500 44.11300 41.90500
C  51.04900 40.76000 40.24500
C  53.53400 42.32800 41.36100
O  53.79300 41.23700 40.87400
C  54.64900 43.12900 41.86600
N  50.59200 46.93700 42.86300
C  51.86000 46.50600 42.88500
C  52.78100 47.64800 43.32900
C  51.77500 48.67900 43.89400
C  50.45200 48.25900 43.35200
C  53.95500 47.28300 44.38400
C  52.14100 50.17600 43.70000
C  51.73000 51.10200 44.87300
N  47.69400 47.44200 42.64200
C  48.02800 48.70200 43.07700
C  46.80200 49.54800 43.15300
C  45.82200 48.62400 42.63500
C  46.41000 47.42400 42.32000
C  46.59500 50.93400 43.69200
C  44.42500 48.50900 42.39100
O  43.53600 49.26600 42.64700
C  44.29900 47.19400 41.55600
C  43.03600 46.41000 42.06900
O  41.83800 46.53500 41.73400
O  43.51200 45.43500 42.95900
C  42.55500 44.61600 43.76000
H  48.58800 41.92500 39.85500
H  53.33500 44.99400 42.72700
H  49.39700 50.07300 43.89500
H  44.27900 44.16900 40.63500
H  46.20600 42.70200 39.05700
H  45.38000 41.15300 40.04900
H  44.66800 42.20900 41.38800
H  46.21600 41.42800 41.63300
H  45.79600 44.61600 38.02900
H  45.01300 45.97000 38.86800
H  43.28900 45.50900 37.58800
H  42.88000 44.09800 38.60500
H  51.86400 40.60400 39.53800
H  50.09600 40.50800 39.78000
H  51.24500 40.02400 41.02500
H  54.72800 43.09600 42.95300
H  54.57800 44.15000 41.49200
H  55.58100 42.82800 41.38800
H  53.25400 47.96000 42.39800
H  51.82200 48.46000 44.96100
H  54.89100 46.93300 43.94900
H  53.65300 46.51300 45.09500
H  54.20500 48.17300 44.96200
H  51.80100 50.57600 42.74500
H  53.21600 50.34500 43.64100
H  51.34300 50.57600 45.74500
H  50.90900 51.74900 44.56300
H  52.52400 51.72300 45.28800
H  45.53600 50.95400 43.94900
H  46.77000 51.69900 42.93600
H  47.17600 51.32500 44.52700
H  44.16200 47.44400 40.50400
H  41.67700 45.24000 43.92800
H  43.05000 44.24500 44.65700
H  42.28000 43.77800 43.12000

