158

Mg 25.82800 1.03900 28.76600
C  27.73100 0.61700 31.79200
C  22.98100 1.22900 30.84000
C  24.04500 1.09300 26.08100
C  28.65800 0.18000 27.04500
N  25.43800 1.01100 31.14300
C  26.34100 0.93900 32.11600
C  25.72600 1.10100 33.47800
C  24.20500 1.15200 33.16600
C  24.16000 1.15400 31.66200
C  23.31200 -0.00300 33.66400
C  26.38100 2.29500 34.28300
C  27.13300 2.09700 35.67500
H  26.92100 3.12600 36.87400
N  23.78800 1.12700 28.48600
C  22.82300 1.20600 29.44800
C  21.48200 1.19300 28.81000
C  21.78800 1.15500 27.41700
C  23.20800 1.16400 27.28800
C  20.19300 0.93400 29.47600
C  20.85600 1.06500 26.19400
O  21.26100 1.14200 25.02200
C  19.35700 0.95000 26.41100
N  26.29100 0.55300 26.83800
C  25.40300 0.87500 25.86300
C  26.11200 1.01000 24.50400
C  27.52600 0.51800 24.81100
C  27.47800 0.38000 26.31700
C  25.44300 0.21000 23.34400
C  28.68900 1.31000 24.16500
C  29.24200 0.72300 22.83800
N  27.77200 0.47500 29.30000
C  28.82800 0.16200 28.40200
C  30.02200 0.01200 29.16100
C  29.66200 0.14400 30.50100
C  28.25900 0.40700 30.51800
C  31.43200 -0.27600 28.62200
C  30.13200 0.11300 31.85900
O  31.25600 -0.16900 32.23500
C  28.90100 0.35100 32.78400
C  28.58500 -0.80600 33.68200
O  27.79500 -1.68400 33.43700
O  29.28300 -0.57400 34.84600
C  28.74800 -1.41100 35.93700
H  22.12100 1.39900 31.49200
H  23.45400 1.36000 25.20200
H  29.63500 0.08200 26.56600
H  25.86400 0.15400 34.00100
H  23.83700 2.15000 33.40300
H  22.55500 0.50100 34.26500
H  23.89100 -0.73900 34.22300
H  22.77400 -0.58000 32.91200
H  25.66900 3.07300 34.55600
H  27.03300 2.83600 33.59700
H  28.19100 2.29100 35.50000
H  26.91300 1.09300 36.03900
H  19.70800 0.03000 29.10800
H  19.59800 1.84500 29.41200
H  20.36600 0.72700 30.53200
H  18.73600 1.28700 25.58100
H  19.09900 1.59900 27.24700
H  19.06400 -0.09700 26.48800
H  26.07000 2.07100 24.26000
H  27.73700 -0.45500 24.36700
H  25.25500 1.03700 22.66000
H  24.42200 -0.14700 23.48200
H  26.16300 -0.51100 22.95700
H  29.57300 1.38200 24.79900
H  28.27800 2.28200 23.89100
H  29.08700 1.49900 22.08900
H  28.75300 -0.18600 22.48800
H  30.30100 0.52500 23.00500
H  31.55200 0.20200 27.65000
H  31.58800 -1.35300 28.55100
H  32.13500 0.25100 29.26800
H  29.09700 1.26600 33.34200
H  28.91100 -2.44600 35.63300
H  27.69800 -1.22900 36.16500
H  29.42300 -1.40500 36.79300
Mg 50.22700 45.66600 42.74600
C  46.80700 46.39400 41.82800
C  49.73700 42.51000 41.59500
C  53.49500 45.17000 43.27000
C  50.65000 49.12600 43.41400
N  48.48000 44.67100 41.72100
C  47.17300 45.05500 41.57300
C  46.25900 43.97400 40.97700
C  47.21600 42.69100 41.12200
C  48.59900 43.32000 41.50800
C  46.84300 41.64100 42.23800
C  45.96900 44.33200 39.45600
C  44.46400 44.15900 39.03100
H  44.29900 43.16800 37.91200
N  51.38800 44.01700 42.54300
C  51.04000 42.81000 42.03100
C  52.17600 41.92000 41.97500
C  53.26100 42.68500 42.49300
C  52.75200 44.00400 42.73900
C  52.08400 40.49500 41.40900
C  54.69800 42.22200 42.66800
O  54.95200 41.04300 42.53500
C  55.87300 43.05200 43.13600
N  51.90700 47.05300 43.15300
C  53.11300 46.51800 43.46000
C  54.08700 47.60900 43.84400
C  53.20100 48.88800 43.73700
C  51.83100 48.36500 43.40100
C  54.80800 47.39000 45.19500
C  53.53700 50.13400 42.81200
C  55.03200 50.43200 42.65000
N  49.03200 47.37900 42.62400
C  49.35700 48.72700 42.94400
C  48.14800 49.55400 42.83900
C  47.14000 48.65100 42.44500
C  47.69800 47.35000 42.30800
C  48.09500 51.04000 43.13500
C  45.70800 48.56200 42.11500
O  44.75100 49.37100 42.14400
C  45.44300 47.02400 41.68200
C  44.38300 46.45500 42.54400
O  44.59900 46.02200 43.67700
O  43.17800 46.45200 41.86800
C  42.09100 45.84200 42.70400
H  49.60000 41.43500 41.45800
H  54.55300 45.06700 43.52100
H  50.65200 50.19100 43.65500
H  45.33700 43.81200 41.53600
H  47.25700 42.13600 40.18500
H  46.90800 40.74300 41.62300
H  45.83900 41.81300 42.62400
H  47.43500 41.66900 43.15300
H  46.52100 43.65000 38.80900
H  46.27600 45.35100 39.22200
H  43.98600 45.12100 38.84400
H  43.81400 43.70600 39.77900
H  51.31300 40.43200 40.64100
H  51.90400 39.78600 42.21600
H  53.05400 40.17700 41.02700
H  55.77000 43.42400 44.15500
H  56.10100 43.82900 42.40700
H  56.80000 42.49800 42.98700
H  54.85100 47.56700 43.06800
H  53.21500 49.28600 44.75100
H  55.68500 46.75100 45.08600
H  54.28700 46.74400 45.90200
H  55.00300 48.25700 45.82600
H  53.04000 51.02100 43.20500
H  53.17300 50.03500 41.79000
H  55.17800 50.44000 41.57000
H  55.71300 49.81100 43.23200
H  55.16100 51.47300 42.94600
H  48.78800 51.57400 42.48500
H  48.46000 51.02300 44.16200
H  47.08200 51.44300 43.13000
H  45.09900 46.95800 40.65000
H  41.11400 46.25700 42.45400
H  42.24300 45.88000 43.78300
H  42.09300 44.81400 42.34300

