158

Mg 0.07400 7.43400 26.21300
C  1.18100 9.59900 28.68200
C  -0.01300 5.05000 28.59000
C  -0.48300 5.21900 23.79900
C  0.88100 9.95000 23.75700
N  0.65900 7.35100 28.38400
C  0.80200 8.34100 29.23200
C  0.67000 7.91700 30.67500
C  0.74100 6.40800 30.56700
C  0.44700 6.24800 29.08600
C  2.12700 5.82100 31.01300
C  -0.70700 8.51400 31.20900
C  -0.82700 8.31900 32.67400
H  0.40700 8.03100 33.63500
N  -0.36100 5.46300 26.24300
C  -0.37500 4.60500 27.34500
C  -0.79700 3.33000 26.96000
C  -1.00600 3.33400 25.48800
C  -0.60400 4.69100 25.07200
C  -0.83600 2.16800 27.98800
C  -1.45500 2.24800 24.53800
O  -1.35900 2.30400 23.35400
C  -1.99700 0.95300 25.00700
N  0.18300 7.57800 24.05600
C  -0.22000 6.51700 23.32300
C  -0.07100 6.87000 21.86200
C  0.14600 8.37300 21.90500
C  0.51400 8.70200 23.30200
C  1.06000 6.06400 21.08800
C  -1.16800 9.17600 21.42900
C  -0.99400 10.06400 20.20900
N  0.95300 9.35200 26.17700
C  1.16500 10.23100 25.15200
C  1.62000 11.43400 25.69600
C  1.60500 11.26000 27.10700
C  1.26600 9.96700 27.32000
C  1.86900 12.78000 24.96300
C  1.78500 11.87800 28.40200
O  2.11800 13.05600 28.71800
C  1.48400 10.80100 29.47200
C  2.65200 10.70400 30.40100
O  3.64800 10.05000 30.25700
O  2.42300 11.60900 31.44800
C  3.42100 11.43200 32.48900
H  0.06000 4.25000 29.33000
H  -0.78600 4.58500 22.96300
H  1.05700 10.69700 22.98000
H  1.52400 8.39600 31.15500
H  -0.06700 5.96600 31.14900
H  2.88300 6.57700 31.22500
H  2.46100 5.17700 30.19900
H  1.93600 5.19600 31.88500
H  -1.50500 7.98500 30.68900
H  -0.77700 9.57200 30.95600
H  -1.59000 7.63000 33.03900
H  -1.26700 9.23500 33.06800
H  -1.22100 1.16300 27.81400
H  -1.49500 2.52400 28.77900
H  0.15100 2.17800 28.45200
H  -2.59700 0.54800 24.19200
H  -2.58800 1.14100 25.90400
H  -1.17400 0.30500 25.30800
H  -0.95300 6.55300 21.30600
H  0.88500 8.73300 21.19000
H  1.74500 6.85400 20.78100
H  0.71000 5.62400 20.15400
H  1.57000 5.44700 21.82800
H  -1.52600 9.90000 22.16100
H  -2.04300 8.55700 21.22900
H  -1.86500 9.96700 19.56100
H  -0.09400 9.91600 19.61300
H  -0.90900 11.07500 20.60800
H  2.58500 12.70500 24.14400
H  2.22700 13.53800 25.66000
H  0.91200 13.13700 24.58300
H  0.55600 11.05400 29.98400
H  3.36000 10.54800 33.12400
H  3.13700 12.25800 33.14100
H  4.43400 11.62700 32.13500
Mg 47.16300 17.25700 27.87400
C  45.36300 17.05700 30.97600
C  49.75100 18.72200 29.49700
C  48.52500 17.81600 24.89400
C  44.26600 15.75500 26.22200
N  47.48400 17.88600 29.90900
C  46.59800 17.66300 31.01400
C  47.24600 18.08200 32.28700
C  48.55500 18.82000 31.77700
C  48.62100 18.39400 30.32800
C  48.58400 20.36200 32.02300
C  47.45500 16.94100 33.37900
C  46.78900 17.21800 34.70400
H  46.70300 18.71600 35.15600
N  48.88600 18.24800 27.30800
C  49.86100 18.68000 28.12500
C  51.01500 19.01000 27.34800
C  50.77500 18.71700 25.96900
C  49.32700 18.25400 26.00700
C  52.32400 19.41600 27.93900
C  51.59000 18.89600 24.65800
O  51.08900 18.56700 23.62500
C  53.03300 19.43800 24.71100
N  46.47700 16.88900 25.97100
C  47.29700 17.23900 24.92100
C  46.65700 16.85600 23.62000
C  45.52500 15.88400 24.04100
C  45.35100 16.20100 25.50500
C  46.31600 17.98500 22.67600
C  45.84500 14.32100 23.69100
C  44.80900 13.20400 23.63500
N  45.25500 16.45500 28.45200
C  44.14800 15.96000 27.67900
C  43.07200 15.53200 28.57500
C  43.52500 15.90200 29.86100
C  44.80400 16.44500 29.76400
C  41.79500 14.92300 28.20100
C  43.09200 15.96400 31.20300
O  42.00400 15.62100 31.69300
C  44.39700 16.52200 31.99400
C  43.97100 17.68600 32.80400
O  43.89400 18.84000 32.36900
O  43.57900 17.24700 34.04800
C  42.70300 18.17800 34.78200
H  50.45800 19.30900 30.08700
H  48.92300 18.02800 23.89900
H  43.45200 15.21700 25.73200
H  46.48600 18.83300 32.50400
H  49.41300 18.30900 32.21200
H  48.93000 20.93800 31.16500
H  49.33700 20.52300 32.79500
H  47.66600 20.79300 32.42400
H  48.52400 16.88100 33.58300
H  47.12000 15.99200 32.96000
H  47.33800 16.70200 35.49100
H  45.79900 16.76200 34.70800
H  52.28100 19.41600 29.02800
H  52.67800 20.41500 27.68300
H  53.04800 18.69400 27.56100
H  53.11600 20.06000 23.82000
H  53.65300 18.58400 24.43700
H  53.38600 19.88000 25.64200
H  47.42200 16.23400 23.15500
H  44.61000 16.23700 23.56600
H  45.25700 18.18300 22.84300
H  46.50400 17.58500 21.67900
H  46.85900 18.91600 22.83900
H  46.47700 14.07800 24.54500
H  46.46700 14.29300 22.79700
H  43.87400 13.61300 23.25200
H  44.61200 12.55500 24.48800
H  45.18900 12.48800 22.90600
H  41.66800 13.89100 28.52800
H  41.58100 15.10100 27.14700
H  41.05900 15.46400 28.79600
H  44.70200 15.65200 32.57600
H  41.83700 18.25300 34.12400
H  43.21100 19.08200 35.11700
H  42.33600 17.74900 35.71500

