158

Mg 50.18700 46.70700 42.86500
C  46.94500 47.26300 41.53900
C  50.25200 43.78200 41.21000
C  53.23500 46.45900 43.83700
C  50.18200 50.18300 43.75800
N  48.81800 45.69600 41.43100
C  47.50600 45.98800 41.20600
C  46.75500 44.98700 40.40200
C  47.67500 43.77500 40.60800
C  48.99700 44.41500 41.11000
C  47.16600 42.63100 41.55200
C  46.61800 45.45100 38.89000
C  45.27100 45.74400 38.34100
H  44.70500 44.63300 37.39200
N  51.58700 45.30200 42.51100
C  51.46000 44.12200 41.81800
C  52.64700 43.27700 42.07400
C  53.53400 44.04300 42.87200
C  52.83400 45.32200 43.08800
C  52.88900 41.89400 41.51900
C  54.92800 43.59700 43.41200
O  55.32900 42.46700 43.21100
C  55.73000 44.48200 44.36400
N  51.54800 48.21400 43.48300
C  52.76300 47.75700 43.90100
C  53.72700 48.84500 44.42300
C  52.64900 50.05600 44.47200
C  51.35800 49.47100 43.88800
C  54.52400 48.43200 45.71200
C  53.15900 51.30400 43.60500
C  53.43100 52.59100 44.33500
N  48.84900 48.42200 42.67500
C  49.00400 49.76200 43.06300
C  47.83200 50.52200 42.76300
C  46.92600 49.59400 42.22500
C  47.64800 48.33600 42.11700
C  47.63900 51.92800 43.03800
C  45.65300 49.42100 41.57900
O  44.66200 50.11800 41.36800
C  45.58200 47.85600 41.20600
C  44.42500 47.23200 41.80500
O  44.25400 46.93300 42.99500
O  43.39600 47.15600 40.86100
C  42.10100 46.77400 41.32500
H  50.30800 42.77400 40.79400
H  54.30300 46.44600 44.06300
H  50.19000 51.20800 44.13400
H  45.81800 44.70200 40.88100
H  47.91500 43.35200 39.63300
H  46.17800 42.85400 41.95300
H  47.87100 42.52100 42.37700
H  46.96200 41.80100 40.87600
H  47.22900 44.70100 38.38700
H  47.18600 46.37500 38.77900
H  45.35700 46.71900 37.86100
H  44.44800 45.84600 39.04800
H  53.95100 41.78200 41.29700
H  52.36800 41.61300 40.60400
H  52.64200 41.16000 42.28600
H  55.20800 44.79300 45.26900
H  55.89500 45.37800 43.76600
H  56.69900 44.08200 44.66300
H  54.49200 48.97500 43.65800
H  52.51200 50.34600 45.51400
H  54.39600 49.25500 46.41500
H  55.58900 48.37900 45.48500
H  54.19800 47.51800 46.20800
H  52.44900 51.58100 42.82500
H  54.14500 51.11300 43.18100
H  54.48600 52.85500 44.26400
H  53.13200 52.44400 45.37300
H  52.80300 53.40700 43.97800
H  48.46400 52.30600 43.64000
H  46.78800 52.04900 43.70800
H  47.52400 52.44300 42.08400
H  45.51300 47.86200 40.11800
H  42.24400 45.87100 41.91800
H  41.50500 46.62700 40.42400
H  41.48600 47.44700 41.92300
Mg -10.30400 16.89100 40.95000
C  -6.84400 16.18400 41.05000
C  -9.49900 20.17300 40.33700
C  -13.56300 17.50000 40.32300
C  -10.90500 13.52500 40.70800
N  -8.40400 17.94000 40.68800
C  -7.09200 17.50100 40.86200
C  -6.06400 18.53600 40.36100
C  -6.86500 19.78000 40.64300
C  -8.34500 19.31300 40.54400
C  -6.65200 20.47700 41.93900
C  -5.61000 18.41700 38.79800
C  -4.08400 18.40400 38.33700
H  -3.57600 17.00100 37.79600
N  -11.44600 18.65700 40.62300
C  -10.88400 19.89000 40.32000
C  -12.00300 20.85500 40.20900
C  -13.09900 20.12700 40.28600
C  -12.83500 18.72100 40.47700
C  -11.84800 22.35200 39.73000
C  -14.57500 20.70500 40.10800
O  -14.77900 21.91000 39.97500
C  -15.74600 19.80000 40.17500
N  -12.00100 15.61800 40.59300
C  -13.20000 16.13100 40.30800
C  -14.22100 14.95300 39.97200
C  -13.36900 13.63600 40.07700
C  -12.04700 14.30300 40.52600
C  -15.40200 14.87200 40.92800
C  -13.18000 12.92900 38.67600
C  -13.19800 11.40000 38.68200
N  -9.15600 15.18200 40.97400
C  -9.55200 13.85700 40.96900
C  -8.41100 12.93500 41.06600
C  -7.35900 13.81900 41.09500
C  -7.84900 15.16500 41.05000
C  -8.37400 11.35900 41.16700
C  -5.82700 13.85500 41.25000
O  -4.98600 12.99400 41.39800
C  -5.48300 15.39000 41.19100
C  -4.72700 15.85000 42.35000
O  -3.79800 16.61000 42.38000
O  -5.30000 15.27200 43.42300
C  -4.63200 15.51400 44.69200
H  -9.22600 21.20700 40.11700
H  -14.62900 17.59800 40.10700
H  -11.03200 12.49800 40.36200
H  -5.20700 18.56500 41.03400
H  -6.59300 20.57600 39.95000
H  -5.93100 19.95100 42.56500
H  -7.60900 20.57100 42.45300
H  -6.19700 21.46000 41.81400
H  -6.10500 19.17900 38.19700
H  -5.99800 17.41600 38.61000
H  -3.37800 18.78400 39.07500
H  -4.00400 19.10100 37.50300
H  -10.81300 22.40400 39.39000
H  -11.85400 23.00000 40.60700
H  -12.44200 22.79900 38.93400
H  -15.80800 19.16800 39.28800
H  -16.65100 20.38000 40.35300
H  -15.62800 19.12100 41.02000
H  -14.58400 15.14200 38.96200
H  -13.72800 12.95800 40.85100
H  -15.39000 15.73600 41.59300
H  -15.48000 13.94600 41.49800
H  -16.33400 14.91900 40.36600
H  -12.25800 13.27900 38.21300
H  -14.01100 13.16700 38.01200
H  -14.12200 11.20600 38.13600
H  -13.27400 10.98200 39.68600
H  -12.42900 10.82800 38.16400
H  -7.36700 11.00100 40.95200
H  -9.14400 10.90500 40.54300
H  -8.43400 11.14600 42.23400
H  -4.74400 15.45000 40.39200
H  -5.08400 16.35200 45.22200
H  -3.55300 15.55300 44.54200
H  -4.86200 14.65800 45.32600

