158

Mg 40.27500 9.39100 29.28100
C  42.25200 10.28800 32.09100
C  37.91000 8.15800 31.39000
C  38.87300 7.83100 26.55300
C  42.98700 10.25500 27.31300
N  40.13700 9.11000 31.52200
C  41.05200 9.64600 32.40500
C  40.43400 9.58200 33.82400
C  39.12400 8.74300 33.62500
C  38.99500 8.73700 32.11500
C  39.06800 7.32300 34.23000
C  40.16500 10.95800 34.49100
C  39.62900 10.86300 35.95200
H  40.49800 11.52000 37.06600
N  38.70300 8.16700 29.02600
C  37.76600 7.88200 30.01400
C  36.75400 7.00300 29.45500
C  37.01900 6.92800 28.04400
C  38.21400 7.68600 27.80800
C  35.67200 6.39300 30.35200
C  36.26700 6.11700 27.01800
O  36.69300 5.80000 25.92900
C  35.04300 5.47000 27.51500
N  40.94200 8.92000 27.25700
C  40.08900 8.50100 26.29300
C  40.66600 8.73500 24.91500
C  41.84900 9.76600 25.14900
C  41.98800 9.60500 26.68200
C  41.19700 7.36100 24.24500
C  41.58700 11.17600 24.59300
C  40.96800 12.25100 25.43300
N  42.12600 10.26900 29.56900
C  43.13600 10.54800 28.64700
C  44.23300 11.18100 29.36800
C  43.86100 11.19800 30.68000
C  42.64000 10.51300 30.78300
C  45.40900 11.83200 28.68000
C  44.27000 11.60900 32.01600
O  45.24400 12.21600 32.34600
C  43.22900 11.01800 32.98300
C  43.91600 10.10700 33.94500
O  44.12200 8.88900 33.91100
O  44.34600 10.82500 35.04600
C  44.74800 9.96300 36.20000
H  37.18800 7.74200 32.09600
H  38.26300 7.72600 25.65300
H  43.79700 10.59700 26.66600
H  41.13800 9.05100 34.46500
H  38.27300 9.23600 34.09400
H  40.00400 7.25200 34.78400
H  39.02400 6.63900 33.38300
H  38.15900 7.26700 34.83000
H  39.46000 11.47400 33.84000
H  41.12200 11.47500 34.56500
H  39.26600 9.83900 36.03700
H  38.68900 11.39700 35.81500
H  34.79000 6.99500 30.13500
H  35.75600 6.40100 31.43900
H  35.73300 5.35000 30.04000
H  35.34400 4.56100 28.03600
H  34.47100 5.15200 26.64300
H  34.39700 6.11000 28.11500
H  39.85400 9.06400 24.26600
H  42.83400 9.38000 24.88300
H  40.83300 7.27600 23.22100
H  40.75500 6.58500 24.87100
H  42.28600 7.33100 24.24800
H  40.91400 11.10700 23.73900
H  42.54600 11.54100 24.22300
H  40.43700 11.88400 26.31100
H  40.27500 12.77300 24.77300
H  41.78400 12.93100 25.68000
H  45.92200 12.46900 29.40000
H  45.05300 12.43000 27.84100
H  46.15300 11.06600 28.45900
H  42.68000 11.88000 33.36000
H  45.53400 9.26300 35.91500
H  43.90800 9.41700 36.62900
H  45.17100 10.68800 36.89500
Mg -5.48600 25.24200 26.44000
C  -4.06300 26.34000 29.39400
C  -7.03300 22.66200 28.29300
C  -6.12600 23.53500 23.55000
C  -3.30900 27.33100 24.61800
N  -5.48000 24.53900 28.62900
C  -5.00200 25.36200 29.64000
C  -5.62000 24.78600 30.98200
C  -6.07500 23.31100 30.67400
C  -6.23000 23.47900 29.09900
C  -5.14000 22.14500 31.07200
C  -6.81400 25.68300 31.45400
C  -6.71400 26.11200 33.02000
H  -5.93800 25.09800 33.95000
N  -6.71800 23.65400 25.97500
C  -7.31500 22.77900 26.87800
C  -8.10400 21.82600 26.11400
C  -7.75900 21.96500 24.79000
C  -6.79900 23.07500 24.69800
C  -9.07000 20.79900 26.77400
C  -8.25700 21.18700 23.55900
O  -7.82700 21.31000 22.42500
C  -9.29100 20.04400 23.72400
N  -4.88600 25.42900 24.35800
C  -5.32000 24.65300 23.34900
C  -4.80000 25.16400 21.98800
C  -3.99000 26.37100 22.37000
C  -4.06500 26.38800 23.93300
C  -4.00100 24.19000 21.11200
C  -4.47500 27.61400 21.63000
C  -3.52800 28.85100 21.42000
N  -3.99500 26.53600 26.90200
C  -3.34600 27.43200 26.06400
C  -2.43600 28.17900 26.93500
C  -2.77600 27.86200 28.21900
C  -3.66300 26.81600 28.13600
C  -1.35000 29.13000 26.47700
C  -2.32500 28.08600 29.63900
O  -1.44600 28.74200 30.17100
C  -3.24200 27.08800 30.46200
C  -2.34900 26.18600 31.23800
O  -1.45900 25.54200 30.68700
O  -2.40700 26.54000 32.50700
C  -1.31800 26.13300 33.36200
H  -7.45000 21.84700 28.88800
H  -6.28500 23.02900 22.59600
H  -2.57200 27.94600 24.09600
H  -4.85500 24.71300 31.75500
H  -7.04900 23.14000 31.13100
H  -5.87400 21.55000 31.61700
H  -4.41600 22.62300 31.73100
H  -4.64500 21.70800 30.20500
H  -7.79900 25.21700 31.41600
H  -6.92700 26.56900 30.82900
H  -7.71500 26.01700 33.44100
H  -6.20700 27.06800 33.14700
H  -8.73700 19.78000 26.57900
H  -10.11800 21.00000 26.55100
H  -9.08900 21.03100 27.83900
H  -9.03500 19.11500 24.23400
H  -9.54100 19.89200 22.67400
H  -10.11600 20.49200 24.28000
H  -5.55000 25.45000 21.25100
H  -2.95800 26.20200 22.06100
H  -4.15700 23.25800 21.65500
H  -2.92100 24.29300 21.21700
H  -4.34900 24.13900 20.08000
H  -5.40300 27.91000 22.11800
H  -4.83000 27.33300 20.63900
H  -3.54000 29.16300 20.37500
H  -2.50600 28.57000 21.67400
H  -3.75700 29.61600 22.16000
H  -1.73000 30.12000 26.22300
H  -0.83300 28.75600 25.59300
H  -0.66500 29.23000 27.31900
H  -3.90900 27.71900 31.04900
H  -0.41700 26.51400 32.88300
H  -1.37300 25.04900 33.45700
H  -1.39100 26.65400 34.31700

