158

Mg 2.19200 -1.43000 44.14600
C  5.50900 -0.53500 43.36100
C  1.14000 1.35900 42.31300
C  -0.86400 -2.70100 44.17500
C  3.49800 -4.48000 45.55900
N  3.20800 0.19100 42.94900
C  4.53600 0.39500 42.83000
C  4.90800 1.63000 41.95100
C  3.44000 2.39200 41.84100
C  2.56300 1.25100 42.39900
C  3.39900 3.75800 42.51300
C  5.60400 1.16200 40.60700
C  6.69000 2.11700 40.11400
H  6.49600 2.94600 38.83000
N  0.39000 -0.71200 43.52600
C  0.14300 0.44200 42.77000
C  -1.23800 0.62900 42.59700
C  -1.87700 -0.42800 43.29000
C  -0.79000 -1.38500 43.72100
C  -1.94800 1.85100 41.90700
C  -3.34100 -0.59100 43.51500
O  -4.19300 0.19200 43.12200
C  -3.84500 -1.82300 44.19600
N  1.40200 -3.35300 44.81600
C  0.08500 -3.57800 44.64400
C  -0.25900 -5.05200 44.94900
C  1.11500 -5.48000 45.74200
C  2.06600 -4.41600 45.36300
C  -1.52200 -5.30400 45.79800
C  1.65300 -6.92700 45.39200
C  1.68100 -7.89000 46.58400
N  4.08500 -2.32300 44.47800
C  4.47200 -3.56900 45.03900
C  5.92400 -3.73500 45.00400
C  6.32600 -2.51300 44.49100
C  5.20700 -1.79100 44.08900
C  6.74600 -4.97400 45.41900
C  7.48200 -1.73700 44.10400
O  8.63100 -2.13800 44.22100
C  7.02700 -0.43700 43.43000
C  7.47800 0.78000 44.09200
O  6.98700 1.27700 45.08700
O  8.44000 1.45300 43.30000
C  8.75600 2.83200 43.62600
H  0.82800 2.22900 41.73000
H  -1.81600 -3.19800 43.97700
H  3.85000 -5.42200 45.98500
H  5.61800 2.14500 42.59700
H  3.23300 2.52000 40.77800
H  2.47000 3.89500 43.06600
H  3.32300 4.52700 41.74400
H  4.23600 4.06800 43.13800
H  4.82700 1.01300 39.85800
H  6.06400 0.18200 40.73500
H  7.53200 1.44100 39.96300
H  7.07700 2.72500 40.93200
H  -1.46100 2.42800 41.12000
H  -2.39800 2.39200 42.73900
H  -2.80000 1.43100 41.37200
H  -4.78400 -1.54600 44.67500
H  -3.19500 -2.12100 45.01900
H  -3.97700 -2.65300 43.50200
H  -0.17100 -5.64900 44.04200
H  0.92000 -5.27500 46.79400
H  -1.19900 -5.65500 46.77800
H  -2.18100 -5.98300 45.25700
H  -2.03700 -4.36600 46.00900
H  2.59000 -7.05700 44.85100
H  0.82400 -7.28600 44.78200
H  0.82500 -8.55900 46.48400
H  1.40900 -7.33700 47.48200
H  2.68300 -8.31400 46.63300
H  6.63000 -5.57000 44.51300
H  6.26900 -5.42600 46.28900
H  7.78600 -4.71700 45.61900
H  7.54100 -0.55300 42.47500
H  8.06800 3.52600 43.14300
H  9.76800 3.06400 43.29500
H  8.80500 2.99800 44.70200
Mg 41.86600 40.86900 26.67400
C  40.87400 43.28300 28.92300
C  42.99400 38.92500 29.21800
C  42.89800 38.63800 24.32000
C  41.20700 43.20500 24.12500
N  41.89200 41.09100 28.82000
C  41.31200 42.07700 29.49100
C  41.30100 41.75200 31.00900
C  42.34600 40.65100 31.10200
C  42.45300 40.19800 29.65000
C  43.75800 40.90400 31.46500
C  39.96600 41.61900 31.68500
C  39.56000 42.44200 32.98400
H  39.39100 41.59500 34.30300
N  42.75700 39.01600 26.72700
C  43.16000 38.36100 27.91800
C  43.66500 37.02600 27.55500
C  43.67200 36.94700 26.13800
C  43.08300 38.24300 25.66300
C  44.07900 36.01200 28.59200
C  44.20600 35.90600 25.21600
O  44.32700 36.04900 23.98600
C  44.67200 34.55300 25.79600
N  42.08700 40.94100 24.49400
C  42.46400 39.84300 23.72100
C  42.29500 40.17400 22.27500
C  41.73300 41.61400 22.20500
C  41.66000 41.96000 23.70900
C  43.68200 40.02700 21.44800
C  40.35500 41.72100 21.56400
C  40.41300 42.13600 20.08400
N  41.22800 42.88800 26.48800
C  40.96900 43.66600 25.38200
C  40.29700 44.83400 25.83200
C  40.25700 44.80500 27.24100
C  40.87100 43.58900 27.56800
C  39.78700 45.89300 24.93000
C  39.84100 45.49800 28.55300
O  39.34100 46.58400 28.69100
C  40.20300 44.46900 29.63900
C  41.12000 45.17300 30.56300
O  42.15300 45.78300 30.19200
O  40.70500 45.08100 31.89300
C  41.44100 45.71500 32.93700
H  43.32700 38.27100 30.02700
H  43.17500 37.96700 23.50400
H  40.90200 43.85800 23.30500
H  41.81100 42.64900 31.36100
H  41.96400 39.87300 31.76300
H  43.94200 40.64600 32.50800
H  44.06500 41.93300 31.27900
H  44.49600 40.38100 30.85700
H  39.85000 40.55000 31.86400
H  39.22300 41.93300 30.95300
H  38.69500 43.07600 32.79200
H  40.48800 43.00300 33.09400
H  43.53800 35.06800 28.52400
H  43.95600 36.48400 29.56700
H  45.15300 35.88900 28.45700
H  45.41700 34.62100 26.58800
H  45.18300 34.13800 24.92700
H  43.82300 33.96000 26.13700
H  41.61700 39.35600 22.03100
H  42.44500 42.27900 21.71800
H  44.53300 39.75700 22.07400
H  43.99800 40.81900 20.77100
H  43.34200 39.20000 20.82400
H  39.71700 42.50000 21.98100
H  40.01300 40.68900 21.64400
H  39.55900 42.73900 19.77500
H  40.34700 41.19300 19.54300
H  41.32700 42.67600 19.83800
H  40.59700 46.51900 24.55400
H  39.09900 46.51700 25.50000
H  39.27900 45.37300 24.11700
H  39.42400 44.06200 30.28300
H  41.66200 45.05400 33.77500
H  40.92400 46.60300 33.30000
H  42.42500 46.06700 32.62600

