158

Mg 16.78300 -2.13800 27.29900
C  16.09600 -0.38100 30.25400
C  18.79400 -4.28000 29.24800
C  18.04400 -3.60300 24.49500
C  15.21500 0.22100 25.40300
N  17.41600 -2.24000 29.55800
C  16.95200 -1.48000 30.57400
C  17.46000 -1.92900 31.94100
C  18.49800 -3.09700 31.51100
C  18.20700 -3.24700 30.01600
C  20.05200 -2.72800 31.84900
C  16.29800 -2.42200 32.87000
C  16.21600 -1.89100 34.35100
H  17.40300 -1.06400 34.95100
N  18.02600 -3.82300 26.95700
C  18.73500 -4.57700 27.85400
C  19.31700 -5.77100 27.19600
C  19.04400 -5.59900 25.83400
C  18.33000 -4.32400 25.68800
C  20.07700 -6.80600 27.97300
C  19.50300 -6.48800 24.71000
O  19.12600 -6.24900 23.59600
C  20.43400 -7.69700 24.95000
N  16.71700 -1.73300 25.26800
C  17.34500 -2.42000 24.31300
C  17.16400 -1.83700 22.88700
C  16.15700 -0.62600 23.17600
C  15.94100 -0.72200 24.70500
C  18.49800 -1.43200 22.23700
C  14.83300 -0.76700 22.43700
C  14.71300 -0.06400 20.97800
N  15.77500 -0.50300 27.70900
C  15.10400 0.33700 26.82600
C  14.35900 1.27500 27.61800
C  14.68400 1.03700 28.97900
C  15.58900 -0.00900 28.97200
C  13.52100 2.42400 27.12900
C  14.48800 1.52500 30.33000
O  13.72800 2.41400 30.70000
C  15.45500 0.62400 31.30600
C  16.53000 1.57900 31.75600
O  17.66300 1.70200 31.23600
O  16.17400 2.24600 32.89400
C  17.06400 3.28500 33.44400
H  19.48000 -4.93300 29.79200
H  18.24400 -4.13300 23.56100
H  14.66600 1.02800 24.91300
H  17.99400 -1.05500 32.31500
H  18.15900 -4.07300 31.86000
H  20.59600 -2.42300 30.95500
H  20.60300 -3.55000 32.30500
H  20.09500 -1.93200 32.59300
H  16.31700 -3.51200 32.87100
H  15.36300 -2.03000 32.46900
H  16.04000 -2.75800 34.98800
H  15.30200 -1.31200 34.47800
H  19.81900 -7.75500 27.50300
H  19.77700 -6.93000 29.01400
H  21.13800 -6.57500 27.89100
H  21.28800 -7.45600 25.58400
H  20.89200 -8.02000 24.01500
H  19.79300 -8.48400 25.34600
H  16.75900 -2.63600 22.26600
H  16.57700 0.33900 22.88900
H  18.45800 -0.37000 21.99500
H  18.80500 -2.02000 21.37200
H  19.30400 -1.61000 22.94900
H  13.95900 -0.48900 23.02700
H  14.76100 -1.84800 22.32300
H  14.51900 -0.89100 20.29500
H  15.64800 0.32800 20.57900
H  13.99900 0.74600 20.83200
H  12.54000 2.16900 27.53000
H  13.56100 2.26000 26.05300
H  13.95500 3.38800 27.39400
H  14.83600 0.18600 32.08900
H  18.06000 3.13900 33.02600
H  17.03200 3.19200 34.53000
H  16.72800 4.26300 33.09900
Mg 46.35400 34.87100 27.67100
C  44.92400 33.13000 30.33200
C  46.98300 37.53400 29.95300
C  47.85700 36.67100 25.17800
C  45.58000 32.34200 25.51300
N  46.10700 35.26500 29.87000
C  45.38900 34.43200 30.69600
C  45.46900 34.92600 32.09800
C  45.66300 36.49600 31.95000
C  46.28800 36.45600 30.49300
C  44.34200 37.33800 32.04800
C  46.67000 34.26700 32.85800
C  46.42800 33.99900 34.38200
H  45.42400 34.88300 35.13500
N  47.34600 36.77300 27.59700
C  47.44900 37.66000 28.63000
C  48.09200 38.85000 28.06800
C  48.46800 38.65100 26.74600
C  47.92100 37.28900 26.46400
C  48.50500 40.04600 28.86200
C  49.22600 39.54900 25.66600
O  49.35800 39.18100 24.48600
C  49.56200 40.96100 26.00800
N  46.62700 34.46400 25.61600
C  47.27500 35.35000 24.83400
C  47.35600 34.77800 23.38800
C  46.43400 33.47000 23.42200
C  46.16900 33.36200 24.91300
C  47.05600 35.85200 22.33500
C  47.01100 32.12200 22.78400
C  46.21400 31.42400 21.61600
N  45.52700 33.12500 27.85400
C  45.32900 32.16600 26.91800
C  44.82800 30.92700 27.53800
C  44.63300 31.32500 28.87700
C  45.09500 32.59100 29.05100
C  44.62800 29.62600 26.87600
C  44.19600 30.75900 30.16900
O  43.79600 29.68900 30.54200
C  44.14300 32.01800 31.05300
C  44.67800 31.71600 32.41000
O  45.72900 31.19000 32.69500
O  43.72400 32.00200 33.31400
C  43.88900 31.45100 34.67100
H  47.30400 38.27200 30.69100
H  48.29900 37.30900 24.41000
H  45.23500 31.51300 24.89200
H  44.54300 34.81500 32.66200
H  46.37000 37.04000 32.57600
H  43.58100 36.59100 32.27100
H  44.12800 37.85300 31.11100
H  44.39200 38.03300 32.88600
H  47.55400 34.90500 32.85000
H  47.01000 33.41900 32.26400
H  47.34500 34.32700 34.87100
H  46.37500 32.92900 34.58200
H  49.41400 39.66200 29.32600
H  47.84500 40.18500 29.71900
H  48.72100 40.94800 28.29000
H  50.30300 40.98400 26.80700
H  48.61600 41.43600 26.26700
H  50.05400 41.45700 25.17100
H  48.35600 34.41700 23.14600
H  45.47100 33.73800 22.98600
H  46.35800 35.49400 21.57900
H  47.94600 36.11700 21.76400
H  46.59100 36.78500 22.65200
H  47.25700 31.34600 23.50900
H  47.96400 32.37400 22.32000
H  46.84900 31.25900 20.74500
H  45.34400 31.94100 21.21200
H  45.91200 30.42800 21.93900
H  45.45300 29.35300 26.21800
H  43.74000 29.57600 26.24600
H  44.54600 28.79300 27.57400
H  43.08400 32.27300 31.08100
H  44.89800 31.18900 34.99000
H  43.31800 30.54200 34.86100
H  43.49900 32.20500 35.35500

