158

Mg 44.22500 3.19500 47.75500
C  42.54600 6.34400 47.55900
C  41.16400 1.66400 47.54900
C  45.85500 0.39600 47.23000
C  47.22500 4.95500 47.76100
N  42.06300 4.01900 47.39200
C  41.66900 5.29300 47.50000
C  40.16800 5.35800 47.57900
C  39.72100 3.82600 47.63400
C  41.03500 3.08000 47.53100
C  38.89800 3.39900 48.93000
C  39.48300 6.08500 46.36600
C  39.82600 5.60000 44.94800
H  40.60200 6.59200 44.08600
N  43.59400 1.27100 47.59700
C  42.32200 0.79800 47.49500
C  42.37600 -0.55200 47.28000
C  43.77000 -0.97800 47.29900
C  44.46200 0.21600 47.45800
C  41.09200 -1.52800 47.16900
C  44.20700 -2.45900 47.25500
O  43.40700 -3.39200 47.16200
C  45.68700 -2.90200 47.22800
N  46.30900 2.70100 47.46100
C  46.70900 1.46900 47.35200
C  48.15500 1.33200 47.05300
C  48.71100 2.75800 47.34100
C  47.38600 3.55000 47.57400
C  48.81800 0.26300 47.85700
C  49.69300 3.32600 46.38200
C  49.06500 4.04800 45.20400
N  44.83000 5.20400 47.52400
C  46.09700 5.74400 47.72200
C  46.00600 7.24000 47.71800
C  44.61800 7.51400 47.69600
C  43.96200 6.24900 47.55500
C  47.09700 8.26100 48.09400
C  43.61900 8.51900 47.63700
O  43.79000 9.73100 47.66000
C  42.19600 7.78100 47.56900
C  41.34000 8.25500 48.74300
O  41.40900 7.71400 49.84100
O  40.47300 9.24200 48.37100
C  39.29500 9.36900 49.30400
H  40.20600 1.14100 47.50600
H  46.33100 -0.51400 46.85900
H  48.11000 5.57600 47.91100
H  39.96000 5.82400 48.54200
H  39.07800 3.60400 46.78200
H  39.63200 2.75600 49.41500
H  38.09100 2.74400 48.60000
H  38.63900 4.20000 49.62200
H  39.76100 7.13900 46.39500
H  38.42200 5.88300 46.50900
H  38.83900 5.34900 44.55800
H  40.41000 4.68000 44.98700
H  40.23100 -0.91900 46.89300
H  40.97900 -2.14000 48.06400
H  41.21700 -2.27300 46.38300
H  46.33400 -2.37100 47.92700
H  46.18400 -2.77500 46.26700
H  45.67900 -3.95800 47.50100
H  48.33500 1.23800 45.98200
H  49.24600 2.76800 48.29000
H  49.69200 0.60400 48.41100
H  49.02300 -0.56300 47.17700
H  48.14000 -0.14200 48.60900
H  50.24500 2.52100 45.89600
H  50.43800 3.94500 46.88200
H  49.07800 5.13400 45.29400
H  48.04200 3.69200 45.07600
H  49.70000 3.86800 44.33600
H  46.90000 9.16800 47.52300
H  48.06800 7.78000 47.97200
H  47.03900 8.43100 49.16900
H  41.63200 8.16200 46.71800
H  38.96400 8.38500 49.63700
H  38.44500 9.84700 48.81900
H  39.56900 9.90700 50.21200
Mg 42.05200 41.23500 26.02200
C  41.11200 43.48500 28.48300
C  43.18200 39.00400 28.39000
C  43.07200 39.17400 23.47900
C  41.30900 43.69100 23.65900
N  42.23100 41.31300 28.17000
C  41.60100 42.23100 28.99800
C  41.69000 41.80000 30.48500
C  42.49800 40.45300 30.41300
C  42.66800 40.17700 28.92500
C  43.87100 40.38100 31.12700
C  40.34200 41.80400 31.28000
C  40.34200 41.21400 32.71700
H  39.84800 42.09600 33.78300
N  43.02700 39.31700 25.95600
C  43.40200 38.58900 27.07000
C  43.83100 37.22800 26.62700
C  43.79900 37.22200 25.19800
C  43.32500 38.66100 24.79500
C  44.23100 36.23000 27.66200
C  44.23900 36.18200 24.22400
O  44.16000 36.36400 22.98600
C  44.81200 34.83600 24.78300
N  42.34700 41.48700 24.01500
C  42.69000 40.49600 23.13100
C  42.34300 40.74000 21.71800
C  41.51200 42.00300 21.84400
C  41.78300 42.48200 23.24500
C  43.56500 40.89900 20.79300
C  40.01200 41.81000 21.58200
C  39.25800 40.84500 22.51100
N  41.48900 43.27300 26.03700
C  41.25800 44.12700 25.00700
C  40.88700 45.43800 25.65300
C  40.69100 45.26800 26.96400
C  41.19500 43.89200 27.14800
C  40.47700 46.60000 24.75400
C  40.27500 45.88400 28.24000
O  39.88600 46.94500 28.68700
C  40.67100 44.73500 29.31700
C  41.60700 45.36900 30.26000
O  42.82300 45.29200 30.06600
O  41.08100 45.75500 31.50200
C  42.09900 46.34900 32.41600
H  43.44100 38.28600 29.17100
H  43.22400 38.44600 22.67900
H  40.95700 44.37200 22.88200
H  42.39700 42.54500 30.85100
H  41.92400 39.58300 30.73200
H  44.70200 40.05200 30.50300
H  43.73900 39.51900 31.78100
H  44.05700 41.33500 31.62200
H  39.63700 41.34600 30.58600
H  40.04400 42.84400 31.41100
H  41.41700 41.10600 32.86400
H  39.82700 40.25600 32.79000
H  45.22800 36.23200 28.10200
H  44.14000 35.26000 27.17300
H  43.47700 36.13900 28.44400
H  45.22900 34.31300 23.92200
H  44.06200 34.18500 25.23200
H  45.53300 34.95700 25.59100
H  41.70800 39.93400 21.35000
H  41.84800 42.83000 21.21800
H  44.42000 40.38300 21.22800
H  43.83700 41.95200 20.71800
H  43.41600 40.51800 19.78300
H  39.99800 41.36700 20.58600
H  39.48300 42.76300 21.60500
H  39.22800 39.86400 22.03800
H  38.28000 41.11900 22.90600
H  39.80300 40.66700 23.43900
H  39.90300 46.34600 23.86300
H  41.38500 47.14800 24.50200
H  39.84900 47.27100 25.34100
H  39.78000 44.56900 29.92400
H  42.97700 46.82600 31.98000
H  42.43200 45.47000 32.96700
H  41.62400 47.08400 33.06500

