158

Mg 35.48900 1.71800 29.81000
C  33.16400 2.71100 32.20700
C  37.87800 1.71300 32.39700
C  37.94900 1.37200 27.56800
C  33.16100 1.94900 27.35700
N  35.57100 2.43500 32.08000
C  34.44500 2.56400 32.81000
C  34.76900 2.73700 34.30800
C  36.27400 2.67600 34.32800
C  36.57400 2.15800 32.87600
C  37.21100 3.87000 34.74400
C  33.98400 1.62500 35.08000
C  33.41300 2.07800 36.45600
H  34.04100 3.26600 37.18000
N  37.59100 1.45900 29.96100
C  38.36000 1.56500 31.10200
C  39.71500 1.19500 30.75800
C  39.77900 1.10000 29.37800
C  38.40800 1.37600 28.89100
C  40.89600 1.07700 31.81100
C  41.06600 0.78600 28.46900
O  40.88700 0.63700 27.26000
C  42.47600 0.73400 29.07800
N  35.55300 1.63100 27.80000
C  36.66300 1.44300 27.00700
C  36.30300 1.24000 25.49900
C  34.75500 1.00700 25.59500
C  34.47200 1.58600 27.04700
C  36.88700 2.35300 24.66400
C  34.35800 -0.45700 25.36300
C  33.95400 -0.88100 23.92100
N  33.46600 2.22000 29.71400
C  32.69000 2.37500 28.62000
C  31.33900 2.62200 29.12500
C  31.44100 2.82900 30.52500
C  32.78400 2.58500 30.83100
C  30.18200 2.84400 28.24000
C  30.75200 3.22200 31.77700
O  29.64000 3.61900 31.99700
C  31.83600 3.18800 32.89400
C  31.97500 4.58500 33.30700
O  32.71700 5.40100 32.76800
O  31.10800 4.84700 34.38400
C  31.14000 6.26300 34.81800
H  38.55800 1.71400 33.25100
H  38.69300 1.31700 26.77100
H  32.54700 1.86700 26.45800
H  34.38800 3.73700 34.51700
H  36.49600 1.86100 35.01700
H  36.66800 4.81100 34.83700
H  37.96300 4.11800 33.99500
H  37.63100 3.79100 35.74600
H  34.71200 0.82600 35.22300
H  33.17000 1.15700 34.52600
H  33.57500 1.19700 37.07700
H  32.33200 2.14900 36.33900
H  40.43500 1.18000 32.79300
H  41.63800 1.87300 31.75800
H  41.40900 0.11700 31.86700
H  42.62700 -0.13000 29.72400
H  42.57100 1.69100 29.59200
H  43.29000 0.65000 28.35800
H  36.82100 0.34000 25.16800
H  34.22800 1.68300 24.92200
H  36.21200 2.92000 24.02300
H  37.71800 1.91400 24.11100
H  37.38500 3.09600 25.28600
H  33.57000 -0.71600 26.07100
H  35.19300 -1.02500 25.77200
H  34.80500 -0.74600 23.25400
H  33.09400 -0.25800 23.67700
H  33.64700 -1.91600 24.07300
H  29.85000 1.87300 27.87100
H  30.46600 3.49200 27.41100
H  29.41700 3.42300 28.75600
H  31.58800 2.51400 33.71400
H  32.07800 6.49400 35.32200
H  30.27100 6.47400 35.44100
H  30.95200 6.95000 33.99200
Mg 47.57000 34.20100 27.08800
C  45.68300 32.54700 29.63000
C  48.04700 36.77500 29.16600
C  48.97000 35.83900 24.50600
C  46.98000 31.44200 25.10100
N  46.97000 34.55900 29.17500
C  46.25200 33.76900 30.05400
C  46.27800 34.38500 31.49500
C  46.70300 35.87300 31.21800
C  47.32400 35.69500 29.75800
C  45.42500 36.76600 31.37600
C  47.26700 33.71000 32.52300
C  46.84900 33.48800 33.93300
H  46.39900 34.69900 34.81500
N  48.33100 36.03600 26.85700
C  48.55600 36.98500 27.87000
C  49.10400 38.18500 27.29900
C  49.40600 38.00500 25.88700
C  48.89200 36.58800 25.65100
C  49.34300 39.48300 28.12300
C  50.18500 38.81900 24.89300
O  50.35700 38.52200 23.74200
C  50.71700 40.18300 25.34000
N  47.94900 33.69900 25.11800
C  48.51600 34.54000 24.25200
C  48.75400 33.80800 22.82000
C  48.23800 32.37900 23.14400
C  47.71800 32.48700 24.58000
C  48.10400 34.43500 21.55600
C  49.40200 31.27800 22.99000
C  49.05000 30.07500 22.13200
N  46.41700 32.47300 27.16100
C  46.21200 31.45000 26.28500
C  45.28400 30.48200 26.72600
C  45.04600 30.84300 28.11100
C  45.86600 32.04000 28.35900
C  44.77200 29.28600 25.91100
C  44.36500 30.47500 29.30300
O  43.54300 29.54400 29.52800
C  44.66600 31.65100 30.34500
C  45.28500 30.98700 31.53200
O  46.32700 30.36900 31.52300
O  44.41000 31.02500 32.52900
C  44.80200 30.17700 33.63100
H  48.08900 37.65500 29.81100
H  49.44800 36.24500 23.61200
H  46.80700 30.69100 24.32800
H  45.26800 34.36800 31.90400
H  47.45700 36.30500 31.87700
H  45.64700 37.54100 32.10900
H  44.65000 36.16100 31.84700
H  45.05200 37.14300 30.42300
H  48.23300 34.18300 32.70100
H  47.63800 32.77800 32.09700
H  47.79500 33.12600 34.33500
H  46.03200 32.79500 34.13600
H  48.80000 40.26200 27.58800
H  50.41700 39.60800 28.26600
H  48.68300 39.42700 28.98700
H  51.37200 40.06500 26.20300
H  49.76800 40.67500 25.55200
H  51.28200 40.62400 24.51900
H  49.83100 33.80000 22.65000
H  47.42400 32.20900 22.43900
H  48.83900 35.11000 21.11800
H  47.29200 35.05300 21.93900
H  47.63100 33.74400 20.85800
H  49.49400 30.89700 24.00700
H  50.37400 31.66200 22.68000
H  48.13200 30.34000 21.60600
H  48.78300 29.17200 22.68100
H  49.73000 29.81900 21.31900
H  44.07100 29.70300 25.18800
H  44.26500 28.51600 26.49200
H  45.61000 28.78600 25.42400
H  43.75000 32.12300 30.70000
H  44.92900 29.12600 33.37300
H  43.91000 30.21600 34.25600
H  45.58300 30.43400 34.34700

