158

Mg 6.76900 54.32100 41.03800
C  6.20900 50.84100 40.69600
C  9.99800 53.84200 40.22000
C  6.97100 57.70900 40.97700
C  3.46300 54.53600 42.00900
N  7.89200 52.55800 40.22800
C  7.52200 51.22200 40.27800
C  8.77100 50.27900 40.18300
C  9.91300 51.32700 40.25700
C  9.23800 52.67800 40.20700
C  10.88000 51.32900 41.55400
C  8.78100 49.24500 38.98600
C  8.81400 49.85100 37.58000
H  7.61600 49.80400 36.64600
N  8.30000 55.60200 40.68500
C  9.64000 55.19800 40.42600
C  10.48600 56.37900 40.30600
C  9.64100 57.50200 40.54600
C  8.23800 56.97100 40.79300
C  12.00700 56.31600 39.96500
C  10.11500 58.96400 40.59200
O  11.31700 59.30200 40.38600
C  9.10300 60.06400 40.84700
N  5.36800 55.91700 41.37200
C  5.73600 57.24500 41.26600
C  4.51500 58.11500 41.41800
C  3.46500 57.12700 42.00000
C  4.09000 55.76600 41.74900
C  4.68900 59.43300 42.22800
C  2.00000 57.18100 41.38100
C  1.89000 56.62300 39.95900
N  5.09100 53.02700 41.24000
C  3.87200 53.24400 41.74100
C  3.16000 52.02000 41.92300
C  4.02300 51.03800 41.47300
C  5.18900 51.70200 41.11300
C  1.78800 51.83300 42.38800
C  4.16500 49.61600 41.26600
O  3.42500 48.65800 41.52300
C  5.63700 49.43000 40.84100
C  5.39100 48.59100 39.69500
O  5.15700 48.96600 38.53900
O  5.50700 47.29500 40.10700
C  5.32200 46.18400 39.05700
H  11.06200 53.61600 40.12400
H  6.87700 58.79400 40.90100
H  2.52000 54.61900 42.55200
H  8.56700 49.66200 41.05800
H  10.52000 51.32500 39.35100
H  11.91900 51.46400 41.25300
H  10.86000 50.27500 41.83100
H  10.53900 51.99700 42.34500
H  8.05800 48.43300 39.06700
H  9.72200 48.73800 39.19400
H  9.65700 49.34800 37.10600
H  9.06600 50.90800 37.66500
H  12.52700 55.37100 40.11900
H  12.54400 56.95400 40.66700
H  12.13700 56.70700 38.95600
H  8.30200 59.97400 40.11200
H  9.45700 61.08400 40.70100
H  8.62400 59.92100 41.81500
H  4.12000 58.40600 40.44500
H  3.43100 57.21900 43.08600
H  5.71400 59.74800 42.42400
H  4.31500 59.32400 43.24600
H  4.17300 60.24300 41.71300
H  1.67000 58.21800 41.43600
H  1.24900 56.68600 41.99800
H  1.57900 55.58000 40.02000
H  2.79200 56.63200 39.34800
H  1.16400 57.27000 39.46500
H  1.20100 51.33800 41.61400
H  1.32800 52.77000 42.70200
H  1.79900 51.19600 43.27200
H  6.07100 48.83200 41.64200
H  6.28700 45.68000 38.99900
H  5.15200 46.62700 38.07500
H  4.52200 45.56500 39.46300
Mg -11.24400 38.98200 42.20600
C  -10.17500 35.65400 41.74200
C  -8.33900 39.93800 40.58000
C  -12.42000 42.06400 42.26200
C  -14.41100 37.68800 43.23300
N  -9.48900 37.83200 41.09600
C  -9.23000 36.49700 41.11000
C  -7.89800 36.19300 40.45700
C  -7.30600 37.58400 39.99600
C  -8.44900 38.52700 40.58400
C  -5.97000 37.98300 40.69900
C  -7.97600 35.28800 39.18200
C  -6.73400 34.33600 38.87100
H  -5.84100 34.93900 37.82800
N  -10.47700 40.70800 41.57800
C  -9.25300 40.94900 40.99800
C  -8.95600 42.43100 40.94100
C  -10.07000 42.99000 41.58800
C  -11.07400 41.93900 41.79200
C  -7.69300 43.07100 40.41300
C  -10.27100 44.45300 41.95000
O  -9.54000 45.33300 41.49100
C  -11.35300 44.89400 42.90000
N  -13.12400 39.75100 42.78700
C  -13.41200 41.06400 42.65000
C  -14.90800 41.43200 42.94700
C  -15.49000 40.02600 43.33100
C  -14.30500 39.08100 43.15200
C  -15.11600 42.44600 44.11100
C  -16.71500 39.51900 42.37800
C  -18.08000 39.33100 43.09200
N  -12.09800 37.12300 42.68700
C  -13.39600 36.75700 43.04100
C  -13.49000 35.33900 43.18400
C  -12.26800 34.90900 42.72400
C  -11.45000 35.99300 42.36700
C  -14.69200 34.58300 43.56100
C  -11.49500 33.73700 42.49500
O  -11.69200 32.59700 42.70400
C  -10.10700 34.10800 41.83900
C  -8.88000 33.63100 42.57400
O  -8.78200 33.63500 43.76600
O  -7.95700 33.18600 41.72200
C  -6.63700 32.94700 42.46000
H  -7.38300 40.36100 40.26300
H  -12.81700 43.08100 42.23200
H  -15.39400 37.23900 43.38800
H  -7.34100 35.68000 41.24100
H  -7.19100 37.66400 38.91500
H  -6.10900 38.62500 41.56800
H  -5.47900 38.44500 39.84300
H  -5.34800 37.14400 41.01300
H  -8.16800 35.85100 38.26900
H  -8.90000 34.70900 39.16700
H  -7.04600 33.31400 38.65500
H  -6.16000 34.33700 39.79700
H  -7.50200 44.04200 40.86900
H  -7.83300 43.25700 39.34800
H  -6.84000 42.48500 40.75500
H  -11.49400 44.15400 43.68700
H  -12.15600 45.02300 42.17400
H  -11.03900 45.74100 43.51000
H  -15.27100 41.81700 41.99400
H  -15.77500 40.00300 44.38300
H  -15.81100 41.98200 44.81200
H  -15.45100 43.41400 43.73600
H  -14.17700 42.60600 44.64100
H  -16.42000 38.62300 41.83300
H  -16.76700 40.35600 41.68200
H  -18.05100 39.53900 44.16200
H  -18.36700 38.29000 42.94200
H  -18.89600 39.98500 42.78400
H  -14.77000 34.17900 44.57000
H  -14.66200 33.68200 42.94900
H  -15.67200 34.94700 43.25400
H  -10.08300 33.73500 40.81500
H  -6.38600 31.89200 42.34700
H  -6.52200 33.28600 43.49000
H  -5.88600 33.39900 41.81300

