158

Mg 24.77000 1.45200 29.67600
C  26.92500 1.23300 32.50500
C  22.07400 1.24400 31.96400
C  22.84500 1.06200 27.10000
C  27.65900 0.93100 27.64900
N  24.53300 1.20300 31.96400
C  25.59200 1.33000 32.88400
C  25.05600 1.54600 34.25900
C  23.53600 1.25400 34.09200
C  23.35500 1.28600 32.59000
C  22.93400 -0.02800 34.72100
C  25.35600 2.92100 35.03600
C  25.99900 2.81900 36.41800
H  25.55000 3.84500 37.51900
N  22.77600 1.31500 29.59900
C  21.79500 1.24500 30.61700
C  20.50200 1.12100 30.05300
C  20.72700 1.09200 28.61000
C  22.18600 1.18800 28.37100
C  19.22700 1.14700 30.85700
C  19.65800 0.93900 27.46300
O  19.94100 0.90700 26.30300
C  18.22200 0.61800 27.78800
N  25.24200 0.97000 27.62500
C  24.23300 0.99200 26.72300
C  24.67400 1.27300 25.28300
C  26.26500 1.23000 25.43600
C  26.43500 1.03700 26.97800
C  24.02100 0.43600 24.10600
C  26.90300 2.50100 24.85000
C  26.66700 3.82500 25.56000
N  26.88500 1.08400 29.97500
C  27.92000 0.84600 29.09500
C  29.17700 0.62700 29.83000
C  28.83600 0.85500 31.13400
C  27.44300 1.03800 31.19700
C  30.45700 0.47100 29.23800
C  29.38200 0.90500 32.48900
O  30.54800 0.79600 32.88700
C  28.14000 1.16200 33.39700
C  28.03400 0.00600 34.31200
O  28.04700 -1.13500 34.01300
O  28.08800 0.47500 35.60700
C  28.65500 -0.43300 36.64500
H  21.21000 1.16700 32.62800
H  22.22000 0.86400 26.22700
H  28.51900 1.06500 26.99000
H  25.48300 0.68600 34.77600
H  23.02700 2.04000 34.65000
H  22.73100 -0.87500 34.06500
H  21.96300 0.10100 35.20000
H  23.65300 -0.37300 35.46300
H  24.44500 3.51900 35.00300
H  26.09900 3.47100 34.45700
H  27.00900 3.16200 36.19600
H  25.79400 1.80900 36.77300
H  18.82000 2.14900 30.71900
H  19.25900 0.88100 31.91400
H  18.50000 0.42100 30.49200
H  18.20500 -0.28100 28.40400
H  17.63500 0.46100 26.88300
H  17.85800 1.52800 28.26500
H  24.34700 2.28900 25.06400
H  26.68700 0.29400 25.07000
H  24.71700 -0.22100 23.58300
H  23.66000 1.13800 23.35400
H  23.19400 -0.11700 24.55100
H  26.50700 2.60800 23.84000
H  27.96800 2.28600 24.75600
H  26.25900 3.64700 26.55500
H  25.92700 4.47700 25.09400
H  27.64300 4.27800 25.73300
H  30.61000 -0.26700 28.45000
H  31.16800 0.37600 30.05900
H  30.51600 1.46100 28.78700
H  28.25300 2.04700 34.02300
H  28.00000 -0.31400 37.50800
H  29.64000 0.01300 36.77800
H  28.68600 -1.46400 36.29100
Mg 44.09200 4.19300 46.93300
C  42.10200 7.08700 46.78000
C  41.33400 2.25400 46.95800
C  46.12300 1.71000 46.67500
C  46.98500 6.47100 46.85500
N  41.95800 4.73200 46.84700
C  41.35200 5.94900 46.79400
C  39.79900 5.79900 46.88300
C  39.63300 4.25100 46.99200
C  41.08300 3.68700 46.84400
C  38.99800 3.88000 48.31000
C  38.98200 6.48100 45.80800
C  39.53200 6.30300 44.33800
H  38.52200 6.03700 43.18400
N  43.75900 2.22100 46.77000
C  42.58900 1.58900 46.82900
C  42.76600 0.19300 46.62500
C  44.17000 -0.10900 46.55800
C  44.77800 1.27400 46.72000
C  41.66600 -0.79800 46.45100
C  44.79200 -1.45800 46.41700
O  44.04600 -2.41300 46.18900
C  46.31000 -1.78300 46.44100
N  46.32000 4.15200 46.57000
C  46.80200 2.90700 46.67500
C  48.39900 2.98000 46.73700
C  48.69400 4.54300 46.75000
C  47.30800 5.11700 46.71300
C  49.15400 2.08000 47.80000
C  49.46400 5.04300 45.49100
C  51.02800 4.86400 45.48900
N  44.52800 6.36300 46.71200
C  45.69400 7.07400 46.77000
C  45.42000 8.50600 46.81800
C  43.99300 8.55300 46.85600
C  43.49000 7.24200 46.76200
C  46.40700 9.57800 46.89500
C  42.83400 9.42500 46.83200
O  42.81600 10.64100 46.67300
C  41.55800 8.54100 46.82000
C  40.77400 8.83600 48.12500
O  40.92500 8.19500 49.16600
O  39.96900 9.91900 48.06300
C  39.09400 10.00300 49.24200
H  40.40700 1.68000 46.91500
H  46.82200 0.87000 46.67600
H  47.91700 6.99100 47.08800
H  39.43800 6.16900 47.84200
H  39.01100 3.81800 46.20900
H  38.30100 4.63600 48.67000
H  39.73200 3.61100 49.07000
H  38.53700 2.91400 48.10700
H  38.69700 7.50200 46.06200
H  38.07100 5.88500 45.76700
H  40.28400 5.52400 44.21500
H  40.02400 7.25300 44.13000
H  41.85800 -1.55500 45.69000
H  40.71500 -0.26500 46.45700
H  41.63500 -1.42300 47.34300
H  46.83100 -1.21000 45.67400
H  46.51100 -2.84200 46.27400
H  46.60600 -1.65200 47.48200
H  48.63600 2.47400 45.80100
H  49.32300 4.81900 47.59700
H  48.29800 1.77400 48.40200
H  49.85600 2.72000 48.33300
H  49.55600 1.18500 47.32500
H  49.19500 6.05600 45.19100
H  49.09600 4.37300 44.71400
H  51.34500 4.19500 44.68900
H  51.31700 4.45700 46.45800
H  51.52900 5.81300 45.29800
H  47.40100 9.19300 46.66800
H  46.51800 9.88200 47.93600
H  46.16500 10.43000 46.26000
H  40.97800 8.79500 45.93300
H  39.59000 10.63100 49.98200
H  38.69200 9.18500 49.84000
H  38.20100 10.46300 48.81700

