158

Mg 41.29000 8.98300 29.58700
C  43.20900 9.86100 32.46900
C  39.01600 7.54000 31.70000
C  39.52900 7.85900 26.83900
C  43.86300 9.98000 27.64500
N  41.26300 8.61400 31.84300
C  42.16500 9.06400 32.80600
C  41.61800 8.75500 34.21700
C  40.30200 7.85900 33.90700
C  40.16800 8.07200 32.36700
C  40.35400 6.37400 34.28100
C  41.29900 10.03400 35.12600
C  40.74900 9.66100 36.47500
H  41.58500 10.10600 37.76000
N  39.50300 7.85300 29.30100
C  38.73100 7.34300 30.32700
C  37.62800 6.55800 29.71600
C  37.64300 6.78600 28.30800
C  38.91400 7.50100 28.06000
C  36.49300 5.93000 30.52200
C  36.59200 6.46100 27.19600
O  36.73600 6.72900 26.00900
C  35.25100 5.89600 27.57300
N  41.76300 8.71700 27.55800
C  40.78900 8.37400 26.60800
C  41.35600 8.67800 25.18400
C  42.73800 9.39600 25.46400
C  42.74200 9.47500 26.97100
C  41.46900 7.41800 24.17800
C  42.89600 10.69300 24.65900
C  41.75700 11.62300 24.70600
N  43.14400 9.75300 29.89400
C  44.08700 10.09600 29.03300
C  45.21600 10.68900 29.76700
C  44.80300 10.68300 31.05000
C  43.54100 10.10600 31.12000
C  46.45800 11.18000 29.06200
C  45.28600 11.07000 32.36400
O  46.31100 11.66900 32.71600
C  44.22600 10.54500 33.38500
C  44.79800 9.56500 34.37000
O  44.84600 8.31400 34.37000
O  45.34500 10.29700 35.38100
C  45.97900 9.66800 36.47000
H  38.21700 7.23900 32.38200
H  38.93300 7.69800 25.93800
H  44.70500 10.36800 27.06800
H  42.33900 8.09600 34.70100
H  39.45200 8.22800 34.48100
H  41.29700 6.06700 34.73300
H  40.15300 5.71900 33.43300
H  39.55200 6.13800 34.98100
H  40.56000 10.62600 34.58600
H  42.14000 10.69700 35.33100
H  40.55300 8.59000 36.41800
H  39.78300 10.14600 36.61800
H  36.60800 5.93700 31.60600
H  36.18300 4.91100 30.28800
H  35.56000 6.45400 30.31600
H  35.51600 4.95000 28.04600
H  34.48400 5.80100 26.80400
H  34.78600 6.53700 28.32100
H  40.71900 9.25900 24.51800
H  43.58700 8.75600 25.22100
H  40.93500 6.58900 24.64200
H  42.50200 7.15000 23.95900
H  40.83100 7.69200 23.33800
H  43.00700 10.43500 23.60600
H  43.84900 11.19500 24.82900
H  41.30600 11.73300 23.72000
H  42.09900 12.64000 24.89800
H  40.99900 11.40500 25.45800
H  46.27500 12.13400 28.56800
H  46.80000 10.40700 28.37400
H  47.20200 11.33300 29.84500
H  43.77600 11.46800 33.75200
H  46.65100 8.82600 36.30500
H  45.13700 9.33600 37.07700
H  46.55400 10.33600 37.11100
Mg 35.70600 48.80000 25.45400
C  36.03500 47.27700 28.57900
C  34.37300 51.56600 27.04200
C  35.09800 50.33300 22.37600
C  36.47000 45.83900 23.89000
N  35.14900 49.22400 27.54800
C  35.59600 48.56500 28.63100
C  35.30900 49.34000 29.90500
C  34.67000 50.70700 29.38600
C  34.67400 50.50400 27.86000
C  33.24800 51.06900 29.90300
C  36.60800 49.50800 30.74900
C  36.51600 49.48500 32.29100
H  35.24600 49.85300 32.99800
N  34.89200 50.68900 24.82600
C  34.33000 51.66400 25.67100
C  33.85800 52.73500 24.91700
C  34.04500 52.34800 23.50100
C  34.74500 51.11500 23.54800
C  33.31300 54.09300 25.53200
C  33.77400 53.25200 22.27700
O  33.99500 52.95200 21.12300
C  33.16400 54.55700 22.47600
N  35.60900 48.17600 23.42800
C  35.61400 49.02900 22.34100
C  36.04300 48.28700 21.04200
C  36.50200 46.93500 21.67000
C  36.13700 46.94400 23.08900
C  35.02200 48.16200 19.93400
C  37.98000 46.63500 21.50000
C  38.53600 46.67800 20.12200
N  36.14900 46.88900 26.08500
C  36.44900 45.79100 25.31800
C  36.77300 44.60200 26.26300
C  36.62900 45.19800 27.60600
C  36.29000 46.55300 27.41600
C  37.37800 43.29200 25.92600
C  36.76600 44.96600 29.02200
O  36.98200 43.96500 29.65400
C  36.25100 46.25100 29.73600
C  34.95600 45.90200 30.39000
O  33.87200 45.63300 29.87900
O  35.08900 46.15200 31.75900
C  33.84500 45.87500 32.51500
H  34.12600 52.48200 27.58300
H  34.83100 50.67700 21.37400
H  36.63700 44.85500 23.44500
H  34.53200 48.74500 30.38400
H  35.31900 51.52300 29.70300
H  33.06700 50.54800 30.84300
H  32.48500 50.79500 29.17400
H  33.28600 52.11600 30.20500
H  37.06700 50.45200 30.45800
H  37.30200 48.76600 30.35400
H  37.37200 50.13100 32.48800
H  36.72700 48.46500 32.61200
H  34.03700 54.86100 25.26000
H  33.31700 54.05400 26.62200
H  32.38000 54.45800 25.10400
H  32.96200 55.14400 21.57900
H  33.90100 55.04200 23.11600
H  32.23500 54.34300 23.00400
H  36.91500 48.83600 20.68600
H  35.96300 46.04700 21.34200
H  35.65100 48.47200 19.10000
H  34.08800 48.65100 20.20900
H  34.85300 47.10500 19.72800
H  38.10000 45.60100 21.82500
H  38.44500 47.32100 22.20800
H  38.71500 45.70100 19.67200
H  39.57100 47.01800 20.16100
H  37.95300 47.27400 19.42000
H  38.19700 43.14300 26.62900
H  37.92200 43.46100 24.99700
H  36.62600 42.50600 25.86200
H  36.99300 46.57000 30.46800
H  33.93000 44.79700 32.65300
H  32.94300 46.26400 32.04400
H  33.90600 46.37900 33.48000

