158

Mg 0.92600 7.64700 25.74900
C  1.75200 9.46000 28.50100
C  0.62500 4.84600 27.70300
C  -0.01900 6.00000 22.95500
C  1.45600 10.52700 23.70000
N  1.29200 7.24500 27.78700
C  1.50000 8.13300 28.79300
C  1.54400 7.39900 30.19000
C  1.55400 5.92700 29.74500
C  1.11700 5.99800 28.29700
C  2.82800 5.11400 29.85800
C  0.28600 7.86800 30.95500
C  0.33500 8.02900 32.52100
H  1.52500 7.38900 33.23000
N  0.38500 5.64500 25.39000
C  0.23700 4.64600 26.38800
C  -0.44400 3.50600 25.80800
C  -0.55200 3.84400 24.38300
C  -0.09600 5.18500 24.18300
C  -0.76600 2.26700 26.61500
C  -1.20400 2.94900 23.26300
O  -1.31700 3.28000 22.09800
C  -1.57900 1.51700 23.52900
N  0.93100 8.20200 23.59600
C  0.54600 7.25100 22.64100
C  0.46600 7.94300 21.22200
C  1.07500 9.31400 21.46100
C  1.15100 9.40100 22.97700
C  1.19700 7.11800 20.16700
C  0.22800 10.50100 20.87200
C  -0.94400 11.03300 21.75700
N  1.54000 9.59000 26.00500
C  1.56200 10.65600 25.12500
C  1.83500 11.83300 25.95200
C  1.88300 11.46500 27.25300
C  1.67100 10.06100 27.24300
C  2.09300 13.23000 25.39600
C  2.10300 11.84800 28.58100
O  2.40100 12.93300 28.96700
C  1.92800 10.57600 29.44100
C  3.07900 10.65000 30.41600
O  4.20600 10.33700 30.19200
O  2.58100 11.23700 31.56300
C  3.51500 11.16500 32.63000
H  0.49700 4.04700 28.43600
H  -0.41500 5.61100 22.01500
H  1.65700 11.30000 22.95500
H  2.44800 7.85200 30.59800
H  0.70900 5.54800 30.32000
H  3.32800 4.84100 28.92800
H  2.77400 4.16400 30.39000
H  3.51100 5.66600 30.50400
H  -0.42600 7.04700 30.87100
H  0.10800 8.87000 30.56600
H  -0.61300 7.71400 32.95500
H  0.35700 9.09100 32.76600
H  -1.79500 1.97000 26.41100
H  -0.53800 2.39200 27.67400
H  -0.10900 1.42600 26.39900
H  -2.30600 1.41000 24.33400
H  -0.64800 0.97000 23.68100
H  -2.06700 1.19500 22.61000
H  -0.60000 7.93300 20.99300
H  2.10400 9.32900 21.10000
H  0.62000 6.19600 20.08900
H  2.20400 6.84900 20.48500
H  1.15800 7.69700 19.24400
H  -0.24200 10.25400 19.92000
H  0.99900 11.25500 20.71200
H  -1.87100 10.94000 21.19200
H  -0.62700 12.07200 21.84900
H  -1.13200 10.49400 22.68600
H  1.92400 13.18900 24.32000
H  3.02700 13.67500 25.74000
H  1.25000 13.85600 25.69000
H  0.97500 10.73200 29.94600
H  3.81200 10.14400 32.87300
H  3.08500 11.39800 33.60500
H  4.34100 11.83200 32.38600
Mg 16.95900 51.47700 26.73500
C  18.89800 49.93300 29.23200
C  14.61200 52.06600 29.20100
C  15.15500 53.08200 24.46800
C  19.18700 50.28300 24.31300
N  16.91400 51.15400 28.99100
C  17.82800 50.62600 29.80600
C  17.36000 50.75500 31.21600
C  15.82600 50.89200 31.11800
C  15.74000 51.36100 29.64700
C  15.00600 49.56700 31.39800
C  18.10400 52.01100 31.79400
C  18.43100 51.94200 33.27100
H  17.54300 51.00700 34.19800
N  15.17400 52.62400 26.84700
C  14.39400 52.78700 27.94600
C  13.35400 53.75300 27.61900
C  13.41200 53.90800 26.16500
C  14.63000 53.22000 25.74200
C  12.41900 54.26000 28.63000
C  12.57600 54.80500 25.35900
O  12.74100 55.08800 24.18100
C  11.34400 55.47800 25.96200
N  17.03800 51.42200 24.65300
C  16.22900 52.35700 24.00500
C  16.65900 52.31400 22.51300
C  18.11700 51.74500 22.47400
C  18.06300 51.05200 23.92100
C  15.62000 51.55300 21.54700
C  19.25400 52.75600 22.25200
C  19.10900 53.80400 21.17400
N  18.54400 50.23600 26.73600
C  19.40500 49.79900 25.68300
C  20.47900 48.94400 26.15700
C  20.29400 48.96200 27.51100
C  19.11700 49.71800 27.80900
C  21.54700 48.31200 25.30300
C  20.89900 48.48800 28.70000
O  21.89000 47.82200 28.94700
C  20.00000 49.15200 29.90800
C  19.63200 48.12400 30.89500
O  18.73200 47.33500 30.80100
O  20.44300 48.30600 32.05600
C  19.97200 47.51300 33.21700
H  13.85500 52.35600 29.93300
H  14.61100 53.66100 23.71800
H  20.03300 50.20500 23.62700
H  17.59600 49.83000 31.74200
H  15.38900 51.65400 31.76400
H  15.63500 48.81300 31.87200
H  14.75100 49.14700 30.42600
H  14.14600 49.73800 32.04500
H  17.53900 52.93900 31.69700
H  19.04700 52.06200 31.25000
H  18.36300 52.97800 33.60300
H  19.45700 51.59600 33.39700
H  12.21700 55.32900 28.55900
H  12.82200 54.03000 29.61600
H  11.38200 53.93000 28.56800
H  10.69600 55.93000 25.21100
H  11.79700 56.28200 26.54200
H  10.73000 54.79700 26.55100
H  16.71100 53.33200 22.12600
H  18.16700 50.85100 21.85400
H  15.95000 50.68500 20.97500
H  15.30700 52.31300 20.83100
H  14.86200 51.21900 22.25600
H  20.15700 52.23600 21.93100
H  19.41600 53.18600 23.24000
H  18.98700 54.77800 21.64900
H  18.24200 53.64500 20.53200
H  19.97500 53.94100 20.52600
H  22.21900 48.99700 24.78500
H  20.98700 47.73700 24.56600
H  22.11000 47.65400 25.96500
H  20.54300 49.98300 30.35800
H  19.80800 46.45400 33.02200
H  19.00700 47.86200 33.58400
H  20.64000 47.62200 34.07200

