158

Mg 54.25100 23.20000 44.33100
C  51.98900 25.77400 43.43400
C  51.73700 20.85600 43.54700
C  56.59200 20.90400 44.40300
C  56.64200 25.72100 44.81100
N  52.08200 23.23100 43.47500
C  51.49900 24.44900 43.25300
C  50.10400 24.09800 42.60300
C  49.82100 22.60100 43.05100
C  51.26700 22.21200 43.37700
C  48.90500 22.31100 44.22800
C  50.09600 24.26400 41.05700
C  48.81300 24.88500 40.44400
H  48.31800 24.11300 39.14500
N  54.21500 21.20700 43.93500
C  53.07000 20.42200 43.73100
C  53.51000 19.01900 43.86100
C  54.91800 19.04100 44.04800
C  55.31800 20.44600 44.10600
C  52.60500 17.84600 43.56700
C  55.76400 17.81100 44.15400
O  55.22200 16.70400 44.05500
C  57.26700 17.81700 44.60800
N  56.43000 23.32900 44.28900
C  57.05000 22.21300 44.56400
C  58.53000 22.50600 44.72300
C  58.55200 24.05900 44.92000
C  57.17300 24.43500 44.65600
C  59.18700 21.71100 45.88500
C  59.64200 24.75900 44.03200
C  60.57800 25.71500 44.84900
N  54.36100 25.31200 44.28900
C  55.32200 26.20600 44.61600
C  54.82400 27.58700 44.55700
C  53.48500 27.47400 44.14700
C  53.28100 26.07300 43.91300
C  55.58000 28.79300 44.94100
C  52.27300 28.17300 43.84700
O  52.03400 29.37600 43.84900
C  51.27100 27.14500 43.22700
C  51.20400 27.55600 41.78300
O  52.14100 27.34500 40.99700
O  50.02300 28.12500 41.48700
C  49.74400 28.56200 40.13500
H  50.94000 20.12700 43.38300
H  57.50000 20.29700 44.42300
H  57.32800 26.48100 45.19100
H  49.36200 24.78400 43.01300
H  49.52400 21.95700 42.22300
H  48.31000 21.41800 44.03800
H  48.21400 23.15100 44.29800
H  49.49500 22.24900 45.14200
H  50.27400 23.30900 40.56200
H  50.96100 24.91300 40.91800
H  48.98900 25.91500 40.13600
H  47.98900 24.96700 41.15200
H  52.76600 16.88600 44.05700
H  52.68100 17.58600 42.51100
H  51.61000 18.18700 43.85300
H  57.81000 18.32300 43.80900
H  57.70200 16.82100 44.52200
H  57.36900 18.28000 45.58900
H  58.98500 22.22900 43.77200
H  58.71700 24.22900 45.98400
H  59.45900 20.71200 45.54500
H  58.40000 21.55000 46.62200
H  60.02000 22.21400 46.37600
H  59.13400 25.33800 43.26100
H  60.25800 23.93900 43.66400
H  60.41000 26.77700 44.66600
H  61.62000 25.44200 44.68200
H  60.39400 25.57900 45.91500
H  56.50100 28.99500 44.39500
H  55.70900 28.76100 46.02300
H  54.90100 29.62300 44.74700
H  50.28100 27.17700 43.68200
H  48.89400 28.02800 39.71000
H  50.59000 28.66400 39.45500
H  49.28700 29.55000 40.19000
Mg -4.46600 25.42300 25.47700
C  -3.26500 26.73700 28.58500
C  -6.53700 23.28500 27.37800
C  -5.79700 24.46000 22.71800
C  -2.29100 27.59200 23.83300
N  -4.79200 25.01900 27.66200
C  -4.23800 25.77800 28.73300
C  -4.85400 25.34500 30.04700
C  -5.70000 24.09100 29.64500
C  -5.61200 24.05100 28.12700
C  -5.40200 22.80900 30.46800
C  -5.72700 26.45400 30.67600
C  -5.52200 26.61400 32.28100
H  -5.21100 25.31200 33.12500
N  -5.88600 23.98800 25.08900
C  -6.68500 23.26500 26.00500
C  -7.63000 22.47500 25.18200
C  -7.40000 22.82100 23.87200
C  -6.36900 23.84700 23.88000
C  -8.56500 21.41900 25.72900
C  -7.94300 22.19400 22.50700
O  -7.61800 22.59000 21.38300
C  -8.83700 21.04400 22.47000
N  -4.02300 25.94200 23.54300
C  -4.69500 25.36100 22.54400
C  -4.24700 25.88400 21.12200
C  -3.13800 26.92700 21.52300
C  -3.14000 26.82700 23.05200
C  -3.61000 24.68100 20.30200
C  -3.23600 28.42800 21.05500
C  -3.31400 28.66300 19.48600
N  -3.05000 26.90400 26.05500
C  -2.18000 27.61900 25.23500
C  -1.41000 28.58300 26.06200
C  -1.80700 28.28300 27.38100
C  -2.74600 27.23300 27.35600
C  -0.41400 29.57900 25.62200
C  -1.65400 28.62600 28.78600
O  -1.01100 29.50200 29.32200
C  -2.57300 27.58500 29.62600
C  -1.69400 26.92500 30.72000
O  -1.13900 25.81800 30.67500
O  -1.62000 27.65200 31.83900
C  -0.78600 27.11100 32.93400
H  -7.22600 22.74900 28.03400
H  -6.21000 24.26600 21.72600
H  -1.71200 28.31800 23.25700
H  -4.06900 25.05500 30.74500
H  -6.75300 24.35800 29.73800
H  -6.18000 22.72300 31.22700
H  -4.42100 22.88900 30.93500
H  -5.36200 21.97500 29.76700
H  -6.76300 26.24900 30.40900
H  -5.36500 27.36200 30.19400
H  -6.41000 27.06100 32.72600
H  -4.67900 27.28500 32.44600
H  -7.97200 20.61900 26.17400
H  -9.41700 21.14200 25.10900
H  -9.02500 22.13100 26.41400
H  -8.84400 20.70500 21.43400
H  -9.84600 21.32800 22.77100
H  -8.46200 20.25900 23.12800
H  -5.06000 26.41600 20.62700
H  -2.12500 26.60300 21.28400
H  -3.70900 23.84200 20.99100
H  -2.56900 24.68700 19.98000
H  -4.29100 24.47100 19.47700
H  -2.42300 29.02500 21.46800
H  -4.09300 28.86200 21.57000
H  -2.60600 29.46400 19.27300
H  -4.31700 29.01400 19.24700
H  -3.05800 27.94300 18.70900
H  0.01100 29.42400 24.63000
H  0.36800 29.62800 26.38000
H  -0.87300 30.56800 25.64400
H  -3.26800 28.24200 30.14900
H  -0.98600 26.09300 33.26900
H  -1.08300 27.84500 33.68300
H  0.25600 27.23700 32.64100

