158

Mg 44.98800 3.13200 46.65200
C  42.63900 5.54500 45.81200
C  42.30900 0.84300 46.43500
C  47.04600 0.61300 46.85200
C  47.39400 5.52600 46.71800
N  42.82400 3.12700 45.95600
C  42.07200 4.29500 45.78400
C  40.53100 4.01200 45.43800
C  40.43900 2.60000 46.15300
C  41.94100 2.14200 46.23800
C  39.50900 2.59300 47.40100
C  40.41700 4.07800 43.82700
C  39.45200 5.17600 43.16400
H  39.99000 5.88900 41.85600
N  44.69600 0.99900 46.65800
C  43.52500 0.21400 46.54100
C  43.84800 -1.20800 46.62700
C  45.23000 -1.26100 46.76900
C  45.74700 0.12300 46.67800
C  42.83000 -2.26300 46.55800
C  46.07400 -2.56100 46.81500
O  45.42100 -3.57700 46.84300
C  47.55600 -2.61900 46.87600
N  47.05600 3.06100 46.74500
C  47.65500 1.89300 46.97900
C  49.20100 2.07800 46.95700
C  49.23100 3.66900 47.12700
C  47.84200 4.13700 46.83600
C  49.88500 1.31900 48.12900
C  50.33700 4.35400 46.23200
C  51.71900 4.33300 46.92700
N  45.11300 5.15800 46.30000
C  46.10700 6.00600 46.52600
C  45.62800 7.41700 46.31000
C  44.27600 7.23400 46.00900
C  44.02400 5.86500 45.99400
C  46.43000 8.69900 46.50500
C  43.03200 7.97400 45.68700
O  42.77300 9.10700 45.49600
C  41.96400 6.87600 45.59400
C  40.90700 7.24600 46.60800
O  40.78300 6.79500 47.71300
O  39.98200 8.01700 45.92400
C  38.86900 8.47400 46.77500
H  41.37300 0.29000 46.33000
H  47.80400 -0.16100 46.98500
H  48.10800 6.35100 46.70400
H  39.85600 4.68700 45.96600
H  40.06400 1.86900 45.43700
H  38.93400 3.51900 47.42300
H  40.13700 2.60100 48.29200
H  38.87900 1.70300 47.39200
H  40.09600 3.07100 43.55900
H  41.43700 4.20200 43.46400
H  39.21000 5.92400 43.91900
H  38.51000 4.68300 42.92500
H  41.92800 -1.89100 47.04400
H  42.95900 -3.22600 47.05100
H  42.55300 -2.41800 45.51500
H  47.89200 -2.21000 45.92300
H  47.88700 -3.65600 46.92300
H  47.84900 -2.04800 47.75700
H  49.67600 1.68100 46.06100
H  49.46100 4.00600 48.13700
H  50.72800 0.73800 47.75600
H  49.28600 0.59700 48.68500
H  50.29300 2.05500 48.82100
H  50.04000 5.39600 46.11500
H  50.55200 3.83900 45.29600
H  51.68800 3.75400 47.85100
H  52.11600 5.31400 47.18900
H  52.49700 4.01600 46.23200
H  47.11000 9.00600 45.71100
H  46.87000 8.72300 47.50200
H  45.70800 9.50700 46.62800
H  41.62200 6.97100 44.56300
H  38.33000 9.32300 46.35400
H  39.26600 8.88200 47.70500
H  38.29700 7.56200 46.94300
Mg -2.35500 34.71200 26.64200
C  -3.42000 32.99800 29.56400
C  -1.08400 37.02600 28.61100
C  -2.14100 36.57800 23.91300
C  -4.20100 32.26200 24.73900
N  -2.17400 34.89900 28.83700
C  -2.63000 34.08400 29.83000
C  -2.18500 34.59000 31.23700
C  -1.43300 35.89700 30.82000
C  -1.62000 35.99100 29.34400
C  -1.77600 37.22500 31.61600
C  -1.38400 33.49700 32.06600
C  -1.96300 33.05100 33.46200
H  -1.03800 33.02800 34.66300
N  -1.50500 36.34100 26.26400
C  -1.03100 37.22700 27.17500
C  -0.34200 38.38300 26.60300
C  -0.74100 38.34700 25.21500
C  -1.50500 37.05300 25.05400
C  0.31900 39.40900 27.47300
C  -0.44400 39.32700 24.08200
O  -0.86900 39.27300 22.92500
C  0.50400 40.46500 24.42800
N  -3.13500 34.47100 24.60800
C  -2.96600 35.45300 23.74300
C  -3.64000 35.08300 22.38900
C  -3.99200 33.52000 22.56000
C  -3.72400 33.33900 24.06300
C  -4.86700 35.95800 21.90300
C  -3.20000 32.53600 21.67500
C  -1.90300 32.02400 22.24500
N  -3.52500 33.05500 27.01700
C  -4.14900 32.11100 26.14100
C  -4.78100 31.12500 26.93600
C  -4.52300 31.46600 28.25400
C  -3.72600 32.60400 28.24600
C  -5.50700 29.89800 26.47100
C  -4.80200 31.01700 29.56900
O  -5.44400 30.09100 29.99900
C  -4.01900 32.00300 30.47100
C  -4.95700 32.68000 31.29000
O  -5.78800 33.46400 30.84800
O  -5.03600 32.21700 32.59700
C  -5.96600 32.81000 33.52400
H  -0.62500 37.75900 29.27800
H  -2.19500 37.21500 23.02800
H  -4.71900 31.47000 24.19500
H  -3.11700 34.87000 31.72700
H  -0.38200 35.67500 31.00600
H  -0.90100 37.69900 32.06100
H  -2.43500 37.09100 32.47400
H  -2.15600 38.02100 30.97600
H  -0.36200 33.86200 32.16500
H  -1.30900 32.57400 31.49000
H  -2.43600 32.07600 33.34200
H  -2.84700 33.66200 33.64500
H  1.31500 39.04800 27.73100
H  -0.27300 39.59900 28.36800
H  0.43800 40.36100 26.95500
H  0.89800 40.90800 23.51300
H  1.30100 39.90900 24.92200
H  -0.12700 41.12100 25.02600
H  -2.83100 35.14300 21.66100
H  -5.05500 33.43700 22.33300
H  -5.11700 36.77900 22.57500
H  -5.73200 35.30600 21.78300
H  -4.76800 36.27100 20.86400
H  -2.93700 32.98100 20.71500
H  -3.83800 31.65300 21.71400
H  -1.59900 32.45700 23.19800
H  -1.03800 32.14100 21.59200
H  -1.97200 30.96000 22.47100
H  -5.20500 29.05200 27.08800
H  -5.12000 29.77500 25.45900
H  -6.56500 30.11300 26.31700
H  -3.20300 31.49600 30.98600
H  -6.49900 33.69900 33.18700
H  -5.38000 33.05500 34.40900
H  -6.71200 32.02700 33.66600

