158

Mg 1.38000 -1.46600 42.76700
C  4.70300 -0.38000 41.73600
C  0.30400 1.55600 41.40000
C  -1.66800 -2.82500 42.36200
C  2.74400 -4.68300 43.26400
N  2.47100 0.41000 41.71900
C  3.78900 0.60800 41.42000
C  4.01600 2.01700 40.91000
C  2.59000 2.64100 40.86300
C  1.73200 1.48400 41.41400
C  2.54700 3.95600 41.73000
C  4.68400 2.08000 39.54400
C  3.94700 1.23000 38.46800
H  4.84900 0.42400 37.57800
N  -0.46700 -0.66200 42.30600
C  -0.63900 0.65600 41.86700
C  -2.07400 0.77700 41.66300
C  -2.70700 -0.48100 41.93200
C  -1.64700 -1.39600 42.23400
C  -2.62900 2.05100 41.20200
C  -4.21100 -0.79900 41.87900
O  -4.98000 -0.01900 41.34300
C  -4.76400 -2.05600 42.47700
N  0.68800 -3.53500 42.55400
C  -0.60700 -3.81000 42.50900
C  -0.82700 -5.36100 42.63400
C  0.51200 -5.82100 43.19300
C  1.38500 -4.58600 43.05000
C  -2.04600 -5.67900 43.53900
C  1.16700 -7.20100 42.61300
C  1.10200 -8.38900 43.67100
N  3.31500 -2.40100 42.66100
C  3.70000 -3.66300 42.92800
C  5.11900 -3.70700 42.95500
C  5.56100 -2.47000 42.50100
C  4.39900 -1.67200 42.29300
C  5.78600 -5.03800 43.38200
C  6.75000 -1.71700 42.21400
O  7.93800 -1.86300 42.47400
C  6.20200 -0.39100 41.56300
C  6.89300 0.78300 42.19900
O  7.60600 1.54300 41.55200
O  6.61900 0.87900 43.54200
C  7.39300 1.94100 44.21100
H  -0.10500 2.40000 40.84100
H  -2.57500 -3.39400 42.14700
H  3.19300 -5.61500 43.61600
H  4.73000 2.59700 41.49400
H  2.33800 2.87100 39.82800
H  3.38200 4.17200 42.39700
H  1.58100 3.83800 42.22100
H  2.51700 4.73900 40.97200
H  5.73000 1.78800 39.63300
H  4.61800 3.07100 39.09400
H  3.31900 1.91600 37.90100
H  3.11700 0.68400 38.91700
H  -2.25300 2.34700 40.22300
H  -2.40900 2.81000 41.95300
H  -3.71300 2.10600 41.09400
H  -5.82900 -1.84700 42.57400
H  -4.41100 -2.12700 43.50600
H  -4.51600 -2.88800 41.81700
H  -0.88000 -5.65000 41.58400
H  0.41800 -5.84000 44.27800
H  -2.31100 -4.91100 44.26500
H  -1.89600 -6.63200 44.04600
H  -2.87100 -5.85100 42.84800
H  2.24600 -7.12400 42.47800
H  0.72300 -7.58500 41.69400
H  0.24700 -9.05100 43.53200
H  1.03000 -7.90100 44.64300
H  2.02100 -8.97500 43.64800
H  6.10300 -5.68900 42.56600
H  5.17800 -5.61200 44.08100
H  6.67100 -4.67300 43.90200
H  6.42600 -0.61700 40.52000
H  6.69600 2.58300 44.74900
H  7.89400 2.66200 43.56300
H  7.99900 1.62600 45.06000
Mg 15.89200 -1.73400 28.25200
C  15.03400 0.23000 31.04800
C  17.95300 -3.54800 30.39100
C  17.20900 -3.26800 25.66200
C  14.19100 0.47100 26.24600
N  16.40000 -1.66500 30.46900
C  15.80500 -0.82300 31.39400
C  16.35100 -1.09100 32.81400
C  17.42300 -2.23800 32.49900
C  17.22900 -2.52200 31.03000
C  18.88300 -2.08500 33.03100
C  15.21300 -1.50800 33.71100
C  15.10500 -1.03800 35.15900
H  16.46200 -0.72700 35.77400
N  17.29600 -3.27700 28.03900
C  17.99200 -3.93200 29.03000
C  18.76300 -4.99500 28.41000
C  18.65500 -4.88000 27.00600
C  17.71600 -3.75500 26.82300
C  19.60700 -6.03700 29.22100
C  19.25500 -5.66400 25.87300
O  19.04600 -5.47600 24.66900
C  20.28100 -6.81300 26.13500
N  15.73600 -1.39300 26.20600
C  16.31300 -2.20400 25.29700
C  15.98400 -1.82800 23.81000
C  14.77800 -0.86300 24.05100
C  14.89100 -0.56300 25.58400
C  17.12000 -1.34900 22.84500
C  13.38900 -1.53600 23.74300
C  12.55900 -0.92400 22.54700
N  14.94800 0.02800 28.52300
C  14.20000 0.76300 27.62200
C  13.64800 1.90300 28.27000
C  13.90500 1.70800 29.61800
C  14.74200 0.54400 29.75900
C  12.85400 2.98700 27.65000
C  13.76400 2.31500 30.96600
O  13.15500 3.34100 31.29700
C  14.52800 1.40500 31.95400
C  15.51300 2.19600 32.61100
O  16.64600 2.31700 32.34400
O  14.87400 2.85100 33.68500
C  15.68000 3.88500 34.38700
H  18.48500 -4.20000 31.08700
H  17.51400 -3.75600 24.73400
H  13.76200 1.17900 25.53400
H  16.82200 -0.21000 33.25000
H  17.17600 -3.14900 33.04400
H  19.59900 -1.96400 32.21900
H  19.03400 -2.90600 33.73400
H  18.84900 -1.24100 33.72000
H  15.24000 -2.59700 33.72200
H  14.24200 -1.29600 33.26200
H  14.63800 -1.73100 35.85800
H  14.55900 -0.09600 35.12200
H  19.50800 -5.89800 30.29700
H  20.60800 -5.80800 28.85500
H  19.45000 -7.10800 29.09500
H  21.11800 -6.33000 26.63900
H  20.59800 -7.19500 25.16500
H  19.81700 -7.63900 26.67500
H  15.55600 -2.71500 23.34300
H  14.79600 0.00000 23.38700
H  17.11800 -0.28600 22.60200
H  17.06100 -1.94900 21.93700
H  18.07800 -1.54400 23.32700
H  12.73500 -1.48000 24.61300
H  13.55600 -2.59300 23.53600
H  11.78900 -0.23800 22.90000
H  12.17400 -1.68000 21.86400
H  13.25500 -0.39300 21.89800
H  13.31500 3.49900 26.80600
H  12.75200 3.82300 28.34200
H  11.90500 2.56900 27.31700
H  13.89400 0.94200 32.71100
H  15.11000 4.74100 34.74900
H  16.59400 4.24800 33.91700
H  16.01200 3.32100 35.25800

