158

Mg 0.79700 6.87100 26.60900
C  1.35200 9.27000 29.06200
C  0.80200 4.47000 28.88500
C  0.10400 4.76500 24.01100
C  1.34900 9.41600 24.19100
N  0.97000 6.91100 28.70900
C  1.12100 8.00900 29.54700
C  1.05000 7.59200 31.04300
C  1.20500 6.04500 30.94200
C  0.99800 5.77500 29.40800
C  2.58200 5.59400 31.43700
C  -0.19900 7.97100 31.85100
C  0.06700 8.16100 33.38700
H  1.26200 7.61400 34.06100
N  0.58500 4.83900 26.50600
C  0.61400 3.98700 27.54400
C  0.40000 2.63500 27.08700
C  0.14100 2.74100 25.71700
C  0.26000 4.17300 25.34700
C  0.46900 1.46300 28.08400
C  -0.30400 1.59900 24.77000
O  -0.47200 1.73200 23.55900
C  -0.29600 0.21800 25.25500
N  0.78200 7.12800 24.39500
C  0.38400 6.08100 23.59400
C  0.31300 6.53000 22.09100
C  0.88900 8.00700 22.16000
C  1.02000 8.18700 23.65200
C  0.96200 5.49300 21.13900
C  0.03000 9.05900 21.33900
C  0.69300 10.09800 20.39800
N  1.30400 8.91400 26.58400
C  1.53400 9.81700 25.48800
C  2.01400 11.05500 25.98700
C  1.87300 10.92000 27.42000
C  1.44800 9.56600 27.69500
C  2.34100 12.25300 25.13100
C  2.04000 11.60000 28.66500
O  2.37500 12.74600 28.91600
C  1.55900 10.54200 29.79800
C  2.66100 10.59300 30.80300
O  3.81800 10.22800 30.58800
O  2.20500 10.95000 31.99800
C  3.19800 11.08700 33.08300
H  0.78200 3.68700 29.64600
H  -0.34500 4.05800 23.31000
H  1.52000 10.18400 23.43400
H  1.93800 7.98900 31.53400
H  0.37000 5.63400 31.50800
H  3.00700 4.76100 30.87700
H  2.56200 5.12100 32.41900
H  3.22400 6.47500 31.41700
H  -0.87000 7.11700 31.93300
H  -0.68500 8.80700 31.34800
H  -0.79700 7.75100 33.91100
H  0.13100 9.23000 33.59000
H  0.90500 0.61400 27.55900
H  -0.46600 1.12200 28.52800
H  1.13700 1.78300 28.88400
H  -0.61900 -0.42300 24.43500
H  -0.98500 0.19200 26.09900
H  0.73000 -0.08100 25.47200
H  -0.73700 6.48400 21.80100
H  1.92200 8.09700 21.82500
H  1.82300 5.96500 20.66400
H  0.28700 5.29200 20.30700
H  1.22300 4.48700 21.46800
H  -0.51700 9.63900 22.08300
H  -0.71600 8.58200 20.70400
H  0.28700 11.08900 20.60100
H  0.62200 9.70400 19.38400
H  1.76700 10.11100 20.58300
H  3.05600 12.86900 25.67500
H  1.48100 12.84100 24.81100
H  2.89100 11.93700 24.24400
H  0.65600 10.99700 30.20700
H  2.90100 11.66700 33.95700
H  4.01400 11.68100 32.67000
H  3.45000 10.05100 33.30900
Mg -8.88000 40.95800 42.83200
C  -7.91500 37.68300 41.92400
C  -6.05700 42.15300 41.11100
C  -10.02500 44.16400 43.15200
C  -11.95900 39.66700 43.75100
N  -7.31000 40.02800 41.60200
C  -7.02200 38.68800 41.51700
C  -5.80800 38.41400 40.63900
C  -5.04700 39.82000 40.74800
C  -6.17100 40.75300 41.20300
C  -3.94500 39.91800 41.78300
C  -6.18200 37.79300 39.21300
C  -5.47200 36.44800 38.74700
H  -4.48300 36.60100 37.56500
N  -8.22200 42.88200 42.00400
C  -6.96900 43.20300 41.46300
C  -6.77200 44.63800 41.46200
C  -7.95800 45.22000 42.14400
C  -8.82300 44.08600 42.37400
C  -5.50200 45.25000 40.88100
C  -8.18500 46.68700 42.44500
O  -7.36500 47.46600 42.10900
C  -9.36200 47.24400 43.12300
N  -10.70900 41.76500 43.38700
C  -10.91500 43.14800 43.53000
C  -12.26000 43.43700 44.24200
C  -12.91600 41.96100 44.22400
C  -11.81800 41.03400 43.82100
C  -12.24500 44.11200 45.61800
C  -14.16700 41.77900 43.41700
C  -15.52200 41.72000 44.18800
N  -9.66600 39.07200 43.05500
C  -10.97100 38.70000 43.41000
C  -11.03700 37.32700 43.50600
C  -9.82700 36.80900 42.92800
C  -9.10700 37.91600 42.59800
C  -12.13100 36.54300 44.13400
C  -9.03400 35.64500 42.50000
O  -9.40700 34.49000 42.45600
C  -7.80500 36.16500 41.84900
C  -6.69600 35.57000 42.63600
O  -6.63700 35.67400 43.85600
O  -5.74800 34.93600 41.85800
C  -4.57600 34.41600 42.56600
H  -5.14900 42.52400 40.63000
H  -10.35800 45.16400 43.43700
H  -12.91100 39.27600 44.11700
H  -5.23100 37.60700 41.08900
H  -4.69100 40.27500 39.82400
H  -3.09000 40.23900 41.18600
H  -3.90600 38.91100 42.19800
H  -4.12500 40.57300 42.63600
H  -5.87400 38.63300 38.59000
H  -7.23500 37.69100 38.95000
H  -6.22000 35.67200 38.58600
H  -4.94700 36.07900 39.62800
H  -5.72700 46.11300 40.25500
H  -4.99300 44.48100 40.30000
H  -4.74400 45.62900 41.56600
H  -9.16600 48.31200 43.22400
H  -9.48800 46.89200 44.14700
H  -10.28000 47.05400 42.56600
H  -12.74900 44.11700 43.54500
H  -13.22100 41.82700 45.26100
H  -13.01500 44.88200 45.58500
H  -11.24600 44.52800 45.74900
H  -12.41900 43.51500 46.51200
H  -14.10300 40.89800 42.77800
H  -14.26300 42.70000 42.84100
H  -15.34900 41.64300 45.26200
H  -16.07100 40.79700 44.00300
H  -16.06100 42.64900 44.00100
H  -12.90300 36.45100 43.36900
H  -12.48100 36.88200 45.10900
H  -11.68900 35.58600 44.40900
H  -7.72200 35.81500 40.82000
H  -4.63900 33.32900 42.52600
H  -4.37900 34.67600 43.60600
H  -3.69300 34.72200 42.00400

