158

Mg 24.84800 0.79200 30.09200
C  27.02700 1.19900 32.72900
C  22.29000 1.08900 32.11100
C  22.91400 0.61600 27.34500
C  27.59400 0.16300 27.89200
N  24.71000 1.35900 32.18000
C  25.70200 1.49600 33.11500
C  25.15000 1.82800 34.51900
C  23.60700 1.64600 34.24200
C  23.48800 1.27600 32.75700
C  22.93400 0.68400 35.29000
C  25.63500 3.22400 35.02200
C  26.10100 3.18200 36.47300
H  25.55000 4.21100 37.42800
N  22.85900 0.80900 29.79700
C  21.95200 0.95300 30.76000
C  20.63000 0.85100 30.22800
C  20.82000 0.64400 28.86200
C  22.26000 0.70900 28.58100
C  19.34300 0.95100 30.99800
C  19.77500 0.24100 27.87000
O  19.98100 0.11800 26.66300
C  18.37000 -0.06900 28.28300
N  25.24500 0.30900 27.83800
C  24.22400 0.43500 26.95200
C  24.73600 0.27600 25.52700
C  26.27200 0.21000 25.67300
C  26.40900 0.28200 27.22800
C  24.10200 -0.83900 24.63400
C  26.99900 1.39500 24.91600
C  27.62500 0.98400 23.66500
N  26.89400 0.55600 30.23300
C  27.87300 0.27100 29.33600
C  29.14500 0.22700 30.05400
C  28.81900 0.65200 31.32400
C  27.48100 0.78200 31.43400
C  30.49900 0.03400 29.31100
C  29.42800 0.95700 32.58300
O  30.62000 0.84400 32.93100
C  28.31700 1.32300 33.55700
C  28.37900 0.41400 34.76700
O  27.92100 -0.69400 34.87800
O  29.07200 1.12200 35.79000
C  29.09000 0.52300 37.14100
H  21.50100 1.27200 32.84200
H  22.26400 0.71500 26.47300
H  28.44400 0.33600 27.23000
H  25.48300 1.01600 35.16600
H  23.12900 2.61700 34.37700
H  22.88200 -0.29900 34.82100
H  21.94100 1.10900 35.43500
H  23.45300 0.62700 36.24700
H  24.86700 3.99800 35.00600
H  26.51400 3.48100 34.43000
H  27.18900 3.20000 36.53400
H  25.94500 2.19800 36.91600
H  18.76700 0.04200 31.17300
H  18.77600 1.74600 30.51300
H  19.56200 1.38200 31.97500
H  17.78600 -0.32300 27.39800
H  17.75900 0.76200 28.63400
H  18.41900 -0.94500 28.93000
H  24.36200 1.19500 25.07600
H  26.72700 -0.76700 25.51400
H  23.27400 -1.31300 25.16000
H  24.67400 -1.62700 24.14300
H  23.61900 -0.32600 23.80300
H  27.71000 1.79100 25.64100
H  26.25900 2.18000 24.76400
H  27.24800 0.02200 23.31700
H  28.71100 0.98400 23.76300
H  27.47900 1.73100 22.88500
H  30.40100 0.24800 28.24700
H  30.76700 -1.02000 29.38000
H  31.24500 0.68300 29.77100
H  28.40000 2.33300 33.95800
H  28.10400 0.54100 37.60700
H  29.80500 1.04200 37.77900
H  29.56000 -0.44300 36.95600
Mg 48.95500 35.48000 27.25200
C  47.09700 33.97000 29.73600
C  49.38200 38.25700 29.39100
C  50.34800 37.20600 24.72200
C  47.94400 33.04300 24.86700
N  48.27400 36.09000 29.27700
C  47.69800 35.17100 30.14200
C  47.84200 35.59800 31.62300
C  48.22900 37.13700 31.44100
C  48.68900 37.24800 29.96900
C  46.96600 38.02800 31.68000
C  49.01600 34.90400 32.37600
C  48.91300 34.89500 33.93000
H  48.03900 36.03000 34.47900
N  49.85000 37.39400 27.10600
C  49.90500 38.37900 28.10700
C  50.73400 39.48900 27.66000
C  51.15700 39.18600 26.30300
C  50.47000 37.86200 26.00800
C  50.98400 40.75600 28.43500
C  52.12500 39.95800 25.38600
O  52.46300 39.50400 24.29100
C  52.67600 41.32400 25.73600
N  49.08200 35.19700 25.08500
C  49.74900 36.05300 24.24200
C  49.67000 35.69900 22.80500
C  49.14700 34.23800 22.92100
C  48.59800 34.13100 24.36900
C  48.85300 36.59400 21.93600
C  50.24100 33.21900 22.52700
C  50.08200 32.25200 21.40100
N  47.83900 33.83400 27.25100
C  47.59900 32.85500 26.21500
C  46.75100 31.83300 26.80400
C  46.50300 32.23800 28.18300
C  47.19600 33.49400 28.37100
C  46.36100 30.50700 26.13700
C  45.84100 31.86800 29.40100
O  45.20100 30.82300 29.62900
C  45.97100 33.11900 30.31700
C  46.16000 32.71400 31.74800
O  47.22400 32.30200 32.24500
O  45.01000 32.93000 32.46200
C  45.09200 33.01800 33.96200
H  49.60800 39.07000 30.08500
H  50.73800 37.67600 23.81700
H  47.68100 32.30400 24.10700
H  46.86600 35.54800 32.10400
H  49.06600 37.46800 32.05600
H  46.77200 38.43900 32.67100
H  46.12900 37.44800 31.29000
H  47.01400 38.86600 30.98500
H  49.98000 35.39100 32.22300
H  49.12100 33.89500 31.97800
H  49.94700 34.97100 34.26700
H  48.54100 33.92900 34.26900
H  51.07900 41.63300 27.79500
H  51.88500 40.87500 29.03600
H  50.11100 40.91900 29.06800
H  51.88000 42.01600 25.46100
H  53.60400 41.53700 25.20500
H  52.88500 41.32500 26.80600
H  50.65900 35.79200 22.35800
H  48.26300 34.08200 22.30200
H  48.03300 36.10000 21.41300
H  49.53300 36.91800 21.14800
H  48.38400 37.43500 22.44500
H  50.45500 32.67400 23.44600
H  51.11800 33.77900 22.20300
H  50.85800 32.26100 20.63600
H  49.14000 32.43500 20.88400
H  50.02500 31.25100 21.82900
H  45.35600 30.53900 25.71600
H  46.48900 29.65400 26.80400
H  47.01000 30.30500 25.28400
H  45.09500 33.75500 30.19300
H  46.04400 33.45700 34.25900
H  45.14700 32.02200 34.40000
H  44.20900 33.48200 34.40300

