158

Mg 2.70100 -3.13000 45.13200
C  5.61000 -1.42200 44.55300
C  0.95700 -0.82700 43.12900
C  -0.12800 -5.12800 45.19700
C  4.45200 -5.71100 46.57800
N  3.24200 -1.34500 44.09300
C  4.49500 -0.88500 43.91700
C  4.58700 0.30400 42.85600
C  3.03200 0.65800 42.72100
C  2.34800 -0.61100 43.30400
C  2.57400 1.91900 43.53900
C  5.22500 -0.23100 41.55200
C  6.10100 0.85700 40.91500
H  5.49700 1.55600 39.63600
N  0.71600 -2.93500 44.27500
C  0.18200 -1.87600 43.58900
C  -1.22200 -2.10400 43.31600
C  -1.55200 -3.30000 43.96600
C  -0.26400 -3.85700 44.47900
C  -2.11100 -1.10700 42.52300
C  -3.01700 -3.75900 44.21000
O  -3.96900 -3.18100 43.70900
C  -3.39400 -5.00200 44.99600
N  2.25200 -5.30900 45.51800
C  0.99900 -5.77100 45.66700
C  0.90500 -7.10400 46.49000
C  2.44800 -7.40600 46.67100
C  3.10600 -6.09600 46.17600
C  -0.04300 -7.13300 47.74700
C  3.01600 -8.60900 45.90200
C  4.15600 -9.43100 46.54000
N  4.60500 -3.56900 45.52400
C  5.23200 -4.61500 46.15400
C  6.67000 -4.29600 46.41500
C  6.84100 -3.04900 45.76700
C  5.57300 -2.61500 45.27900
C  7.72300 -5.17300 47.02300
C  7.78500 -2.08600 45.41800
O  8.97500 -2.05700 45.63900
C  7.06200 -1.04400 44.48300
C  7.24300 0.18600 45.13500
O  6.62600 0.63000 46.10100
O  8.19900 0.77800 44.31700
C  8.58300 2.12900 44.59000
H  0.69600 -0.06600 42.39100
H  -1.01300 -5.74400 45.37100
H  4.97600 -6.53100 47.07300
H  5.03100 1.20600 43.27600
H  2.62900 0.93000 41.74500
H  2.14500 1.65900 44.50700
H  1.81300 2.35600 42.89200
H  3.40000 2.60800 43.71300
H  4.44800 -0.37000 40.80100
H  5.76400 -1.13000 41.85300
H  7.07500 0.40500 40.72500
H  6.25500 1.66200 41.63400
H  -1.59400 -0.30000 42.00300
H  -2.81200 -0.65800 43.22700
H  -2.65900 -1.66300 41.76300
H  -2.89900 -5.90100 44.62700
H  -4.44700 -5.27100 44.91200
H  -3.07000 -4.83400 46.02300
H  0.45200 -7.82200 45.80600
H  2.61700 -7.43300 47.74800
H  -0.92700 -7.73600 47.54100
H  -0.33900 -6.14800 48.11000
H  0.49200 -7.65300 48.54100
H  3.32800 -8.33600 44.89400
H  2.21100 -9.33600 45.80200
H  4.51200 -9.07300 47.50600
H  5.06200 -9.51700 45.93900
H  3.72600 -10.40700 46.76300
H  8.35900 -4.73200 47.79100
H  8.40100 -5.55200 46.25800
H  7.21600 -6.07100 47.37600
H  7.47600 -1.00200 43.47500
H  7.77900 2.86200 44.65300
H  9.37300 2.48800 43.93000
H  9.03700 2.21000 45.57700
Mg 16.37200 -2.45900 27.99800
C  15.35600 -0.45000 30.66700
C  18.53200 -4.17700 30.22400
C  17.94900 -3.99300 25.39900
C  14.68200 -0.37100 25.82600
N  16.90400 -2.33500 30.15900
C  16.30100 -1.42000 31.00800
C  16.81300 -1.69700 32.42300
C  18.00400 -2.79900 32.28700
C  17.80700 -3.17600 30.80800
C  19.36500 -2.13900 32.58600
C  15.68000 -2.07700 33.38400
C  15.57300 -1.34900 34.74400
H  16.88500 -0.67200 35.18800
N  18.07800 -3.85100 27.87200
C  18.71200 -4.51100 28.88100
C  19.50000 -5.58900 28.39200
C  19.40300 -5.48100 26.93300
C  18.43100 -4.37400 26.64200
C  20.11100 -6.65500 29.28900
C  20.13600 -6.26600 25.90600
O  20.01900 -6.10700 24.69900
C  21.16900 -7.37800 26.35300
N  16.30100 -2.30100 25.98100
C  16.98600 -3.00600 25.02900
C  16.68100 -2.62100 23.62900
C  15.53800 -1.52700 23.80500
C  15.48800 -1.39400 25.31100
C  17.81100 -2.26000 22.67100
C  14.19400 -1.99700 23.13600
C  13.13000 -0.93800 22.97100
N  15.09400 -0.83500 28.16000
C  14.41900 -0.10800 27.20300
C  13.55300 0.92200 27.86000
C  13.87300 0.81300 29.20100
C  14.83100 -0.19400 29.34100
C  12.77900 1.97200 27.09200
C  13.59400 1.37000 30.54300
O  12.87900 2.32200 30.88400
C  14.50500 0.51100 31.52300
C  15.39500 1.53200 32.17800
O  16.29200 2.17800 31.59400
O  14.81100 1.80000 33.34600
C  15.01800 3.16300 33.75400
H  19.15500 -4.62000 31.00400
H  18.30700 -4.61800 24.57900
H  14.19100 0.38100 25.20600
H  17.31700 -0.77000 32.69700
H  17.90000 -3.66100 32.94600
H  19.90400 -1.91400 31.66500
H  20.00300 -2.92700 32.98500
H  19.25000 -1.30500 33.27800
H  15.79100 -3.15600 33.49100
H  14.68600 -1.87800 32.98300
H  15.18200 -2.04700 35.48400
H  14.80200 -0.57800 34.76700
H  21.17700 -6.48400 29.13900
H  19.73100 -7.62000 28.95400
H  19.88400 -6.43300 30.33200
H  20.71200 -7.99900 27.12300
H  22.09700 -6.94200 26.72500
H  21.47100 -8.01200 25.52000
H  16.17000 -3.46500 23.16600
H  15.95100 -0.55700 23.53000
H  18.65700 -1.94000 23.27900
H  17.56200 -1.40300 22.04600
H  18.13000 -3.08800 22.03800
H  13.84700 -2.73600 23.85900
H  14.28500 -2.47800 22.16200
H  13.70500 -0.03200 22.78100
H  12.44500 -0.88700 23.81700
H  12.51600 -1.34300 22.16700
H  13.18500 2.18600 26.10300
H  12.68000 2.88400 27.68200
H  11.74800 1.64900 26.94800
H  13.98500 0.04600 32.36100
H  14.42600 3.87000 33.17200
H  16.04500 3.52900 33.73700
H  14.64300 3.11300 34.77600

