158

Mg 16.03100 52.29900 24.84400
C  17.40000 51.45200 27.97600
C  13.09300 53.35300 26.52900
C  14.49400 52.87300 21.85800
C  18.70700 50.70700 23.23700
N  15.39800 52.49700 27.01100
C  16.12500 52.08300 28.09800
C  15.47300 52.35000 29.42200
C  14.06700 52.77400 28.92100
C  14.13800 52.92300 27.40200
C  12.89800 51.91100 29.34900
C  16.19500 53.33400 30.37700
C  16.43100 52.98100 31.85200
H  15.29700 52.10000 32.48200
N  14.10400 53.10700 24.29000
C  13.09800 53.47000 25.12500
C  12.00900 53.91700 24.34100
C  12.39700 53.82800 22.96300
C  13.69400 53.26100 22.98600
C  10.72300 54.35600 24.97500
C  11.74400 54.33600 21.67600
O  12.34900 54.29400 20.56900
C  10.39400 54.97400 21.76500
N  16.49700 51.71000 22.81300
C  15.73100 52.13300 21.72700
C  16.42100 51.74800 20.48400
C  17.94100 51.64200 20.92600
C  17.72600 51.32100 22.41800
C  15.84900 50.38500 19.93300
C  18.89900 52.94300 20.81000
C  19.31700 53.42500 19.43300
N  17.79700 51.41100 25.38800
C  18.75200 50.81600 24.65400
C  19.72100 50.23700 25.49500
C  19.24800 50.50700 26.81400
C  18.00700 51.11000 26.71500
C  21.03100 49.57800 25.06700
C  19.61900 50.31100 28.17700
O  20.57500 49.76700 28.71200
C  18.37000 50.91500 29.04500
C  17.74600 49.86300 29.90000
O  16.93000 49.05100 29.45600
O  18.29900 49.82700 31.20300
C  17.76700 48.78500 32.09900
H  12.31000 53.89700 27.06100
H  14.14500 53.00400 20.83100
H  19.65200 50.48700 22.73600
H  15.54800 51.39200 29.93600
H  13.86000 53.73900 29.38400
H  13.17200 51.10000 30.02300
H  12.36700 51.47800 28.50100
H  12.19100 52.59200 29.82300
H  15.80100 54.34800 30.44500
H  17.18000 53.41700 29.91900
H  16.63200 53.86100 32.46300
H  17.28300 52.30700 31.94300
H  10.06400 53.78800 24.31900
H  10.56400 55.42000 24.79700
H  10.52500 54.09500 26.01500
H  9.96400 55.00200 20.76400
H  10.37600 55.93300 22.28300
H  9.82400 54.21100 22.29500
H  16.35400 52.61600 19.82800
H  18.50200 50.91700 20.33500
H  14.91000 50.19800 20.45400
H  16.57400 49.57400 19.87300
H  15.64500 50.71500 18.91400
H  19.79800 52.81200 21.41300
H  18.46100 53.79000 21.33800
H  19.05000 54.45100 19.18100
H  18.91600 52.66900 18.75800
H  20.40700 53.44300 19.41900
H  20.81000 48.77600 24.36200
H  21.51300 49.14100 25.94200
H  21.71400 50.26800 24.57000
H  18.88400 51.63200 29.68600
H  17.06900 49.18100 32.83600
H  18.67500 48.40200 32.56500
H  17.43300 47.93300 31.50600
Mg 8.48200 47.95800 27.88500
C  6.91900 46.92100 30.82200
C  11.33300 48.28600 29.56200
C  9.88200 49.02700 24.94000
C  5.39300 47.86300 26.24100
N  8.92500 47.82100 29.99000
C  8.15300 47.30900 31.03300
C  8.89700 47.35700 32.33100
C  10.28700 48.08800 31.84200
C  10.20700 48.00600 30.35200
C  10.53500 49.53600 32.28800
C  9.17100 46.04800 33.07100
C  9.07700 46.16500 34.60500
H  9.89000 45.23300 35.50400
N  10.38200 48.35600 27.35800
C  11.43400 48.44000 28.17800
C  12.62300 48.77100 27.40300
C  12.25300 48.99500 26.07300
C  10.74600 48.79100 26.04000
C  13.95600 48.85500 27.99200
C  13.08200 49.37800 24.89300
O  12.62300 49.54400 23.76400
C  14.64900 49.44800 25.06400
N  7.71800 48.45400 25.90200
C  8.52200 48.91100 24.88900
C  7.68400 49.23300 23.62500
C  6.31500 48.55400 23.97600
C  6.48100 48.22100 25.43700
C  7.71300 50.76900 23.19600
C  5.94400 47.30200 23.11700
C  6.98400 46.19700 22.91400
N  6.51600 47.60500 28.39200
C  5.38500 47.51600 27.62500
C  4.22500 47.10400 28.43200
C  4.73900 46.86500 29.68200
C  6.16000 47.11500 29.60100
C  2.86900 46.93700 27.94100
C  4.39200 46.49000 31.00000
O  3.35200 46.32300 31.52600
C  5.76400 46.54200 31.80400
C  5.87400 45.17200 32.36900
O  6.25700 44.12500 31.83700
O  5.55600 45.27700 33.71100
C  5.79100 44.04800 34.57000
H  12.17300 48.37600 30.25300
H  10.28400 49.29200 23.96100
H  4.42400 47.57800 25.82700
H  8.29100 47.98900 32.98000
H  11.13700 47.54600 32.25600
H  10.43700 50.24000 31.46100
H  11.57600 49.64600 32.59000
H  9.87000 49.91000 33.06700
H  10.11100 45.54900 32.83900
H  8.43800 45.27000 32.85900
H  8.03100 46.06900 34.89800
H  9.38700 47.18900 34.81300
H  14.42000 47.99500 27.50800
H  13.94200 48.66700 29.06500
H  14.35500 49.83000 27.71300
H  14.87400 50.21500 25.80600
H  15.06000 49.72700 24.09400
H  15.08300 48.47200 25.28300
H  8.14000 48.62900 22.84000
H  5.52800 49.29600 23.84000
H  8.31600 50.77400 22.28800
H  8.28900 51.35500 23.91200
H  6.78900 51.29100 22.94600
H  5.56500 47.59600 22.13800
H  5.07800 46.86300 23.61200
H  7.25800 46.22400 21.86000
H  6.47200 45.23800 22.99600
H  7.76500 46.29600 23.66800
H  2.24300 46.47300 28.70300
H  2.83100 46.25100 27.09600
H  2.36200 47.85900 27.65800
H  5.66000 47.35600 32.52200
H  5.25100 43.14400 34.28800
H  5.45700 44.17500 35.60000
H  6.82600 43.72800 34.68900

