158

Mg 2.59300 -0.98300 44.19300
C  5.98800 -0.17000 43.40500
C  1.55800 1.60400 42.36200
C  -0.55000 -2.20500 44.41500
C  3.77000 -4.16400 45.17000
N  3.67600 0.47900 42.94700
C  5.04100 0.67400 42.83200
C  5.30700 2.00000 42.08000
C  3.84900 2.61700 41.88200
C  2.95200 1.48600 42.37900
C  3.54700 4.06100 42.38400
C  6.25200 1.77500 40.88200
C  7.10400 2.95400 40.45700
H  6.71300 3.63200 39.09500
N  0.76400 -0.28300 43.59400
C  0.53700 0.79600 42.84700
C  -0.86300 0.96400 42.59200
C  -1.51100 -0.05900 43.25200
C  -0.37900 -0.94400 43.79700
C  -1.44300 2.16200 41.80600
C  -3.04900 -0.23700 43.32700
O  -3.85500 0.54800 42.84800
C  -3.59800 -1.36300 44.11500
N  1.73800 -2.90300 44.75600
C  0.42100 -3.14800 44.82500
C  0.16100 -4.60100 45.15100
C  1.56000 -5.22200 45.27700
C  2.42900 -4.01700 45.09200
C  -0.81800 -4.81500 46.28500
C  1.76200 -6.41500 44.27500
C  1.43200 -7.82400 44.76000
N  4.41900 -1.91700 44.41100
C  4.74600 -3.19600 44.89500
C  6.14400 -3.42700 44.90400
C  6.71700 -2.16300 44.45900
C  5.60700 -1.34200 44.11400
C  6.79200 -4.75000 45.32000
C  8.00100 -1.47300 44.20500
O  9.15300 -1.87500 44.42200
C  7.53300 -0.15100 43.45900
C  8.05900 1.02600 44.34200
O  7.46300 1.40900 45.36400
O  9.14500 1.64500 43.76000
C  9.71600 2.74400 44.59600
H  1.35200 2.54400 41.84700
H  -1.51900 -2.65700 44.63700
H  4.15400 -5.18400 45.23300
H  5.90700 2.60900 42.75700
H  3.73100 2.59900 40.79800
H  3.26000 4.65600 41.51600
H  4.46800 4.42100 42.84200
H  2.67300 4.22300 43.01500
H  5.62300 1.56400 40.01700
H  7.04100 1.03700 41.02600
H  8.14500 2.67100 40.30400
H  7.21400 3.70800 41.23600
H  -1.86300 1.76000 40.88400
H  -0.77900 2.99300 41.56600
H  -2.18100 2.66900 42.42700
H  -4.68400 -1.31000 44.04800
H  -3.24100 -1.23200 45.13700
H  -3.24500 -2.30500 43.69500
H  -0.28500 -4.94000 44.21500
H  1.67100 -5.49000 46.32800
H  -1.41500 -3.90600 46.34800
H  -0.31300 -4.95400 47.24100
H  -1.39000 -5.69900 46.00100
H  2.75000 -6.36400 43.81900
H  1.22100 -6.23500 43.34600
H  0.57700 -8.23100 44.22000
H  1.16700 -7.92600 45.81200
H  2.23600 -8.54500 44.60900
H  6.53800 -5.10000 46.32100
H  7.86700 -4.66200 45.16900
H  6.55200 -5.54600 44.61500
H  8.07200 -0.14700 42.51100
H  10.77000 2.88200 44.35500
H  9.67200 2.47800 45.65200
H  9.12800 3.65000 44.45600
Mg 40.29400 9.58800 28.43600
C  41.82600 10.41100 31.41300
C  37.89800 7.81500 30.31700
C  38.92300 8.47500 25.58000
C  42.95900 10.74300 26.67500
N  39.86800 9.30800 30.61800
C  40.62500 9.78100 31.64700
C  39.89100 9.51900 32.99000
C  38.71300 8.47700 32.59300
C  38.84000 8.50100 31.11200
C  38.94000 7.01600 33.17600
C  39.40000 10.84900 33.68500
C  39.66900 10.87200 35.28800
H  40.05000 12.17800 35.83300
N  38.59600 8.38000 27.96100
C  37.78900 7.73800 28.86200
C  36.73300 7.02200 28.16400
C  36.97900 7.27600 26.79500
C  38.19100 8.04700 26.69200
C  35.59300 6.24100 28.81600
C  36.19200 6.78500 25.58400
O  36.49300 7.11800 24.45300
C  34.82500 6.20900 25.76800
N  40.90300 9.59300 26.43200
C  40.11500 9.07100 25.45900
C  40.84800 9.31900 24.05400
C  42.00800 10.41100 24.43400
C  41.94100 10.24600 25.93300
C  41.48600 8.04000 23.39500
C  41.75000 11.92900 23.97300
C  40.65800 12.71100 24.73800
N  42.11500 10.26900 28.92600
C  43.05400 10.79700 28.10700
C  44.12200 11.31700 28.96500
C  43.60500 11.19300 30.22500
C  42.43300 10.60900 30.16300
C  45.36000 11.90500 28.43600
C  43.89900 11.55800 31.58900
O  44.82400 12.15000 32.15500
C  42.73700 11.06900 32.42400
C  43.13300 10.04800 33.45200
O  43.81100 9.04300 33.22800
O  42.80900 10.47600 34.73400
C  43.11000 9.37600 35.67600
H  37.20600 7.31000 30.99500
H  38.60800 8.11500 24.59900
H  43.80100 11.25100 26.20000
H  40.61800 9.00800 33.62100
H  37.71200 8.79000 32.89000
H  37.95300 6.76600 33.56600
H  39.62300 6.94700 34.02300
H  39.24900 6.28700 32.42700
H  38.33400 10.90800 33.46600
H  39.86000 11.69500 33.17300
H  40.42200 10.15700 35.62100
H  38.69200 10.62800 35.70600
H  35.60200 5.18500 28.54700
H  34.59000 6.61400 28.60800
H  35.64200 6.21000 29.90500
H  34.44800 6.06600 24.75500
H  34.20700 6.92900 26.30400
H  34.69000 5.35000 26.42400
H  40.18100 9.71800 23.29000
H  43.00300 10.10400 24.11000
H  41.17800 7.13000 23.91000
H  42.57600 8.03700 23.41000
H  41.26100 8.02000 22.32900
H  41.45200 11.76300 22.93800
H  42.68900 12.47600 24.06500
H  40.49300 12.27900 25.72500
H  39.69200 12.75500 24.23400
H  41.05900 13.69000 24.99900
H  45.30800 12.27900 27.41400
H  46.12100 11.13000 28.52500
H  45.59000 12.71200 29.13200
H  42.15900 11.87300 32.87800
H  44.15800 9.07700 35.67500
H  42.52100 8.48200 35.47300
H  42.91600 9.66600 36.70900

