158

Mg 24.11900 -6.25900 45.27000
C  26.31600 -3.86400 43.93300
C  21.55900 -4.91100 43.49300
C  22.34600 -9.00600 46.04100
C  27.09300 -7.72600 46.71400
N  24.03300 -4.70100 43.88400
C  24.99700 -3.75100 43.44400
C  24.38800 -2.68700 42.51400
C  22.90600 -3.00500 42.62400
C  22.81000 -4.26100 43.39600
C  22.08600 -1.85700 43.35400
C  25.07700 -2.77000 41.06900
C  25.61400 -1.48800 40.30100
H  25.05500 -1.39700 38.86600
N  22.13300 -6.80900 44.98000
C  21.25900 -6.15900 44.17000
C  20.11500 -6.94400 43.99400
C  20.20900 -8.11200 44.79000
C  21.59000 -7.98400 45.29700
C  18.92400 -6.59500 43.21500
C  19.14800 -9.18300 45.05500
O  17.99300 -8.86400 44.67700
C  19.37300 -10.41100 45.77400
N  24.66200 -8.08100 46.06200
C  23.70200 -9.08700 46.25400
C  24.33600 -10.37400 46.78500
C  25.77100 -9.89800 47.17300
C  25.87600 -8.43600 46.63800
C  23.54500 -11.03200 47.89900
C  26.99900 -10.86700 46.82700
C  28.04500 -11.07600 47.88800
N  26.30700 -5.83300 45.38200
C  27.33000 -6.54000 45.97500
C  28.60600 -5.82900 45.84800
C  28.26900 -4.76900 45.03000
C  26.85600 -4.83100 44.80800
C  29.99500 -6.17000 46.30700
C  28.74000 -3.66800 44.17600
O  29.88900 -3.29600 43.98500
C  27.50800 -3.06700 43.47000
C  27.49700 -1.60000 43.86700
O  27.01300 -1.14800 44.93200
O  28.30100 -0.88500 43.00600
C  28.81300 0.38100 43.50000
H  20.76800 -4.25900 43.11700
H  21.79300 -9.94600 46.09600
H  28.00200 -8.19300 47.10000
H  24.63900 -1.76000 43.02800
H  22.40300 -2.97200 41.65800
H  22.50300 -1.80700 44.36000
H  21.05900 -2.21100 43.44200
H  22.11600 -0.87400 42.88500
H  24.34100 -3.27900 40.44800
H  25.98200 -3.36900 41.17600
H  26.69800 -1.57700 40.23200
H  25.27100 -0.66300 40.92600
H  18.72600 -7.32300 42.42800
H  18.95900 -5.56200 42.86900
H  18.02700 -6.60100 43.83400
H  18.51700 -11.02700 45.49800
H  19.30100 -10.17300 46.83500
H  20.25500 -10.99100 45.50500
H  24.37400 -10.97800 45.87800
H  25.76000 -9.65400 48.23500
H  24.23500 -11.19700 48.72700
H  23.12600 -11.99000 47.59000
H  22.70500 -10.45600 48.28600
H  27.38300 -10.67300 45.82500
H  26.48900 -11.83000 46.79100
H  27.86600 -12.03900 48.36600
H  27.85300 -10.37400 48.70000
H  29.04000 -10.97600 47.45400
H  30.04100 -5.96100 47.37600
H  30.80100 -5.66200 45.77800
H  30.15400 -7.24400 46.20300
H  27.72300 -3.21000 42.41100
H  28.81300 0.52400 44.58000
H  28.07200 1.13300 43.22800
H  29.77300 0.64300 43.05600
Mg 35.89100 47.97600 26.60400
C  36.07600 46.00900 29.49200
C  34.81400 50.54600 28.58200
C  36.11800 49.86000 23.89400
C  36.46300 45.05500 24.72000
N  35.58400 48.27700 28.84700
C  35.75100 47.32200 29.78000
C  35.58300 47.94600 31.15400
C  34.64800 49.20100 30.83400
C  34.95500 49.34000 29.32600
C  33.10700 49.04400 31.07600
C  36.95300 48.53400 31.74800
C  37.14700 48.38900 33.26700
H  36.72600 49.47900 34.21900
N  35.43500 49.91100 26.22400
C  34.98600 50.89900 27.20600
C  34.90700 52.17700 26.60400
C  35.23600 51.98800 25.25700
C  35.62400 50.57700 25.07200
C  34.39200 53.45900 27.40400
C  35.29700 53.05400 24.05800
O  35.38500 52.74200 22.87700
C  35.08700 54.53300 24.27400
N  36.07700 47.42600 24.49100
C  36.25100 48.47900 23.60700
C  36.65200 47.88500 22.16800
C  36.57000 46.31200 22.41000
C  36.39400 46.20100 23.93100
C  35.76900 48.29500 20.96200
C  37.73300 45.45600 21.90200
C  37.55700 44.80200 20.56000
N  36.14300 45.92800 26.94200
C  36.39400 44.85500 26.04900
C  36.58400 43.60500 26.84300
C  36.57400 44.07300 28.16700
C  36.21100 45.43400 28.18100
C  36.73900 42.17300 26.28000
C  36.72300 43.63500 29.53800
O  37.07400 42.56100 29.94700
C  36.45900 44.91700 30.48400
C  35.37600 44.58700 31.40800
O  34.24400 44.19500 31.13800
O  35.84400 44.80000 32.68400
C  34.85300 44.58800 33.75600
H  34.48400 51.39100 29.19000
H  36.24300 50.54000 23.04800
H  36.65400 44.10300 24.21900
H  35.07700 47.27200 31.84600
H  34.94900 50.08900 31.38900
H  33.04400 48.15800 31.70800
H  32.58400 49.05100 30.12000
H  32.71200 49.88100 31.65300
H  37.04100 49.58000 31.45300
H  37.74800 47.94700 31.28900
H  38.21200 48.27800 33.47300
H  36.69300 47.44200 33.55900
H  34.75600 54.40400 27.00100
H  34.69200 53.31700 28.44200
H  33.30300 53.41400 27.41900
H  34.27000 54.67500 24.98300
H  34.68400 55.06300 23.41100
H  35.93000 55.08100 24.69600
H  37.67000 48.17600 21.91100
H  35.69900 45.88700 21.91100
H  34.96500 48.97200 21.25000
H  35.40400 47.49600 20.31600
H  36.35000 48.92900 20.29200
H  37.89700 44.69200 22.66300
H  38.66800 46.01000 21.81600
H  38.43600 44.99200 19.94300
H  36.67000 45.04200 19.97400
H  37.52300 43.72200 20.70400
H  36.35300 41.42500 26.97300
H  37.77300 41.99800 25.98400
H  36.18300 41.99500 25.36000
H  37.38600 45.15300 31.00700
H  35.33800 44.87100 34.69000
H  34.60200 43.54500 33.94600
H  33.95600 45.13100 33.46100

