158

Mg -10.52600 16.90300 41.18400
C  -7.07200 16.71300 41.09700
C  -10.29700 20.31400 40.64200
C  -13.92900 16.96900 40.78500
C  -10.55400 13.31600 41.21100
N  -8.85100 18.27800 40.87100
C  -7.50900 17.97800 40.94800
C  -6.69700 19.33000 40.70400
C  -7.77600 20.46600 41.02400
C  -9.06700 19.67500 40.77700
C  -7.56900 21.21900 42.38800
C  -6.15500 19.38300 39.22700
C  -4.66200 19.20000 39.05900
H  -4.14600 18.49700 37.78500
N  -11.96300 18.51400 40.74600
C  -11.68900 19.82600 40.61000
C  -12.90300 20.56000 40.40000
C  -13.97000 19.64500 40.41500
C  -13.31900 18.27100 40.59300
C  -12.93700 22.05900 40.16900
C  -15.40400 19.98600 40.29300
O  -15.89000 21.11900 40.11100
C  -16.45100 18.88900 40.33200
N  -12.07400 15.34100 40.79900
C  -13.41900 15.68200 40.89400
C  -14.26200 14.40900 41.13900
C  -13.15500 13.27000 41.24600
C  -11.83500 14.00300 41.17700
C  -15.31200 14.34600 42.27800
C  -13.29100 12.04500 40.36700
C  -12.57200 12.04700 39.02500
N  -9.09400 15.20900 41.07600
C  -9.24700 13.81800 41.22300
C  -7.90100 13.22800 41.51000
C  -7.03700 14.30200 41.35100
C  -7.80100 15.49800 41.13300
C  -7.48100 11.86600 41.87100
C  -5.64600 14.68700 41.49400
O  -4.67100 14.00100 41.81100
C  -5.64300 16.27400 41.23500
C  -4.99600 17.09300 42.39500
O  -3.87500 17.56600 42.22800
O  -5.71800 17.01700 43.63600
C  -5.17200 17.83500 44.67800
H  -10.13000 21.38800 40.53800
H  -15.02000 16.98200 40.81700
H  -10.50000 12.25500 41.46300
H  -5.90400 19.43400 41.44500
H  -7.68200 21.26300 40.28700
H  -7.07400 22.18700 42.30800
H  -7.09300 20.52400 43.07900
H  -8.55200 21.39400 42.82600
H  -6.39500 20.38500 38.87200
H  -6.59100 18.58800 38.62200
H  -4.30100 18.58900 39.88700
H  -4.12800 20.13000 39.25700
H  -13.10400 22.28200 39.11500
H  -11.96500 22.44000 40.48200
H  -13.70000 22.49900 40.81100
H  -16.27000 18.28200 39.44500
H  -17.41700 19.37500 40.19700
H  -16.54400 18.37200 41.28700
H  -14.86500 14.39800 40.23200
H  -13.16100 12.85300 42.25300
H  -16.23100 13.85600 41.95800
H  -15.65600 15.33400 42.58200
H  -14.92500 13.87100 43.18000
H  -14.37000 12.05000 40.20800
H  -13.00700 11.13700 40.89900
H  -13.17500 11.42300 38.36400
H  -11.59000 11.57700 39.06500
H  -12.46500 13.02100 38.54800
H  -6.40100 11.83500 41.72600
H  -7.94800 11.26000 41.09500
H  -7.88100 11.72100 42.87400
H  -5.20200 16.44400 40.25300
H  -5.82400 18.70500 44.74800
H  -4.14100 18.16400 44.54100
H  -5.35800 17.29100 45.60300
Mg -5.34600 25.82200 25.47800
C  -4.43300 27.14000 28.54400
C  -7.14500 23.34900 27.16000
C  -6.09000 24.34600 22.55300
C  -3.16700 28.11900 23.84000
N  -5.70000 25.33300 27.61300
C  -5.41800 26.14700 28.75300
C  -5.92900 25.56000 30.06800
C  -6.73100 24.35400 29.53400
C  -6.52700 24.35500 27.99700
C  -6.19700 22.97400 29.99100
C  -6.78200 26.50500 30.96900
C  -6.76400 26.42200 32.52700
H  -6.39800 25.17300 33.35400
N  -6.48600 24.06300 24.95500
C  -7.15500 23.16700 25.78200
C  -7.87400 22.22100 24.98200
C  -7.45100 22.44200 23.65800
C  -6.64700 23.69000 23.64400
C  -8.70200 21.12600 25.59800
C  -7.66100 21.63400 22.32100
O  -6.98900 21.85100 21.31800
C  -8.69300 20.49200 22.14000
N  -4.75100 26.24500 23.48300
C  -5.17400 25.44900 22.42300
C  -4.39800 25.82400 21.17000
C  -3.58100 27.11400 21.57000
C  -3.92200 27.26700 23.05300
C  -3.50600 24.61300 20.69700
C  -3.78000 28.45400 20.78100
C  -2.47900 28.89600 19.97800
N  -4.19000 27.41900 26.02900
C  -3.31000 28.22700 25.21800
C  -2.50800 29.02100 26.17700
C  -2.92700 28.65300 27.51900
C  -3.89700 27.66800 27.33300
C  -1.54400 30.05800 25.73400
C  -2.75500 28.96500 28.88400
O  -1.96800 29.75800 29.44200
C  -3.81600 27.99400 29.65500
C  -2.99700 27.19500 30.56400
O  -2.33500 26.20400 30.22100
O  -3.09000 27.60800 31.93000
C  -2.36500 26.85100 32.94000
H  -7.81600 22.70100 27.72800
H  -6.09700 23.95700 21.53300
H  -2.46800 28.76100 23.30000
H  -5.16400 25.32000 30.80700
H  -7.76900 24.37400 29.86700
H  -5.49700 23.23700 30.78400
H  -5.72200 22.35000 29.23400
H  -7.06500 22.55100 30.49800
H  -7.78600 26.47700 30.54600
H  -6.44800 27.51700 30.74000
H  -7.74100 26.81800 32.80600
H  -6.11000 27.25500 32.78300
H  -8.47900 20.12800 25.22000
H  -9.73100 21.37800 25.34100
H  -8.62800 21.16400 26.68500
H  -9.25200 20.18600 23.02400
H  -8.15700 19.64100 21.72100
H  -9.40300 20.76700 21.35900
H  -5.05500 26.14900 20.36300
H  -2.51700 26.87700 21.55700
H  -3.77700 24.48400 19.65000
H  -3.55000 23.69800 21.28800
H  -2.46700 24.88800 20.88100
H  -4.00100 29.27600 21.46200
H  -4.68100 28.31800 20.18300
H  -1.92000 29.78900 20.26000
H  -2.82400 28.98800 18.94900
H  -1.78300 28.07500 20.15200
H  -1.15200 29.88100 24.73300
H  -0.81000 30.27500 26.51100
H  -2.19400 30.91900 25.57600
H  -4.53200 28.49000 30.31000
H  -1.69600 26.09700 32.52700
H  -3.16100 26.55600 33.62300
H  -1.76000 27.53700 33.53300

