158

Mg 6.28800 54.28200 39.50000
C  5.83800 50.99300 39.47000
C  9.50600 53.91200 38.40400
C  6.31400 57.60200 38.67100
C  2.74700 54.86100 40.18500
N  7.51800 52.58400 38.73300
C  7.16500 51.29000 38.98900
C  8.31200 50.31700 38.63100
C  9.51100 51.35300 38.81000
C  8.84700 52.73200 38.68800
C  10.34400 51.37500 40.08700
C  8.17400 49.71400 37.22200
C  7.78200 50.59600 35.99000
H  6.30300 50.65900 35.38000
N  7.69400 55.57600 38.61000
C  8.95700 55.24800 38.26000
C  9.61000 56.37200 37.64000
C  8.63100 57.40400 37.65800
C  7.51600 56.90900 38.35900
C  11.05000 56.52100 37.29900
C  8.85500 58.76000 37.15000
O  9.94900 59.07400 36.70600
C  7.85000 59.95700 37.24600
N  4.60300 56.04500 39.41500
C  5.01600 57.28600 39.10100
C  3.98600 58.34700 39.41000
C  2.79100 57.40500 39.83500
C  3.35800 56.01100 39.80500
C  4.42200 59.33000 40.50200
C  1.44000 57.55300 39.06000
C  0.75700 58.91200 39.16000
N  4.66600 53.23600 39.94900
C  3.32100 53.55700 40.19300
C  2.62600 52.29800 40.48500
C  3.54800 51.27700 40.22400
C  4.76000 51.91800 39.82600
C  1.22900 52.05700 40.90400
C  3.69000 49.77700 40.24700
O  2.92100 48.85200 40.50500
C  5.20900 49.61700 39.74400
C  4.95400 48.75800 38.54300
O  4.52600 49.04400 37.43600
O  5.24000 47.53600 38.94300
C  4.60900 46.37100 38.21800
H  10.54700 53.66500 38.18100
H  6.39300 58.68800 38.59200
H  1.66900 54.86400 40.35900
H  8.36700 49.44900 39.28900
H  10.07500 51.08800 37.91600
H  11.38600 51.49900 39.79400
H  10.15600 50.47600 40.67400
H  10.08400 52.22900 40.71300
H  7.34800 49.00200 37.18500
H  9.12900 49.23800 37.00300
H  8.47700 50.34700 35.18800
H  7.95200 51.65400 36.18800
H  11.20100 56.77400 36.25000
H  11.63100 55.64000 37.57100
H  11.48500 57.39700 37.77900
H  6.92700 59.53000 36.85300
H  8.22400 60.60900 36.45700
H  7.74700 60.48300 38.19600
H  3.69600 58.93200 38.53800
H  2.49200 57.60200 40.86400
H  3.71500 60.09000 40.83400
H  5.31600 59.88800 40.22200
H  4.76600 58.81700 41.40100
H  0.81300 56.82700 39.57800
H  1.59200 57.30900 38.00900
H  1.35600 59.74300 39.53200
H  -0.07600 58.72200 39.83800
H  0.41500 59.24500 38.18000
H  0.70900 53.01400 40.88000
H  1.28200 51.51300 41.84700
H  0.82400 51.27300 40.26500
H  5.77700 49.13400 40.53900
H  5.20900 45.46200 38.27400
H  4.43800 46.42000 37.14300
H  3.63000 46.11000 38.62000
Mg -9.26200 18.21000 41.05900
C  -5.83400 17.64000 41.41100
C  -8.56300 21.46900 40.26800
C  -12.45900 18.56900 40.29800
C  -9.76900 14.72400 41.42800
N  -7.41300 19.24800 40.74200
C  -6.12400 18.89100 40.85900
C  -5.20100 19.98600 40.36000
C  -6.05200 21.27200 40.81400
C  -7.46300 20.64600 40.61000
C  -5.82800 21.74300 42.31000
C  -4.93100 19.85900 38.87800
C  -3.46900 19.42400 38.46000
H  -3.31600 17.96300 38.08900
N  -10.45800 19.85400 40.42500
C  -9.97100 21.08800 40.16000
C  -11.08900 21.93700 39.82400
C  -12.25900 21.18400 40.11200
C  -11.77300 19.82100 40.28200
C  -10.93900 23.32900 39.21400
C  -13.67800 21.73900 40.09900
O  -13.87200 22.91400 39.87000
C  -14.80400 20.83000 40.29400
N  -10.83600 16.86400 40.83000
C  -12.10300 17.28300 40.48900
C  -13.09000 16.15400 40.25100
C  -12.21500 14.92300 40.69600
C  -10.86000 15.53900 41.07900
C  -14.45900 16.36300 40.88700
C  -12.18600 13.83400 39.66900
C  -12.71100 12.45300 40.13200
N  -8.06600 16.50500 41.40900
C  -8.42100 15.15500 41.49900
C  -7.23300 14.35500 41.70700
C  -6.23500 15.33600 41.72700
C  -6.77100 16.60400 41.52200
C  -7.21100 12.92600 41.99700
C  -4.76100 15.48400 41.94600
O  -3.93000 14.67400 42.30800
C  -4.48700 17.02800 41.70600
C  -3.74400 17.61600 42.89800
O  -4.21200 18.56800 43.53000
O  -2.43000 17.32400 42.92700
C  -1.65400 18.06700 43.88500
H  -8.27000 22.50500 40.09100
H  -13.47900 18.83300 40.00800
H  -9.91600 13.65900 41.61800
H  -4.24100 20.11500 40.85900
H  -5.75200 22.10100 40.17400
H  -5.09300 21.22000 42.92200
H  -6.79400 21.78300 42.81500
H  -5.50300 22.77800 42.41000
H  -5.30900 20.79000 38.45700
H  -5.58800 19.05500 38.54600
H  -2.78500 19.72300 39.25500
H  -3.17000 20.10900 37.66700
H  -11.35700 23.39900 38.21000
H  -9.90700 23.65700 39.09300
H  -11.47600 23.95800 39.92500
H  -15.61900 21.49900 40.57100
H  -14.46600 20.27000 41.16500
H  -14.99400 20.26500 39.38100
H  -13.17400 16.02100 39.17200
H  -12.49400 14.48800 41.65600
H  -14.66000 15.51600 41.54200
H  -15.34400 16.40500 40.25200
H  -14.52200 17.24300 41.52900
H  -11.16000 13.64300 39.35600
H  -12.65400 14.07300 38.71400
H  -13.18300 12.47800 41.11400
H  -11.89000 11.74300 40.22200
H  -13.38500 12.08100 39.36000
H  -7.60700 12.30000 41.19700
H  -7.78800 12.71300 42.89700
H  -6.17700 12.61700 42.14800
H  -3.81500 17.05100 40.84800
H  -1.24000 18.85300 43.25400
H  -0.78200 17.62200 44.36400
H  -2.24000 18.50900 44.69000

