158

Mg 54.09400 24.68100 44.14900
C  51.26500 26.59100 43.25900
C  52.54000 21.96000 42.68000
C  57.10100 22.98400 44.15300
C  55.66700 27.57600 45.09700
N  52.22400 24.34200 42.99800
C  51.13300 25.25100 42.86600
C  49.89000 24.52300 42.40900
C  50.20400 23.03400 42.58200
C  51.75600 23.08500 42.74900
C  49.48900 22.25000 43.78800
C  49.44000 24.95700 40.95000
C  47.96900 25.09200 40.49300
H  47.64000 24.94100 38.98500
N  54.73300 22.68000 43.56400
C  53.88200 21.74500 43.14200
C  54.59100 20.48200 43.04700
C  55.94800 20.71700 43.47200
C  55.96400 22.14700 43.77900
C  53.97300 19.20500 42.51300
C  57.06100 19.69400 43.49700
O  56.77300 18.49000 43.31500
C  58.36700 20.04700 43.95800
N  56.21600 25.16400 44.39600
C  57.22900 24.33500 44.52200
C  58.50300 25.00900 45.10500
C  58.03800 26.51800 45.21900
C  56.51100 26.45100 44.89400
C  59.03600 24.34800 46.45500
C  58.65900 27.45700 44.14300
C  59.82300 28.34800 44.76100
N  53.63500 26.68400 44.24300
C  54.36900 27.72300 44.62000
C  53.52000 28.95300 44.69400
C  52.31400 28.52100 44.19200
C  52.43500 27.16400 43.88200
C  53.97000 30.33600 45.20500
C  50.96300 28.95000 43.90900
O  50.37100 30.02800 44.07600
C  50.20800 27.82700 43.13900
C  50.06400 28.49300 41.81400
O  50.99500 28.98900 41.17800
O  48.72900 28.35500 41.39200
C  48.58400 28.67000 40.00100
H  51.93100 21.07100 42.49800
H  58.06200 22.52100 44.38900
H  56.22800 28.46900 45.38200
H  49.21900 24.81300 43.21800
H  50.06400 22.49900 41.64200
H  48.78200 22.89100 44.31600
H  50.21900 21.81300 44.46900
H  48.95300 21.42400 43.32100
H  49.77900 24.22500 40.21500
H  50.00300 25.84400 40.66000
H  47.62500 26.09400 40.75000
H  47.43600 24.37300 41.11500
H  54.11700 18.47600 43.31100
H  54.52000 18.76900 41.67600
H  52.91800 19.25200 42.24300
H  58.84500 20.74100 43.26700
H  58.97100 19.14100 43.91300
H  58.17700 20.40600 44.96900
H  59.24500 25.09300 44.31100
H  58.12800 26.93000 46.22400
H  60.07300 24.04000 46.31700
H  58.40000 23.50000 46.70700
H  58.96200 24.98600 47.33500
H  57.93900 28.23200 43.88200
H  59.01400 26.89100 43.28200
H  60.82700 27.96400 44.57800
H  59.74600 28.33300 45.84800
H  59.76300 29.42300 44.59200
H  53.12600 30.91800 45.57400
H  54.47400 30.80600 44.36100
H  54.69600 30.26200 46.01500
H  49.20300 27.66500 43.52800
H  48.54200 29.75900 40.00700
H  47.65800 28.26800 39.58900
H  49.47600 28.38300 39.44400
Mg 47.56300 25.69300 27.83500
C  48.62900 27.84800 30.37200
C  46.68300 23.44500 30.01800
C  46.97800 23.71500 25.28300
C  49.11700 27.98500 25.54100
N  47.47000 25.75500 29.99800
C  47.89200 26.72300 30.87400
C  47.38400 26.42800 32.30600
C  46.70700 24.95500 32.10800
C  46.99200 24.68500 30.62600
C  47.11800 23.91600 33.11800
C  46.31200 27.47300 32.82000
C  45.49900 27.15700 34.17400
H  45.38600 28.14900 35.31500
N  46.81900 23.83200 27.64700
C  46.54300 23.02000 28.69600
C  46.10300 21.72400 28.17200
C  46.08500 21.75600 26.78000
C  46.64800 23.13000 26.47000
C  45.59000 20.60000 29.03600
C  45.55100 20.81500 25.69100
O  45.50600 21.08500 24.51400
C  44.92100 19.53800 26.05300
N  48.33300 25.67000 25.67400
C  47.66600 24.80200 24.84000
C  47.92400 25.12200 23.30600
C  48.86700 26.43900 23.42600
C  48.79400 26.71300 24.95200
C  48.42200 23.97500 22.43800
C  48.57100 27.62100 22.45400
C  49.66700 27.84400 21.36200
N  48.58200 27.52000 27.89400
C  49.09500 28.38700 26.90500
C  49.68800 29.57300 27.47900
C  49.51600 29.39900 28.82800
C  48.87800 28.13400 29.04700
C  50.21800 30.70300 26.68700
C  49.72100 29.96400 30.11500
O  50.22600 31.05700 30.36300
C  49.06100 29.02200 31.15200
C  50.07300 28.71100 32.18100
O  51.07100 28.03200 31.98000
O  49.74600 29.37500 33.30700
C  50.72500 29.25000 34.44100
H  46.39000 22.66200 30.72100
H  46.75000 23.03800 24.45700
H  49.60800 28.67900 24.85500
H  48.24900 26.37600 32.96600
H  45.62000 25.03000 32.15000
H  47.64400 24.38100 33.95300
H  47.61900 23.16200 32.51100
H  46.27400 23.47400 33.64700
H  45.65600 27.70900 31.98200
H  46.86500 28.34200 33.17400
H  45.80700 26.17900 34.54300
H  44.48600 27.13600 33.77100
H  44.50500 20.69400 29.00900
H  45.90500 20.69900 30.07500
H  45.85700 19.59900 28.69800
H  45.60300 18.75400 26.38100
H  44.31300 19.17300 25.22500
H  44.21300 19.75400 26.85300
H  47.00900 25.48400 22.83700
H  49.89500 26.12900 23.23500
H  49.40200 24.34000 22.12900
H  47.85900 23.84000 21.51400
H  48.54600 23.11800 23.09900
H  48.55400 28.58000 22.97200
H  47.60000 27.54100 21.96600
H  49.19700 27.66400 20.39500
H  50.59600 27.28900 21.49100
H  49.99100 28.88400 21.41000
H  51.29600 30.60800 26.55900
H  50.02500 31.68700 27.11400
H  49.72300 30.62700 25.71800
H  48.23200 29.63500 31.50500
H  51.78500 29.20800 34.18600
H  50.57400 28.39700 35.10200
H  50.61900 30.22000 34.92800

