158

Mg 35.50000 2.50100 29.61500
C  33.34200 3.87100 32.13000
C  37.90800 2.39500 31.95900
C  37.67500 1.76400 27.22500
C  33.08700 3.44300 27.28700
N  35.61400 3.11700 31.79700
C  34.59200 3.51300 32.61400
C  35.03400 3.58100 34.06000
C  36.51400 3.36400 33.96900
C  36.71000 2.87900 32.47600
C  37.37600 4.64000 34.19900
C  34.15400 2.53100 34.81600
C  33.66100 2.93100 36.18600
H  34.26800 4.16200 36.90900
N  37.46400 1.99700 29.67700
C  38.27000 1.89200 30.73800
C  39.54900 1.37800 30.33200
C  39.53600 1.27100 28.88800
C  38.15000 1.70600 28.53100
C  40.71900 1.05700 31.30600
C  40.54300 0.72500 27.87500
O  40.33100 0.78500 26.68100
C  41.74400 0.10200 28.38700
N  35.38700 2.55000 27.58400
C  36.38700 2.18300 26.78300
C  35.90500 2.07700 25.30100
C  34.46700 2.60600 25.33100
C  34.26400 2.85700 26.80400
C  36.80700 2.84700 24.38900
C  33.39200 1.49400 25.00700
C  32.06600 1.93600 24.24700
N  33.61900 3.42800 29.58800
C  32.70800 3.69100 28.62600
C  31.50700 4.13300 29.12700
C  31.75100 4.31200 30.49800
C  33.01800 3.85400 30.74100
C  30.30200 4.40400 28.33200
C  31.05800 4.69700 31.69400
O  29.91700 5.10900 31.91100
C  32.08500 4.35900 32.87600
C  32.31000 5.54400 33.71400
O  33.04800 6.44100 33.31500
O  31.52300 5.54500 34.80900
C  31.32600 6.79200 35.51500
H  38.78600 2.31300 32.60300
H  38.27600 1.45700 26.36700
H  32.43000 3.80000 26.49100
H  34.84900 4.56800 34.48400
H  36.77500 2.63100 34.73300
H  36.77800 5.54300 34.32000
H  38.08200 4.82300 33.38900
H  37.87100 4.58700 35.16900
H  34.74600 1.62300 34.92800
H  33.39200 2.06700 34.19100
H  33.77200 2.03900 36.80200
H  32.57200 2.91200 36.23400
H  41.50600 1.76500 31.04700
H  41.15600 0.06400 31.19700
H  40.37500 1.24900 32.32200
H  41.47400 -0.83200 28.87900
H  42.25200 0.72000 29.12700
H  42.47600 -0.10300 27.60500
H  35.90600 1.07000 24.88300
H  34.36900 3.53900 24.77600
H  36.39700 3.84600 24.23800
H  36.84400 2.29200 23.45200
H  37.82600 2.92300 24.76900
H  33.15500 0.90100 25.89000
H  33.90900 0.78200 24.36400
H  31.98100 3.02200 24.28000
H  31.23900 1.59300 24.86900
H  31.94400 1.55700 23.23200
H  30.55500 5.14500 27.57400
H  29.56500 4.96600 28.90600
H  29.92200 3.52200 27.81600
H  31.50000 3.59900 33.39500
H  31.15200 7.59900 34.80300
H  32.20000 7.09300 36.09400
H  30.48200 6.80200 36.20500
Mg 17.06700 51.94500 26.57500
C  19.37000 50.38500 28.86400
C  15.15900 52.56000 29.31900
C  14.96900 53.31700 24.46500
C  19.20900 50.86400 23.93200
N  17.31600 51.57600 28.85200
C  18.33500 51.01600 29.58200
C  18.17500 51.21800 31.15600
C  16.63100 51.63800 31.19400
C  16.30900 51.97300 29.69700
C  15.69100 50.50500 31.67500
C  19.11400 52.33100 31.76900
C  19.44400 52.15300 33.19300
H  18.36500 51.71000 34.17700
N  15.34600 52.80600 26.87500
C  14.63600 52.91400 28.02400
C  13.42600 53.74700 27.83600
C  13.31600 53.90400 26.39100
C  14.53600 53.32800 25.83500
C  12.51400 54.08300 28.93200
C  12.26100 54.64700 25.51800
O  12.29900 54.70700 24.31400
C  11.11500 55.33100 26.16900
N  17.07500 52.03200 24.45200
C  16.09400 52.67500 23.85800
C  16.33200 52.68700 22.29800
C  17.65700 51.95600 22.17500
C  18.06200 51.61100 23.61200
C  15.13400 51.95900 21.51700
C  18.73400 52.80800 21.39500
C  19.23100 54.17800 21.89900
N  18.86500 50.85800 26.35100
C  19.58800 50.54500 25.20600
C  20.67300 49.70200 25.50200
C  20.63300 49.56400 26.94300
C  19.52000 50.35000 27.42100
C  21.52800 48.97700 24.47100
C  21.23000 48.91200 28.09800
O  22.08800 48.06200 28.16700
C  20.63300 49.69300 29.28700
C  20.39900 48.73000 30.37200
O  19.62900 47.83500 30.34900
O  21.15700 49.00100 31.50600
C  20.81400 48.22800 32.63700
H  14.53500 52.76800 30.19100
H  14.50500 53.95000 23.70500
H  19.81100 50.35400 23.17700
H  18.34400 50.25800 31.64400
H  16.40700 52.46700 31.86500
H  14.72400 50.74500 32.11700
H  16.29900 49.75600 32.18400
H  15.30300 49.89900 30.85600
H  18.60000 53.29100 31.71800
H  20.00300 52.37500 31.14000
H  19.90300 53.11600 33.41500
H  20.28900 51.46600 33.14400
H  12.46200 55.11700 29.27200
H  12.69600 53.48100 29.82300
H  11.49200 53.86900 28.62000
H  10.66100 54.64600 26.88500
H  10.36400 55.75100 25.50000
H  11.54100 56.15600 26.74000
H  16.42400 53.69700 21.90000
H  17.50900 51.04400 21.59600
H  15.51300 51.17700 20.86000
H  14.57900 52.65600 20.88900
H  14.32600 51.54400 22.11900
H  18.34100 53.05100 20.40800
H  19.63400 52.19400 21.34400
H  20.29000 54.04300 22.11900
H  18.58900 54.60700 22.66900
H  19.07200 54.83200 21.04200
H  21.31100 48.94900 23.40300
H  21.39600 47.90000 24.57800
H  22.56100 49.29200 24.61300
H  21.33400 50.45100 29.63900
H  20.64500 47.23600 32.21900
H  19.84600 48.41700 33.10100
H  21.58900 48.22100 33.40500

