158

Mg -0.41900 7.28900 26.30100
C  0.56000 9.29000 29.01600
C  -0.90600 4.72100 28.62900
C  -0.75100 5.22400 23.77500
C  0.38000 9.93600 24.21500
N  -0.08800 7.06100 28.55000
C  0.25700 8.01300 29.53300
C  0.19300 7.46600 31.00900
C  -0.09000 5.92400 30.68200
C  -0.45700 5.90600 29.15600
C  1.02600 4.95300 31.07800
C  -0.80900 8.16600 31.92600
C  -0.42000 8.07400 33.45900
H  0.73700 7.32200 33.99300
N  -0.76100 5.24400 26.19800
C  -1.05500 4.37700 27.25300
C  -1.56600 3.17500 26.72500
C  -1.49300 3.28700 25.29900
C  -1.00800 4.61700 25.01100
C  -1.97700 1.96200 27.66100
C  -1.72800 2.18500 24.27200
O  -1.43200 2.43200 23.11200
C  -2.38500 0.87800 24.63000
N  -0.17400 7.44200 24.30700
C  -0.37300 6.52700 23.37000
C  -0.42200 7.09900 21.95500
C  -0.44000 8.65900 22.24100
C  0.01500 8.71400 23.71000
C  0.79300 6.52500 21.05300
C  -1.87500 9.20500 21.86500
C  -1.88800 10.65800 21.19900
N  0.32200 9.20000 26.48600
C  0.60400 10.16700 25.59900
C  1.09400 11.38100 26.22000
C  1.07900 11.08700 27.53800
C  0.53300 9.75200 27.66800
C  1.48500 12.62400 25.59500
C  1.27400 11.64800 28.84900
O  1.60900 12.81900 29.11200
C  0.90700 10.51300 29.80300
C  2.01300 10.28400 30.81500
O  2.96500 9.59200 30.52600
O  1.69500 10.93600 31.97000
C  2.73900 10.90900 33.01400
H  -1.19300 3.93800 29.33400
H  -1.12200 4.65900 22.91800
H  0.69000 10.78900 23.60700
H  1.19200 7.47200 31.44500
H  -0.99200 5.60200 31.20400
H  0.55600 4.06500 31.50200
H  1.58400 5.42200 31.88900
H  1.65700 4.69300 30.22900
H  -1.74400 7.67000 31.66600
H  -0.94200 9.22900 31.72300
H  -1.34000 7.58800 33.78000
H  -0.44300 9.00600 34.02500
H  -1.97200 2.12500 28.73900
H  -1.40600 1.07100 27.40200
H  -2.97400 1.72000 27.29100
H  -3.39200 1.11600 24.97100
H  -1.83400 0.29000 25.36400
H  -2.45000 0.34000 23.68400
H  -1.35000 6.60500 21.66500
H  0.30600 9.23500 21.69400
H  1.35100 7.35200 20.61500
H  0.46100 5.73300 20.38100
H  1.49600 6.12700 21.78500
H  -2.47300 9.34000 22.76600
H  -2.47500 8.42000 21.40500
H  -2.35900 10.71200 20.21800
H  -0.85900 10.98300 21.04000
H  -2.46300 11.32800 21.83600
H  0.51000 13.09800 25.48500
H  1.87200 12.41300 24.59800
H  2.09300 13.22500 26.27100
H  0.01100 10.76300 30.37100
H  3.27200 9.95900 33.06300
H  2.25800 11.02700 33.98500
H  3.53200 11.57400 32.67400
Mg 49.91200 46.56900 43.59400
C  46.76300 46.90900 42.05900
C  50.26500 43.45600 41.92700
C  53.33300 46.80500 43.93500
C  49.58700 49.91000 44.51500
N  48.64200 45.38200 42.16500
C  47.38500 45.70300 41.71100
C  46.76900 44.53600 40.85400
C  47.97000 43.49500 40.92100
C  49.04000 44.15000 41.76900
C  47.68900 42.00800 41.45600
C  46.30100 44.94200 39.41500
C  44.87400 44.58600 39.07200
H  44.71900 43.38800 38.11300
N  51.53800 45.28600 43.07700
C  51.50500 44.05700 42.44900
C  52.75000 43.39100 42.44500
C  53.68600 44.34300 42.89200
C  52.87700 45.56600 43.37800
C  53.07900 42.08500 41.72400
C  55.14100 44.16400 42.92300
O  55.74000 43.11500 42.63100
C  56.10700 45.28200 43.34300
N  51.23700 48.00400 44.22600
C  52.58300 47.93600 44.26900
C  53.24800 49.21900 44.85300
C  51.99100 50.09200 45.12600
C  50.86800 49.26500 44.59100
C  54.11900 48.89600 46.11600
C  52.11500 51.50500 44.47300
C  51.72500 52.73600 45.38800
N  48.30900 48.05800 43.61600
C  48.37900 49.41200 43.99800
C  47.13500 50.06300 43.73200
C  46.48600 49.12400 42.88800
C  47.27800 47.98000 42.85600
C  46.62300 51.35800 44.12500
C  45.26200 48.94300 42.07400
O  44.29600 49.66700 41.80400
C  45.36000 47.38800 41.66600
C  44.25100 46.61800 42.31500
O  44.36500 45.85800 43.25300
O  43.08000 46.84400 41.62800
C  41.93600 46.09600 42.14600
H  50.28800 42.46900 41.46200
H  54.35700 47.16600 44.05600
H  49.46800 50.89600 44.97000
H  45.93100 44.17800 41.45100
H  48.51500 43.44200 39.97800
H  46.62900 41.79700 41.59800
H  48.02800 41.89900 42.48600
H  48.27100 41.35500 40.80600
H  46.99300 44.55700 38.66600
H  46.44100 46.01600 39.29600
H  44.25000 45.36600 38.63700
H  44.33500 44.44000 40.00800
H  53.62300 42.46600 40.85900
H  52.18900 41.61400 41.30700
H  53.81900 41.41600 42.16200
H  57.09400 44.98500 42.99000
H  56.00700 45.32600 44.42800
H  55.97800 46.21100 42.78800
H  53.94900 49.63900 44.13100
H  51.74600 50.23000 46.17900
H  55.16900 48.93200 45.82400
H  53.93700 47.88200 46.47000
H  53.92500 49.48700 47.01100
H  51.52200 51.50900 43.55900
H  53.14100 51.68400 44.15200
H  51.33800 53.52600 44.74500
H  52.72200 53.02400 45.72100
H  51.07200 52.42200 46.20300
H  46.28000 52.04300 43.35100
H  47.39400 51.90100 44.67200
H  45.65700 51.15600 44.58700
H  45.13600 47.41500 40.60000
H  41.17300 46.01800 41.37200
H  41.54500 46.63100 43.01200
H  42.15800 45.07000 42.44000

