158

Mg -10.95400 37.25100 42.63400
C  -8.93800 34.97600 41.57300
C  -8.82000 39.76800 41.23100
C  -13.45100 39.52100 42.83400
C  -13.24100 34.73400 43.64800
N  -9.25600 37.40100 41.39000
C  -8.57400 36.22900 41.14200
C  -7.26600 36.52000 40.29400
C  -7.07100 38.10600 40.57200
C  -8.46100 38.45700 41.07400
C  -5.96500 38.56000 41.54400
C  -7.59400 36.01000 38.82000
C  -6.54500 35.34500 37.99100
H  -6.08300 36.10700 36.75300
N  -11.04000 39.36800 42.31100
C  -10.08400 40.19300 41.67300
C  -10.59300 41.52000 41.69400
C  -11.88300 41.52800 42.27200
C  -12.22500 40.12100 42.55700
C  -9.70600 42.65900 41.15900
C  -12.85300 42.74300 42.60900
O  -12.61200 43.82900 42.08900
C  -14.10300 42.55500 43.41600
N  -13.12200 37.09600 43.09200
C  -13.90100 38.21200 42.96900
C  -15.37000 37.78900 43.34900
C  -15.25400 36.26300 43.79900
C  -13.81200 35.97300 43.47600
C  -16.00100 38.63600 44.55100
C  -16.31900 35.29900 43.20800
C  -15.86300 34.44900 42.01100
N  -11.11400 35.26800 42.59300
C  -11.97000 34.39800 43.16900
C  -11.35500 33.07400 43.16500
C  -10.16400 33.26800 42.44500
C  -10.07500 34.63700 42.15600
C  -11.91100 31.75600 43.63900
C  -9.00800 32.53100 41.93500
O  -8.76700 31.29400 41.98500
C  -8.18300 33.66300 41.31900
C  -6.91600 33.64900 42.08600
O  -6.83100 33.97500 43.27300
O  -5.94000 33.07200 41.35700
C  -4.77100 32.62000 42.14000
H  -8.04800 40.50500 41.00200
H  -14.25400 40.19600 42.53100
H  -13.88000 33.94400 44.04700
H  -6.45900 35.93100 40.73100
H  -7.03900 38.70600 39.66200
H  -6.36600 39.11100 42.39500
H  -5.36300 39.30200 41.01900
H  -5.53500 37.68300 42.02800
H  -7.98500 36.91700 38.35900
H  -8.44700 35.33700 38.89900
H  -6.85300 34.32800 37.74600
H  -5.65900 35.20900 38.61000
H  -9.70100 42.45400 40.08900
H  -8.71200 42.69700 41.60400
H  -10.14100 43.65500 41.23900
H  -14.44100 43.49300 43.85800
H  -13.90200 41.78700 44.16300
H  -14.87300 42.12300 42.77700
H  -16.02200 37.79500 42.47600
H  -15.26600 36.06200 44.87000
H  -15.22200 39.32600 44.87700
H  -16.38500 37.97500 45.32800
H  -16.81400 39.20000 44.09400
H  -17.14300 36.00100 43.08300
H  -16.50600 34.55200 43.97900
H  -15.43800 33.55700 42.47100
H  -15.18900 34.90600 41.28700
H  -16.73500 34.14600 41.43000
H  -11.15200 30.97400 43.65600
H  -12.72100 31.53800 42.94400
H  -12.36200 31.76000 44.63200
H  -7.96500 33.41100 40.28200
H  -4.45900 31.64300 41.77200
H  -5.11900 32.57600 43.17200
H  -3.97800 33.33400 41.91800
Mg -11.55100 15.58600 42.07400
C  -8.51100 13.90700 42.01100
C  -9.99600 18.27000 40.39700
C  -14.49600 17.08300 41.76400
C  -13.06500 12.71900 43.20800
N  -9.47600 15.96000 41.23000
C  -8.43200 15.08600 41.34500
C  -7.21400 15.66800 40.59400
C  -7.63000 17.19500 40.39400
C  -9.08400 17.16800 40.67500
C  -6.77500 18.20100 41.22700
C  -6.78100 14.85900 39.29700
C  -5.34400 14.73700 38.97900
H  -4.86900 15.30200 37.66300
N  -12.20600 17.45000 41.29100
C  -11.41100 18.40600 40.68200
C  -12.20600 19.56700 40.34600
C  -13.52900 19.34100 40.72000
C  -13.45900 17.91000 41.28800
C  -11.68900 20.72200 39.61600
C  -14.70100 20.30200 40.67800
O  -14.52800 21.50400 40.35300
C  -16.11300 19.87300 41.06100
N  -13.49100 14.88200 42.14000
C  -14.54500 15.71800 42.20000
C  -15.85600 14.99300 42.70100
C  -15.40400 13.49100 42.83900
C  -13.87000 13.71000 42.72300
C  -16.32300 15.60500 43.99900
C  -15.93000 12.46400 41.69000
C  -16.67700 11.23200 42.29600
N  -10.94600 13.62200 42.55300
C  -11.68600 12.56800 43.05800
C  -10.77700 11.51700 43.35800
C  -9.52300 12.01500 43.04100
C  -9.73000 13.33400 42.49100
C  -11.10000 10.21700 44.09100
C  -8.11500 11.78300 43.09800
O  -7.49800 10.80900 43.50200
C  -7.42100 12.95200 42.41600
C  -6.36600 13.55500 43.29600
O  -6.63700 14.42000 44.13800
O  -5.21900 12.84000 43.16500
C  -4.25600 13.31900 44.22600
H  -9.54500 19.18100 39.99600
H  -15.41300 17.67400 41.81200
H  -13.51900 11.80800 43.60400
H  -6.39700 15.62600 41.31400
H  -7.49500 17.32800 39.32100
H  -6.00900 17.66600 41.78800
H  -7.40800 18.67700 41.97600
H  -6.29100 18.92200 40.56800
H  -7.12300 15.37500 38.40000
H  -7.27900 13.89300 39.38700
H  -5.21700 13.65600 38.92500
H  -4.70800 15.11900 39.77800
H  -12.24000 20.82500 38.68100
H  -10.60500 20.69600 39.50200
H  -11.87500 21.60300 40.22900
H  -16.83300 20.63700 40.76600
H  -16.19800 19.78000 42.14400
H  -16.38400 18.94400 40.56200
H  -16.61900 15.03800 41.92300
H  -15.66900 13.10200 43.82300
H  -16.91500 16.50500 43.83300
H  -15.49500 15.60000 44.70700
H  -17.06700 14.90100 44.37100
H  -15.12700 12.05700 41.07600
H  -16.62500 12.88300 40.96300
H  -16.67400 11.39600 43.37400
H  -16.09500 10.33900 42.07200
H  -17.71400 11.18200 41.96400
H  -10.62200 10.08300 45.06200
H  -10.98200 9.28700 43.53500
H  -12.17900 10.16800 44.24100
H  -6.94500 12.50900 41.54100
H  -4.66000 13.30200 45.23800
H  -3.98100 14.33100 43.93100
H  -3.44800 12.60400 44.06800

