158

Mg -13.10000 16.13400 41.41700
C  -10.24200 14.57300 40.56400
C  -12.19500 18.85300 39.65900
C  -16.27900 17.42600 41.70400
C  -14.49600 13.01700 42.39200
N  -11.34000 16.69600 40.45900
C  -10.32000 15.93700 40.13300
C  -9.20900 16.65800 39.42800
C  -9.83800 18.14400 39.20000
C  -11.22100 17.93000 39.82000
C  -9.02300 19.26700 39.91700
C  -8.56800 15.83300 38.20900
C  -7.15100 15.53100 38.20800
H  -6.15700 16.13500 37.21800
N  -14.05600 17.84700 40.74400
C  -13.48900 18.86200 40.12300
C  -14.38200 19.98900 39.98700
C  -15.51000 19.65400 40.72600
C  -15.29600 18.24200 41.07300
C  -14.05700 21.32800 39.28600
C  -16.67200 20.66000 41.00000
O  -16.65900 21.83200 40.71600
C  -17.88000 20.27300 41.78900
N  -15.11600 15.33300 42.08700
C  -16.23800 16.08500 42.00600
C  -17.52200 15.21600 42.36900
C  -16.88000 13.87200 42.31600
C  -15.41000 14.05400 42.28000
C  -18.01000 15.63100 43.82700
C  -17.38900 13.13400 41.02600
C  -18.19200 11.83800 41.24400
N  -12.50600 14.13400 41.60000
C  -13.16800 13.01400 42.01900
C  -12.31700 11.87600 41.93400
C  -11.08600 12.46500 41.39800
C  -11.33400 13.83200 41.20800
C  -12.60800 10.47500 42.36800
C  -9.64600 12.22200 40.99900
O  -8.97900 11.21500 40.95500
C  -9.02700 13.57000 40.50000
C  -7.86600 13.87800 41.38400
O  -7.84300 14.68700 42.34200
O  -6.67700 13.19500 41.00900
C  -5.45700 13.60200 41.82100
H  -11.96100 19.83800 39.25000
H  -17.26600 17.88200 41.60800
H  -15.07500 12.10000 42.52400
H  -8.38000 16.81000 40.12000
H  -9.96700 18.30800 38.13000
H  -9.52000 19.51800 40.85400
H  -9.08200 20.20300 39.36200
H  -7.96600 19.06000 40.08700
H  -8.75300 16.52600 37.38800
H  -9.17600 14.98100 37.90700
H  -7.11100 14.45600 38.03200
H  -6.90100 15.54400 39.26800
H  -13.29200 21.16600 38.52700
H  -13.71500 22.09600 39.98000
H  -14.89500 21.83500 38.80800
H  -18.53300 19.61300 41.21800
H  -18.53100 21.09200 42.09400
H  -17.61100 19.79400 42.73100
H  -18.30500 15.34100 41.62100
H  -17.05300 13.33900 43.25000
H  -17.68200 16.67000 43.85100
H  -17.64400 15.09300 44.70100
H  -19.09600 15.67300 43.92000
H  -16.50600 12.84800 40.45500
H  -17.94900 13.85800 40.43500
H  -17.90700 11.13700 40.45900
H  -19.24300 12.12200 41.19900
H  -17.92900 11.43800 42.22400
H  -13.65900 10.36600 42.63700
H  -11.89500 10.22900 43.15600
H  -12.52200 9.90200 41.44500
H  -8.76600 13.32600 39.47100
H  -4.59200 13.60300 41.15800
H  -5.18400 12.94400 42.64600
H  -5.54700 14.53800 42.37300
Mg -5.33700 25.11200 26.06600
C  -3.82500 26.28600 29.02600
C  -7.29600 23.02200 27.97400
C  -6.06200 23.30300 23.20600
C  -3.23200 27.12200 24.26000
N  -5.42300 24.56700 28.27000
C  -4.78900 25.30300 29.26200
C  -5.54500 25.06500 30.61000
C  -6.37500 23.78100 30.22900
C  -6.38500 23.76200 28.73200
C  -5.88500 22.50200 30.89200
C  -6.42800 26.33700 31.02700
C  -6.23500 26.64700 32.51000
H  -5.70000 25.59100 33.47800
N  -6.60900 23.52400 25.64100
C  -7.36800 22.79600 26.57700
C  -8.19500 21.91800 25.86000
C  -7.87300 21.94800 24.46500
C  -6.84200 22.96700 24.40100
C  -9.27400 21.06100 26.50000
C  -8.46300 21.11300 23.27100
O  -8.26300 21.39300 22.09500
C  -9.30400 19.97900 23.66600
N  -4.78900 25.16200 23.98400
C  -5.14600 24.32100 23.02900
C  -4.41700 24.67000 21.70200
C  -3.52600 25.98100 22.05000
C  -3.91600 26.13800 23.53800
C  -3.74000 23.51800 20.83500
C  -3.74000 27.19300 21.03900
C  -5.15800 27.77100 21.31000
N  -3.91700 26.52100 26.48600
C  -3.22200 27.32800 25.64100
C  -2.38100 28.21200 26.33600
C  -2.59500 27.81400 27.69900
C  -3.50900 26.76800 27.74600
C  -1.46400 29.30400 25.75800
C  -2.24400 28.12300 29.07000
O  -1.51700 28.97300 29.49200
C  -3.12100 27.13200 29.96400
C  -2.22700 26.31100 30.80300
O  -1.51900 25.37800 30.36700
O  -2.25700 26.81000 32.07000
C  -1.12600 26.37700 32.84400
H  -7.86100 22.39200 28.66400
H  -6.16700 22.68500 22.31200
H  -2.58000 27.79500 23.69900
H  -4.67000 24.81700 31.21100
H  -7.38700 23.79100 30.63200
H  -4.98300 22.62800 31.49100
H  -5.68600 21.80300 30.08000
H  -6.59300 22.05400 31.58900
H  -7.46500 26.13800 30.75500
H  -6.06600 27.17400 30.43000
H  -7.19000 27.02600 32.87600
H  -5.54900 27.48500 32.63800
H  -10.30000 21.11400 26.13400
H  -9.50700 21.29200 27.54000
H  -9.05500 19.99400 26.54200
H  -9.50500 19.47700 22.72000
H  -10.29800 20.29700 23.97900
H  -8.86800 19.28200 24.38200
H  -5.18000 25.01700 21.00500
H  -2.47900 25.68800 21.97000
H  -3.84000 22.59200 21.40000
H  -2.68400 23.72100 20.65300
H  -4.17600 23.44400 19.83900
H  -3.60600 26.75700 20.04900
H  -3.06700 28.02700 21.23300
H  -5.80600 27.11200 21.88900
H  -5.67400 27.93200 20.36300
H  -5.04400 28.79300 21.66900
H  -2.05700 30.14300 25.39500
H  -0.79600 28.98100 24.95900
H  -0.72000 29.47100 26.53800
H  -3.78700 27.73800 30.57700
H  -1.17300 26.95900 33.76500
H  -0.19700 26.67600 32.35800
H  -1.19600 25.30400 33.02000

