158

Mg 1.56200 -0.59400 43.81700
C  4.96700 -0.11200 43.26600
C  0.82200 2.42800 42.15600
C  -1.73500 -1.42100 43.71900
C  2.28900 -3.93500 44.92200
N  2.71400 1.00100 42.89100
C  4.07900 0.95500 42.82200
C  4.63000 2.25500 42.23200
C  3.34200 3.18500 42.16300
C  2.21900 2.19900 42.40400
C  3.42500 4.48300 43.04000
C  5.43300 2.01500 40.86700
C  6.50400 3.07100 40.47100
H  6.63500 3.34200 39.05700
N  -0.22400 0.42800 43.13600
C  -0.35100 1.62200 42.43300
C  -1.70700 1.90800 42.15700
C  -2.45500 0.83300 42.76800
C  -1.47100 -0.14100 43.28600
C  -2.09500 3.21600 41.62400
C  -3.97100 0.78100 42.86400
O  -4.56500 1.75300 42.32500
C  -4.82400 -0.23800 43.55400
N  0.41800 -2.49300 44.24300
C  -0.98100 -2.48200 44.20500
C  -1.54500 -3.88100 44.57800
C  -0.25200 -4.41200 45.33000
C  0.90900 -3.63500 44.83700
C  -2.89200 -3.88100 45.43000
C  -0.15900 -5.96500 45.19300
C  0.01300 -6.75900 46.49500
N  3.29900 -1.75100 44.19900
C  3.41400 -3.07100 44.60100
C  4.87300 -3.30100 44.82900
C  5.56300 -2.13200 44.36000
C  4.52500 -1.26300 43.88800
C  5.45000 -4.54400 45.36600
C  6.75500 -1.51500 44.06900
O  7.87500 -1.85200 44.40000
C  6.53400 -0.20500 43.37900
C  7.12200 0.86200 44.30000
O  6.61100 1.36900 45.32600
O  8.26000 1.40100 43.73400
C  8.95600 2.49500 44.48400
H  0.75800 3.46100 41.80700
H  -2.79100 -1.68100 43.61400
H  2.53600 -4.85600 45.45400
H  5.28200 2.62100 43.02500
H  3.26200 3.57900 41.15000
H  4.43700 4.88700 43.04400
H  3.11700 4.46600 44.08600
H  2.86100 5.27800 42.55100
H  4.68800 1.87900 40.08200
H  5.81700 0.99500 40.85300
H  7.38600 2.89900 41.08800
H  6.03200 3.94900 40.91200
H  -2.59600 3.00900 40.67800
H  -1.32300 3.89100 41.25400
H  -2.82100 3.67800 42.29300
H  -5.83800 0.07400 43.80600
H  -4.51500 -0.33000 44.59600
H  -4.91200 -1.24600 43.15100
H  -1.66700 -4.42900 43.64400
H  -0.24400 -4.16500 46.39200
H  -3.59000 -4.54300 44.91900
H  -3.37000 -2.91100 45.57400
H  -2.70400 -4.34800 46.39700
H  0.70800 -6.20800 44.57900
H  -0.98700 -6.38000 44.61900
H  0.99800 -7.22200 46.54400
H  -0.85300 -7.41600 46.56800
H  0.11500 -6.08900 47.34900
H  5.23900 -5.42700 44.76200
H  5.03800 -4.82000 46.33700
H  6.53600 -4.52100 45.45800
H  7.04000 -0.19400 42.41300
H  8.45700 3.45900 44.38400
H  9.85700 2.79700 43.94900
H  9.17900 2.20900 45.51200
Mg 35.48600 47.99500 25.99500
C  35.86200 46.05200 28.84600
C  34.26300 50.46200 27.83700
C  34.91600 49.73400 23.10500
C  36.59700 45.35000 24.07300
N  35.01200 48.15000 28.14300
C  35.24300 47.30300 29.10100
C  34.93800 47.91200 30.48800
C  34.18600 49.21600 30.07900
C  34.39500 49.29200 28.60000
C  32.67600 49.24400 30.46900
C  36.18500 48.09600 31.45400
C  36.02500 47.81400 32.89600
H  35.94800 49.03700 33.90000
N  34.70200 49.83600 25.53400
C  34.34400 50.76800 26.44400
C  33.84000 51.99500 25.73300
C  34.10000 51.81300 24.35300
C  34.60600 50.39900 24.28500
C  33.24700 53.17000 26.49600
C  33.83200 52.71400 23.16700
O  34.02900 52.38400 21.96800
C  33.31400 54.08100 23.58700
N  35.35600 47.47400 23.84700
C  35.12500 48.37600 22.86300
C  35.38100 47.78300 21.48000
C  36.09000 46.35500 21.76300
C  36.01600 46.41600 23.30500
C  34.05900 47.60400 20.74100
C  37.56800 46.24000 21.22400
C  37.95700 44.99900 20.47700
N  36.11200 46.06200 26.33300
C  36.56300 45.12100 25.43700
C  37.01100 43.90100 26.24300
C  36.79700 44.30100 27.57400
C  36.20500 45.53600 27.54700
C  37.60500 42.53100 25.78400
C  36.87700 43.86100 28.98200
O  37.26200 42.77400 29.43200
C  36.41800 44.99400 29.77900
C  35.36100 44.60800 30.68800
O  34.36000 44.04000 30.38300
O  35.73300 44.76800 32.00200
C  34.86800 44.31800 33.09500
H  33.85700 51.23800 28.48900
H  34.97300 50.30500 22.17600
H  37.13800 44.59200 23.50300
H  34.27200 47.23400 31.02100
H  34.64100 50.11300 30.49900
H  32.60200 49.34500 31.55200
H  32.15300 48.37000 30.08200
H  32.25400 50.09500 29.93500
H  36.36900 49.17000 31.46500
H  36.95800 47.49800 30.97100
H  36.73100 47.09200 33.30600
H  35.02000 47.39000 32.89100
H  33.80000 54.10400 26.59600
H  33.07500 52.93000 27.54500
H  32.22600 53.37700 26.17400
H  32.39100 54.05000 24.16600
H  33.16400 54.52200 22.60200
H  34.06800 54.59900 24.18000
H  35.97100 48.43700 20.83900
H  35.50200 45.49100 21.45500
H  33.84900 48.38900 20.01500
H  33.13400 47.43800 21.29300
H  34.16400 46.75200 20.07000
H  38.17900 46.44800 22.10200
H  37.78400 47.16800 20.69400
H  37.13100 44.29100 20.53500
H  38.82000 44.53100 20.95100
H  38.21900 45.21400 19.44100
H  38.13500 42.82100 24.87700
H  36.78800 41.84500 25.55600
H  38.29600 42.09900 26.50800
H  37.23700 45.37800 30.38800
H  33.82900 44.50300 32.82100
H  35.05000 44.78200 34.06500
H  35.17700 43.29300 33.30200

