158

Mg 46.57500 15.56900 28.14100
C  44.56200 15.66900 31.04600
C  48.81000 17.67800 29.90300
C  48.47500 15.89400 25.43900
C  44.08300 14.03000 26.41100
N  46.60600 16.68000 30.20000
C  45.68500 16.46700 31.26100
C  46.22100 17.03500 32.63200
C  47.47100 17.85000 32.08000
C  47.66400 17.30100 30.62500
C  47.42800 19.34500 32.31600
C  46.52700 15.97900 33.73800
C  45.74500 16.24800 35.01000
H  45.85300 17.58400 35.68400
N  48.49200 16.46600 27.77300
C  49.24800 17.28900 28.56600
C  50.44800 17.70800 27.92400
C  50.42400 17.08300 26.65100
C  49.08700 16.43000 26.57300
C  51.62500 18.34500 28.64300
C  51.56300 17.00400 25.60900
O  51.50600 16.24700 24.64500
C  52.76200 17.76900 25.80500
N  46.30300 15.06400 26.30000
C  47.23100 15.23300 25.31600
C  46.78800 14.62400 23.96600
C  45.41700 13.98000 24.32900
C  45.21000 14.47700 25.79500
C  46.81500 15.63200 22.79000
C  45.39200 12.40000 24.00500
C  46.02600 11.44500 25.00100
N  44.71500 14.88300 28.57800
C  43.77000 14.28300 27.76600
C  42.56200 14.07100 28.50100
C  42.87400 14.53300 29.85800
C  44.15100 15.04800 29.83300
C  41.33700 13.43900 27.77600
C  42.33300 14.73500 31.22100
O  41.22100 14.31300 31.73900
C  43.47400 15.40400 32.03500
C  42.90400 16.62400 32.75200
O  43.00100 17.79800 32.42500
O  42.29600 16.23900 33.92300
C  41.62900 17.36300 34.61700
H  49.54700 18.32800 30.37800
H  49.03800 16.04400 24.51500
H  43.28300 13.65400 25.77000
H  45.48500 17.77500 32.94600
H  48.36900 17.55200 32.62200
H  46.70500 19.62600 33.08200
H  47.25000 19.85900 31.37100
H  48.39400 19.71000 32.66300
H  47.57800 16.12400 33.98700
H  46.30600 14.94300 33.47900
H  46.10000 15.46800 35.68400
H  44.72500 16.02600 34.69500
H  52.40800 17.59100 28.56400
H  51.48800 18.55900 29.70300
H  51.91000 19.24900 28.10400
H  52.27900 18.66500 26.19400
H  53.28000 18.11700 24.91100
H  53.27200 17.07900 26.47600
H  47.42600 13.78000 23.70400
H  44.61500 14.47500 23.78100
H  47.40800 16.51000 23.04700
H  45.89100 15.98200 22.33100
H  47.49300 15.19100 22.06000
H  45.87200 12.21400 23.04400
H  44.32400 12.22500 23.87100
H  46.31900 11.95200 25.92100
H  46.85500 10.92400 24.52200
H  45.28600 10.67500 25.21600
H  41.73100 12.59000 27.21800
H  40.83300 14.19200 27.17000
H  40.60700 13.00000 28.45600
H  43.76500 14.70400 32.81800
H  42.31400 18.04600 35.11900
H  40.97300 16.95200 35.38400
H  41.01300 17.79000 33.82600
Mg -5.34500 24.87400 25.94400
C  -3.65100 26.45500 28.61500
C  -6.96600 23.01100 28.13300
C  -6.51900 23.39700 23.23800
C  -3.06900 26.66100 23.77000
N  -5.23600 24.64400 28.10700
C  -4.64500 25.53600 28.98700
C  -5.03400 25.18300 30.44500
C  -5.61800 23.77000 30.26200
C  -5.98500 23.76800 28.77700
C  -4.70500 22.61700 30.64400
C  -6.12300 26.13200 30.91400
C  -6.03300 26.61000 32.40900
H  -6.03100 25.61900 33.56800
N  -6.71600 23.58000 25.74000
C  -7.38900 22.95400 26.72700
C  -8.34200 21.97800 26.18100
C  -8.26200 22.19100 24.71700
C  -7.17700 23.19200 24.48100
C  -9.23200 21.14500 26.95200
C  -9.18900 21.61500 23.60000
O  -9.22300 22.09100 22.41900
C  -10.18400 20.51200 23.94900
N  -4.84900 24.99400 23.78400
C  -5.56100 24.26500 22.83300
C  -4.96000 24.41600 21.42900
C  -4.10200 25.74800 21.64800
C  -4.03600 25.86300 23.16100
C  -4.11800 23.21400 20.91200
C  -4.52000 27.00100 20.85800
C  -3.61900 27.53000 19.72900
N  -3.64000 26.29400 26.09400
C  -2.90700 26.93600 25.14300
C  -2.06900 27.92600 25.83000
C  -2.42700 27.80600 27.17400
C  -3.28200 26.76500 27.33400
C  -1.33000 29.08200 25.14600
C  -2.28300 28.40600 28.52500
O  -1.61700 29.37800 28.96700
C  -3.00900 27.48900 29.46600
C  -2.17300 27.07800 30.54400
O  -1.19500 26.34100 30.41600
O  -2.69200 27.48100 31.77400
C  -1.90700 27.08200 32.93000
H  -7.46500 22.34000 28.83600
H  -6.83100 22.60900 22.54900
H  -2.36000 27.18800 23.12800
H  -4.18700 25.04600 31.11600
H  -6.51200 23.58800 30.86000
H  -3.69700 22.96000 30.87800
H  -4.57100 21.91100 29.82600
H  -5.00600 22.24400 31.62300
H  -7.12100 25.77500 30.66200
H  -6.05600 26.97300 30.22400
H  -6.68700 27.48200 32.42400
H  -5.13400 27.21100 32.54200
H  -10.24400 21.54400 26.87600
H  -8.90200 21.18900 27.99000
H  -9.27200 20.07300 26.76100
H  -9.64500 19.73200 24.48700
H  -10.62100 19.94500 23.12600
H  -11.02600 20.93300 24.49800
H  -5.79400 24.59700 20.75100
H  -3.07300 25.57000 21.33800
H  -4.35000 22.30200 21.46300
H  -3.05000 23.40200 21.01500
H  -4.32500 23.03400 19.85700
H  -4.66700 27.87000 21.49900
H  -5.50500 26.81500 20.42900
H  -3.22100 26.65700 19.21000
H  -2.74900 28.08900 20.07300
H  -4.07600 28.23800 19.03700
H  -0.25300 28.94100 25.04900
H  -1.59700 29.98100 25.70100
H  -1.75100 29.20800 24.14900
H  -3.80200 28.11500 29.87400
H  -1.03800 26.43600 32.80400
H  -2.63100 26.59300 33.58300
H  -1.47100 27.95000 33.42400

