158

Mg 46.83500 17.48900 28.64000
C  45.31500 16.93100 31.74800
C  49.26200 19.40600 30.02800
C  48.02800 17.87700 25.54600
C  44.28000 15.45000 27.20300
N  47.13400 18.11500 30.63000
C  46.45800 17.73700 31.76600
C  47.23400 18.30900 32.99300
C  48.36100 19.25500 32.36500
C  48.24800 18.93400 30.91000
C  48.17900 20.78700 32.70700
C  47.87500 17.16500 33.90000
C  47.67000 17.20800 35.44000
H  47.12700 18.54600 36.00300
N  48.46200 18.60700 27.86300
C  49.35500 19.30100 28.60700
C  50.41000 19.75100 27.71700
C  50.04800 19.33200 26.35800
C  48.81700 18.54000 26.54000
C  51.62600 20.60400 28.23400
C  50.63800 19.60900 25.04900
O  50.22800 19.10100 24.04900
C  51.86500 20.42100 25.05300
N  46.19700 16.77000 26.69500
C  46.81600 17.17600 25.59500
C  45.99900 16.82500 24.33200
C  45.05200 15.74400 24.86000
C  45.20700 15.95900 26.32100
C  45.27600 17.98500 23.59300
C  45.35000 14.31600 24.30200
C  44.16000 13.67000 23.56700
N  45.06200 16.48500 29.29400
C  44.15800 15.75500 28.60000
C  43.15300 15.23200 29.50400
C  43.58000 15.66900 30.86500
C  44.76100 16.38000 30.62600
C  41.92800 14.47800 29.04100
C  43.21600 15.71700 32.22100
O  42.21200 15.37800 32.80100
C  44.40000 16.59000 32.88400
C  43.78900 17.79300 33.55100
O  43.64900 18.92100 33.04000
O  43.35700 17.46500 34.79100
C  42.58700 18.58000 35.44300
H  50.04900 20.03800 30.44400
H  48.30700 18.09400 24.51300
H  43.42900 14.94000 26.74600
H  46.52100 18.85100 33.61400
H  49.31600 18.98300 32.81300
H  47.14000 20.97700 32.97400
H  48.59400 21.39700 31.90500
H  48.79000 20.96000 33.59300
H  48.95400 17.15600 33.74100
H  47.51200 16.20700 33.52600
H  48.57400 16.80200 35.89500
H  46.94000 16.43100 35.66500
H  52.59900 20.48200 27.75900
H  51.81600 20.38400 29.28500
H  51.29500 21.63900 28.15100
H  52.21100 20.66300 24.04700
H  52.66600 19.82600 25.49300
H  51.67800 21.33100 25.62100
H  46.73700 16.38300 23.66200
H  44.00400 16.01600 24.73300
H  45.17600 18.83700 24.26500
H  44.36900 17.58700 23.14000
H  45.83300 18.39100 22.74900
H  45.57500 13.63700 25.12500
H  46.20500 14.26700 23.62700
H  44.59400 13.47300 22.58600
H  43.26800 14.29600 23.52200
H  44.00900 12.65800 23.94100
H  42.19400 13.42400 28.96000
H  41.45800 14.89900 28.15200
H  41.21600 14.57400 29.86000
H  44.83500 15.87400 33.58100
H  41.56300 18.24300 35.28200
H  42.59100 19.58000 35.00900
H  42.93200 18.68500 36.47200
Mg 17.51100 50.69800 26.57500
C  19.65600 49.42300 29.07600
C  15.23300 51.52900 28.93700
C  15.81800 51.98000 24.09500
C  19.99700 49.59100 24.19800
N  17.35600 50.20500 28.71000
C  18.35700 49.87500 29.56300
C  18.04600 50.16700 31.07400
C  16.53800 50.55500 30.90800
C  16.39500 50.85400 29.40200
C  15.50600 49.54400 31.50500
C  18.87200 51.39300 31.65600
C  19.04600 51.49700 33.18600
H  18.11800 50.77200 34.10500
N  15.70800 51.53700 26.53800
C  14.95200 51.85600 27.59400
C  13.88600 52.64000 27.09600
C  14.09700 52.93800 25.76800
C  15.31000 52.13700 25.41800
C  12.79000 53.08800 27.96600
C  13.35800 53.85300 24.83100
O  13.72300 54.02300 23.67700
C  12.14200 54.53900 25.29800
N  17.92400 50.72400 24.39200
C  16.93400 51.27100 23.61100
C  17.28000 51.08500 22.14300
C  18.59700 50.27800 22.14200
C  18.84900 50.16600 23.67700
C  16.14500 50.50100 21.25700
C  19.82900 50.92600 21.44900
C  20.51600 50.15800 20.26200
N  19.35200 49.60100 26.59900
C  20.28500 49.31500 25.58500
C  21.55800 48.87400 26.13200
C  21.31600 48.88200 27.53400
C  20.01400 49.34600 27.75600
C  22.74000 48.62700 25.34800
C  21.90700 48.46100 28.80500
O  23.00600 47.93100 28.99200
C  20.87500 48.88400 29.94700
C  20.55300 47.62100 30.60100
O  19.85500 46.72100 30.09500
O  21.02300 47.62100 31.89800
C  20.23600 46.79200 32.80200
H  14.59600 51.90100 29.74300
H  15.21200 52.34100 23.26100
H  20.69000 49.29300 23.40800
H  18.20600 49.29100 31.70300
H  16.31200 51.47600 31.44500
H  15.97000 48.82000 32.17400
H  14.97200 49.12200 30.65300
H  14.77700 50.08200 32.11100
H  18.37500 52.30800 31.33700
H  19.88600 51.31700 31.26400
H  19.06400 52.50900 33.58900
H  19.98600 51.03500 33.49000
H  11.82400 52.72200 27.61900
H  12.99700 54.15000 28.09300
H  12.84200 52.61100 28.94500
H  11.51700 53.75900 25.73200
H  11.63500 55.01600 24.45900
H  12.28700 55.29500 26.07000
H  17.45000 52.09400 21.76900
H  18.47700 49.32200 21.63200
H  16.00200 51.18500 20.42000
H  15.17100 50.54400 21.74400
H  16.44200 49.52800 20.86500
H  20.58500 51.20200 22.18500
H  19.52200 51.89200 21.04800
H  20.83800 49.14400 20.49900
H  21.37800 50.72500 19.91100
H  19.85900 50.24200 19.39600
H  22.69000 49.35400 24.53700
H  22.62400 47.66300 24.85200
H  23.66100 48.66900 25.93000
H  21.33500 49.61200 30.61500
H  20.72400 45.84900 33.04800
H  19.28300 46.47500 32.37800
H  20.11900 47.43200 33.67600

