158

Mg 34.90800 2.49000 29.58800
C  32.84300 3.73000 32.11000
C  37.42600 2.32000 31.81200
C  37.10800 1.93200 26.97800
C  32.40700 3.38700 27.23400
N  35.10000 2.85500 31.70300
C  34.08200 3.27300 32.55900
C  34.56800 3.33500 33.99300
C  36.16600 3.19400 33.79000
C  36.22700 2.76600 32.35300
C  37.03700 4.46400 34.06300
C  33.83600 2.45900 34.97300
C  33.52300 3.03100 36.37100
H  34.59100 3.89900 37.04800
N  37.00500 2.02700 29.39300
C  37.79600 1.93800 30.53300
C  39.13100 1.59100 30.05800
C  39.09700 1.48500 28.60600
C  37.72200 1.74300 28.23300
C  40.31000 1.50300 31.01500
C  40.27700 1.28100 27.67600
O  40.18700 1.46700 26.47400
C  41.61500 0.84200 28.21900
N  34.79900 2.57400 27.46200
C  35.78400 2.30300 26.60600
C  35.37600 2.43600 25.19100
C  33.77500 2.41300 25.27500
C  33.61600 2.79000 26.73700
C  35.88600 3.74800 24.49600
C  33.12500 1.00100 25.03100
C  31.88000 0.86000 24.05300
N  32.95700 3.28400 29.65600
C  32.07800 3.58900 28.63200
C  30.82700 4.08400 29.19000
C  31.10600 4.09800 30.58900
C  32.39600 3.69400 30.79000
C  29.61600 4.58300 28.42200
C  30.53700 4.48600 31.81600
O  29.38800 4.93900 31.99800
C  31.69400 4.31200 32.94000
C  31.94500 5.65900 33.55700
O  32.88000 6.37900 33.20300
O  31.11300 5.97500 34.56400
C  31.46600 7.10400 35.45800
H  38.24600 2.31900 32.53300
H  37.86400 1.74000 26.21400
H  31.59100 3.49400 26.51500
H  34.47900 4.37800 34.29700
H  36.68900 2.41600 34.34700
H  37.54500 4.78300 33.15200
H  37.82900 4.11100 34.72300
H  36.51300 5.31700 34.49400
H  34.24500 1.44900 35.00000
H  32.87400 2.26100 34.50200
H  33.49100 2.25600 37.13700
H  32.62900 3.65000 36.30500
H  40.06900 1.75500 32.04800
H  41.24000 2.03500 30.81800
H  40.54100 0.44000 30.95200
H  42.27400 0.73900 27.35700
H  41.74300 -0.06500 28.81000
H  42.10200 1.63600 28.78400
H  35.63000 1.55600 24.60000
H  33.28600 3.20300 24.70500
H  36.40600 4.40300 25.19400
H  34.98600 4.25300 24.14600
H  36.65400 3.49500 23.76500
H  32.83400 0.53400 25.97200
H  33.89200 0.29700 24.70800
H  31.06100 0.31100 24.51600
H  32.33400 0.31300 23.22700
H  31.52500 1.83800 23.72700
H  29.20800 3.75400 27.84500
H  30.03000 5.26100 27.67400
H  28.89100 5.09300 29.05600
H  31.32800 3.65800 33.73200
H  30.81500 7.97800 35.45100
H  32.47500 7.44300 35.22000
H  31.35600 6.68700 36.45900
Mg 17.61000 51.49000 25.74000
C  19.38900 50.14800 28.40100
C  15.22100 52.46700 28.00600
C  15.89000 52.79700 23.15500
C  19.80000 50.06500 23.46300
N  17.44400 51.50600 28.04100
C  18.30400 50.88100 28.90000
C  17.75400 50.85500 30.30800
C  16.34400 51.59800 30.17200
C  16.25200 51.82300 28.63200
C  15.14300 50.74800 30.57500
C  18.65000 51.54200 31.39500
C  18.45800 51.06200 32.83800
H  17.50400 51.78100 33.84800
N  15.89300 52.43200 25.61800
C  15.03000 52.72500 26.60500
C  13.83000 53.33900 26.11400
C  13.99800 53.54300 24.64300
C  15.30100 52.93700 24.42400
C  12.76500 53.80700 27.02200
C  13.09600 54.24600 23.60800
O  13.24300 54.31100 22.38600
C  11.90100 54.85800 24.20700
N  17.73300 51.31000 23.59900
C  16.97100 52.00700 22.73400
C  17.27900 51.75000 21.20700
C  18.59400 50.99000 21.39200
C  18.79900 50.79200 22.90700
C  16.15400 51.07700 20.33500
C  19.85800 51.67500 20.73600
C  20.83200 52.60800 21.52600
N  19.18300 50.32600 25.83200
C  20.01400 49.73800 24.84800
C  21.03600 48.99100 25.52400
C  20.80600 49.10100 26.90800
C  19.73100 49.92700 27.02500
C  22.14400 48.29100 24.81600
C  21.29100 48.70700 28.16800
O  22.23000 48.00300 28.47900
C  20.35500 49.41000 29.22700
C  19.88500 48.38500 30.12200
O  19.18400 47.39000 29.87200
O  20.51400 48.55800 31.36300
C  20.24400 47.57500 32.43100
H  14.42500 52.77900 28.68600
H  15.36800 53.14300 22.26000
H  20.40500 49.51400 22.74000
H  17.61100 49.80200 30.55400
H  16.21600 52.56300 30.66300
H  14.28600 50.94300 29.93100
H  14.76000 50.80500 31.59400
H  15.20600 49.74500 30.15200
H  18.34200 52.58600 31.44100
H  19.70100 51.39600 31.14600
H  19.48700 51.08400 33.19500
H  18.20500 50.00500 32.75300
H  11.74800 53.64500 26.66500
H  13.00700 54.86300 27.14400
H  12.73100 53.19700 27.92500
H  11.36500 55.38700 23.41900
H  12.19800 55.49500 25.04000
H  11.07500 54.19500 24.46400
H  17.58000 52.68200 20.72800
H  18.42700 49.99500 20.98200
H  16.55800 50.46600 19.52900
H  15.61700 51.91500 19.88900
H  15.60900 50.43600 21.02800
H  19.58800 52.20900 19.82500
H  20.46200 50.86900 20.31900
H  21.76700 52.12100 21.80100
H  20.32800 52.91000 22.44400
H  21.05400 53.44400 20.86300
H  22.83400 49.06400 24.47900
H  21.73900 47.95800 23.86100
H  22.66400 47.51200 25.37200
H  20.96400 50.06500 29.84900
H  19.90600 46.62400 32.02100
H  19.54200 47.80600 33.23300
H  21.23700 47.51300 32.87700

