158

Mg 41.64700 40.95700 26.96500
C  40.55300 43.27100 29.27900
C  42.69900 38.92500 29.61900
C  42.87500 38.64100 24.71900
C  41.14800 43.27200 24.41100
N  41.70700 41.10700 29.13400
C  41.06200 42.08500 29.83700
C  40.99900 41.70800 31.39700
C  42.02100 40.53500 31.46700
C  42.18800 40.17600 30.02400
C  43.33400 40.86100 32.15300
C  39.49700 41.36100 31.77100
C  38.92600 42.12600 32.90300
H  38.39100 41.27200 34.14100
N  42.70900 39.04800 27.14900
C  42.86300 38.33600 28.30000
C  43.29900 36.93700 27.98300
C  43.47200 36.89200 26.62500
C  42.99800 38.26600 26.13900
C  43.60100 35.89900 29.04800
C  43.86400 35.81200 25.70300
O  44.16000 35.98200 24.48600
C  44.12700 34.49500 26.27000
N  42.09800 40.98800 24.85300
C  42.44200 39.86600 24.15300
C  42.52800 40.19400 22.63900
C  42.13900 41.69200 22.56000
C  41.74300 42.01900 24.02500
C  43.95000 39.95100 22.05100
C  41.08000 42.04000 21.57600
C  39.66600 41.53000 21.81700
N  41.00500 42.92600 26.82500
C  40.79600 43.67200 25.70800
C  40.21900 44.89300 26.12500
C  40.07500 44.83000 27.54700
C  40.53600 43.58100 27.90800
C  39.88600 45.93500 25.13500
C  39.63500 45.39400 28.73100
O  39.03300 46.39500 28.93300
C  39.96900 44.45800 29.89400
C  40.89800 45.21600 30.78500
O  41.95000 45.72400 30.46000
O  40.39700 45.20500 32.10200
C  41.12500 45.93400 33.13100
H  42.88600 38.19600 30.41000
H  43.27700 37.97400 23.95300
H  40.96800 43.99900 23.61600
H  41.48200 42.51500 31.94800
H  41.62900 39.70900 32.06200
H  43.21700 41.64400 32.90300
H  44.11200 41.16300 31.45300
H  43.68300 39.96700 32.66900
H  39.38800 40.29800 31.98600
H  38.91500 41.61200 30.88400
H  38.19400 42.88000 32.61600
H  39.72400 42.76500 33.28200
H  42.90100 35.06300 29.04600
H  43.51100 36.26900 30.06900
H  44.61300 35.51100 28.93500
H  43.32400 34.24800 26.96400
H  45.06400 34.66800 26.79800
H  44.20800 33.73700 25.49100
H  41.81500 39.62700 22.04000
H  43.06700 42.25400 22.44700
H  43.92500 38.89100 21.79800
H  44.73200 40.05700 22.80300
H  44.15400 40.65600 21.24500
H  41.42000 41.58000 20.64800
H  41.05200 43.11500 21.39600
H  39.70200 40.76100 22.58900
H  39.34800 41.02000 20.90700
H  39.00800 42.32500 22.16800
H  39.19400 45.48600 24.42200
H  40.83600 46.19000 24.66500
H  39.40800 46.77400 25.64000
H  39.11900 44.25100 30.54400
H  40.89000 45.62700 34.15000
H  40.86700 46.98700 33.01900
H  42.19200 45.92700 32.90600
Mg 16.50400 51.66700 24.82200
C  18.01300 50.49000 27.70900
C  13.74000 52.60000 26.64500
C  14.80300 51.92500 21.94100
C  19.00000 50.03000 23.04100
N  15.90500 51.40400 26.99400
C  16.78400 51.07000 28.02600
C  16.17200 51.42700 29.37700
C  14.75800 51.93700 29.05800
C  14.75800 52.00200 27.47800
C  13.48500 51.15600 29.66500
C  17.12600 52.40100 30.13400
C  17.31900 52.30800 31.66100
H  16.53100 51.30700 32.50000
N  14.53400 52.26300 24.32900
C  13.53900 52.62100 25.25400
C  12.38900 52.95200 24.54400
C  12.64400 52.74200 23.16400
C  13.99300 52.28400 23.02400
C  11.12800 53.38200 25.26900
C  11.68800 52.91700 22.01700
O  12.05600 52.66700 20.86500
C  10.36400 53.59500 22.30100
N  16.83100 50.94900 22.80500
C  16.01100 51.34300 21.76800
C  16.58800 51.02300 20.40200
C  17.96600 50.53800 20.75200
C  17.98900 50.53700 22.25200
C  15.64000 50.05700 19.55500
C  19.22100 51.13900 20.06100
C  19.63500 52.55600 20.49800
N  18.19600 50.69700 25.24900
C  19.08100 50.06700 24.44200
C  20.12300 49.35300 25.11300
C  19.74000 49.50900 26.43200
C  18.61800 50.34200 26.47700
C  21.35500 48.77600 24.62500
C  20.04300 49.15800 27.80000
O  20.94900 48.52900 28.31300
C  18.94000 49.81500 28.69100
C  18.31300 48.67900 29.44700
O  17.27600 48.13400 29.22400
O  19.16600 48.31200 30.48700
C  18.83500 47.11400 31.29100
H  12.95900 53.03000 27.27500
H  14.31000 52.10000 20.98200
H  19.85900 49.54400 22.57500
H  16.02500 50.50600 29.94000
H  14.58100 52.93800 29.45000
H  12.82700 51.95900 29.99700
H  13.69100 50.41200 30.43500
H  13.00500 50.63100 28.83900
H  16.85300 53.40600 29.81300
H  18.12600 52.25700 29.72600
H  17.08300 53.29600 32.05600
H  18.35700 52.30900 31.99500
H  10.24700 52.89300 24.85400
H  11.12800 54.45600 25.08000
H  11.13700 53.07100 26.31300
H  10.52700 54.42000 22.99500
H  9.68700 52.81000 22.63900
H  9.92900 54.04900 21.41100
H  16.74700 51.96300 19.87300
H  17.87200 49.52200 20.36900
H  15.00500 50.49600 18.78500
H  14.87300 49.60800 20.18600
H  16.16500 49.33300 18.93200
H  19.05000 51.17900 18.98500
H  20.10600 50.54400 20.28300
H  19.67300 53.20700 19.62500
H  20.64100 52.45700 20.90600
H  18.91200 52.95900 21.20700
H  21.20600 48.10500 23.77900
H  21.99600 48.29200 25.36100
H  21.97300 49.51600 24.11600
H  19.32700 50.44900 29.48900
H  18.44900 46.26400 30.72700
H  18.13000 47.55300 31.99700
H  19.72700 46.83700 31.85200

