158

Mg -0.01800 7.86700 27.08500
C  0.99000 10.23500 29.64600
C  0.33000 5.52400 29.68300
C  -0.33600 5.65800 24.71300
C  0.43800 10.50100 24.69000
N  0.76700 7.92800 29.37200
C  0.93200 8.99600 30.14800
C  0.91700 8.72200 31.64900
C  0.90500 7.11300 31.65200
C  0.56200 6.80400 30.14500
C  2.19300 6.39600 32.10500
C  -0.38800 9.21300 32.22400
C  -0.76700 8.97800 33.69300
H  0.33500 8.42800 34.61500
N  -0.13800 5.91800 27.22800
C  0.04300 5.09900 28.37900
C  -0.17300 3.80700 27.94700
C  -0.45600 3.80200 26.53500
C  -0.25700 5.18200 26.07300
C  0.02300 2.65200 28.86600
C  -0.66800 2.59700 25.61500
O  -0.86800 2.68000 24.39300
C  -0.77300 1.18800 26.14200
N  0.09200 8.07800 24.95900
C  -0.13900 6.93000 24.19500
C  -0.18300 7.32200 22.70400
C  -0.25700 8.88900 22.78700
C  0.07700 9.22700 24.22400
C  1.03300 6.88200 21.88100
C  -1.54300 9.64600 22.19800
C  -1.19200 10.65400 21.10200
N  0.51700 9.98800 27.11700
C  0.68100 10.91900 26.03700
C  1.05100 12.16300 26.57500
C  1.13600 11.90500 28.00100
C  0.80500 10.55400 28.26500
C  1.24800 13.44900 25.79900
C  1.54800 12.57600 29.29300
O  1.97500 13.76500 29.54600
C  1.40700 11.48200 30.39200
C  2.65700 11.29400 31.15900
O  3.64600 10.58000 30.87700
O  2.62800 12.09700 32.29900
C  3.46900 11.78900 33.46700
H  0.30600 4.87100 30.55800
H  -0.58400 4.96500 23.90600
H  0.61000 11.29200 23.95700
H  1.78300 9.02600 32.23800
H  0.05500 6.83200 32.27400
H  2.66100 6.02600 31.19200
H  1.97000 5.54200 32.74500
H  2.92100 6.98800 32.66000
H  -1.16800 8.68100 31.68000
H  -0.36500 10.28600 32.02900
H  -1.64900 8.33700 33.71400
H  -1.11500 9.89300 34.17300
H  0.91800 2.04200 28.75200
H  -0.80400 1.97100 28.66600
H  -0.03200 2.91400 29.92200
H  -0.99700 0.43400 25.38700
H  -1.61900 1.05200 26.81600
H  0.24000 0.90900 26.43400
H  -1.10100 6.96600 22.23600
H  0.61900 9.30300 22.28700
H  1.85600 6.68400 22.56700
H  1.13500 7.63400 21.09900
H  0.97700 5.90800 21.39400
H  -1.99200 10.16800 23.04400
H  -2.31700 8.99200 21.79700
H  -1.13400 11.59600 21.64700
H  -2.00600 10.72100 20.38100
H  -0.35900 10.35400 20.46700
H  0.32100 13.63800 25.25800
H  2.11000 13.27000 25.15500
H  1.40800 14.24500 26.52600
H  0.61300 11.83000 31.05300
H  2.84400 11.85300 34.35800
H  4.16700 12.62400 33.51500
H  4.01600 10.84700 33.41800
Mg 5.36400 55.25800 40.52700
C  4.35900 51.85300 40.50500
C  8.31100 54.07200 39.00200
C  6.34100 58.36300 40.08400
C  2.44800 56.10500 41.94200
N  6.06300 53.18600 39.58600
C  5.53400 51.97500 39.73700
C  6.28900 50.90500 38.82900
C  7.69000 51.56100 38.76400
C  7.38100 53.01200 39.14300
C  8.81700 50.82900 39.59200
C  5.68900 50.71700 37.35600
C  5.23800 49.36300 36.79900
H  5.81500 48.79900 35.55600
N  7.14000 56.10700 39.63800
C  8.17100 55.47500 39.10100
C  9.19700 56.44800 38.73000
C  8.71500 57.73900 39.08000
C  7.31800 57.45000 39.62400
C  10.60500 56.11900 38.09100
C  9.41600 59.05500 38.90900
O  10.59500 59.14800 38.48600
C  8.83600 60.30600 39.16500
N  4.53700 57.00000 40.89800
C  5.13100 58.19600 40.73000
C  4.12500 59.29700 41.20900
C  2.91400 58.59500 41.69600
C  3.30100 57.11300 41.59600
C  4.80100 60.14300 42.42900
C  1.65800 58.95400 40.94100
C  1.36000 60.37600 40.32100
N  3.69500 54.20400 41.13800
C  2.59600 54.73000 41.74100
C  1.77100 53.63500 42.15400
C  2.45700 52.46000 41.75800
C  3.64000 52.88400 41.13200
C  0.45300 53.58400 42.77200
C  2.43100 50.98500 41.69900
O  1.65800 50.20700 42.23500
C  3.69500 50.50600 40.91900
C  3.48300 49.44900 39.93100
O  2.88400 49.50700 38.90600
O  3.98000 48.20800 40.37400
C  3.70300 47.09100 39.51800
H  9.27800 53.68100 38.68000
H  6.55400 59.42200 39.92300
H  1.45900 56.44800 42.25500
H  6.38200 49.91800 39.28300
H  8.03800 51.58000 37.73100
H  9.34600 51.61800 40.12600
H  9.52300 50.44100 38.85700
H  8.44900 50.00900 40.20800
H  6.28900 51.10500 36.53200
H  4.80400 51.34700 37.44700
H  4.17200 49.36200 36.57200
H  5.52800 48.64800 37.56800
H  11.29000 56.67200 38.73300
H  10.71900 56.44400 37.05700
H  10.89200 55.07200 38.19100
H  8.00200 60.46100 38.48100
H  9.52400 61.14100 39.03600
H  8.50700 60.49900 40.18600
H  3.91800 59.97800 40.38400
H  2.68400 58.67100 42.75900
H  4.81600 61.19800 42.15700
H  5.81000 59.78100 42.63000
H  4.23500 60.11900 43.36000
H  0.93600 58.92200 41.75700
H  1.51200 58.16300 40.20500
H  1.36500 60.31500 39.23200
H  2.07900 61.03400 40.80800
H  0.32500 60.55700 40.61300
H  -0.21400 53.49400 41.91500
H  0.21900 54.43300 43.41500
H  0.38500 52.69400 43.39800
H  4.39900 50.12300 41.65800
H  2.80900 46.53000 39.78900
H  4.53600 46.40300 39.66600
H  3.71800 47.24600 38.43900

