158

Mg 36.33200 49.40800 25.54800
C  36.18800 47.35800 28.35800
C  34.98500 51.95600 27.48300
C  35.81200 51.25300 22.76200
C  36.84400 46.66000 23.60600
N  35.67300 49.59700 27.68900
C  35.88500 48.69500 28.68300
C  35.70800 49.31700 30.06400
C  35.03700 50.68900 29.74100
C  35.18100 50.76200 28.24200
C  33.64600 50.93800 30.27000
C  37.13100 49.41500 30.81900
C  37.17700 49.98200 32.25500
H  35.94200 49.86900 33.05600
N  35.70400 51.41600 25.16600
C  35.28300 52.27600 26.13500
C  34.84500 53.49700 25.52200
C  35.13200 53.39900 24.11800
C  35.58700 52.02000 23.91300
C  34.24400 54.72600 26.28500
C  34.99100 54.31900 22.93900
O  35.04000 53.91100 21.77000
C  34.66300 55.77900 23.07800
N  36.37800 49.03800 23.47700
C  36.09000 49.93300 22.49600
C  36.29800 49.39900 21.15200
C  36.98800 48.07900 21.43700
C  36.67300 47.84300 22.93200
C  34.92100 49.23500 20.32600
C  38.56100 47.97700 21.26000
C  38.95700 47.68400 19.78000
N  36.62400 47.33800 25.90900
C  36.80900 46.37600 24.98200
C  37.13600 45.08500 25.67700
C  36.91400 45.45200 27.06200
C  36.49700 46.81600 27.08100
C  37.54900 43.72300 25.07300
C  36.98600 44.90000 28.41900
O  37.25400 43.77200 28.85000
C  36.58700 46.23000 29.29000
C  35.58500 45.78400 30.29800
O  34.48100 45.28600 29.95700
O  35.99100 45.99500 31.60900
C  35.01500 45.57800 32.63400
H  34.60900 52.80300 28.06100
H  35.70700 51.80600 21.82600
H  37.07000 45.79800 22.97500
H  35.04100 48.59000 30.52500
H  35.61800 51.45100 30.26200
H  33.26100 50.06800 30.80200
H  32.96800 51.06800 29.42600
H  33.58400 51.81500 30.91500
H  37.77200 50.04000 30.19600
H  37.59700 48.43000 30.81000
H  37.57300 50.99400 32.16700
H  37.90700 49.33900 32.74600
H  34.08900 55.64600 25.72200
H  34.90600 54.95600 27.11900
H  33.31100 54.29900 26.65400
H  33.69100 56.00000 23.51800
H  34.73600 56.28000 22.11300
H  35.52300 56.16300 23.62700
H  37.04600 49.99500 20.62900
H  36.60600 47.34900 20.72400
H  34.12500 48.86400 20.97100
H  35.03000 48.48000 19.54700
H  34.68100 50.21600 19.91500
H  39.07100 47.22600 21.86300
H  39.05100 48.89800 21.57600
H  38.18000 47.17100 19.21400
H  39.85900 47.07500 19.73400
H  39.12100 48.63800 19.27800
H  37.16100 43.71700 24.05400
H  37.01300 42.98300 25.66800
H  38.63100 43.59700 25.02600
H  37.47200 46.39900 29.90400
H  34.94500 44.50600 32.81400
H  33.99700 45.94800 32.50900
H  35.38400 45.95700 33.58700
Mg 16.87200 52.70400 26.46900
C  18.88500 51.25000 28.83600
C  14.48000 53.33400 28.96200
C  14.98400 54.09400 24.10500
C  19.36000 52.05200 24.00900
N  16.69800 52.34300 28.67900
C  17.70500 51.83000 29.42200
C  17.33500 51.84700 30.95300
C  15.84200 52.33300 30.92400
C  15.67700 52.80500 29.44200
C  14.80200 51.21100 31.24600
C  18.32000 52.82800 31.70200
C  18.74300 52.38200 33.18000
H  17.67100 51.76600 34.10800
N  14.94700 53.58800 26.53100
C  14.12800 53.71000 27.61900
C  12.88800 54.21300 27.17000
C  12.95200 54.36200 25.77500
C  14.36200 53.96900 25.39100
C  11.70700 54.38900 28.08300
C  11.85600 54.64600 24.76800
O  12.09900 54.74000 23.57200
C  10.53400 54.96000 25.22500
N  17.13200 52.94300 24.30000
C  16.24300 53.75900 23.64000
C  16.72400 53.90700 22.13000
C  18.11900 53.20500 22.16200
C  18.23600 52.81300 23.60100
C  15.79100 53.12900 21.15300
C  19.31900 54.08200 21.65000
C  19.67600 55.37800 22.45500
N  18.73500 51.72000 26.38800
C  19.59900 51.50300 25.33900
C  20.67000 50.64100 25.79100
C  20.41000 50.48600 27.14200
C  19.23200 51.22700 27.48400
C  21.78100 50.17300 24.97400
C  20.90200 49.91200 28.44600
O  21.99900 49.27300 28.55600
C  19.97900 50.46200 29.59200
C  19.54100 49.31500 30.33500
O  18.60900 48.60900 29.98400
O  20.07100 49.32900 31.58000
C  19.63500 48.36300 32.68200
H  13.73500 53.53900 29.73400
H  14.38400 54.58700 23.33800
H  20.14700 52.03200 23.25200
H  17.34700 50.84600 31.38400
H  15.73800 53.20000 31.57700
H  15.13800 50.40800 31.90200
H  14.52900 50.70800 30.31900
H  13.93800 51.82800 31.49000
H  17.92200 53.83800 31.60400
H  19.27400 52.71300 31.18700
H  19.01800 53.35700 33.58200
H  19.68100 51.82600 33.17300
H  11.04400 53.59500 27.73900
H  11.14800 55.31600 27.95000
H  11.84600 54.22900 29.15200
H  10.65800 55.83300 25.86500
H  10.11000 54.18100 25.85900
H  9.87800 55.20600 24.39000
H  16.76900 54.97600 21.92400
H  18.16100 52.28900 21.57300
H  16.42100 52.86500 20.30300
H  14.93300 53.67800 20.76400
H  15.49500 52.18700 21.61500
H  19.07500 54.51700 20.68000
H  20.19900 53.44500 21.56300
H  20.28700 54.97400 23.26300
H  18.72600 55.66800 22.90300
H  20.11900 56.14200 21.81500
H  21.35200 49.41300 24.32100
H  22.41900 49.68600 25.71200
H  22.21800 50.97500 24.38000
H  20.68900 51.07400 30.14800
H  20.50100 47.75600 32.94700
H  18.83400 47.79700 32.20600
H  19.20700 49.00100 33.45600

