158

Mg 0.48400 8.17700 26.67400
C  1.17900 10.16500 29.60000
C  0.17300 5.50900 28.86300
C  0.13600 6.33200 24.12900
C  0.76900 11.01600 24.82500
N  0.55200 7.89100 29.04600
C  0.74600 8.85200 29.98300
C  0.49600 8.37400 31.39400
C  0.44400 6.82900 31.07900
C  0.31800 6.66100 29.57400
C  1.58900 6.03200 31.77400
C  -0.76900 9.00000 32.05800
C  -0.73000 9.27000 33.56900
H  0.45400 8.75100 34.43200
N  0.10800 6.12900 26.57100
C  0.13900 5.15200 27.51600
C  -0.14800 3.81400 26.82400
C  -0.07000 4.07300 25.36900
C  0.08300 5.54000 25.31000
C  -0.44700 2.57700 27.68500
C  -0.21400 3.14200 24.22400
O  -0.12300 3.49400 23.05300
C  -0.63800 1.72600 24.37100
N  0.21400 8.62800 24.73300
C  0.36400 7.64200 23.81900
C  0.60200 8.20500 22.37000
C  0.30000 9.74100 22.61200
C  0.46700 9.83900 24.15300
C  2.02000 7.88000 21.80400
C  -1.11000 10.04200 22.11600
C  -1.52400 11.49600 22.14700
N  0.96300 10.15700 27.04600
C  1.02900 11.22000 26.18100
C  1.57000 12.40400 26.83700
C  1.63000 12.06100 28.17500
C  1.21600 10.66700 28.25300
C  1.93800 13.72800 26.20900
C  2.04100 12.50700 29.48900
O  2.59600 13.51800 29.78300
C  1.63900 11.29800 30.52800
C  2.93000 10.98200 31.30300
O  3.91600 10.39100 30.84000
O  2.75700 11.50400 32.51000
C  3.98100 11.70400 33.34000
H  0.03600 4.69400 29.57700
H  0.22200 5.73400 23.21900
H  0.94700 11.94600 24.28100
H  1.35600 8.59400 32.02700
H  -0.48200 6.46200 31.52400
H  1.12400 5.24700 32.37000
H  2.17600 6.67300 32.43200
H  2.23100 5.58000 31.01700
H  -1.63400 8.35300 31.91700
H  -1.07200 9.90500 31.53100
H  -1.63400 8.78700 33.94100
H  -0.82600 10.34000 33.75200
H  -0.09800 2.67300 28.71300
H  0.12500 1.81800 27.15100
H  -1.50500 2.33300 27.59000
H  -1.55700 1.64500 23.79000
H  -0.75300 1.45900 25.42100
H  0.13900 1.05300 24.00700
H  -0.14100 7.74200 21.72200
H  1.07400 10.33000 22.11900
H  1.76700 7.04300 21.15400
H  2.68800 7.57000 22.60700
H  2.48200 8.74200 21.32300
H  -1.78800 9.38400 22.66000
H  -1.29800 9.64900 21.11700
H  -1.96800 11.85500 21.21800
H  -0.65900 12.13600 22.31900
H  -2.09800 11.73300 23.04300
H  1.06100 14.06700 25.65900
H  2.67300 13.48800 25.44000
H  2.21400 14.44400 26.98300
H  0.84500 11.61100 31.20600
H  4.79500 11.83200 32.62800
H  4.22500 11.03200 34.16300
H  3.90300 12.72900 33.70300
Mg -10.87100 16.83500 41.33800
C  -7.58300 15.52000 41.02900
C  -9.67400 19.96300 40.75200
C  -14.04200 17.74400 40.99800
C  -11.90000 13.39600 41.64700
N  -8.83900 17.60900 40.83600
C  -7.63100 16.92600 40.87100
C  -6.49900 17.92700 40.58400
C  -7.14800 19.31200 40.81800
C  -8.60900 18.97500 40.81100
C  -6.68100 20.06600 42.04500
C  -5.81700 17.79100 39.06500
C  -4.29000 17.52000 39.00800
H  -3.78200 16.31600 38.17400
N  -11.77800 18.62800 40.94400
C  -11.15100 19.82300 40.70900
C  -12.13200 20.85300 40.49700
C  -13.40700 20.24200 40.62300
C  -13.14100 18.80100 40.81400
C  -11.79500 22.26400 40.14100
C  -14.80300 20.96800 40.45500
O  -14.79100 22.16500 40.21200
C  -16.17500 20.30000 40.55000
N  -12.67500 15.70300 41.30700
C  -13.86400 16.34000 41.13800
C  -15.07400 15.36100 41.31900
C  -14.30600 13.98300 41.50900
C  -12.83900 14.36400 41.53500
C  -16.11800 15.69500 42.45300
C  -14.74300 12.83500 40.55500
C  -14.98800 11.55100 41.35200
N  -10.01400 14.82300 41.41500
C  -10.54300 13.53700 41.58700
C  -9.53900 12.59800 41.63600
C  -8.29900 13.30500 41.48800
C  -8.67000 14.66300 41.24300
C  -9.80500 11.12300 41.89200
C  -6.89000 13.15800 41.53200
O  -6.24200 12.15500 41.78900
C  -6.39900 14.53000 41.09000
C  -5.37000 14.89700 42.00000
O  -5.45100 15.49400 43.05900
O  -4.16900 14.42600 41.45500
C  -2.98500 14.55700 42.32500
H  -9.33100 20.99800 40.69000
H  -15.03700 18.19200 40.95600
H  -12.17400 12.42600 42.06600
H  -5.65200 17.73800 41.24300
H  -6.98500 20.00000 39.98800
H  -5.68400 19.77700 42.37800
H  -7.36100 19.73100 42.82800
H  -6.71100 21.13700 41.84400
H  -6.09500 18.71900 38.56400
H  -6.26200 16.92800 38.57000
H  -3.87600 17.36800 40.00500
H  -3.78700 18.42000 38.65400
H  -12.17500 22.46800 39.14000
H  -10.73400 22.48600 40.02200
H  -12.14800 22.94400 40.91600
H  -16.14400 19.43700 39.88600
H  -17.02300 20.94900 40.32900
H  -16.26800 19.99600 41.59200
H  -15.67800 15.47400 40.41900
H  -14.48200 13.61100 42.51800
H  -16.12900 15.03200 43.31800
H  -17.09500 15.77000 41.97600
H  -15.84000 16.73200 42.64400
H  -13.94500 12.70000 39.82500
H  -15.65700 13.21500 40.09800
H  -15.84100 11.79000 41.98800
H  -14.15300 11.50100 42.05100
H  -15.09900 10.55300 40.93000
H  -10.58400 10.78600 41.20900
H  -10.04600 10.76400 42.89200
H  -8.93000 10.56700 41.55700
H  -5.89700 14.56400 40.12300
H  -2.57800 15.56700 42.38100
H  -2.18100 13.92100 41.95600
H  -3.17400 14.18400 43.33200

