158

Mg 17.37500 -2.15100 27.11500
C  16.06600 -0.22900 29.82900
C  19.35800 -3.76300 29.57400
C  18.84500 -3.68700 24.66200
C  15.66000 -0.03300 24.97100
N  17.56400 -2.04400 29.41000
C  16.92300 -1.15900 30.28400
C  17.45800 -1.34600 31.70600
C  18.64500 -2.32700 31.54000
C  18.53800 -2.77500 30.07200
C  20.07000 -1.76300 31.79200
C  16.36200 -2.05000 32.58000
C  16.39100 -1.60400 34.04100
H  17.63800 -0.85000 34.61500
N  18.78300 -3.68600 27.13500
C  19.52900 -4.18600 28.22500
C  20.24100 -5.34600 27.77700
C  20.15900 -5.29000 26.35500
C  19.32600 -4.14900 25.94300
C  20.93200 -6.38000 28.66700
C  20.73700 -6.23700 25.24800
O  20.53600 -6.07700 24.07300
C  21.47600 -7.46600 25.67500
N  17.39800 -1.70900 25.06000
C  17.99900 -2.60600 24.23800
C  17.85300 -2.15800 22.78600
C  16.61000 -1.25500 22.94300
C  16.52500 -0.95600 24.43500
C  19.12100 -1.48800 22.22800
C  15.22900 -1.75300 22.40500
C  14.42000 -0.77400 21.50300
N  16.15300 -0.41500 27.23900
C  15.44400 0.24900 26.32000
C  14.62100 1.29200 26.89600
C  14.76300 1.05600 28.28200
C  15.80400 0.08700 28.46700
C  13.60800 2.06800 26.05900
C  14.32600 1.54800 29.59100
O  13.50200 2.40800 29.88000
C  15.19100 0.76600 30.61300
C  16.08300 1.74400 31.24900
O  17.03500 2.27800 30.74400
O  15.55100 1.98900 32.47600
C  16.27800 3.00500 33.24700
H  19.99800 -4.31100 30.26900
H  19.15700 -4.19800 23.74900
H  15.04800 0.53500 24.26700
H  17.83900 -0.41800 32.13300
H  18.51900 -3.20700 32.17000
H  20.07100 -0.79300 32.29000
H  20.58000 -1.67300 30.83300
H  20.59600 -2.43400 32.47200
H  16.45700 -3.13200 32.49100
H  15.41300 -1.80100 32.10400
H  16.21400 -2.49000 34.65000
H  15.45900 -1.11200 34.32000
H  21.04900 -5.92800 29.65200
H  21.91300 -6.68100 28.30000
H  20.32700 -7.26900 28.84100
H  20.70600 -8.03700 26.19300
H  22.17000 -7.13700 26.44900
H  21.92700 -8.16300 24.96800
H  17.57100 -3.09800 22.31200
H  16.86700 -0.36300 22.37100
H  19.88100 -1.44800 23.00900
H  19.07900 -0.46900 21.84300
H  19.54100 -2.04800 21.39200
H  14.62700 -1.81200 23.31200
H  15.25400 -2.71600 21.89400
H  13.39100 -0.55200 21.78600
H  14.24100 -1.25800 20.54300
H  14.85800 0.20900 21.32900
H  12.66000 2.03900 26.59600
H  13.43000 1.57200 25.10600
H  13.74500 3.13700 25.89800
H  14.46000 0.28500 31.26200
H  15.69800 3.15100 34.15800
H  16.30000 3.98400 32.76600
H  17.27800 2.72500 33.57800
Mg 36.67700 49.82300 25.89100
C  35.92700 47.96700 28.82500
C  35.63700 52.67000 27.50600
C  36.41600 51.48400 22.92200
C  37.41200 47.00100 24.16100
N  36.02800 50.17500 28.00300
C  35.85900 49.34500 29.03200
C  35.59600 50.05900 30.36800
C  35.47900 51.49900 29.91000
C  35.74200 51.51600 28.34100
C  34.22000 52.25500 30.31100
C  36.83300 49.71900 31.32000
C  36.47100 49.29300 32.77700
H  35.07500 49.43600 33.23800
N  36.21700 51.83400 25.32200
C  35.85900 52.84400 26.19600
C  35.70800 54.06500 25.44600
C  35.87400 53.78900 24.05200
C  36.08400 52.33000 24.04700
C  35.48700 55.34200 26.13700
C  35.71100 54.60200 22.77900
O  35.81100 54.17200 21.62800
C  35.14400 56.02100 22.78400
N  36.98800 49.30100 23.82400
C  36.84200 50.15400 22.82100
C  37.16300 49.51700 21.47500
C  37.57500 48.12900 21.94500
C  37.34400 48.10600 23.39600
C  36.09000 49.54600 20.33100
C  39.05300 47.80100 21.59300
C  40.18600 48.22400 22.49000
N  36.73300 47.83700 26.31600
C  37.08300 46.80300 25.51300
C  36.91200 45.55500 26.28400
C  36.55500 45.95200 27.58800
C  36.36500 47.37100 27.58800
C  37.30800 44.22100 25.74600
C  36.23900 45.52400 28.89100
O  36.19800 44.38500 29.33900
C  35.75900 46.76300 29.69900
C  34.59200 46.43200 30.46000
O  33.43600 46.85200 30.27400
O  34.98300 45.60400 31.51900
C  33.89500 45.18700 32.35200
H  35.30800 53.58300 28.00700
H  36.32500 52.01800 21.97500
H  37.60600 46.06400 23.63400
H  34.70400 49.66600 30.85600
H  36.34000 52.02300 30.32300
H  34.39600 53.19000 30.84200
H  33.66600 51.61400 30.99700
H  33.54900 52.37900 29.46200
H  37.50500 50.57100 31.42500
H  37.36200 48.93200 30.78200
H  37.15200 49.85700 33.41600
H  36.68100 48.22800 32.87100
H  35.27700 56.11400 25.39700
H  36.37500 55.51000 26.74600
H  34.72100 55.28200 26.91000
H  35.15800 56.31900 21.73600
H  35.87300 56.59100 23.36100
H  34.15600 56.14600 23.22800
H  38.05200 49.96200 21.02800
H  37.10100 47.34400 21.35700
H  35.27500 50.19500 20.65200
H  35.63600 48.59900 20.03800
H  36.64200 49.93000 19.47300
H  39.19100 48.11600 20.55900
H  39.14600 46.71500 21.60300
H  40.94000 48.78600 21.94000
H  40.53600 47.37200 23.07300
H  39.83200 49.03800 23.12200
H  36.97200 44.10600 24.71500
H  36.80500 43.46500 26.34900
H  38.35700 44.18100 26.04100
H  36.55700 46.83700 30.43800
H  33.15400 44.57900 31.83400
H  33.37300 46.01500 32.82900
H  34.32100 44.54400 33.12200

