158

Mg 24.07400 -4.97000 45.66400
C  26.20500 -2.52400 44.25600
C  21.62700 -3.87500 43.60900
C  22.45100 -8.01000 46.17200
C  26.89400 -6.28500 47.29300
N  23.94000 -3.32300 44.20600
C  24.88900 -2.48400 43.79300
C  24.40400 -1.52900 42.62600
C  22.76900 -1.77800 42.79500
C  22.74400 -3.04500 43.61900
C  22.12400 -0.61300 43.59000
C  24.96700 -2.04100 41.26100
C  25.10300 -0.94400 40.18100
H  24.73700 -1.23900 38.69900
N  22.25700 -5.79900 45.03200
C  21.35600 -5.15400 44.21800
C  20.14100 -5.99500 44.14000
C  20.35000 -7.10300 45.01500
C  21.76300 -7.02000 45.47600
C  19.07600 -5.63000 43.30500
C  19.23200 -8.06200 45.37900
O  18.12000 -7.90300 44.90200
C  19.35900 -9.08300 46.41000
N  24.60600 -7.00400 46.46400
C  23.72000 -7.95300 46.70000
C  24.43400 -9.11600 47.45900
C  25.88200 -8.54400 47.78500
C  25.80900 -7.15500 47.19200
C  23.52800 -9.66100 48.61400
C  27.12000 -9.38000 47.31200
C  27.92700 -9.90600 48.49400
N  26.12500 -4.46100 45.88700
C  27.06200 -5.09600 46.63900
C  28.21900 -4.27600 46.62300
C  28.02400 -3.26500 45.61200
C  26.69700 -3.44600 45.19100
C  29.53900 -4.42100 47.50800
C  28.52300 -2.12500 44.92000
O  29.56400 -1.50600 45.06400
C  27.38100 -1.70400 43.82700
C  27.23800 -0.23600 43.82100
O  26.96300 0.53000 44.73600
O  27.41500 0.17900 42.54900
C  27.16300 1.64600 42.43300
H  20.70500 -3.46100 43.19300
H  22.05500 -9.02700 46.21800
H  27.72200 -6.70200 47.86900
H  24.62700 -0.46200 42.66100
H  22.24300 -1.99500 41.86600
H  21.41300 -0.11800 42.92900
H  22.83200 0.04000 44.10100
H  21.56500 -1.03000 44.42800
H  24.36500 -2.81700 40.78800
H  25.91400 -2.57000 41.37100
H  26.16300 -0.72200 40.29800
H  24.58500 -0.04500 40.51500
H  19.40400 -5.74000 42.27200
H  18.87300 -4.56100 43.36500
H  18.19300 -6.26900 43.26600
H  18.36300 -9.40100 46.72100
H  19.90300 -8.68900 47.26900
H  19.94700 -9.87600 45.94800
H  24.67200 -10.01200 46.88600
H  25.98100 -8.55800 48.87100
H  23.97900 -9.41400 49.57500
H  23.36300 -10.73800 48.59800
H  22.52600 -9.25200 48.48000
H  27.80500 -8.78900 46.70400
H  26.82500 -10.23500 46.70500
H  27.49300 -10.84700 48.83300
H  27.95200 -9.18700 49.31200
H  28.91800 -10.20000 48.14900
H  30.39700 -4.47600 46.83800
H  29.47300 -5.32200 48.11800
H  29.77400 -3.59800 48.18200
H  27.74400 -2.08200 42.87100
H  27.29200 2.25100 43.33000
H  26.19800 1.73700 41.93300
H  27.98000 1.97600 41.79100
Mg 49.05400 45.75600 43.01900
C  45.58800 45.63300 42.09900
C  49.20500 42.54200 42.38900
C  52.35600 46.21600 43.10900
C  48.73700 49.28800 43.24900
N  47.59700 44.27800 42.13500
C  46.25400 44.38700 42.02500
C  45.64700 42.98200 41.81800
C  46.74200 41.87300 42.17100
C  47.91900 42.92900 42.25300
C  46.52600 41.06400 43.45500
C  45.03300 42.59000 40.37400
C  45.65700 43.22700 39.22600
H  45.38700 42.68400 37.77900
N  50.57900 44.47900 42.74500
C  50.42500 43.16700 42.52600
C  51.75100 42.50500 42.47500
C  52.71000 43.57700 42.73500
C  51.90600 44.79500 42.86800
C  52.06200 40.97800 42.26500
C  54.21000 43.34800 42.79900
O  54.77700 42.28100 42.65100
C  55.10800 44.49800 43.18400
N  50.36000 47.52200 43.20200
C  51.69700 47.42300 43.32700
C  52.43100 48.77400 43.68900
C  51.27000 49.77600 43.71000
C  50.04500 48.84900 43.43500
C  53.31800 48.68600 44.97400
C  51.21000 51.03300 42.81700
C  50.84600 52.23400 43.64900
N  47.51500 47.22800 42.74900
C  47.54300 48.56900 42.93000
C  46.11200 49.10100 42.81400
C  45.36800 47.95800 42.49000
C  46.29700 46.81800 42.45600
C  45.58800 50.55000 42.99200
C  44.01100 47.57500 42.17600
O  43.07300 48.30600 42.02600
C  44.11900 46.06500 41.88700
C  43.03800 45.30000 42.58100
O  42.18600 44.59400 42.00500
O  43.04100 45.47200 43.93300
C  42.03500 44.69600 44.81500
H  49.30900 41.45800 42.31400
H  53.44200 46.33400 43.08500
H  48.43400 50.33700 43.23700
H  44.83400 42.95600 42.54500
H  46.89000 41.08400 41.43500
H  46.60900 40.00400 43.21600
H  45.55800 41.15000 43.94800
H  47.35100 41.11800 44.16500
H  43.99100 42.91000 40.33900
H  45.08800 41.50400 40.44200
H  46.74000 43.32000 39.30600
H  45.27500 44.24800 39.23400
H  53.02800 40.69200 42.68200
H  52.08100 40.60600 41.24100
H  51.32300 40.32900 42.73300
H  55.30100 45.19800 42.37100
H  56.05800 44.09700 43.53700
H  54.60000 44.88500 44.06600
H  53.22700 48.99200 42.97800
H  51.10100 50.12800 44.72800
H  53.65400 47.65400 45.07200
H  52.86100 49.16800 45.83800
H  54.22400 49.27100 44.81500
H  50.38100 50.79800 42.14900
H  52.07200 51.17700 42.16500
H  49.84000 52.26100 44.06700
H  50.97100 53.05700 42.94600
H  51.52200 52.20700 44.50400
H  44.51600 50.45500 43.16100
H  45.86700 51.24700 42.20200
H  46.18000 50.96700 43.80700
H  43.92000 45.91600 40.82600
H  42.67900 44.33800 45.61900
H  41.48300 43.87400 44.35900
H  41.31600 45.43200 45.17600

