158

Mg 49.20000 35.36400 27.63800
C  46.84700 34.08000 30.09100
C  49.78100 38.03500 29.74200
C  51.16100 36.71000 25.30000
C  48.22400 32.85000 25.52800
N  48.45300 35.91900 29.70900
C  47.48400 35.26900 30.47300
C  47.28200 36.07400 31.80400
C  48.05300 37.44200 31.51100
C  48.80100 37.17600 30.15400
C  47.23200 38.76900 31.56500
C  47.64300 35.47400 33.18800
C  48.85300 34.56700 33.26000
H  50.15400 35.22700 33.80500
N  50.30700 37.08300 27.54300
C  50.50600 38.06100 28.56200
C  51.24300 39.16100 28.05700
C  51.80800 38.77500 26.76700
C  51.10400 37.52400 26.49600
C  51.40700 40.49400 28.80700
C  52.87900 39.39100 26.04300
O  53.28900 38.88400 25.04500
C  53.39300 40.74400 26.43400
N  49.65800 34.85700 25.76000
C  50.45900 35.56300 24.94900
C  50.87900 34.86100 23.73700
C  49.76100 33.73600 23.76100
C  49.21200 33.72600 25.12900
C  50.74200 35.67900 22.39600
C  50.34100 32.37500 23.41000
C  49.58900 31.58700 22.24000
N  48.00600 33.65900 27.82000
C  47.63000 32.83900 26.82600
C  46.69800 31.80000 27.39800
C  46.38900 32.28200 28.68000
C  47.17800 33.38600 28.87000
C  46.03100 30.62500 26.65900
C  45.60200 31.98500 29.83000
O  44.85600 31.02100 30.05200
C  45.77600 33.20900 30.82900
C  45.95400 32.67200 32.23900
O  46.98800 32.10300 32.62300
O  44.87300 32.91000 33.04300
C  44.76300 32.41400 34.40900
H  49.88600 38.87800 30.42900
H  51.80200 37.08200 24.49700
H  47.94000 32.09100 24.79600
H  46.22100 36.32200 31.77300
H  48.77900 37.67000 32.29100
H  47.59800 39.43500 32.34600
H  46.17700 38.60800 31.78300
H  47.26600 39.22500 30.57600
H  46.78600 35.00700 33.67300
H  47.78600 36.32400 33.85400
H  49.06400 34.09200 32.30200
H  48.71900 33.73500 33.95200
H  50.68800 40.66300 29.60800
H  51.22600 41.26900 28.06200
H  52.43600 40.51800 29.16500
H  54.02800 40.74400 27.31900
H  52.59400 41.48500 26.39500
H  54.09200 41.14800 25.70100
H  51.88000 34.43300 23.78600
H  48.97600 34.07800 23.08700
H  51.54100 36.41000 22.27300
H  49.79100 36.21000 22.41200
H  50.91500 34.95900 21.59500
H  50.20700 31.71100 24.26400
H  51.38200 32.46400 23.09900
H  48.92700 30.85000 22.69500
H  50.29900 31.02200 21.63500
H  49.00500 32.23900 21.59000
H  46.84500 29.92400 26.47300
H  45.62100 31.08900 25.76200
H  45.18700 30.25700 27.24400
H  44.88900 33.83700 30.74500
H  44.14300 31.52400 34.52100
H  44.39200 33.20200 35.06500
H  45.78500 32.15000 34.68100
Mg 30.80400 57.73700 40.45900
C  27.80200 56.16600 39.42300
C  32.50400 54.97200 39.68100
C  33.59000 59.55700 40.52500
C  28.88400 60.74800 40.86400
N  30.26000 55.90100 39.39500
C  28.96100 55.35100 39.25300
C  29.00600 53.95300 38.59600
C  30.36600 53.52000 39.18900
C  31.11500 54.86300 39.48000
C  30.40800 52.63700 40.52900
C  28.90600 54.00300 36.96900
C  27.61100 53.37700 36.27900
H  26.73800 54.23300 35.32000
N  32.83700 57.31000 40.12900
C  33.33600 56.13100 39.91300
C  34.80700 56.23100 39.79500
C  35.09200 57.61900 40.16600
C  33.78500 58.23800 40.22600
C  35.72300 55.08200 39.41200
C  36.49300 58.17600 40.35900
O  37.47300 57.42100 40.16200
C  36.79300 59.65700 40.69000
N  31.18800 60.03300 40.40500
C  32.44800 60.40100 40.73200
C  32.41400 61.86800 41.04000
C  30.90600 62.25000 41.32300
C  30.23900 60.93800 40.81800
C  33.33900 62.34100 42.20000
C  30.38700 63.62400 40.67400
C  29.70300 64.56300 41.70500
N  28.71000 58.37500 40.24000
C  28.13900 59.56900 40.48100
C  26.71800 59.54300 40.36300
C  26.51700 58.15600 39.96800
C  27.77400 57.50200 39.90000
C  25.67600 60.57700 40.68100
C  25.51900 57.16300 39.51300
O  24.29800 57.19300 39.28900
C  26.34100 55.78800 39.24300
C  25.82000 54.62400 40.09000
O  26.42700 54.15400 41.07900
O  24.55300 54.28400 39.58800
C  23.72900 53.36100 40.44700
H  33.17200 54.12500 39.50700
H  34.43100 60.23500 40.68200
H  28.26600 61.56400 41.24500
H  28.19000 53.33400 38.96900
H  30.90400 53.05100 38.36500
H  29.41600 52.68400 40.97800
H  31.08700 53.19700 41.17200
H  30.73700 51.60700 40.38900
H  29.73300 53.42500 36.55600
H  29.14300 55.04300 36.74300
H  26.98700 52.85700 37.00500
H  28.02500 52.59500 35.64200
H  36.23800 54.82600 40.33800
H  36.46200 55.31400 38.64500
H  35.12600 54.29100 38.95800
H  36.44100 60.43300 40.01000
H  37.85800 59.68100 40.92100
H  36.29100 59.82300 41.64300
H  32.68800 62.42800 40.14600
H  30.56100 62.12800 42.35000
H  34.22700 62.79200 41.75700
H  33.69700 61.42600 42.67200
H  32.85700 62.88400 43.01300
H  29.74000 63.26700 39.87200
H  31.28600 64.14000 40.33600
H  29.14600 64.00500 42.45700
H  28.97400 65.09200 41.09100
H  30.23400 65.41600 42.12900
H  25.26600 60.48700 41.68600
H  24.86800 60.40200 39.97000
H  26.11400 61.57500 40.66100
H  26.15900 55.45300 38.22200
H  23.21600 53.98300 41.18100
H  24.32500 52.62100 40.98000
H  23.05800 52.81700 39.78300

