158

Mg 35.93000 0.94400 29.77000
C  33.85600 2.34700 32.24700
C  38.48600 0.71900 32.05600
C  37.94000 0.33800 27.24400
C  33.32200 1.62000 27.32700
N  36.11600 1.47800 31.93600
C  35.13600 1.90300 32.81500
C  35.64300 1.98800 34.25900
C  37.23500 1.76000 34.07400
C  37.35100 1.28500 32.60400
C  38.19000 2.79900 34.59100
C  34.86400 0.90800 35.09300
C  34.12100 1.38800 36.30800
H  34.62800 2.65300 36.96900
N  37.89300 0.40600 29.68600
C  38.77600 0.35300 30.72200
C  40.00900 -0.15700 30.23200
C  39.88100 -0.22200 28.80900
C  38.51400 0.25900 28.46800
C  41.27000 -0.33300 31.10000
C  40.96300 -0.69900 27.79800
O  40.66400 -0.66100 26.62000
C  42.40300 -1.01200 28.22300
N  35.59100 0.85900 27.57600
C  36.65600 0.57100 26.78000
C  36.32600 0.77200 25.29800
C  34.72900 0.86100 25.33000
C  34.52700 1.14000 26.80000
C  36.97300 2.06100 24.77300
C  33.92700 -0.41200 24.78600
C  33.28100 -0.23300 23.44700
N  34.06300 1.86600 29.73800
C  33.07100 2.08000 28.64400
C  31.87300 2.51500 29.23800
C  32.10500 2.72100 30.60300
C  33.45300 2.30200 30.88000
C  30.62400 2.91600 28.53900
C  31.40700 3.02200 31.82900
O  30.24600 3.38400 31.94500
C  32.53200 2.85800 32.93300
C  32.66900 4.23100 33.66800
O  33.31700 5.16400 33.24100
O  31.83700 4.25400 34.77100
C  31.74100 5.51900 35.46100
H  39.24700 0.73500 32.83900
H  38.65400 0.16000 26.43700
H  32.44300 1.62600 26.67900
H  35.56500 3.01300 34.62000
H  37.48900 0.81100 34.54700
H  37.61400 3.60900 35.03800
H  38.87500 3.17400 33.83000
H  38.81200 2.36000 35.37200
H  35.62500 0.21300 35.44700
H  34.16900 0.51600 34.35000
H  33.86200 0.60500 37.02100
H  33.15700 1.70800 35.91300
H  41.05200 0.00800 32.11200
H  42.12300 0.24500 30.74600
H  41.59800 -1.37200 31.14300
H  42.88500 -1.08700 27.24800
H  42.44900 -1.90300 28.84800
H  42.86600 -0.16500 28.73000
H  36.77000 -0.04400 24.72900
H  34.39800 1.74500 24.78500
H  37.67300 2.41800 25.52900
H  36.33000 2.89400 24.48900
H  37.50000 1.77000 23.86500
H  33.29800 -0.70500 25.62600
H  34.63800 -1.22300 24.62800
H  33.08600 -1.13800 22.87200
H  33.75000 0.59000 22.90700
H  32.24200 0.02800 23.65100
H  30.57000 2.62900 27.48900
H  30.43200 3.98900 28.57200
H  29.74500 2.41100 28.93800
H  32.12800 2.05200 33.54600
H  32.74200 5.85000 35.73700
H  31.11900 5.31400 36.33300
H  31.33400 6.25000 34.76300
Mg 16.59600 52.64400 26.67200
C  18.71600 50.94800 28.97200
C  14.54800 53.41800 29.36100
C  14.62000 54.13200 24.48200
C  18.67300 51.44700 24.18200
N  16.56800 52.23300 28.81100
C  17.58300 51.57600 29.52900
C  17.24800 51.64700 31.04200
C  15.79000 51.93800 31.02000
C  15.61900 52.62500 29.66200
C  14.88100 50.72900 31.25000
C  18.06600 52.75200 31.70000
C  18.16500 52.75100 33.22500
H  17.03800 52.00400 33.92400
N  14.81600 53.71700 26.87500
C  14.18300 53.90300 28.06800
C  12.94700 54.61300 27.77500
C  12.95800 54.94700 26.38400
C  14.17000 54.29300 25.84200
C  12.00700 55.13900 28.87900
C  11.98400 55.82500 25.57200
O  12.20200 55.99100 24.35900
C  10.83400 56.42000 26.20400
N  16.62700 52.64300 24.65200
C  15.75400 53.46100 23.97800
C  16.05300 53.41100 22.46000
C  17.58500 52.93800 22.42200
C  17.63000 52.32500 23.84800
C  15.09700 52.52500 21.60100
C  18.68400 53.99400 22.10400
C  19.97200 53.54600 21.54000
N  18.25200 51.28000 26.49900
C  19.02900 50.90900 25.43900
C  20.14900 50.15800 25.86600
C  20.05900 50.08500 27.30300
C  18.93100 50.88200 27.62500
C  21.17900 49.50600 25.02200
C  20.66900 49.56200 28.52500
O  21.62400 48.88300 28.82400
C  19.82300 50.21900 29.71800
C  19.36100 49.15200 30.55800
O  18.68800 48.20300 30.18300
O  19.78400 49.47300 31.82600
C  19.37300 48.60200 32.91300
H  13.91100 53.67700 30.20900
H  13.95000 54.48600 23.69500
H  19.45400 51.23400 23.44800
H  17.50700 50.69900 31.51400
H  15.48500 52.73600 31.69700
H  14.15800 50.64300 30.43900
H  14.30200 50.77100 32.17300
H  15.49900 49.83900 31.36500
H  17.46600 53.65700 31.60300
H  18.98900 52.67100 31.12700
H  18.09900 53.77400 33.59700
H  19.07900 52.23500 33.51800
H  11.82100 56.21200 28.86200
H  12.40400 54.85800 29.85400
H  10.97400 54.83000 28.71600
H  9.96900 55.79500 26.42900
H  10.51700 57.22400 25.53900
H  11.13400 56.91000 27.13000
H  16.16800 54.45400 22.16700
H  17.66700 52.05300 21.79100
H  14.55900 51.78400 22.19200
H  15.59400 51.96300 20.81000
H  14.30500 53.12400 21.15000
H  18.93800 54.44900 23.06200
H  18.32400 54.77300 21.43200
H  20.48800 54.30400 20.95100
H  19.85300 52.66600 20.90800
H  20.60200 53.27300 22.38600
H  21.74700 48.84900 25.68100
H  21.79100 50.21400 24.46400
H  20.73400 48.83700 24.28600
H  20.43000 50.97900 30.21100
H  19.38000 47.57100 32.55900
H  18.39500 48.84300 33.32900
H  20.14500 48.75100 33.66700

