158

Mg 35.45900 1.64800 29.53900
C  33.58100 2.96500 32.03400
C  38.26800 1.79000 31.68500
C  37.54900 0.84100 27.00400
C  32.88800 2.20300 27.25000
N  35.86100 2.17500 31.65000
C  34.86900 2.64800 32.43900
C  35.37800 2.57700 33.89000
C  36.90100 2.60700 33.77000
C  37.07700 2.22000 32.29100
C  37.49700 3.92000 34.17300
C  34.77600 1.35200 34.70300
C  34.18100 1.84500 36.05600
H  34.70000 3.06800 36.75300
N  37.58000 1.30500 29.34100
C  38.51600 1.31800 30.38200
C  39.74000 0.75900 29.95500
C  39.58900 0.41300 28.58700
C  38.20800 0.86400 28.22400
C  40.89300 0.58900 30.93300
C  40.62500 -0.07700 27.60600
O  40.34100 -0.25900 26.45900
C  41.98300 -0.27300 28.02800
N  35.33300 1.70600 27.33300
C  36.27200 1.12500 26.58700
C  35.74500 0.96200 25.19200
C  34.18200 1.07800 25.33200
C  34.15100 1.75200 26.70300
C  36.32900 2.00800 24.16500
C  33.36300 -0.24500 25.32200
C  32.36600 -0.34900 24.14500
N  33.57300 2.39700 29.59000
C  32.60000 2.50800 28.59500
C  31.43400 3.02100 29.17800
C  31.76900 3.26600 30.50900
C  33.05700 2.81800 30.71400
C  30.10800 3.26900 28.49600
C  31.24100 3.82100 31.70200
O  30.13900 4.23800 32.07000
C  32.39300 3.53000 32.81300
C  32.59300 4.87600 33.51200
O  33.42200 5.66300 33.19000
O  31.76300 5.02200 34.62200
C  31.86900 6.30700 35.43000
H  39.06000 1.84000 32.43400
H  38.07800 0.43300 26.14100
H  32.06800 2.07500 26.54000
H  35.02600 3.48800 34.37300
H  37.37300 1.81800 34.35500
H  38.48300 3.71000 34.58700
H  36.96200 4.49800 34.92600
H  37.60800 4.58600 33.31700
H  35.58200 0.63100 34.84400
H  34.04800 0.75400 34.15500
H  34.31900 0.99200 36.72000
H  33.10600 1.99300 35.95600
H  40.66900 0.62400 31.99900
H  41.55200 1.44200 30.77200
H  41.40600 -0.37300 30.95100
H  42.56200 -0.70500 27.21300
H  41.92000 -1.03300 28.80700
H  42.41600 0.59000 28.53400
H  35.94300 -0.05300 24.84800
H  33.77400 1.71600 24.54900
H  35.62500 2.78300 23.86100
H  36.74200 1.39300 23.36600
H  37.17300 2.55200 24.58900
H  32.83500 -0.31000 26.27300
H  33.98700 -1.13000 25.19900
H  32.60300 -1.14000 23.43400
H  32.39100 0.55600 23.53700
H  31.39000 -0.50800 24.60200
H  29.81700 4.22200 28.93600
H  29.47500 2.41900 28.75100
H  30.15500 3.45000 27.42200
H  31.99900 2.86300 33.58100
H  30.81100 6.50300 35.60100
H  32.16100 7.19100 34.86200
H  32.38700 6.19300 36.38200
Mg -10.22100 17.39400 40.73300
C  -6.78400 17.19000 40.90900
C  -9.84800 20.76800 40.16100
C  -13.56500 17.52600 40.09100
C  -10.28600 13.98600 40.55200
N  -8.52400 18.78900 40.45800
C  -7.26700 18.47600 40.68600
C  -6.29800 19.68800 40.46500
C  -7.31200 20.90400 40.72100
C  -8.66000 20.11900 40.49800
C  -7.27700 21.44800 42.11800
C  -5.59900 19.72200 39.06100
C  -4.09400 19.46200 39.03400
H  -3.50900 18.65000 37.92700
N  -11.52100 18.91400 40.18900
C  -11.16600 20.27000 39.96400
C  -12.30500 21.01700 39.59400
C  -13.45300 20.14800 39.74000
C  -12.86900 18.78300 39.95400
C  -12.19800 22.49400 39.13800
C  -14.91300 20.56800 39.66300
O  -15.19900 21.73300 39.50200
C  -15.99200 19.61400 39.60600
N  -11.72800 15.93000 40.47600
C  -13.01500 16.23200 40.36700
C  -13.80900 14.92800 40.22700
C  -12.77700 13.80300 40.17500
C  -11.51900 14.65100 40.39300
C  -14.94500 14.73900 41.26700
C  -12.81500 13.08100 38.86100
C  -12.69600 11.54900 39.03400
N  -8.86900 15.86400 40.76200
C  -9.00600 14.47900 40.76800
C  -7.81400 13.79200 40.87700
C  -6.92700 14.92300 40.97900
C  -7.63100 16.07500 40.92500
C  -7.63300 12.32800 40.87700
C  -5.45800 15.15200 41.04300
O  -4.58300 14.30400 41.08100
C  -5.38600 16.69200 41.19100
C  -4.95900 17.15600 42.55700
O  -3.88000 17.70800 42.72100
O  -5.92300 17.00400 43.48700
C  -5.63600 17.60500 44.82000
H  -9.83700 21.85700 40.07600
H  -14.62300 17.39400 39.85100
H  -10.32200 12.89500 40.53200
H  -5.51200 19.70100 41.22100
H  -7.19300 21.68000 39.96500
H  -6.90600 22.46700 42.00200
H  -6.55800 20.93800 42.75900
H  -8.29300 21.47700 42.51100
H  -5.68300 20.66400 38.52000
H  -6.26000 19.06000 38.50100
H  -3.73100 19.36800 40.05700
H  -3.68800 20.43800 38.76800
H  -12.13200 23.12600 40.02400
H  -13.13900 22.76300 38.65900
H  -11.26000 22.69700 38.62000
H  -16.04400 18.94600 38.74700
H  -16.94000 20.14600 39.67900
H  -15.90800 19.08900 40.55800
H  -14.23000 15.07500 39.23200
H  -13.00300 13.19100 41.04800
H  -15.12300 15.63900 41.85600
H  -14.78600 13.92800 41.97700
H  -15.83500 14.58800 40.65600
H  -11.99000 13.47500 38.26700
H  -13.76900 13.33000 38.39600
H  -11.67500 11.22600 38.82800
H  -13.37300 11.00100 38.37900
H  -12.88100 11.34500 40.08900
H  -7.94000 11.94300 39.90500
H  -8.33000 11.84600 41.56200
H  -6.62000 11.95700 41.03200
H  -4.66600 16.98800 40.42700
H  -4.80400 17.14700 45.35400
H  -6.59600 17.47700 45.32000
H  -5.42100 18.67100 44.74800

