158

Mg -1.87500 17.84800 26.51300
C  -2.33200 15.49500 29.11100
C  -2.26400 20.36000 28.69500
C  -2.44700 19.94700 23.85300
C  -2.30500 15.12300 24.23000
N  -2.42300 17.87000 28.69500
C  -2.31300 16.84900 29.56000
C  -2.41100 17.37600 31.04200
C  -2.53100 18.90500 30.85500
C  -2.41500 19.09500 29.33300
C  -3.76500 19.52900 31.49600
C  -1.30600 16.74300 31.97600
C  -0.89600 17.52700 33.24500
H  -0.66000 16.70000 34.53800
N  -2.02900 19.92400 26.32800
C  -2.22000 20.79000 27.36400
C  -2.26700 22.14100 26.89700
C  -2.25700 22.04900 25.43200
C  -2.31400 20.57300 25.16600
C  -2.43500 23.35400 27.80700
C  -2.39400 23.05300 24.23600
O  -2.36200 22.83600 23.09300
C  -2.57400 24.50700 24.69200
N  -2.03600 17.65000 24.37700
C  -2.39600 18.61900 23.50300
C  -2.65700 18.11300 22.06900
C  -2.37700 16.58300 22.27200
C  -2.28300 16.43700 23.77700
C  -3.86900 18.58100 21.25800
C  -1.13400 16.15200 21.40600
C  0.19900 15.77600 22.14300
N  -2.07000 15.68000 26.55100
C  -2.18300 14.78600 25.56700
C  -2.19800 13.47700 26.09000
C  -2.21200 13.70700 27.47200
C  -2.16900 15.06800 27.73800
C  -2.17600 12.12800 25.41600
C  -2.33400 13.05900 28.74900
O  -2.50700 11.84200 29.00900
C  -2.42800 14.17200 29.84300
C  -1.40900 13.83400 30.82200
O  -0.19800 13.90500 30.64800
O  -2.08600 13.36600 31.83900
C  -1.25400 12.87800 32.90600
H  -2.19100 21.19800 29.39100
H  -2.92400 20.60000 23.11900
H  -2.57900 14.28600 23.58500
H  -3.30200 16.82900 31.34800
H  -1.67600 19.42000 31.29300
H  -4.39500 20.05400 30.77700
H  -3.49600 20.32500 32.19000
H  -4.32100 18.82300 32.11200
H  -0.41200 16.47500 31.41300
H  -1.67400 15.80500 32.39100
H  -1.48800 18.41900 33.44900
H  0.06400 17.91600 32.90300
H  -1.47700 23.87300 27.78000
H  -2.62200 22.83400 28.74600
H  -3.24400 24.00000 27.46600
H  -1.82200 24.65500 25.46700
H  -3.61600 24.40500 24.99300
H  -2.42900 25.07800 23.77500
H  -1.93200 18.59200 21.41100
H  -3.15200 15.90700 21.91300
H  -4.29600 19.44100 21.77300
H  -4.61900 17.80100 21.12400
H  -3.54000 18.82000 20.24700
H  -0.94500 16.88700 20.62400
H  -1.43100 15.20100 20.96500
H  0.25100 14.68800 22.14500
H  0.37100 16.11400 23.16600
H  1.09000 16.04900 21.57800
H  -1.30100 12.08800 24.76600
H  -3.15600 12.17700 24.94300
H  -2.06700 11.32500 26.14500
H  -3.44300 14.21100 30.23900
H  -0.93200 11.86600 32.66000
H  -1.92900 12.76300 33.75300
H  -0.38400 13.48700 33.15300
Mg 27.14800 49.91900 26.12900
C  25.21900 50.91400 28.84800
C  29.69000 48.91400 28.42400
C  29.14600 49.21700 23.46900
C  24.69300 50.94200 23.95700
N  27.41400 49.92700 28.36500
C  26.41400 50.35700 29.25600
C  26.89000 50.03500 30.71800
C  28.35600 49.41700 30.56000
C  28.51900 49.48100 28.99700
C  29.50800 50.20800 31.27700
C  25.81900 49.19200 31.49500
C  25.69700 49.74500 32.94000
H  25.74800 48.87200 34.14100
N  29.14500 49.18600 25.99600
C  30.03800 48.85400 27.03900
C  31.26500 48.36700 26.41600
C  31.16700 48.47000 24.98000
C  29.74400 48.96200 24.76300
C  32.42100 47.90200 27.36300
C  32.25400 48.28300 23.89200
O  32.07300 48.64100 22.71600
C  33.52300 47.64900 24.25500
N  26.94100 50.05600 24.06500
C  27.84700 49.59200 23.17100
C  27.22900 49.65100 21.74900
C  25.87000 50.22200 21.89000
C  25.80100 50.29300 23.41200
C  28.08400 50.31300 20.66500
C  24.76400 49.27800 21.33300
C  23.78200 49.98200 20.38100
N  25.30000 50.85600 26.29000
C  24.39900 51.10300 25.34800
C  23.25300 51.72700 25.99400
C  23.57200 51.77800 27.33000
C  24.78000 51.06700 27.47900
C  21.98900 52.17100 25.35900
C  23.06600 52.16800 28.66000
O  22.07200 52.81100 28.91800
C  24.08200 51.44800 29.68900
C  24.49000 52.57100 30.68800
O  25.19800 53.53800 30.46600
O  23.67500 52.45200 31.82900
C  24.11400 53.36200 32.86800
H  30.45900 48.46700 29.05700
H  29.73700 48.90500 22.60500
H  23.93800 51.31700 23.26200
H  26.91700 51.03400 31.15400
H  28.30200 48.41200 30.97900
H  29.08500 50.62600 32.19000
H  29.97100 50.95300 30.62900
H  30.28300 49.48500 31.53300
H  26.11300 48.14400 31.55000
H  24.84600 49.21000 31.00500
H  24.72000 50.19500 33.11900
H  26.43100 50.52300 33.14500
H  32.09900 47.04200 27.94900
H  32.63400 48.72700 28.04300
H  33.31400 47.65900 26.78700
H  34.13200 48.24900 24.93100
H  34.05400 47.57500 23.30600
H  33.44600 46.64300 24.67000
H  27.15500 48.59900 21.47300
H  25.93900 51.24400 21.51600
H  29.03800 50.56500 21.12800
H  27.68200 51.28300 20.37300
H  28.09800 49.74600 19.73400
H  24.25200 48.91100 22.22300
H  25.20200 48.48000 20.73400
H  24.27000 49.96700 19.40700
H  23.66700 51.01900 20.69600
H  22.83600 49.44800 20.29500
H  22.05300 53.20000 25.00800
H  21.21400 52.19300 26.12500
H  21.79100 51.47100 24.54700
H  23.52500 50.66800 30.20700
H  23.47600 53.29000 33.74800
H  23.91300 54.35100 32.45600
H  25.11400 53.20500 33.27300

