158

Mg 49.78200 46.10100 42.18000
C  46.58500 46.74600 41.08600
C  49.55600 42.84000 41.03500
C  53.20500 45.75000 42.27000
C  50.14400 49.71300 42.61100
N  48.25800 45.00000 41.21600
C  47.02200 45.47400 40.92500
C  46.34900 44.43700 40.06700
C  47.10400 43.16000 40.37700
C  48.39400 43.66100 40.92300
C  46.36600 42.06100 41.26600
C  46.44700 44.89500 38.58100
C  45.16300 44.61000 37.77500
H  45.26400 43.78800 36.50900
N  51.15500 44.47400 41.79300
C  50.85900 43.29400 41.32900
C  51.97800 42.44300 41.31400
C  53.03100 43.23400 41.68100
C  52.46300 44.55400 42.04300
C  51.96800 40.99700 40.77000
C  54.50300 42.72600 41.78700
O  54.71100 41.58800 41.35800
C  55.64700 43.59100 42.15800
N  51.44800 47.54200 42.45900
C  52.76800 47.08600 42.51700
C  53.70300 48.28100 42.63600
C  52.77800 49.55400 42.74500
C  51.34900 48.93100 42.54800
C  54.86300 48.19300 43.59300
C  53.10000 50.77300 41.74800
C  53.56600 52.08800 42.46200
N  48.66100 47.95000 41.92400
C  48.89400 49.24200 42.27100
C  47.62700 50.01300 42.16700
C  46.66400 49.04600 41.77700
C  47.36900 47.82500 41.55200
C  47.32400 51.46500 42.37600
C  45.20200 48.80300 41.43700
O  44.21900 49.49400 41.46100
C  45.22500 47.43300 40.82100
C  44.25000 46.56200 41.53800
O  44.45800 45.96600 42.60500
O  43.12500 46.36200 40.83400
C  42.14100 45.50900 41.54500
H  49.42900 41.79400 40.74700
H  54.28000 45.56000 42.23900
H  50.31300 50.76500 42.85000
H  45.30700 44.41700 40.38700
H  47.31100 42.60200 39.46400
H  45.93200 41.30900 40.60800
H  45.64000 42.47900 41.96400
H  47.19300 41.61500 41.82000
H  47.21900 44.23900 38.17700
H  46.77900 45.92300 38.43900
H  44.73700 45.56700 37.47300
H  44.48300 44.01400 38.38300
H  51.82800 40.81800 39.70400
H  51.17800 40.38800 41.20800
H  52.76900 40.39000 41.19100
H  55.82900 44.38700 41.43600
H  56.58800 43.04100 42.18400
H  55.32200 43.82500 43.17100
H  54.08800 48.28200 41.61600
H  52.78100 49.84800 43.79500
H  55.80800 47.93100 43.11700
H  54.64100 47.49400 44.40000
H  54.98800 49.16200 44.07700
H  52.35200 51.04300 41.00200
H  53.95100 50.39300 41.18200
H  54.64400 52.24900 42.48700
H  53.24800 52.15700 43.50300
H  52.99800 52.87200 41.96000
H  47.86300 51.73600 43.28300
H  46.25400 51.61300 42.51500
H  47.65300 52.10300 41.55500
H  44.91600 47.31700 39.78300
H  41.75000 45.99100 42.44100
H  42.57000 44.58700 41.93800
H  41.19800 45.43900 41.00300
Mg 0.86600 42.59200 26.10100
C  2.45900 42.51200 29.23800
C  -2.11000 41.88700 27.63000
C  -0.50100 41.87200 23.05200
C  4.00000 43.00000 24.62600
N  0.27400 42.38700 28.20300
C  1.08800 42.31900 29.31700
C  0.24800 42.00100 30.62100
C  -1.20900 41.70200 30.03100
C  -1.04900 42.01300 28.51000
C  -1.65100 40.27700 30.35000
C  0.30400 43.17700 31.65800
C  0.88900 42.80800 32.99200
H  0.54000 41.52600 33.74000
N  -1.03700 42.12000 25.43600
C  -2.10900 42.00700 26.27400
C  -3.25600 41.94600 25.43500
C  -2.85500 41.92300 24.04300
C  -1.41200 41.88800 24.10500
C  -4.64900 41.87000 26.06500
C  -3.62100 41.77700 22.76900
O  -3.16200 41.61100 21.68900
C  -5.08400 41.91800 22.84900
N  1.58400 42.46200 24.19800
C  0.85800 42.10600 23.12800
C  1.73800 41.98500 21.88400
C  3.08800 42.73600 22.30300
C  2.88600 42.76300 23.83100
C  1.98200 40.49000 21.57000
C  3.23200 44.13100 21.62900
C  2.63400 45.35000 22.46600
N  2.82700 42.74000 26.80300
C  3.97000 42.99400 26.07300
C  5.06100 43.21800 26.93200
C  4.49600 43.01900 28.22000
C  3.16600 42.75200 28.05200
C  6.48000 43.53500 26.56100
C  4.84200 42.96800 29.55800
O  6.01100 43.06600 30.03400
C  3.51300 42.63500 30.33600
C  3.75400 41.31100 30.93500
O  3.75200 40.24100 30.34500
O  4.06300 41.43000 32.23700
C  4.44900 40.24100 33.09500
H  -2.97600 41.42600 28.10800
H  -0.88800 41.88300 22.03100
H  5.00900 43.09700 24.22100
H  0.73800 41.11000 31.01300
H  -1.95100 42.41300 30.39400
H  -1.69400 39.63800 29.46800
H  -2.66000 40.54000 30.67100
H  -1.13100 39.69200 31.10900
H  -0.72500 43.52400 31.75500
H  0.93700 44.00400 31.33500
H  0.51100 43.55600 33.68900
H  1.97300 42.90200 32.93500
H  -4.54100 42.36200 27.03200
H  -4.97200 40.84500 26.24500
H  -5.33400 42.47600 25.47100
H  -5.44300 41.12500 23.50600
H  -5.39700 41.77300 21.81500
H  -5.43800 42.83100 23.32800
H  1.26400 42.46400 21.02700
H  4.02500 42.22500 22.08400
H  1.48000 40.31700 20.61800
H  1.66000 39.82200 22.36900
H  3.03300 40.21100 21.48800
H  2.74200 44.18200 20.65700
H  4.26000 44.29200 21.30500
H  3.41500 45.99800 22.86300
H  1.95600 44.98900 23.24000
H  2.11300 45.98500 21.74900
H  6.47100 44.26900 25.75500
H  7.00100 42.70200 26.09000
H  7.05300 43.91200 27.40900
H  3.17500 43.38600 31.05100
H  5.51400 40.31800 33.31700
H  4.41600 39.30200 32.54300
H  3.75800 39.92100 33.87500

