158

Mg 48.63000 33.90500 27.54000
C  46.93300 32.33100 30.05000
C  48.65500 36.80600 29.54200
C  50.21400 35.58500 25.14100
C  47.97500 31.23800 25.41900
N  47.87400 34.48400 29.59300
C  47.34200 33.60800 30.47500
C  47.11700 34.20800 31.87600
C  47.30400 35.74500 31.50900
C  47.93900 35.69000 30.09300
C  46.04700 36.58000 31.65600
C  48.23200 33.71400 32.77500
C  47.66900 33.40800 34.18700
H  47.75200 34.50100 35.31200
N  49.39300 35.92200 27.39900
C  49.34800 36.93600 28.32800
C  50.18500 38.05900 27.88700
C  50.81200 37.63600 26.65400
C  50.18100 36.37400 26.33000
C  50.38300 39.31300 28.68000
C  51.87200 38.34100 25.76900
O  52.17700 37.82700 24.70700
C  52.44500 39.72200 26.11600
N  48.91500 33.61200 25.53500
C  49.59200 34.42300 24.73100
C  49.87500 33.84900 23.34400
C  49.43500 32.40000 23.56500
C  48.69800 32.38200 24.91200
C  49.13100 34.59200 22.18400
C  50.62000 31.37200 23.63700
C  50.18300 29.93300 22.97200
N  47.63300 32.10300 27.65800
C  47.43100 31.14600 26.71000
C  46.71300 30.07000 27.31700
C  46.45500 30.42700 28.63100
C  47.03000 31.72600 28.74200
C  46.38300 28.83300 26.66600
C  45.84000 30.09800 29.95800
O  45.17200 29.07900 30.21300
C  46.07700 31.33900 30.91900
C  46.77600 30.76800 32.04600
O  47.95200 30.47000 32.09500
O  45.85800 30.67900 33.10300
C  46.31900 29.94600 34.32900
H  48.76100 37.70900 30.14700
H  50.72200 36.16000 24.36300
H  47.73100 30.44200 24.71300
H  46.08000 34.05700 32.17800
H  48.07000 36.19300 32.14200
H  46.00600 37.34900 30.88500
H  46.18200 37.08000 32.61600
H  45.10600 36.04300 31.77100
H  49.04200 34.44300 32.75400
H  48.71800 32.86100 32.30100
H  48.24900 32.53600 34.48900
H  46.61600 33.12700 34.20900
H  51.12300 39.21000 29.47400
H  49.47700 39.50200 29.25700
H  50.69100 40.15600 28.06200
H  52.55800 39.90200 27.18500
H  51.93800 40.58800 25.69000
H  53.42300 39.57800 25.65700
H  50.91500 34.11900 23.16100
H  48.60400 32.10900 22.92300
H  48.46500 35.39400 22.50400
H  48.68600 33.80300 21.57800
H  49.85300 35.17600 21.61300
H  51.00600 31.20400 24.64200
H  51.50900 31.76900 23.14700
H  49.13800 29.90000 22.66400
H  50.35400 29.15000 23.71100
H  50.83100 29.71000 22.12400
H  45.86300 28.14600 27.33200
H  47.23900 28.28500 26.27300
H  45.73800 29.21100 25.87300
H  45.11500 31.79600 31.15100
H  47.08100 29.19800 34.11300
H  45.44100 29.48000 34.77700
H  46.64900 30.66600 35.07800
Mg -9.85200 39.88400 39.86500
C  -8.90200 36.51700 39.13600
C  -6.57000 40.86400 39.32200
C  -10.78800 43.08200 39.65700
C  -13.17000 38.73600 39.95900
N  -8.08400 38.77800 39.23400
C  -7.83100 37.42800 39.02300
C  -6.40200 37.11700 38.53800
C  -5.65200 38.45100 38.96600
C  -6.83400 39.50100 39.14800
C  -4.69900 38.39100 40.20800
C  -6.27400 36.84400 36.89000
C  -7.39300 37.39300 35.96600
H  -8.08000 36.57100 34.87900
N  -8.82500 41.74400 39.56700
C  -7.48700 41.87100 39.40900
C  -7.17100 43.35000 39.36800
C  -8.35300 43.99000 39.35200
C  -9.38200 42.96600 39.53700
C  -5.74100 43.84000 39.33500
C  -8.56100 45.43900 39.07600
O  -7.61100 46.21100 39.06200
C  -9.96400 46.03300 38.78200
N  -11.71500 40.74100 39.75600
C  -11.83900 42.11500 39.65900
C  -13.27400 42.51300 39.43300
C  -14.05100 41.09900 39.54800
C  -12.95000 40.13900 39.76000
C  -13.94300 43.62100 40.28800
C  -14.95500 40.85400 38.32200
C  -16.42000 40.37600 38.45800
N  -10.87900 38.00200 39.77100
C  -12.21200 37.67700 39.86200
C  -12.42200 36.26300 39.85300
C  -11.14400 35.74500 39.51600
C  -10.23900 36.86600 39.53400
C  -13.61700 35.38600 40.16100
C  -10.40700 34.55100 39.21800
O  -10.73600 33.39000 39.14700
C  -8.91100 35.06800 38.96300
C  -8.02400 34.34900 39.88500
O  -8.23800 34.07500 41.07500
O  -6.89200 33.93200 39.25200
C  -5.88200 33.16200 40.04300
H  -5.49400 41.04700 39.27300
H  -11.22100 44.08300 39.59900
H  -14.20000 38.37900 39.88500
H  -5.96900 36.29600 39.10900
H  -5.08100 38.75800 38.09100
H  -3.69400 38.74600 39.98000
H  -4.70900 37.38700 40.63000
H  -5.13700 38.98900 41.00700
H  -6.39500 35.76600 36.78800
H  -5.27400 36.97800 36.47800
H  -6.95300 38.29200 35.53400
H  -8.23900 37.85100 36.47800
H  -5.40000 44.03300 38.31800
H  -5.06400 43.15900 39.85100
H  -5.53000 44.79900 39.80800
H  -10.58900 46.09100 39.67300
H  -10.59900 45.62500 37.99500
H  -9.74700 47.04500 38.44100
H  -13.10200 42.91600 38.43500
H  -14.68500 41.04400 40.43300
H  -14.72300 43.27700 40.96800
H  -14.43400 44.34100 39.63300
H  -13.23100 44.10900 40.95300
H  -14.46200 39.95700 37.94900
H  -14.70700 41.62200 37.58900
H  -17.08700 40.95600 37.82100
H  -16.84900 40.31300 39.45800
H  -16.56000 39.42100 37.95100
H  -14.16000 36.00000 40.87900
H  -13.29100 34.44700 40.60800
H  -14.15100 35.11200 39.25100
H  -8.71800 34.79800 37.92500
H  -5.49700 32.26600 39.55700
H  -6.35100 32.68300 40.90300
H  -5.03900 33.83200 40.21500

