158

Mg -10.28600 39.81200 42.12100
C  -9.36400 36.47700 41.56600
C  -7.30500 40.86800 41.05300
C  -11.70000 42.76500 41.89700
C  -13.66100 38.54200 42.97300
N  -8.52600 38.74700 41.52300
C  -8.39100 37.44700 41.29700
C  -7.03000 37.21400 40.46600
C  -6.25800 38.50600 40.74000
C  -7.40300 39.47200 41.13700
C  -5.14500 38.44600 41.90700
C  -7.23400 37.04200 38.93200
C  -6.65500 35.78900 38.25700
H  -5.62800 36.12800 37.16700
N  -9.52400 41.59500 41.74600
C  -8.28000 41.87200 41.20300
C  -8.13100 43.28900 40.95300
C  -9.46700 43.83600 41.13500
C  -10.31800 42.76000 41.62600
C  -6.81000 43.89300 40.46600
C  -9.82000 45.29600 40.80700
O  -8.88000 46.06300 40.67700
C  -11.19500 45.82900 40.76200
N  -12.43900 40.48900 42.35100
C  -12.63600 41.81200 42.24800
C  -14.12800 42.18700 42.60700
C  -14.76000 40.76200 42.96800
C  -13.50700 39.87100 42.90800
C  -14.44900 43.32700 43.68800
C  -15.92200 40.30600 42.05000
C  -17.18500 39.82200 42.78900
N  -11.31900 37.87800 42.34400
C  -12.63100 37.56200 42.74400
C  -12.72800 36.08400 42.70300
C  -11.46600 35.60000 42.29400
C  -10.63700 36.74000 42.14400
C  -14.01800 35.27400 42.94900
C  -10.70400 34.41900 41.90700
O  -10.98300 33.24700 42.05800
C  -9.30800 34.96100 41.41700
C  -8.27300 34.34900 42.33800
O  -8.23500 34.34200 43.52900
O  -7.22400 33.91900 41.53300
C  -5.90600 33.59700 42.19500
H  -6.29700 41.21300 40.81300
H  -12.23300 43.71700 41.92400
H  -14.65300 38.12500 43.16000
H  -6.45400 36.34900 40.79400
H  -5.75100 38.98500 39.90300
H  -5.29900 39.27200 42.60200
H  -4.14400 38.49000 41.47800
H  -5.16600 37.52200 42.48400
H  -7.00900 37.88500 38.28000
H  -8.32100 36.98000 38.89200
H  -7.50000 35.31400 37.75900
H  -6.19300 35.04600 38.90600
H  -6.02700 43.86400 41.22200
H  -6.87600 44.92300 40.11400
H  -6.41100 43.26400 39.67000
H  -11.89400 45.05600 40.44600
H  -11.16700 46.61400 40.00600
H  -11.46900 46.16800 41.76200
H  -14.44400 42.50800 41.61500
H  -15.06900 40.92000 44.00100
H  -14.99100 44.15000 43.22100
H  -13.49300 43.68100 44.07300
H  -15.10500 43.05400 44.51500
H  -15.45100 39.57600 41.39300
H  -16.24600 41.06000 41.33200
H  -18.09600 40.22200 42.34400
H  -17.14700 39.85600 43.87800
H  -17.24000 38.74700 42.61800
H  -14.60000 35.23500 42.02800
H  -14.59500 35.49700 43.84700
H  -13.69400 34.24200 43.08100
H  -9.12600 34.61400 40.39900
H  -5.93900 32.77300 42.90800
H  -5.46500 34.47200 42.67200
H  -5.25800 33.13400 41.45000
Mg -5.47900 24.74000 26.31500
C  -3.83200 26.68300 28.65700
C  -6.49100 22.68300 28.82200
C  -6.51000 22.57000 23.97600
C  -3.93000 26.67700 23.71000
N  -5.17600 24.78500 28.44800
C  -4.54800 25.66500 29.22800
C  -4.74100 25.40500 30.75800
C  -5.40600 24.02100 30.73700
C  -5.79700 23.80400 29.24500
C  -4.52400 22.86000 31.37700
C  -5.58500 26.64500 31.33800
C  -5.15500 27.13600 32.75500
H  -4.80200 26.02200 33.71000
N  -6.43600 22.89700 26.37300
C  -6.85500 22.29700 27.50900
C  -7.68400 21.13900 27.23400
C  -7.74400 21.09700 25.74500
C  -6.91600 22.21300 25.24500
C  -8.33700 20.25200 28.26100
C  -8.66000 20.43300 24.77900
O  -8.68100 20.73500 23.58600
C  -9.59000 19.36400 25.39800
N  -5.34000 24.74400 24.16100
C  -5.79000 23.60300 23.48400
C  -5.52200 23.72600 21.96400
C  -4.69500 25.03900 21.79300
C  -4.69700 25.59700 23.30500
C  -4.91700 22.43700 21.29300
C  -5.23300 26.03200 20.74800
C  -6.12100 27.18900 21.24000
N  -4.30700 26.39200 26.08700
C  -3.71900 27.08200 25.00600
C  -2.95700 28.16200 25.47100
C  -2.91400 28.00100 26.88000
C  -3.80200 26.95500 27.22900
C  -2.15500 29.05200 24.58900
C  -2.25300 28.46500 28.03400
O  -1.44200 29.37800 28.05600
C  -2.88000 27.69700 29.26900
C  -1.90300 27.19600 30.23500
O  -1.08300 26.35700 29.91400
O  -2.07800 27.66900 31.53200
C  -1.06400 27.06300 32.41500
H  -6.75400 22.02500 29.65300
H  -6.69200 21.74900 23.27900
H  -3.46600 27.21300 22.88000
H  -3.82800 25.28900 31.34200
H  -6.36400 23.98800 31.25700
H  -5.03300 21.91200 31.55300
H  -4.17300 23.17100 32.36100
H  -3.60100 22.71900 30.81600
H  -6.55600 26.15000 31.35300
H  -5.53400 27.45100 30.60600
H  -6.00900 27.68300 33.15500
H  -4.28800 27.79400 32.81500
H  -9.42500 20.29100 28.19500
H  -7.91900 20.41000 29.25500
H  -8.01600 19.25800 27.94700
H  -10.45400 19.90000 25.79100
H  -9.03200 18.89500 26.20800
H  -9.99300 18.67000 24.66100
H  -6.48800 23.87900 21.48300
H  -3.67300 24.88500 21.44500
H  -4.22600 22.04400 22.03900
H  -4.33500 22.77600 20.43600
H  -5.72500 21.72200 21.13500
H  -5.81900 25.46600 20.02400
H  -4.37000 26.36300 20.17000
H  -5.69700 28.13700 20.90900
H  -6.30100 27.33900 22.30500
H  -7.11100 27.15000 20.78500
H  -2.88700 29.81200 24.31500
H  -1.83400 28.52700 23.68900
H  -1.36000 29.53300 25.15800
H  -3.46800 28.42000 29.83400
H  -1.13900 25.97700 32.37100
H  -1.28700 27.35300 33.44200
H  -0.03300 27.37400 32.24500

