158

Mg 48.18900 35.60400 28.06600
C  46.40000 34.13700 30.46200
C  48.59400 38.44800 29.94700
C  49.82600 37.11100 25.35800
C  48.00600 32.70900 26.01700
N  47.39600 36.24800 29.92900
C  46.91500 35.35800 30.84900
C  47.16400 35.84000 32.29400
C  47.53900 37.35800 31.97300
C  47.89600 37.34900 30.56500
C  46.44200 38.39300 32.22700
C  48.42200 35.16100 32.90900
C  48.83500 35.43500 34.29400
H  47.91600 36.34700 35.19800
N  49.10800 37.44300 27.72400
C  49.25200 38.45700 28.69200
C  50.18900 39.53500 28.14700
C  50.46200 39.14200 26.79500
C  49.81500 37.81400 26.55900
C  50.55900 40.74200 28.97800
C  51.23900 40.01100 25.81100
O  51.35400 39.66000 24.66700
C  51.76600 41.27600 26.22500
N  48.80000 34.94900 25.95900
C  49.43100 35.79700 25.08400
C  49.60900 35.03200 23.68200
C  49.17500 33.56900 23.94600
C  48.66400 33.74300 25.41800
C  48.95400 35.81400 22.56300
C  50.27700 32.47600 23.74000
C  51.14400 32.70400 22.47300
N  47.29300 33.76600 28.11400
C  47.28500 32.65700 27.29400
C  46.50500 31.59000 27.85100
C  46.13800 32.14900 29.08100
C  46.64400 33.45800 29.21700
C  45.96100 30.36200 27.21700
C  45.35900 31.91000 30.29800
O  44.56600 30.98600 30.51000
C  45.47900 33.19400 31.25300
C  45.84900 32.74800 32.64200
O  46.78900 32.02700 32.93100
O  44.94800 33.25900 33.54200
C  45.09500 32.63500 34.84900
H  48.74200 39.29700 30.61700
H  50.23900 37.59500 24.47000
H  48.21800 31.77400 25.49300
H  46.30400 35.92100 32.95900
H  48.41800 37.70300 32.51700
H  46.69000 39.40800 31.91600
H  46.29600 38.47900 33.30400
H  45.43800 38.28700 31.81500
H  49.30200 35.22400 32.27000
H  48.19700 34.09800 33.00400
H  49.85300 35.82300 34.31400
H  48.94300 34.45800 34.76400
H  50.04800 41.67500 28.73800
H  51.64100 40.85500 28.90800
H  50.18400 40.60900 29.99300
H  52.31300 41.72300 25.39500
H  52.52100 41.21600 27.00900
H  50.99300 41.95200 26.59000
H  50.65300 35.11100 23.37700
H  48.28400 33.30600 23.37500
H  49.42700 36.78100 22.39300
H  47.88100 35.93400 22.70900
H  49.12900 35.32900 21.60300
H  49.79600 31.50300 23.64300
H  50.98700 32.43000 24.56600
H  50.57200 33.34900 21.80600
H  51.48200 31.77500 22.01400
H  52.05700 33.26700 22.67000
H  46.45300 30.08500 26.28400
H  44.92100 30.46200 26.90800
H  46.08000 29.59400 27.98200
H  44.59000 33.82400 31.29000
H  45.06900 31.54600 34.83800
H  44.22700 32.89600 35.45500
H  45.96600 33.03700 35.36600
Mg -1.24000 34.28000 26.40400
C  -2.86600 32.54600 28.96800
C  0.35800 36.16200 28.77400
C  -0.08400 35.98900 23.88700
C  -3.17300 32.40000 24.16600
N  -1.41400 34.39400 28.70500
C  -2.06000 33.55400 29.57700
C  -1.77700 33.90000 31.03900
C  -0.92700 35.19200 30.90800
C  -0.62500 35.27900 29.33000
C  -1.58800 36.46100 31.51500
C  -0.97400 32.80100 31.82400
C  -1.47700 32.69900 33.33100
H  -0.40700 32.68200 34.43900
N  0.03400 35.74000 26.35500
C  0.62000 36.41100 27.39400
C  1.66100 37.27000 26.82400
C  1.61800 37.15200 25.40200
C  0.45400 36.27600 25.16500
C  2.53100 38.13100 27.71500
C  2.50800 37.73200 24.24400
O  2.37200 37.52500 23.08600
C  3.67200 38.53100 24.64300
N  -1.71700 34.26000 24.33700
C  -1.04200 35.05600 23.51000
C  -1.55000 34.90700 22.12900
C  -2.10100 33.42500 22.15900
C  -2.35100 33.36600 23.60000
C  -2.65300 36.01600 21.65700
C  -1.02000 32.33000 21.77700
C  -0.81600 32.22600 20.19300
N  -2.73000 32.82600 26.51700
C  -3.39200 32.12400 25.50600
C  -4.32800 31.22700 26.09600
C  -4.09500 31.21700 27.47000
C  -3.15600 32.34600 27.65300
C  -5.34200 30.37000 25.47600
C  -4.45800 30.73200 28.76500
O  -5.11100 29.78800 29.19100
C  -3.73200 31.62400 29.82500
C  -4.67800 32.27200 30.72500
O  -5.47000 33.18500 30.45100
O  -4.50400 31.71200 31.97000
C  -5.11700 32.50600 32.97500
H  0.91800 36.70900 29.53500
H  0.27400 36.52000 23.00200
H  -3.70200 31.81600 23.41000
H  -2.75400 34.04700 31.50100
H  0.09600 35.16100 31.28300
H  -2.55000 36.07700 31.85400
H  -1.85000 37.26500 30.82700
H  -1.01400 36.88500 32.33900
H  0.07100 33.08700 31.70600
H  -1.11200 31.79900 31.41700
H  -2.02900 31.78100 33.53100
H  -2.09800 33.57700 33.50800
H  2.38400 37.92500 28.77500
H  2.24800 39.16000 27.49600
H  3.54800 37.87800 27.41400
H  4.48900 37.87500 24.94400
H  3.43000 39.35800 25.31100
H  3.83300 39.02800 23.68600
H  -0.79200 34.80600 21.35200
H  -3.05600 33.55500 21.65100
H  -3.04100 36.44200 22.58200
H  -3.46100 35.54900 21.09400
H  -2.08900 36.76300 21.09800
H  -1.43000 31.36800 22.08400
H  -0.13800 32.67400 22.31600
H  -0.83100 31.22200 19.77000
H  0.11300 32.69800 19.87200
H  -1.55600 32.85600 19.69900
H  -5.21700 29.29000 25.55800
H  -5.55800 30.69300 24.45700
H  -6.31600 30.64000 25.88500
H  -3.14400 30.96400 30.46300
H  -4.75400 33.53400 32.97500
H  -5.07800 32.04100 33.96000
H  -6.19900 32.39200 32.90000

