158

Mg 24.54300 -6.53600 46.49500
C  26.75400 -4.23100 44.96500
C  22.32100 -5.78800 43.95000
C  22.86100 -9.32000 47.17500
C  27.28000 -7.72400 48.41100
N  24.55600 -5.05200 44.74300
C  25.51500 -4.27100 44.27000
C  25.21400 -3.59300 42.92300
C  23.76100 -4.14000 42.69000
C  23.48500 -5.04500 43.83000
C  22.80100 -2.91700 42.64600
C  26.18200 -3.88800 41.71200
C  26.55000 -2.70100 40.86500
H  25.91600 -2.58300 39.52400
N  22.68500 -7.31100 45.93200
C  21.95300 -6.88100 44.80500
C  20.73400 -7.63400 44.70200
C  20.83700 -8.62900 45.59600
C  22.18700 -8.46500 46.25100
C  19.60600 -7.28600 43.73100
C  19.73500 -9.70500 45.97800
O  18.69900 -9.64100 45.35000
C  19.95700 -10.84200 46.99300
N  25.03200 -8.23600 47.67800
C  24.13000 -9.16000 47.88100
C  24.71500 -10.31800 48.80500
C  26.04600 -9.69600 49.33300
C  26.14600 -8.54300 48.42200
C  23.77800 -10.84100 49.90900
C  27.21900 -10.71900 49.42700
C  28.05600 -10.96100 48.14500
N  26.56500 -6.03700 46.71800
C  27.48800 -6.57600 47.58100
C  28.77200 -5.83700 47.46600
C  28.49900 -4.97600 46.44900
C  27.15100 -5.10600 46.03900
C  30.08900 -5.95200 48.26300
C  29.08500 -3.87700 45.67300
O  30.17400 -3.30800 45.76700
C  27.96300 -3.44700 44.61400
C  27.80900 -1.98000 44.69700
O  28.05600 -1.22600 43.72500
O  27.29700 -1.61300 45.92400
C  27.06400 -0.19800 46.15300
H  21.69000 -5.55000 43.09200
H  22.40100 -10.26500 47.47100
H  28.13000 -8.00400 49.03700
H  25.21300 -2.53500 43.18300
H  23.54300 -4.58100 41.71700
H  22.80600 -2.42900 41.67200
H  23.03300 -2.24400 43.47200
H  21.73400 -3.11400 42.75700
H  25.65300 -4.56300 41.04000
H  27.07100 -4.42000 42.05200
H  27.63800 -2.64800 40.88300
H  26.22800 -1.85100 41.46800
H  19.88800 -6.82100 42.78700
H  18.92600 -6.60200 44.23900
H  18.96700 -8.15800 43.58800
H  19.94400 -10.34000 47.96000
H  20.82100 -11.37400 46.59500
H  19.26500 -11.68200 46.93200
H  24.98800 -11.03300 48.02900
H  25.90800 -9.27600 50.33000
H  23.97700 -11.91200 49.86600
H  22.72100 -10.62600 49.75600
H  24.09800 -10.55200 50.91100
H  26.84000 -11.73000 49.57200
H  27.85700 -10.50200 50.28500
H  27.53800 -10.56600 47.27100
H  28.22300 -12.02100 47.95400
H  29.05500 -10.53600 48.24100
H  30.90800 -6.33700 47.65600
H  30.08500 -6.59300 49.14400
H  30.27300 -4.93500 48.61100
H  28.41800 -3.71400 43.66000
H  26.15600 0.24000 45.73800
H  27.86800 0.44400 45.79200
H  26.99700 -0.04800 47.23000
Mg -10.41300 15.96800 42.80400
C  -7.01200 16.91800 43.02900
C  -11.14800 19.30500 42.32500
C  -13.59900 15.06100 42.16100
C  -9.30900 12.60900 42.47300
N  -9.17700 17.86600 42.61100
C  -7.85900 18.01500 42.78900
C  -7.47100 19.53400 42.56400
C  -8.79100 20.27400 42.42900
C  -9.79800 19.10500 42.49600
C  -9.11800 21.45100 43.49300
C  -6.53200 19.55600 41.28600
C  -5.46100 20.62500 41.26400
H  -5.31200 21.34000 39.96200
N  -12.14100 17.03300 42.27600
C  -12.20600 18.40400 42.12400
C  -13.55500 18.72000 41.77000
C  -14.30200 17.48000 41.58800
C  -13.37300 16.44600 42.01400
C  -13.99500 20.14500 41.37200
C  -15.65800 17.35200 41.09000
O  -16.29900 18.36500 40.89000
C  -16.35000 16.01200 40.84000
N  -11.33400 14.09700 42.31100
C  -12.67000 14.02300 42.37000
C  -13.16900 12.55500 42.43800
C  -11.73800 11.79300 42.30400
C  -10.65600 12.86100 42.37300
C  -13.89300 12.20800 43.78600
C  -11.65500 10.69700 41.23300
C  -11.07800 11.16800 39.81900
N  -8.60200 14.90800 42.93300
C  -8.32900 13.57100 42.73900
C  -6.91200 13.36700 42.83000
C  -6.38900 14.64700 43.00700
C  -7.43300 15.58200 43.01900
C  -6.19300 12.06300 42.70200
C  -5.11600 15.32900 43.18800
O  -3.97300 14.85300 43.22100
C  -5.50000 16.89500 43.19200
C  -5.19100 17.39300 44.54700
O  -5.53800 16.86800 45.62800
O  -4.56300 18.61600 44.48300
C  -4.30600 19.47400 45.67200
H  -11.39900 20.36800 42.32500
H  -14.57700 14.59800 42.01300
H  -8.91500 11.59100 42.52000
H  -6.94800 19.99500 43.40200
H  -8.83100 20.72000 41.43500
H  -8.25400 22.07700 43.71700
H  -9.38200 20.95700 44.42800
H  -9.92200 22.03900 43.05300
H  -7.18000 19.65600 40.41500
H  -6.07500 18.58200 41.11200
H  -4.50900 20.12200 41.44000
H  -5.78200 21.42200 41.93500
H  -14.08800 20.14700 40.28600
H  -13.31600 20.89400 41.77900
H  -14.93600 20.20900 41.91900
H  -15.74700 15.30500 40.26900
H  -17.28000 16.11300 40.28000
H  -16.70100 15.61900 41.79400
H  -13.86400 12.41900 41.61000
H  -11.44500 11.17900 43.15600
H  -14.86500 11.89400 43.40500
H  -14.09500 13.06900 44.42300
H  -13.51900 11.31300 44.28500
H  -12.68700 10.39200 41.06200
H  -11.12300 9.80400 41.56000
H  -10.30600 11.93700 39.83600
H  -11.90600 11.43900 39.16400
H  -10.61800 10.27300 39.40100
H  -6.11700 11.56000 43.66600
H  -5.15300 12.21500 42.41400
H  -6.68700 11.25900 42.15700
H  -4.88800 17.51200 42.53400
H  -4.38600 20.54900 45.51300
H  -3.41000 19.12600 46.18600
H  -5.13500 19.29700 46.35700

