158

Mg 35.41000 2.69200 30.29600
C  33.15700 3.57100 32.95200
C  37.84300 2.59900 32.65200
C  37.60100 2.31700 27.83300
C  32.75400 3.22500 27.98200
N  35.51000 3.13900 32.56900
C  34.48600 3.39700 33.42100
C  34.95600 3.46800 34.89800
C  36.47000 3.22100 34.71500
C  36.63300 2.97800 33.21000
C  37.36700 4.38300 35.27800
C  34.16200 2.53300 35.80300
C  34.80800 1.95800 37.04700
H  35.35700 2.90700 38.23400
N  37.43700 2.51100 30.25700
C  38.29800 2.44600 31.29600
C  39.60500 1.94500 30.89900
C  39.63100 1.94100 29.45200
C  38.16900 2.29600 29.09800
C  40.64900 1.75000 31.90600
C  40.70600 1.66600 28.45600
O  40.52100 1.76200 27.24300
C  42.06500 1.33100 28.88800
N  35.18100 2.89800 28.21500
C  36.27500 2.70100 27.44400
C  35.83900 2.75100 25.90400
C  34.26700 2.56000 26.02100
C  34.03500 2.92900 27.47800
C  36.30200 4.05400 25.13600
C  33.75900 1.14900 25.60600
C  32.46400 1.16000 24.82500
N  33.32500 3.28500 30.34800
C  32.40700 3.37600 29.40200
C  31.16100 3.86400 29.98200
C  31.41100 3.94600 31.35300
C  32.74300 3.56900 31.55100
C  29.81800 4.13400 29.27200
C  30.78600 4.24900 32.59900
O  29.67500 4.66600 32.82600
C  31.85400 3.94500 33.70500
C  32.08700 5.17300 34.56300
O  32.57200 6.24200 34.17400
O  31.68500 5.00000 35.85700
C  31.76500 6.11200 36.77500
H  38.58000 2.50400 33.45200
H  38.18400 2.20500 26.91800
H  31.90900 3.18600 27.29100
H  34.69400 4.47700 35.21700
H  36.74800 2.27100 35.17000
H  37.90800 4.84200 34.45000
H  38.04900 3.91400 35.98700
H  36.71700 5.07600 35.81200
H  33.73600 1.73700 35.19200
H  33.27900 2.97000 36.26900
H  35.62000 1.32000 36.69700
H  34.08400 1.31600 37.54700
H  41.38100 1.02200 31.55800
H  40.20900 1.30800 32.80000
H  40.94800 2.76600 32.16500
H  42.33800 0.27500 28.90900
H  42.36400 1.82000 29.81500
H  42.76900 1.79100 28.19500
H  36.30400 1.91000 25.38900
H  33.74100 3.35500 25.49200
H  36.96800 4.62500 25.78300
H  35.44200 4.62100 24.78300
H  36.86300 3.85600 24.22300
H  33.49100 0.49500 26.43600
H  34.54300 0.62600 25.05800
H  31.68300 0.67900 25.41300
H  32.42900 0.63300 23.87200
H  32.14600 2.14500 24.48300
H  29.06300 3.81900 29.99300
H  29.81900 3.58000 28.33300
H  29.73200 5.14900 28.88400
H  31.46400 3.09600 34.26600
H  30.73700 6.44300 36.92100
H  32.39900 6.95100 36.48800
H  32.07300 5.87900 37.79400
Mg -11.91900 38.05700 42.33500
C  -9.85700 35.47400 41.05200
C  -9.90300 40.28400 40.48600
C  -14.34800 40.48500 42.50900
C  -14.06500 35.78300 43.57000
N  -10.09300 37.90700 40.92700
C  -9.48400 36.71500 40.56400
C  -8.27500 36.97400 39.63700
C  -8.07900 38.48300 39.87600
C  -9.41000 38.95000 40.39300
C  -6.78900 38.91500 40.78900
C  -8.49100 36.52600 38.19600
C  -7.50600 35.57600 37.46100
H  -6.64000 36.06600 36.28000
N  -12.05900 40.11400 41.77100
C  -11.12800 40.82800 41.02500
C  -11.47600 42.24400 41.00100
C  -12.74600 42.34500 41.57200
C  -13.17500 40.94900 41.96900
C  -10.64300 43.43600 40.38600
C  -13.57900 43.58800 41.68200
O  -13.14800 44.63900 41.19900
C  -14.93000 43.55700 42.26300
N  -13.91000 38.11300 42.81100
C  -14.74000 39.20200 42.93100
C  -16.04400 39.02900 43.57800
C  -15.84900 37.51900 43.95300
C  -14.48400 37.08600 43.39000
C  -16.34100 39.96900 44.78500
C  -17.09800 36.63700 43.41000
C  -17.61600 35.82500 44.59200
N  -12.02500 36.02600 42.31600
C  -12.92200 35.19100 42.92700
C  -12.48600 33.87200 42.88700
C  -11.34000 33.95000 42.06300
C  -11.04300 35.28100 41.74800
C  -13.17000 32.67200 43.67800
C  -10.29800 33.12900 41.41400
O  -10.13000 31.91800 41.38800
C  -9.30900 34.11800 40.73900
C  -7.96600 33.77500 41.21800
O  -7.16800 33.09200 40.56300
O  -7.70700 34.33500 42.49300
C  -6.42200 34.12400 43.15300
H  -9.29100 40.99100 39.92200
H  -15.18100 41.18900 42.57600
H  -14.75600 35.12300 44.09700
H  -7.38700 36.44800 39.98800
H  -7.86800 38.93900 38.90900
H  -6.18100 38.01300 40.73100
H  -7.10200 39.19600 41.79500
H  -6.19600 39.73600 40.38600
H  -8.60700 37.41800 37.58000
H  -9.46900 36.04400 38.18100
H  -8.00400 34.62600 37.26600
H  -6.68900 35.47800 38.17600
H  -11.16000 43.77100 39.48700
H  -9.64100 43.06300 40.17000
H  -10.51000 44.23200 41.11800
H  -15.35200 44.54900 42.42400
H  -14.93500 42.95600 43.17300
H  -15.53900 42.97300 41.57400
H  -16.75200 39.18600 42.76400
H  -15.65600 37.51600 45.02600
H  -16.74500 39.38000 45.60900
H  -16.96900 40.83100 44.56200
H  -15.42600 40.39600 45.19600
H  -16.76600 35.92600 42.65300
H  -17.90100 37.16900 42.90100
H  -18.56900 36.19100 44.97400
H  -16.90400 35.79600 45.41700
H  -17.76100 34.79200 44.27700
H  -14.18000 32.88200 44.03000
H  -12.48100 32.34100 44.45500
H  -13.40600 31.80400 43.06300
H  -9.38200 33.77700 39.70600
H  -6.04100 33.10300 43.14800
H  -6.45000 34.32800 44.22400
H  -5.82700 34.87100 42.62800

