158

Mg 7.62200 53.61700 41.60900
C  7.15000 50.01700 41.25400
C  10.70000 53.31500 40.45300
C  7.44000 56.87000 41.31500
C  3.88300 53.61500 42.07100
N  8.72000 51.86900 41.11100
C  8.40700 50.55000 40.84900
C  9.43500 49.83700 39.93700
C  10.66800 50.69200 40.23000
C  9.99400 52.08400 40.62700
C  11.49700 50.13400 41.46000
C  8.95700 49.79000 38.41200
C  9.45800 48.53800 37.66100
H  8.61700 47.88800 36.63700
N  8.92500 54.90500 41.00300
C  10.19900 54.62200 40.63500
C  10.90300 55.81400 40.38900
C  9.98300 56.81900 40.58100
C  8.69800 56.25800 40.99100
C  12.36600 55.91700 40.01200
C  10.35000 58.30300 40.55200
O  11.44900 58.59000 40.03400
C  9.51200 59.49000 40.96600
N  5.88300 54.96100 41.54100
C  6.14000 56.29200 41.54200
C  4.76500 57.11300 41.61800
C  3.70200 56.07800 41.74400
C  4.51400 54.81400 41.77200
C  4.60700 58.32700 42.61900
C  2.56800 56.11600 40.56700
C  2.77600 55.21400 39.37800
N  5.90800 52.22600 41.87000
C  4.51900 52.38500 42.06700
C  3.86800 51.10000 42.16800
C  4.93600 50.16700 41.94000
C  6.09700 50.90000 41.66700
C  2.45600 50.83800 42.40800
C  5.26200 48.78100 42.00800
O  4.52100 47.81200 42.32600
C  6.73300 48.59900 41.49600
C  6.82700 47.77200 40.25800
O  6.24400 47.94600 39.23300
O  7.61700 46.66400 40.48400
C  7.39300 45.54600 39.51400
H  11.72700 53.30600 40.08200
H  7.33400 57.95700 41.31600
H  2.80000 53.71100 42.17900
H  9.52000 48.81900 40.31800
H  11.27700 50.80300 39.33300
H  12.50300 50.52800 41.31900
H  11.53800 49.04700 41.38600
H  11.08100 50.58200 42.36200
H  9.42100 50.67900 37.98500
H  7.90100 49.84100 38.14800
H  9.71700 47.79600 38.41600
H  10.37000 48.84300 37.14800
H  12.77900 54.91800 39.86800
H  12.93700 56.34700 40.83400
H  12.49500 56.30000 38.99900
H  9.20900 59.39000 42.00800
H  8.62100 59.62900 40.35300
H  10.11700 60.38300 40.80800
H  4.76900 57.48600 40.59400
H  3.33000 56.33000 42.73700
H  5.32000 58.35000 43.44300
H  3.63400 58.37600 43.10800
H  4.79400 59.24500 42.06300
H  2.44700 57.13400 40.19600
H  1.64700 55.85000 41.08600
H  3.77400 54.77800 39.40100
H  2.79500 55.89000 38.52300
H  2.03400 54.44700 39.15600
H  1.89700 51.09300 41.50800
H  2.13400 51.56700 43.15200
H  2.17900 49.88000 42.84800
H  7.35700 48.09900 42.23700
H  8.25600 45.52300 38.84800
H  6.54600 45.54700 38.82800
H  7.42300 44.54200 39.93700
Mg 1.72100 42.49200 25.45000
C  3.87100 42.40800 28.08700
C  -0.89100 41.15400 27.47900
C  -0.17000 41.81800 22.74500
C  4.41300 43.33300 23.31300
N  1.56400 41.78200 27.53400
C  2.57200 42.01300 28.39700
C  2.02600 41.67000 29.85100
C  0.59900 41.14200 29.57000
C  0.33600 41.48900 28.13100
C  0.26800 39.61200 30.00800
C  2.12900 42.95800 30.72900
C  2.49300 42.69300 32.25200
H  2.22700 41.31500 32.90700
N  -0.37400 41.76500 25.17300
C  -1.24400 41.27200 26.08300
C  -2.50500 40.97500 25.35900
C  -2.31200 41.27100 23.95600
C  -0.90700 41.60400 23.92700
C  -3.68800 40.34200 26.15800
C  -3.24500 41.17700 22.76700
O  -2.97800 41.49600 21.60900
C  -4.61500 40.64400 23.01100
N  2.08700 42.54800 23.33500
C  1.12100 42.24200 22.44600
C  1.65400 42.47700 21.02600
C  3.03900 43.34100 21.27900
C  3.14500 43.16000 22.71100
C  1.89000 41.15400 20.34100
C  3.02100 44.78300 20.73300
C  2.18100 45.74900 21.57500
N  3.76200 42.92400 25.61700
C  4.73600 43.21900 24.69500
C  6.00600 43.23400 25.36500
C  5.72800 42.95300 26.69000
C  4.38300 42.79000 26.77900
C  7.36200 43.61700 24.75300
C  6.29500 42.76200 28.01400
O  7.47900 42.81900 28.33300
C  5.07100 42.41800 28.99500
C  5.43400 41.15600 29.66500
O  5.23000 40.12000 29.19800
O  5.92800 41.39900 30.85700
C  5.83000 40.28400 31.78100
H  -1.67100 40.85400 28.18300
H  -0.70900 41.63400 21.81300
H  5.24000 43.44800 22.61000
H  2.65900 40.90700 30.30400
H  -0.05000 41.77500 30.17400
H  -0.03800 38.98100 29.17400
H  -0.47600 39.70100 30.80000
H  1.21600 39.20100 30.35200
H  1.22300 43.56100 30.65700
H  2.89000 43.66300 30.39600
H  1.92200 43.44200 32.80000
H  3.53200 43.02000 32.28500
H  -3.34200 40.34700 27.19200
H  -3.86600 39.28400 25.96500
H  -4.59300 40.92400 25.98300
H  -5.26300 40.87600 22.16600
H  -5.14300 41.09500 23.85200
H  -4.57400 39.56100 23.12600
H  1.00800 43.15200 20.46400
H  3.94800 42.87700 20.89600
H  1.19200 40.43700 20.77400
H  2.92600 40.89600 20.56000
H  1.68300 41.37300 19.29300
H  2.60900 44.75200 19.72400
H  3.99700 45.23600 20.55900
H  1.42700 46.05000 20.84700
H  2.73600 46.62300 21.91800
H  1.66600 45.18000 22.34900
H  7.21700 44.33400 23.94400
H  7.95000 42.80500 24.32600
H  7.95300 44.08800 25.53800
H  4.93500 43.29600 29.62600
H  6.81000 39.82000 31.66600
H  5.10600 39.48500 31.61900
H  5.71600 40.68100 32.79000

