158

Mg -1.69300 16.89800 25.82100
C  -2.10100 14.40400 28.34400
C  -2.24800 19.31400 28.18900
C  -1.71700 19.17800 23.30800
C  -1.80400 14.28000 23.50400
N  -2.09500 16.76700 28.09700
C  -2.25300 15.71800 28.92400
C  -2.60600 16.15200 30.33300
C  -2.78200 17.70400 30.17900
C  -2.28400 17.97200 28.77500
C  -4.13600 18.37500 30.63400
C  -1.52600 15.66800 31.43100
C  -1.30100 16.71200 32.55600
H  -1.03200 16.14400 33.99500
N  -1.90100 18.98300 25.78700
C  -2.13300 19.80000 26.85800
C  -2.08500 21.15400 26.39300
C  -1.95500 21.10700 24.97900
C  -1.81100 19.68700 24.63100
C  -2.29900 22.30800 27.35700
C  -1.91100 22.32400 23.97800
O  -1.65700 22.20400 22.81800
C  -2.07900 23.68500 24.48600
N  -1.81000 16.71400 23.73900
C  -1.67900 17.79500 22.90300
C  -1.72600 17.34700 21.40200
C  -1.88300 15.82500 21.52100
C  -1.79300 15.57000 22.99600
C  -2.66600 18.17400 20.49600
C  -0.98000 14.92500 20.54000
C  -1.80400 13.94100 19.65100
N  -1.79500 14.73000 25.90600
C  -1.84900 13.81600 24.84800
C  -2.03200 12.55700 25.37000
C  -2.04000 12.68100 26.75700
C  -1.96500 14.04900 27.00400
C  -2.17000 11.31300 24.54800
C  -2.07500 11.98300 28.01200
O  -2.06100 10.79100 28.27100
C  -2.23000 13.10800 29.12300
C  -1.27600 12.78600 30.15600
O  -0.08600 13.12200 30.16700
O  -1.88400 12.06800 31.15900
C  -1.02200 11.73500 32.29800
H  -2.41800 19.97200 29.04400
H  -1.66100 19.91000 22.50000
H  -1.82800 13.46200 22.78200
H  -3.58500 15.69400 30.47300
H  -2.06200 18.21700 30.81700
H  -4.88100 17.66000 30.98300
H  -4.60200 19.04200 29.90800
H  -3.84700 19.08800 31.40600
H  -0.52700 15.53400 31.01600
H  -1.62500 14.70900 31.93900
H  -2.20800 17.31000 32.64000
H  -0.52000 17.45000 32.36900
H  -3.32400 22.66000 27.24500
H  -1.71100 23.18100 27.07400
H  -2.11000 22.10900 28.41200
H  -2.97500 23.69300 25.10600
H  -2.25000 24.34000 23.63100
H  -1.20600 24.08000 25.00500
H  -0.70600 17.62100 21.13400
H  -2.90500 15.58000 21.23100
H  -3.42500 18.65000 21.11800
H  -3.14300 17.57700 19.72000
H  -2.02200 18.88600 19.97900
H  -0.08700 14.46800 20.96500
H  -0.60900 15.62800 19.79400
H  -1.65500 12.92900 20.02800
H  -1.49600 13.92200 18.60500
H  -2.86100 14.16200 19.50600
H  -1.27600 11.17300 23.94100
H  -3.10300 11.47200 24.00600
H  -2.32000 10.43300 25.17300
H  -3.23400 13.07700 29.54700
H  -1.15100 12.44200 33.11800
H  0.02500 11.56300 32.05000
H  -1.39500 10.80200 32.72200
Mg 40.57800 9.31800 28.82800
C  42.36500 10.02800 31.85400
C  38.27300 7.60700 30.82500
C  39.03400 8.40500 26.11600
C  43.41600 10.24300 27.16800
N  40.28800 8.88400 31.03100
C  41.11500 9.32900 32.03900
C  40.52500 9.05000 33.40400
C  39.50000 7.92200 33.07600
C  39.30800 8.11300 31.55700
C  40.06200 6.57700 33.40500
C  39.85800 10.30300 34.14300
C  40.39900 10.47300 35.54400
H  40.66300 11.92400 36.10200
N  38.78100 8.43600 28.54100
C  37.97200 7.75400 29.43400
C  36.74700 7.23400 28.74100
C  36.95800 7.54900 27.33200
C  38.32900 8.11900 27.26300
C  35.59800 6.35500 29.40400
C  36.03300 7.29100 26.13600
O  36.31600 7.49200 24.96200
C  34.73800 6.71900 26.54800
N  41.23700 9.05000 26.90800
C  40.35600 8.75900 25.88500
C  41.07700 8.90800 24.47500
C  42.33500 9.65200 24.87400
C  42.39500 9.64800 26.39800
C  41.23900 7.58000 23.63500
C  42.59700 11.02500 24.26400
C  41.96200 12.22000 24.91200
N  42.52700 10.06500 29.36700
C  43.53200 10.45500 28.56400
C  44.62600 10.94000 29.30800
C  44.16400 10.92600 30.64000
C  42.88700 10.30400 30.57200
C  45.87100 11.54100 28.73500
C  44.43600 11.28100 32.13700
O  45.39300 11.79100 32.68900
C  43.31500 10.66300 32.91400
C  43.91600 9.64700 33.87500
O  44.26900 8.47100 33.60100
O  43.90300 10.09400 35.20100
C  44.36200 9.30100 36.28400
H  37.58200 6.93900 31.34300
H  38.52200 8.32700 25.15500
H  44.24100 10.65900 26.58600
H  41.34300 8.65300 34.00600
H  38.54200 8.14100 33.54800
H  39.54600 6.17800 34.27900
H  41.14800 6.48600 33.39600
H  39.87700 5.86500 32.60100
H  38.76900 10.25000 34.14400
H  40.09800 11.20000 33.57100
H  41.27700 9.84100 35.67200
H  39.62600 10.07500 36.20100
H  34.71500 6.99000 29.47500
H  35.98000 6.01300 30.36600
H  35.39300 5.42500 28.87300
H  34.90400 5.69600 26.88500
H  34.08800 6.59100 25.68300
H  34.14900 7.31500 27.24500
H  40.52900 9.53500 23.77100
H  43.26900 9.12800 24.67200
H  41.63800 6.86400 24.35300
H  42.01400 7.69300 22.87700
H  40.28200 7.16500 23.31900
H  42.27600 11.10700 23.22500
H  43.68100 11.10800 24.33900
H  41.26400 11.92600 25.69600
H  41.38100 12.75400 24.15900
H  42.76000 12.86300 25.28300
H  45.55300 12.36500 28.09600
H  46.44100 10.81700 28.15300
H  46.60900 11.90000 29.45300
H  42.81200 11.41900 33.51600
H  44.65400 9.98000 37.08600
H  45.23500 8.85200 35.81200
H  43.62800 8.55600 36.59100

