158

Mg 26.11600 52.03800 25.59900
C  23.91500 52.95400 28.21000
C  28.41600 51.43100 28.20600
C  28.37300 51.77200 23.32200
C  23.72800 53.19700 23.34000
N  26.19400 52.23600 27.89800
C  25.11400 52.45800 28.69600
C  25.44700 52.15200 30.21100
C  26.93500 51.85900 30.20300
C  27.26200 51.91400 28.69900
C  27.83600 52.73000 31.11300
C  24.52200 51.02800 30.79900
C  24.07300 51.39800 32.26000
H  24.41900 50.62600 33.52700
N  28.06300 51.49200 25.79300
C  28.88200 51.27800 26.86900
C  30.18600 50.92700 26.46000
C  30.17500 50.86900 25.04100
C  28.83700 51.35100 24.63100
C  31.22600 50.73000 27.49200
C  31.36500 50.56700 24.12100
O  31.25900 50.59000 22.88700
C  32.70100 50.21900 24.61900
N  26.05200 52.52400 23.66300
C  27.13600 52.21200 22.88100
C  26.94300 52.57000 21.37800
C  25.40200 52.85200 21.40600
C  25.00700 52.80500 22.89900
C  27.76500 53.91200 21.01000
C  24.51500 51.83900 20.50900
C  23.68300 52.44200 19.34800
N  24.21500 52.92300 25.68800
C  23.31600 53.25200 24.69800
C  22.08500 53.69600 25.26800
C  22.23800 53.54800 26.67700
C  23.54900 53.04300 26.84000
C  20.79700 54.12100 24.68700
C  21.60000 53.69200 27.95800
O  20.45400 54.02400 28.26900
C  22.68300 53.30800 29.03400
C  22.75000 54.25100 30.18100
O  23.27900 55.35700 30.08200
O  21.99200 53.82600 31.20500
C  21.85400 54.79200 32.29800
H  29.07800 51.07700 28.99900
H  29.05500 51.60000 22.48600
H  23.03900 53.40200 22.51700
H  25.31900 53.03600 30.83500
H  27.08700 50.85600 30.60200
H  27.18800 53.17400 31.86900
H  28.32600 53.49000 30.50500
H  28.60600 52.20000 31.67300
H  25.18400 50.18700 31.00500
H  23.67600 50.81300 30.14600
H  22.99700 51.55300 32.34400
H  24.41100 52.39000 32.56000
H  30.94700 51.23100 28.41900
H  32.20600 51.09000 27.18100
H  31.39200 49.65800 27.59400
H  32.64900 49.64100 25.54200
H  33.23400 51.16900 24.61600
H  33.26700 49.63300 23.89500
H  27.31600 51.79800 20.70500
H  25.18400 53.85100 21.02800
H  28.62700 53.61200 20.41300
H  28.19200 54.46200 21.84800
H  27.13700 54.62400 20.47500
H  23.86900 51.26900 21.17700
H  25.14500 51.02300 20.15600
H  23.02700 53.25900 19.64900
H  23.03500 51.66800 18.93700
H  24.37400 52.70700 18.54800
H  20.92100 54.27400 23.61400
H  20.58500 55.04200 25.22900
H  19.99700 53.38700 24.77900
H  22.25100 52.39600 29.44600
H  22.67100 54.56600 32.98300
H  20.93700 54.75500 32.88500
H  22.07500 55.82700 32.03600
Mg -0.91100 34.30100 26.55500
C  -2.59600 32.52900 29.21200
C  0.54400 36.27800 28.79600
C  -0.00200 36.26800 24.04000
C  -2.76600 32.30300 24.30700
N  -1.13700 34.33400 28.71500
C  -1.75600 33.57400 29.71200
C  -1.34100 33.96700 31.07800
C  -0.42100 35.21800 30.80300
C  -0.37500 35.33900 29.30600
C  -0.94200 36.54800 31.49700
C  -0.70800 32.81800 31.98900
C  -1.47700 32.47400 33.28400
H  -0.78000 32.27500 34.63800
N  0.33300 35.93500 26.37200
C  0.76900 36.68000 27.47100
C  1.67500 37.65100 27.00200
C  1.61600 37.66400 25.59200
C  0.61300 36.59300 25.29700
C  2.51800 38.52400 28.05400
C  2.36200 38.47600 24.58500
O  2.20200 38.31900 23.38900
C  3.39900 39.41000 25.05600
N  -1.37800 34.37100 24.53800
C  -0.88300 35.27200 23.67300
C  -1.21100 34.97500 22.21500
C  -1.77000 33.55100 22.34400
C  -2.03300 33.36500 23.84600
C  -2.25100 35.97600 21.52700
C  -0.82500 32.50400 21.74700
C  0.37400 32.04900 22.59000
N  -2.37600 32.70600 26.69300
C  -3.01300 32.00400 25.67000
C  -3.98800 31.11900 26.26400
C  -3.82100 31.23200 27.66700
C  -2.84300 32.21100 27.85700
C  -4.94700 30.30400 25.57300
C  -4.18700 30.70100 28.96700
O  -5.14300 29.94500 29.23500
C  -3.36900 31.48900 30.00200
C  -4.27100 32.08100 31.06900
O  -4.93500 33.09100 30.93900
O  -4.33800 31.21800 32.14700
C  -5.29200 31.49000 33.19700
H  1.23700 36.75000 29.49500
H  0.40000 36.85800 23.21400
H  -3.21900 31.65900 23.55100
H  -2.13600 34.40000 31.68500
H  0.59500 34.96000 31.10000
H  -1.47900 37.12500 30.74400
H  -0.02800 37.11800 31.66400
H  -1.56900 36.42400 32.38000
H  0.23400 33.22500 32.35700
H  -0.45600 31.88800 31.48000
H  -1.98100 31.51500 33.16100
H  -2.34100 33.13700 33.33100
H  3.58800 38.56200 27.84700
H  2.39200 38.27800 29.10800
H  2.17200 39.55300 27.95600
H  3.39700 40.26500 24.38000
H  4.36000 38.89600 25.08200
H  3.16300 39.79800 26.04600
H  -0.24500 34.92900 21.71300
H  -2.70100 33.49200 21.78000
H  -2.60300 36.69500 22.26700
H  -3.17700 35.47800 21.24100
H  -1.77100 36.32300 20.61200
H  -0.52200 32.74900 20.72900
H  -1.50500 31.65700 21.65400
H  0.00800 31.71000 23.55800
H  1.04400 32.87800 22.82200
H  0.85100 31.28300 21.97900
H  -5.69000 31.00500 25.19300
H  -5.41300 29.50800 26.15400
H  -4.46100 29.93200 24.67100
H  -2.74200 30.71500 30.44500
H  -4.79600 31.46800 34.16700
H  -5.97000 30.63900 33.11900
H  -5.98200 32.33300 33.17100

