158

Mg 1.83200 -2.24400 44.46600
C  5.19500 -1.42800 43.68800
C  0.87100 0.43900 42.53400
C  -1.42200 -3.27300 44.68000
C  2.99300 -5.29000 45.72600
N  2.91500 -0.80000 43.09300
C  4.28600 -0.62100 43.07700
C  4.60500 0.73500 42.40600
C  3.21700 1.31100 42.00600
C  2.30000 0.33500 42.63100
C  3.06600 2.79500 42.59200
C  5.52300 0.42500 41.22200
C  6.77800 1.32600 41.06800
H  6.77700 2.18000 39.72700
N  -0.07000 -1.51200 43.78600
C  -0.20000 -0.42500 42.92700
C  -1.53600 -0.15400 42.70500
C  -2.27300 -1.19200 43.44100
C  -1.21700 -2.08400 43.96100
C  -2.08300 0.99100 41.90500
C  -3.83700 -1.28000 43.56900
O  -4.67300 -0.54100 43.02900
C  -4.34800 -2.15500 44.65900
N  0.89400 -4.09700 45.02700
C  -0.47400 -4.17100 45.15400
C  -0.76900 -5.50500 45.94900
C  0.63000 -6.17700 46.06900
C  1.57900 -5.14400 45.54800
C  -1.51700 -5.34700 47.30200
C  0.78300 -7.50200 45.20500
C  1.42000 -8.71900 45.89600
N  3.67500 -3.19400 44.68600
C  4.01500 -4.40500 45.29800
C  5.47000 -4.52900 45.38500
C  5.96200 -3.35000 44.81100
C  4.84200 -2.66800 44.30500
C  6.22700 -5.68000 45.99300
C  7.16600 -2.62100 44.50800
O  8.35100 -2.84100 44.64600
C  6.70000 -1.33400 43.91000
C  6.98600 -0.11600 44.82000
O  6.33100 0.21600 45.81200
O  8.04400 0.63900 44.29900
C  8.33500 1.90300 45.03100
H  0.52100 1.34500 42.03400
H  -2.43400 -3.63900 44.86500
H  3.47700 -6.10000 46.27500
H  5.06200 1.35000 43.18100
H  2.98900 1.49500 40.95600
H  3.58800 2.86300 43.54600
H  2.04400 2.96800 42.92900
H  3.31200 3.47400 41.77500
H  4.85100 0.36400 40.36600
H  5.84000 -0.61700 41.26100
H  7.72300 0.78400 41.08900
H  6.75500 2.17800 41.74700
H  -3.16300 1.13100 41.94700
H  -1.77700 1.02000 40.85900
H  -1.62100 1.91500 42.25200
H  -5.32600 -1.88400 45.05800
H  -3.71100 -2.18600 45.54200
H  -4.21800 -3.15500 44.24400
H  -1.50100 -6.08400 45.38600
H  0.96000 -6.38000 47.08800
H  -1.18500 -4.39900 47.72400
H  -1.16600 -6.13900 47.96300
H  -2.59100 -5.34800 47.11600
H  1.43400 -7.23800 44.37200
H  -0.16100 -7.81900 44.76200
H  1.24600 -9.59100 45.26500
H  1.02100 -8.76200 46.91000
H  2.47900 -8.57200 46.10500
H  7.23100 -5.30700 46.19500
H  6.36400 -6.47100 45.25500
H  5.85600 -6.03500 46.95400
H  7.27100 -1.27600 42.98300
H  8.91800 1.71400 45.93300
H  7.36700 2.34600 45.26500
H  8.85400 2.66600 44.45100
Mg 17.51400 -0.87700 27.64600
C  16.56400 1.07800 30.41600
C  19.60800 -2.66600 29.68200
C  18.81600 -2.33600 24.85800
C  15.90200 1.49700 25.53400
N  17.93100 -0.79800 29.84200
C  17.50700 0.07600 30.79500
C  17.91500 -0.44500 32.19300
C  19.03600 -1.48400 31.89800
C  18.87200 -1.66400 30.31500
C  20.37500 -0.91200 32.18600
C  16.77800 -1.02800 32.93700
C  16.54600 -0.54600 34.42400
H  17.65600 0.23400 35.16500
N  18.83600 -2.45300 27.27200
C  19.56900 -3.05800 28.29300
C  20.36200 -4.13200 27.71000
C  20.20300 -3.99600 26.24800
C  19.20600 -2.92900 26.06300
C  21.24400 -5.05900 28.57800
C  20.73500 -4.85900 25.14900
O  20.48700 -4.69200 23.89700
C  21.57600 -6.01300 25.54200
N  17.42400 -0.41300 25.53700
C  18.11500 -1.17600 24.59000
C  17.97400 -0.56400 23.11600
C  16.78200 0.45000 23.32400
C  16.69600 0.51300 24.84900
C  19.23300 0.19400 22.67400
C  15.44000 -0.15400 22.76400
C  14.76300 0.94700 21.80700
N  16.41300 0.89800 27.89200
C  15.72300 1.67700 26.95100
C  14.96700 2.72000 27.63900
C  15.21100 2.45800 28.98700
C  16.15500 1.39000 29.10600
C  13.99600 3.80000 27.05000
C  14.86100 2.85600 30.41100
O  14.10300 3.63600 30.95900
C  15.79200 2.04100 31.36600
C  16.73100 2.99200 32.09800
O  17.75800 3.40900 31.58800
O  16.31200 3.17900 33.35200
C  16.97900 4.14300 34.16000
H  20.30300 -3.23000 30.30900
H  19.12800 -2.82500 23.93200
H  15.45500 2.22200 24.85000
H  18.25300 0.42500 32.75600
H  18.87400 -2.43500 32.40600
H  20.77600 -1.78400 32.70300
H  20.42300 -0.10500 32.91700
H  20.89200 -0.72500 31.24500
H  16.90800 -2.09800 33.09300
H  15.86700 -0.99800 32.33900
H  16.35800 -1.43100 35.03300
H  15.60700 0.00100 34.51000
H  22.31900 -5.03400 28.39600
H  20.80500 -6.05200 28.67200
H  21.29300 -4.69100 29.60300
H  21.83400 -6.76600 24.79700
H  21.02500 -6.49500 26.34900
H  22.41500 -5.52900 26.04000
H  17.74700 -1.28900 22.33400
H  16.95400 1.41100 22.84000
H  20.16000 -0.07700 23.18000
H  19.04500 1.26200 22.77600
H  19.50700 -0.05700 21.65000
H  14.67200 -0.38400 23.50300
H  15.66700 -1.04800 22.18300
H  15.05500 1.88400 22.28100
H  13.68800 0.79600 21.71600
H  15.13600 1.09200 20.79300
H  13.44200 4.00200 27.96700
H  13.30900 3.41500 26.29600
H  14.37800 4.69800 26.56500
H  15.08500 1.51700 32.01000
H  18.00200 4.42300 33.90700
H  17.15800 3.73900 35.15700
H  16.31600 5.00800 34.18200

