158

Mg -2.37300 17.06300 26.43000
C  -2.76300 14.70500 28.95600
C  -3.22300 19.49500 28.66200
C  -2.60500 19.15500 23.85300
C  -1.78100 14.40600 24.14500
N  -2.69100 17.02800 28.57800
C  -2.65100 16.01200 29.45100
C  -2.90400 16.44900 30.94200
C  -3.03700 18.00400 30.73200
C  -3.09700 18.16800 29.24400
C  -4.11400 18.78800 31.53500
C  -1.93300 15.94900 32.04200
C  -1.61500 16.90800 33.23100
H  -0.95700 16.33200 34.51600
N  -2.75600 19.06600 26.27100
C  -3.10200 19.91500 27.28700
C  -3.28000 21.31100 26.77500
C  -3.07200 21.22300 25.35000
C  -2.89500 19.75800 25.09800
C  -3.59900 22.52000 27.64000
C  -3.18000 22.30700 24.37200
O  -2.85500 22.13600 23.16300
C  -3.39000 23.75800 24.76700
N  -2.45600 16.71900 24.20800
C  -2.37700 17.81600 23.43900
C  -1.91800 17.44400 22.02000
C  -1.61900 15.92000 22.11900
C  -1.93700 15.65300 23.59600
C  -2.79500 17.94300 20.90200
C  -0.16800 15.49900 21.72800
C  1.05800 16.29700 22.32600
N  -2.34900 14.94700 26.47200
C  -2.09600 14.02900 25.46100
C  -2.24300 12.69000 26.00300
C  -2.56000 12.91400 27.38500
C  -2.59300 14.29300 27.59700
C  -2.07500 11.43700 25.25400
C  -2.74100 12.20000 28.63900
O  -2.66500 10.99800 28.91300
C  -3.05700 13.35700 29.67300
C  -2.12300 13.19300 30.83400
O  -0.85900 13.28800 30.71800
O  -2.78900 12.68500 31.94400
C  -1.98800 12.10700 33.01600
H  -3.36000 20.28900 29.39800
H  -2.69800 19.80300 22.97800
H  -1.41900 13.64900 23.44700
H  -3.84900 16.05700 31.31600
H  -2.10600 18.48500 31.03400
H  -3.64600 19.66200 31.98900
H  -4.53100 18.14300 32.30800
H  -4.95800 19.16500 30.95600
H  -0.99900 15.82000 31.49600
H  -2.31200 15.04200 32.51500
H  -2.59500 17.36500 33.37100
H  -0.93600 17.72200 32.98000
H  -2.77400 23.20000 27.42700
H  -3.56200 22.26100 28.69800
H  -4.61900 22.88700 27.53200
H  -4.36600 23.75200 25.25200
H  -3.49900 24.31400 23.83600
H  -2.55600 23.94600 25.44300
H  -0.97300 17.98400 21.95900
H  -2.33600 15.42400 21.46500
H  -2.54900 18.96600 20.61600
H  -3.86600 17.79000 21.02900
H  -2.61400 17.31700 20.02800
H  -0.12700 15.45500 20.64000
H  -0.14300 14.44700 22.01200
H  0.77900 17.24000 22.79700
H  1.76400 16.64000 21.57000
H  1.51100 15.73900 23.14600
H  -1.37400 11.58200 24.43200
H  -3.05100 11.13900 24.87000
H  -1.68400 10.64600 25.89500
H  -4.08500 13.07300 29.89700
H  -1.01100 11.75900 32.68000
H  -2.57400 11.23900 33.31900
H  -1.98400 12.79800 33.85900
Mg 40.60700 8.92900 29.26100
C  42.35900 10.03300 31.94100
C  38.26500 7.49100 31.42000
C  38.95900 7.59900 26.54100
C  43.01200 10.19700 27.06900
N  40.33300 8.91900 31.43700
C  41.17500 9.46600 32.34100
C  40.56400 9.46600 33.72300
C  39.21700 8.67400 33.57800
C  39.22700 8.28600 32.07800
C  39.10900 7.42400 34.48800
C  40.54100 10.86700 34.43600
C  39.35100 11.11700 35.50300
H  39.74800 11.77800 36.78600
N  38.83600 7.78600 29.04300
C  38.09500 7.17600 30.05300
C  37.06200 6.35100 29.46400
C  37.11600 6.51000 28.05700
C  38.29800 7.34200 27.78000
C  36.10100 5.46300 30.15100
C  36.26200 5.86700 26.99400
O  36.42400 6.12600 25.82100
C  35.18100 4.83800 27.40200
N  40.85200 9.01700 27.03800
C  40.12100 8.35800 26.16700
C  40.48500 8.74800 24.74600
C  41.80500 9.58100 24.90400
C  41.96100 9.58800 26.42600
C  40.51200 7.59800 23.66300
C  41.80900 10.98000 24.18300
C  41.11000 12.16600 24.89300
N  42.39900 9.71300 29.46700
C  43.29100 10.23400 28.46800
C  44.39600 10.87600 29.12900
C  44.07100 10.84200 30.52500
C  42.86500 10.11800 30.65200
C  45.57100 11.57900 28.54300
C  44.50400 11.27800 31.79300
O  45.42700 11.97900 32.13200
C  43.36100 10.83500 32.78500
C  44.03600 9.98300 33.76900
O  44.84800 9.11900 33.57100
O  43.76400 10.48700 34.99700
C  44.37800 9.77100 36.13700
H  37.57600 7.04900 32.14300
H  38.48600 7.15500 25.66300
H  43.73100 10.61700 26.36200
H  41.24500 8.85800 34.31800
H  38.38300 9.34400 33.78700
H  38.73200 6.55900 33.94200
H  38.40900 7.78300 35.24200
H  40.08600 7.20400 34.91900
H  40.41000 11.63300 33.67200
H  41.43600 11.09100 35.01600
H  38.84300 10.18100 35.73800
H  38.73500 11.85900 34.99500
H  36.28900 5.63500 31.21100
H  36.30100 4.45100 29.79700
H  35.07000 5.75600 29.95600
H  34.40500 5.36300 27.95800
H  35.59200 3.98000 27.93400
H  34.71800 4.48700 26.48000
H  39.75800 9.49000 24.41600
H  42.65400 8.96900 24.59900
H  40.50000 6.65200 24.20500
H  41.43200 7.66900 23.08300
H  39.69900 7.69800 22.94400
H  41.28100 10.73300 23.26200
H  42.84600 11.22200 23.94900
H  40.23000 12.47900 24.33000
H  41.82400 12.98100 25.00900
H  40.73900 11.92900 25.89000
H  46.42000 10.89700 28.58600
H  45.76500 12.49500 29.10100
H  45.38900 11.82500 27.49700
H  43.00300 11.80000 33.14500
H  43.58100 10.06000 36.82200
H  45.37100 10.13600 36.40100
H  44.26400 8.69400 36.00900

