158

Mg -0.54500 43.49500 25.99900
C  1.60000 43.37600 28.86500
C  -3.11400 42.38900 28.10500
C  -2.47500 43.50900 23.29100
C  2.32000 44.16800 24.08400
N  -0.69700 43.00100 28.27100
C  0.26400 43.10400 29.23100
C  -0.28700 42.74800 30.60300
C  -1.70700 42.14100 30.26700
C  -1.89100 42.57000 28.83500
C  -1.83400 40.60800 30.58600
C  -0.17300 44.00700 31.51200
C  0.53600 43.72600 32.93400
H  0.43400 42.33000 33.66800
N  -2.54100 43.00800 25.74800
C  -3.45300 42.56200 26.71300
C  -4.76400 42.45800 26.04300
C  -4.52500 42.79500 24.65700
C  -3.10500 43.09300 24.54500
C  -5.99300 41.90800 26.68900
C  -5.55500 42.76200 23.52600
O  -5.33000 43.31100 22.43100
C  -6.85400 42.07900 23.77000
N  -0.12700 43.68200 23.84700
C  -1.17600 43.78600 22.96800
C  -0.66600 44.41900 21.64200
C  0.87100 44.60000 21.86900
C  1.07600 44.13100 23.32900
C  -1.11700 43.48600 20.47200
C  1.33700 46.04100 21.70700
C  1.84700 46.51200 20.34700
N  1.52200 43.62500 26.29300
C  2.55900 43.88600 25.40200
C  3.85900 43.76300 26.07600
C  3.52400 43.67000 27.35800
C  2.12300 43.54300 27.51100
C  5.21600 43.75300 25.45800
C  4.07700 43.65400 28.72100
O  5.29000 43.68700 29.05200
C  2.86600 43.46800 29.73900
C  3.10200 42.23800 30.44600
O  2.96900 41.05400 30.00500
O  3.60500 42.66700 31.70600
C  4.07400 41.55600 32.53600
H  -3.84100 41.76200 28.62500
H  -3.20300 43.59800 22.48200
H  3.17500 44.36400 23.43400
H  0.36200 42.02900 31.10400
H  -2.55100 42.47000 30.87300
H  -2.70900 40.49300 31.22600
H  -1.03200 40.25600 31.23500
H  -1.90000 39.97600 29.70000
H  -1.21000 44.32300 31.63400
H  0.45000 44.81300 31.12400
H  0.24600 44.46200 33.68400
H  1.61200 43.86900 32.83200
H  -5.82500 41.87700 27.76500
H  -6.41900 40.94300 26.41500
H  -6.82400 42.60200 26.55600
H  -6.46800 41.10300 24.06400
H  -7.30500 42.03800 22.77800
H  -7.40200 42.53000 24.59700
H  -1.27800 45.31500 21.53200
H  1.42400 43.97300 21.16900
H  -0.71500 43.82900 19.51800
H  -2.20400 43.40000 20.45300
H  -0.67200 42.49800 20.59000
H  1.99600 46.43600 22.48000
H  0.48100 46.66400 21.96500
H  2.27200 45.80200 19.63700
H  2.55000 47.29400 20.63200
H  1.05800 47.04800 19.81900
H  5.88600 44.04800 26.26600
H  5.16300 44.56300 24.73100
H  5.44800 42.80200 24.97800
H  2.91100 44.34900 30.38100
H  5.10100 41.30100 32.27600
H  3.55500 40.61200 32.37100
H  4.17700 41.77900 33.59800
Mg -5.44600 25.92400 25.39700
C  -3.70400 27.06700 28.26600
C  -7.27700 23.80200 27.41800
C  -6.80600 24.76600 22.64600
C  -3.33200 27.85700 23.41900
N  -5.50000 25.49000 27.67100
C  -4.75700 26.14800 28.65900
C  -5.38200 25.89100 30.05200
C  -6.28200 24.61200 29.74100
C  -6.35000 24.61200 28.17000
C  -5.71300 23.30200 30.37800
C  -6.12400 27.11000 30.69100
C  -5.79400 27.34400 32.15400
H  -5.41000 26.17000 33.10500
N  -6.85200 24.41900 25.08200
C  -7.48000 23.63100 26.03400
C  -8.42900 22.76000 25.40200
C  -8.35300 23.02000 23.99000
C  -7.28600 24.09500 23.81200
C  -9.19300 21.62900 26.22900
C  -9.08200 22.31100 22.84300
O  -8.99200 22.74500 21.67900
C  -9.98900 21.15300 23.21700
N  -5.04800 26.19100 23.30300
C  -5.75000 25.58800 22.38000
C  -5.43300 25.96200 20.97000
C  -4.45300 27.21100 21.20500
C  -4.26200 27.06300 22.72700
C  -4.82400 24.78900 20.15500
C  -5.17000 28.57900 20.84400
C  -5.83700 28.84700 19.48400
N  -3.76400 27.14000 25.73900
C  -3.04100 27.83800 24.85100
C  -2.08400 28.65100 25.63500
C  -2.34700 28.39800 26.93200
C  -3.34800 27.46900 26.95000
C  -0.99200 29.72000 25.13000
C  -2.02400 28.85200 28.31000
O  -1.31100 29.76300 28.64700
C  -2.85300 27.83900 29.27000
C  -1.90200 27.03500 30.10700
O  -0.84100 26.53000 29.73800
O  -2.30600 27.19800 31.40300
C  -1.46600 26.52600 32.40500
H  -8.07100 23.33300 28.00300
H  -7.37400 24.39700 21.78900
H  -2.72700 28.55300 22.83400
H  -4.60600 25.66200 30.78300
H  -7.27900 24.81100 30.13300
H  -4.74000 23.30800 30.86900
H  -5.51400 22.62500 29.54700
H  -6.42600 22.83400 31.05700
H  -7.20100 26.99100 30.57700
H  -5.87200 27.93600 30.02600
H  -6.65400 27.82300 32.62200
H  -5.01700 28.10400 32.06400
H  -10.20500 21.47900 25.85200
H  -9.17400 21.78200 27.30800
H  -8.70700 20.66400 26.09100
H  -10.33900 20.54100 22.38600
H  -10.85400 21.49900 23.78300
H  -9.43000 20.48400 23.87100
H  -6.37200 26.23200 20.48600
H  -3.51000 26.99700 20.70100
H  -4.74400 23.85500 20.71100
H  -3.88700 24.98900 19.63500
H  -5.54200 24.48800 19.39200
H  -4.43900 29.38500 20.90400
H  -5.83900 28.75900 21.68500
H  -5.87600 27.94200 18.87700
H  -5.49600 29.69400 18.88700
H  -6.84600 29.15400 19.75700
H  -1.08500 30.60400 25.76000
H  -1.11800 29.98800 24.08100
H  0.01200 29.30300 25.21500
H  -3.48400 28.42500 29.93800
H  -1.11100 25.58700 31.98000
H  -1.99700 26.27900 33.32500
H  -0.59300 27.10800 32.69900

