158

Mg 55.30500 23.42300 45.10900
C  53.16700 25.98800 44.18600
C  53.40700 21.14500 43.61400
C  58.02000 21.31800 45.13300
C  57.50100 25.95500 46.39600
N  53.44800 23.57000 43.99100
C  52.65000 24.75700 43.79500
C  51.31800 24.29400 43.12400
C  51.29800 22.75500 43.34300
C  52.77500 22.41000 43.66600
C  50.29400 22.13100 44.40500
C  51.21000 24.74800 41.59400
C  49.74400 25.05300 41.11700
H  49.23600 24.39900 39.77300
N  55.68700 21.51000 44.42500
C  54.71200 20.76300 43.89100
C  55.26900 19.45800 43.62200
C  56.63000 19.53100 43.98700
C  56.82900 20.85200 44.49900
C  54.49300 18.40300 42.74400
C  57.52800 18.30100 43.77400
O  57.08000 17.25900 43.40700
C  58.96300 18.37500 43.93300
N  57.41000 23.49700 45.81300
C  58.34300 22.47500 45.74500
C  59.65200 22.86600 46.52800
C  59.47300 24.39600 46.78700
C  58.02100 24.69400 46.30300
C  59.81400 22.03200 47.77400
C  60.62600 25.28100 46.34500
C  60.48300 25.85500 44.94200
N  55.38900 25.53400 45.37600
C  56.30700 26.37400 45.91800
C  55.88000 27.73500 45.88600
C  54.61800 27.66700 45.21100
C  54.37400 26.27300 44.87000
C  56.74800 28.99700 46.19300
C  53.48600 28.49100 44.69100
O  53.26200 29.69900 44.60100
C  52.55700 27.43500 43.98600
C  52.50200 27.81700 42.54500
O  53.48900 27.81000 41.80100
O  51.20400 28.01700 42.13900
C  51.19400 28.43000 40.72400
H  52.75500 20.38100 43.18500
H  58.77300 20.56600 45.37700
H  58.09300 26.72600 46.89400
H  50.59400 24.86400 43.70600
H  51.03800 22.26800 42.40300
H  50.87300 21.39300 44.96000
H  49.46600 21.57200 43.96900
H  49.87800 22.87100 45.08900
H  51.53500 23.94800 40.92900
H  51.88100 25.55800 41.30600
H  49.60900 26.11800 40.93300
H  48.94100 24.80300 41.81100
H  55.16000 17.83900 42.09300
H  53.67900 18.87500 42.19400
H  54.04600 17.78500 43.52400
H  59.31300 19.34800 43.58700
H  59.43300 17.51800 43.45000
H  59.27600 18.31000 44.97500
H  60.51300 22.67900 45.88700
H  59.42800 24.64900 47.84600
H  60.78300 21.53400 47.74500
H  58.99200 21.32300 47.87200
H  59.75200 22.61200 48.69500
H  61.61700 24.82700 46.34300
H  60.60700 26.16000 46.98900
H  59.79200 25.24200 44.36300
H  61.48800 25.80900 44.52200
H  60.12000 26.88000 44.87000
H  57.61900 28.93200 45.54200
H  57.06900 28.91500 47.23200
H  56.18500 29.89600 45.94300
H  51.55900 27.67100 44.35600
H  52.13300 28.87500 40.39300
H  50.29900 29.05100 40.73200
H  50.94300 27.62200 40.03700
Mg 35.15700 49.12700 26.56300
C  35.84300 47.09700 29.45800
C  34.46800 51.65300 28.68500
C  34.69700 51.04500 23.81400
C  35.87500 46.33400 24.50800
N  35.08400 49.29800 28.84700
C  35.39800 48.35400 29.79100
C  35.43200 48.97500 31.12200
C  34.63100 50.29000 30.89200
C  34.77200 50.47300 29.38100
C  33.09200 50.23400 31.35200
C  36.91200 49.13300 31.68600
C  36.97900 48.56500 33.10300
H  36.99600 49.55200 34.21900
N  34.54600 51.05400 26.27900
C  34.24500 51.91900 27.22800
C  33.82200 53.21200 26.65100
C  33.95500 53.06200 25.24600
C  34.41200 51.65300 25.00200
C  33.44200 54.50600 27.50700
C  33.64600 54.07800 24.09900
O  33.68500 53.77600 22.91100
C  33.22500 55.60200 24.47000
N  35.28100 48.73200 24.50000
C  34.96200 49.69000 23.59700
C  35.08800 49.13600 22.13000
C  35.69500 47.77700 22.33200
C  35.54900 47.56700 23.86400
C  33.79200 49.21200 21.31500
C  37.03600 47.49300 21.67200
C  37.02100 46.57900 20.43500
N  35.60300 46.99400 26.89800
C  35.91100 46.08000 25.95000
C  36.30300 44.84200 26.68500
C  36.26700 45.20200 28.04200
C  35.94600 46.53500 28.11100
C  36.71200 43.49700 26.07800
C  36.60500 44.81000 29.38400
O  37.00100 43.69700 29.69300
C  36.29300 45.97000 30.39900
C  35.30200 45.50500 31.35600
O  34.21600 45.17100 31.11300
O  35.91200 45.26100 32.57600
C  35.07200 44.71900 33.66500
H  34.41000 52.55000 29.30400
H  34.58100 51.65100 22.91400
H  36.17900 45.55200 23.80900
H  34.82500 48.34400 31.77200
H  35.12900 51.14400 31.35100
H  32.83600 50.80400 32.24500
H  32.73300 49.20700 31.43000
H  32.44800 50.70200 30.60800
H  37.34400 50.13200 31.63200
H  37.62700 48.56300 31.09200
H  37.85400 47.92600 33.22200
H  36.19800 47.82400 33.27400
H  32.48200 54.73900 27.04700
H  34.11300 55.31700 27.22400
H  33.43900 54.46000 28.59600
H  34.10400 56.04000 24.94100
H  32.29400 55.66000 25.03400
H  32.98800 56.12000 23.54000
H  35.74300 49.83500 21.61100
H  34.97500 47.11900 21.84500
H  32.95500 49.46700 21.96400
H  33.53200 48.31800 20.74800
H  33.96700 50.01200 20.59600
H  37.65000 46.90700 22.35600
H  37.58100 48.43700 21.63900
H  37.48500 45.60800 20.61200
H  37.57300 47.17400 19.70800
H  36.04000 46.31900 20.03700
H  35.78400 42.94000 25.95000
H  37.43700 42.95200 26.68300
H  37.21800 43.57100 25.11500
H  37.16100 46.32700 30.95300
H  34.37600 45.48500 34.00500
H  35.70700 44.36500 34.47700
H  34.48200 43.89300 33.26700

