158

Mg 1.76100 -2.19500 43.58200
C  5.11600 -1.26400 43.48600
C  0.92600 0.66800 41.92000
C  -1.34000 -3.40900 43.22500
C  2.69000 -5.33200 44.94200
N  2.88500 -0.51300 42.71000
C  4.23000 -0.44400 42.74300
C  4.68200 0.89300 42.03900
C  3.31500 1.64400 41.80600
C  2.32400 0.59400 42.21900
C  3.12000 3.02200 42.55000
C  5.62400 0.72700 40.82700
C  6.58600 1.90800 40.60300
H  6.36800 2.76300 39.32500
N  0.07400 -1.49000 42.75800
C  -0.09100 -0.29800 42.14300
C  -1.46600 -0.16600 41.72100
C  -2.14600 -1.33100 42.09200
C  -1.11800 -2.14200 42.69400
C  -2.06000 1.02300 41.04200
C  -3.63200 -1.59900 41.80400
O  -4.23900 -0.66100 41.32000
C  -4.32100 -2.91500 42.03800
N  0.87600 -4.16100 43.83300
C  -0.46300 -4.31800 43.76300
C  -0.93800 -5.75600 44.09500
C  0.40800 -6.35100 44.72800
C  1.38500 -5.17300 44.51200
C  -2.22400 -5.94000 44.92000
C  0.89000 -7.74500 44.32800
C  1.30100 -8.64300 45.49000
N  3.51600 -3.16200 44.21700
C  3.72900 -4.37200 44.78500
C  5.18600 -4.48000 45.08300
C  5.67600 -3.27400 44.68000
C  4.62500 -2.50800 44.10800
C  5.85500 -5.72000 45.65900
C  6.90200 -2.49400 44.65800
O  7.97600 -2.76500 45.12100
C  6.63900 -1.14500 43.82700
C  6.86400 0.06000 44.69800
O  6.52400 0.19400 45.82500
O  7.53100 0.98300 43.94200
C  7.71500 2.32200 44.45400
H  0.67800 1.62900 41.46600
H  -2.35300 -3.80700 43.30800
H  2.90700 -6.21300 45.55000
H  5.20300 1.45600 42.81300
H  3.22500 1.83600 40.73700
H  2.23400 3.54500 42.19000
H  3.94500 3.71400 42.37900
H  2.99000 2.82700 43.61500
H  4.90000 0.66200 40.01400
H  6.33500 -0.09600 40.89600
H  7.60800 1.53400 40.55000
H  6.42200 2.55800 41.46300
H  -2.51600 0.87100 40.06400
H  -1.29200 1.79400 40.97800
H  -2.79400 1.34700 41.78000
H  -5.27300 -2.87300 41.50900
H  -4.47900 -3.18400 43.08200
H  -3.67600 -3.66800 41.58400
H  -1.18700 -6.08500 43.08700
H  0.29600 -6.35400 45.81200
H  -2.83500 -6.69900 44.43100
H  -2.71700 -4.96800 44.91700
H  -2.05400 -6.31600 45.92900
H  1.74400 -7.69500 43.65100
H  0.05000 -8.07600 43.71700
H  0.77900 -9.57700 45.28300
H  1.04000 -8.26700 46.47900
H  2.37900 -8.80200 45.52600
H  5.71200 -6.56900 44.99100
H  5.27400 -6.01800 46.53200
H  6.92000 -5.59400 45.85100
H  7.24700 -1.21200 42.92500
H  7.51700 2.49200 45.51300
H  6.94200 2.93300 43.98800
H  8.70000 2.67300 44.15000
Mg 26.13100 0.91600 29.57100
C  28.01700 0.51500 32.52600
C  23.32500 0.92000 31.42600
C  24.35300 1.02400 26.66900
C  29.03400 0.36000 27.75300
N  25.70100 0.55400 31.77300
C  26.61500 0.57300 32.79100
C  25.92500 0.77800 34.18500
C  24.39700 0.65900 33.77300
C  24.40600 0.70800 32.23400
C  23.65500 -0.53600 34.21000
C  26.28400 2.05400 34.85800
C  27.10700 1.93900 36.18000
H  26.77500 2.92300 37.35700
N  24.13200 1.04000 29.17600
C  23.18300 1.01300 30.05100
C  21.89800 1.17100 29.31500
C  22.17300 1.42900 27.94600
C  23.63700 1.18600 27.89900
C  20.52100 1.15700 29.99200
C  21.28000 1.84800 26.76700
O  21.70600 1.82600 25.63400
C  19.83400 2.11100 26.97800
N  26.62800 0.82500 27.51400
C  25.71000 0.86100 26.51400
C  26.42000 0.78300 25.12700
C  27.94100 0.69900 25.57600
C  27.85600 0.60600 27.05600
C  25.95400 -0.20400 24.05000
C  28.89100 1.88400 25.13400
C  30.34400 1.49100 24.83800
N  28.10500 0.44600 29.94700
C  29.19700 0.30400 29.11900
C  30.42600 0.17800 29.87900
C  30.02800 0.15600 31.21600
C  28.55600 0.37200 31.23000
C  31.77500 0.01600 29.25000
C  30.48000 0.09200 32.61400
O  31.59900 -0.06400 33.11800
C  29.18900 0.51700 33.49300
C  29.09000 -0.49900 34.55200
O  28.66100 -1.62600 34.30800
O  29.66200 -0.12800 35.67500
C  29.51900 -1.00300 36.86000
H  22.47100 0.84100 32.10100
H  23.73400 0.97900 25.77100
H  29.93300 0.11700 27.18300
H  26.15500 -0.05100 34.85400
H  23.82900 1.51300 34.14200
H  22.91200 -0.90000 33.49900
H  23.13100 -0.36100 35.14900
H  24.40600 -1.30800 34.37300
H  25.41400 2.68600 35.03500
H  26.88300 2.64300 34.16400
H  28.10900 2.23800 35.87100
H  27.20200 0.89600 36.48100
H  19.76000 0.56600 29.48300
H  20.07400 2.15000 29.94200
H  20.57400 0.96100 31.06300
H  19.39700 1.11800 26.87200
H  19.40600 2.71300 26.17600
H  19.53300 2.60200 27.90400
H  26.28400 1.76600 24.67600
H  28.43900 -0.25700 25.41600
H  26.79500 -0.74600 23.61800
H  25.37400 0.31500 23.28700
H  25.31300 -0.94200 24.53400
H  28.97800 2.55800 25.98600
H  28.40300 2.48600 24.36600
H  30.55300 0.42100 24.86400
H  31.02900 1.93000 25.56500
H  30.54200 1.92900 23.86000
H  32.29700 0.74900 29.86500
H  31.82800 0.31200 28.20200
H  32.21500 -0.97200 29.39000
H  29.32500 1.45000 34.04000
H  30.23300 -0.89800 37.67700
H  29.42200 -2.08100 36.72500
H  28.58400 -0.67800 37.31600

