158

Mg 35.24700 2.53500 29.63300
C  32.94300 3.59000 32.10500
C  37.55800 2.42900 32.14000
C  37.52000 2.38400 27.26700
C  32.62900 2.62600 27.27100
N  35.24000 3.03800 31.90000
C  34.18800 3.35600 32.70400
C  34.61100 3.31800 34.24100
C  36.17700 3.07200 34.13700
C  36.31200 2.77000 32.63500
C  37.19500 4.24500 34.65100
C  33.84700 2.16300 34.96900
C  33.71400 2.38800 36.39300
H  34.51000 3.60500 37.00700
N  37.20900 2.28100 29.66600
C  38.04500 2.27500 30.81900
C  39.45500 2.03900 30.37400
C  39.37100 2.06300 28.96200
C  37.99300 2.23300 28.56900
C  40.65200 1.71900 31.30200
C  40.52600 1.84300 28.02800
O  40.39400 1.78600 26.81300
C  42.00200 1.84700 28.52900
N  35.06000 2.32700 27.55200
C  36.15300 2.25700 26.80000
C  35.69800 2.29100 25.31800
C  34.16500 1.91200 25.40700
C  33.92900 2.29300 26.82100
C  35.91400 3.71700 24.61100
C  33.85600 0.44900 25.03800
C  32.66800 -0.22000 25.73900
N  33.24600 2.97300 29.59300
C  32.31500 3.01500 28.59600
C  31.01900 3.52000 29.15800
C  31.24500 3.72600 30.48900
C  32.59600 3.34800 30.77700
C  29.72000 3.67600 28.43000
C  30.62100 4.13300 31.81700
O  29.47500 4.51800 32.09200
C  31.66100 3.98100 32.88600
C  31.85600 5.21700 33.65600
O  32.33000 6.24400 33.28000
O  31.24700 5.07100 34.88200
C  31.34100 6.20300 35.81400
H  38.31000 2.42600 32.93200
H  38.25700 2.31600 26.46400
H  31.71800 2.64200 26.67000
H  34.38400 4.32900 34.58100
H  36.50200 2.24600 34.76900
H  37.40400 4.78800 33.73000
H  38.14100 3.79700 34.95500
H  36.78400 4.87900 35.43600
H  34.40700 1.23000 34.91000
H  32.89200 1.96800 34.48000
H  34.06700 1.49200 36.90300
H  32.65700 2.49000 36.63800
H  40.43100 1.71000 32.37000
H  41.41700 2.45800 31.06400
H  41.11500 0.78300 30.99000
H  42.33500 2.71400 29.09900
H  42.67400 1.99400 27.68300
H  42.28900 0.89700 28.97900
H  36.17800 1.47400 24.77800
H  33.61100 2.64900 24.82600
H  36.40100 3.56900 23.64700
H  36.63600 4.34500 25.13200
H  34.98800 4.29000 24.55900
H  34.73100 -0.10800 25.37400
H  33.65400 0.41800 23.96800
H  32.07400 0.60300 26.13600
H  33.04500 -0.99000 26.41100
H  32.05000 -0.81100 25.06300
H  29.78300 3.57200 27.34700
H  29.38700 4.70200 28.58600
H  28.93200 3.01900 28.79700
H  31.34200 3.20900 33.58600
H  32.38000 6.53300 35.83900
H  31.01500 6.02400 36.83800
H  30.86100 7.09500 35.41100
Mg 48.46500 34.98300 26.87500
C  46.27600 33.53900 29.38900
C  48.74600 37.71400 28.91400
C  49.67700 36.47500 24.21000
C  47.46900 32.25300 24.83200
N  47.69300 35.45900 28.91000
C  46.97600 34.68000 29.74100
C  46.94300 35.31300 31.18400
C  47.36000 36.85100 30.88800
C  47.93500 36.69200 29.46300
C  46.09900 37.79800 30.83800
C  47.89200 34.41900 32.03900
C  49.29500 34.91900 32.53900
H  49.58400 35.20600 34.00900
N  49.24400 36.74700 26.69100
C  49.36100 37.76700 27.63000
C  50.32000 38.73900 27.09800
C  50.49300 38.46000 25.67900
C  49.77800 37.16000 25.51200
C  50.83900 39.91000 27.86200
C  51.25900 39.32400 24.68200
O  51.34300 38.99400 23.53700
C  51.99500 40.53900 25.10100
N  48.55200 34.38700 24.77700
C  49.18000 35.24500 23.85800
C  49.27300 34.57600 22.48600
C  48.82900 33.11900 22.74300
C  48.25200 33.21600 24.22900
C  48.53300 35.24200 21.33200
C  49.95100 32.00300 22.69100
C  50.14800 31.46400 21.21300
N  47.17200 33.28300 27.01300
C  46.81900 32.35100 26.08500
C  45.86400 31.38000 26.57200
C  45.57400 31.81800 27.88400
C  46.37400 32.96800 28.13800
C  45.26000 30.23500 25.85600
C  44.76800 31.59600 29.08200
O  43.88000 30.74700 29.26500
C  45.11200 32.80800 30.05700
C  45.45600 32.26800 31.48100
O  46.30400 31.48800 31.88000
O  44.64600 32.98800 32.35300
C  44.78900 32.57600 33.77100
H  48.98800 38.54300 29.58200
H  50.17700 36.96400 23.37000
H  47.18800 31.44000 24.16000
H  45.91100 35.26600 31.53000
H  48.15300 37.23300 31.53100
H  46.00900 38.41400 31.73300
H  45.22900 37.15700 30.69600
H  46.25600 38.53300 30.04900
H  48.03400 33.49500 31.48000
H  47.34900 34.21900 32.96300
H  49.70400 35.80700 32.05800
H  50.04000 34.22100 32.15500
H  51.91800 39.82500 27.99400
H  50.47400 39.92800 28.88900
H  50.70400 40.85500 27.33700
H  51.30100 41.37400 25.19700
H  52.67300 40.86300 24.31200
H  52.60200 40.23900 25.95600
H  50.32400 34.48800 22.21000
H  47.99700 32.74800 22.14500
H  47.85100 34.57100 20.80900
H  49.19700 35.60600 20.54800
H  47.88500 36.01800 21.73800
H  49.64000 31.20000 23.35900
H  50.90500 32.38800 23.05200
H  51.16000 31.73000 20.90700
H  49.42600 31.91600 20.53400
H  50.02500 30.38700 21.09300
H  44.90000 30.45000 24.85000
H  44.40500 29.98500 26.48400
H  46.02300 29.45600 25.86900
H  44.24900 33.46800 30.14300
H  45.37600 33.28000 34.36100
H  45.18500 31.58000 33.97000
H  43.81500 32.62600 34.25900

