158

Mg 44.64900 4.57900 47.79300
C  42.38700 7.22900 47.22600
C  42.10500 2.32100 47.90700
C  47.00000 2.07100 47.56600
C  47.26700 6.85900 47.05700
N  42.54400 4.80300 47.76200
C  41.83800 5.94200 47.36200
C  40.33800 5.66500 47.32700
C  40.25800 4.10500 47.59600
C  41.71900 3.70200 47.83900
C  39.22800 3.58400 48.67600
C  39.78600 5.98000 45.86800
C  38.78300 7.14700 45.86900
H  38.66400 8.12000 44.70500
N  44.58700 2.44300 47.62600
C  43.38300 1.76100 47.88700
C  43.69800 0.34600 47.98600
C  45.10500 0.23200 47.77100
C  45.64700 1.59100 47.63400
C  42.58600 -0.69400 48.00400
C  45.96100 -1.02700 47.74800
O  45.37000 -2.12400 47.87400
C  47.37400 -1.05600 47.44000
N  46.78800 4.49500 47.14400
C  47.51500 3.30200 47.26900
C  48.99800 3.50700 47.04500
C  49.08100 5.11700 47.08400
C  47.63100 5.52700 47.09200
C  49.93400 2.88000 48.11100
C  49.99300 5.85000 46.01100
C  51.35000 6.39300 46.49300
N  44.81900 6.68500 47.34300
C  45.93500 7.38600 47.09300
C  45.59000 8.78000 46.81200
C  44.17300 8.81400 46.93200
C  43.75800 7.48800 47.21900
C  46.60000 9.87100 46.52100
C  42.89500 9.60500 46.95800
O  42.73000 10.86600 46.88600
C  41.69800 8.55600 47.05400
C  40.78300 8.81100 48.21300
O  40.79000 8.28900 49.34900
O  39.94300 9.86200 47.95800
C  38.84000 10.14100 48.87200
H  41.18000 1.74600 47.98300
H  47.83700 1.37100 47.50600
H  48.01300 7.65500 47.00500
H  39.78100 6.19300 48.10100
H  40.03200 3.54800 46.68700
H  38.41200 4.29500 48.80500
H  39.73300 3.40300 49.62400
H  38.77600 2.64600 48.35500
H  39.30400 5.05500 45.55100
H  40.56300 6.26400 45.15800
H  38.78800 7.76300 46.76800
H  37.84300 6.59600 45.89300
H  41.53900 -0.43200 47.85000
H  42.62200 -1.32800 48.89000
H  42.80100 -1.39600 47.19900
H  47.57000 -0.61700 46.46100
H  47.72800 -2.08600 47.40000
H  47.87700 -0.55400 48.26700
H  49.19700 3.18800 46.02100
H  49.37200 5.42900 48.08700
H  49.38300 2.19400 48.75400
H  50.32000 3.60800 48.82500
H  50.76500 2.28300 47.73400
H  49.40400 6.64200 45.54700
H  50.26700 5.15600 45.21700
H  51.28600 7.47800 46.41100
H  52.14200 5.97500 45.87100
H  51.50400 6.08600 47.52700
H  47.09300 10.22900 47.42500
H  46.23100 10.77400 46.03400
H  47.45800 9.52400 45.94500
H  41.13700 8.56600 46.11900
H  38.73700 11.22400 48.94300
H  38.78900 9.75300 49.89000
H  37.97800 9.79500 48.30300
Mg -10.76800 17.21100 40.13000
C  -7.37000 16.41400 40.10900
C  -10.09900 20.38800 39.27800
C  -13.96000 17.66800 39.71300
C  -11.33400 13.71800 40.65300
N  -8.97700 18.24800 39.87700
C  -7.65000 17.79800 39.89400
C  -6.69800 18.93100 39.73900
C  -7.63900 20.18800 39.87100
C  -9.00700 19.61800 39.68400
C  -7.45800 21.00800 41.22000
C  -5.91600 18.78700 38.44400
C  -4.38700 18.49100 38.49200
H  -3.88600 17.33900 37.66400
N  -11.91800 18.86400 39.55500
C  -11.47100 20.13300 39.16300
C  -12.59300 20.99100 38.79200
C  -13.74300 20.11100 38.81200
C  -13.24400 18.81300 39.36500
C  -12.54800 22.38100 38.39400
C  -15.13500 20.50600 38.51400
O  -15.48400 21.66400 38.40100
C  -16.16900 19.43200 38.28900
N  -12.45900 15.71600 39.75000
C  -13.65200 16.33500 39.91600
C  -14.70900 15.25800 40.19100
C  -13.85700 14.02400 40.58300
C  -12.45300 14.51200 40.30400
C  -15.89200 15.44700 41.17700
C  -14.24100 12.74700 39.77300
C  -14.92000 11.62600 40.55900
N  -9.61200 15.41600 40.19800
C  -10.02100 14.11200 40.48400
C  -8.86400 13.25200 40.65800
C  -7.81000 14.13700 40.53700
C  -8.31300 15.39100 40.22900
C  -8.84500 11.73100 40.87500
C  -6.37800 14.22600 40.55500
O  -5.55200 13.35400 40.84500
C  -6.07500 15.69000 40.28300
C  -5.37800 16.11500 41.45900
O  -5.90100 16.40900 42.56000
O  -4.04000 16.22800 41.20500
C  -3.25100 16.82700 42.31600
H  -9.76600 21.40500 39.06100
H  -15.03600 17.80800 39.59200
H  -11.39400 12.65500 40.89500
H  -6.11900 18.79700 40.65300
H  -7.41700 20.84300 39.02800
H  -6.69000 20.66000 41.91000
H  -8.39100 21.08200 41.77800
H  -7.04600 21.98100 40.95100
H  -6.09400 19.68600 37.85400
H  -6.31400 17.99400 37.81100
H  -4.07000 18.35900 39.52700
H  -3.84600 19.42900 38.36300
H  -13.08000 23.00600 39.11200
H  -12.71600 22.44500 37.31900
H  -11.49400 22.64500 38.47800
H  -15.70000 18.66600 37.67200
H  -16.97100 19.73300 37.61500
H  -16.55000 19.17100 39.27700
H  -15.12900 15.05200 39.20600
H  -13.92900 13.77900 41.64300
H  -15.76000 16.33500 41.79600
H  -16.04100 14.55200 41.78100
H  -16.77700 15.62200 40.56500
H  -13.41100 12.33600 39.19800
H  -14.96000 13.10300 39.03500
H  -14.64100 11.63000 41.61300
H  -14.61200 10.63200 40.23700
H  -15.97300 11.55300 40.29000
H  -8.15200 11.28300 40.16200
H  -9.80800 11.22900 40.78200
H  -8.41200 11.48000 41.84300
H  -5.43100 15.65300 39.40400
H  -3.26700 16.07800 43.10800
H  -3.66900 17.79800 42.58200
H  -2.18900 16.96000 42.11100

