158

Mg 1.62600 42.04200 26.01900
C  3.19000 42.26300 29.14500
C  -0.99300 40.73700 27.48500
C  0.68700 41.27400 22.96900
C  4.80400 43.11300 24.66300
N  1.17100 41.74200 28.13900
C  1.89500 41.94000 29.26900
C  1.05300 41.64300 30.56400
C  -0.36600 41.37000 29.87100
C  -0.05400 41.23800 28.42900
C  -1.18100 40.25600 30.52900
C  1.13000 42.83100 31.48100
C  -0.07600 43.28100 32.41600
H  -0.38900 42.55300 33.71400
N  0.03700 41.11200 25.35600
C  -0.95200 40.67800 26.12400
C  -1.88700 39.97900 25.34600
C  -1.39600 40.16600 23.94500
C  -0.17500 40.90900 24.04700
C  -3.09800 39.28000 25.82300
C  -2.00000 39.61200 22.69200
O  -1.50500 39.85600 21.57900
C  -3.28400 38.76800 22.70200
N  2.59700 42.22800 24.14200
C  1.93100 41.89100 22.99700
C  2.73900 42.26800 21.71400
C  3.83600 43.17500 22.34200
C  3.80600 42.72100 23.77500
C  3.29300 41.05300 20.98300
C  3.69200 44.73300 22.26300
C  4.25600 45.29300 20.97900
N  3.54500 42.57700 26.66500
C  4.75900 42.98000 26.04000
C  5.83500 43.14600 26.97600
C  5.25100 42.84500 28.21200
C  3.89800 42.48500 27.97800
C  7.26500 43.52500 26.68300
C  5.54300 42.70000 29.58100
O  6.62900 42.88400 30.20400
C  4.22500 42.40600 30.25800
C  4.37600 41.11900 31.00100
O  4.32400 40.02100 30.48800
O  4.24500 41.23100 32.32900
C  4.29800 39.99800 33.21500
H  -1.86400 40.24600 27.92400
H  0.44100 41.22300 21.90600
H  5.75200 43.40900 24.20900
H  1.39500 40.77900 31.13400
H  -0.96400 42.26400 30.05100
H  -0.70200 40.00400 31.47500
H  -1.32300 39.39400 29.87700
H  -2.19300 40.62500 30.69800
H  1.50800 43.75400 31.04200
H  1.84200 42.57900 32.26700
H  -1.00600 43.40900 31.86100
H  0.09000 44.28100 32.81700
H  -3.94500 39.76000 25.33100
H  -3.35100 39.45000 26.86900
H  -3.04900 38.20500 25.65300
H  -3.22700 37.84300 23.27500
H  -3.45600 38.34200 21.71400
H  -4.15700 39.28200 23.10500
H  2.09500 42.79100 21.00600
H  4.85000 42.92700 22.02900
H  2.71000 40.22900 21.39500
H  4.35800 40.85600 21.10300
H  2.98700 41.19600 19.94700
H  4.34200 45.01000 23.09300
H  2.66900 45.08300 22.40000
H  5.09300 45.95200 21.21000
H  3.45900 45.89900 20.55000
H  4.63100 44.47200 20.36700
H  7.28100 44.03500 25.72000
H  7.77400 42.56100 26.67500
H  7.53900 44.13300 27.54500
H  4.02400 43.23400 30.93800
H  3.58500 39.28100 32.80900
H  4.19100 40.19300 34.28200
H  5.25100 39.48500 33.08200
Mg -1.64700 34.11600 26.83000
C  -3.39300 32.32900 29.29200
C  -0.48900 36.08400 29.38200
C  0.11200 35.90300 24.49500
C  -3.06700 32.24900 24.40400
N  -1.88400 34.12800 29.07000
C  -2.51600 33.17100 29.84000
C  -2.24000 33.39200 31.36900
C  -1.37700 34.70800 31.27500
C  -1.29400 35.04200 29.80300
C  -1.97700 35.94200 32.00800
C  -1.62900 32.20700 32.17500
C  -2.21600 31.95400 33.62000
H  -1.31400 32.03100 34.89600
N  -0.37600 35.80300 26.94500
C  -0.03900 36.42300 28.07400
C  0.91300 37.40800 27.78300
C  1.25800 37.33000 26.39400
C  0.26700 36.37500 25.85600
C  1.60100 38.19700 28.90000
C  2.36500 37.99200 25.58000
O  2.42700 37.89700 24.34900
C  3.41100 38.92600 26.21700
N  -1.62900 34.24300 24.80600
C  -0.72500 34.90900 23.97800
C  -0.55400 34.27700 22.59000
C  -1.71200 33.29200 22.57000
C  -2.14500 33.17500 24.05300
C  -0.57500 35.20100 21.31000
C  -1.29600 32.00900 21.77600
C  -2.21600 31.61400 20.59000
N  -3.08700 32.75800 26.74500
C  -3.56400 32.00900 25.66900
C  -4.40600 30.94900 26.10700
C  -4.36100 31.06500 27.47200
C  -3.56000 32.18100 27.87200
C  -4.97500 29.87000 25.22900
C  -4.78900 30.42300 28.71200
O  -5.56200 29.45600 28.96700
C  -4.11600 31.14400 29.86800
C  -5.20800 31.51300 30.88300
O  -6.25500 32.14700 30.75200
O  -4.87500 30.78500 32.03000
C  -5.77000 30.84300 33.19300
H  -0.06600 36.73800 30.14800
H  0.76800 36.36900 23.75700
H  -3.46400 31.57400 23.64200
H  -3.23400 33.65700 31.73000
H  -0.35100 34.50600 31.58500
H  -1.09500 36.29000 32.54500
H  -2.80500 35.66400 32.66000
H  -2.42300 36.72700 31.39700
H  -0.55100 32.36100 32.22200
H  -1.71600 31.33900 31.52200
H  -2.76400 31.02800 33.79700
H  -3.01000 32.69700 33.68700
H  2.30200 37.52800 29.40000
H  0.86900 38.65100 29.56700
H  2.14500 39.09000 28.59200
H  3.98100 38.28200 26.88700
H  2.87800 39.72900 26.72500
H  4.10400 39.20000 25.42200
H  0.39000 33.74000 22.67700
H  -2.55900 33.73400 22.04500
H  0.49000 35.39700 21.19300
H  -1.04000 36.16600 21.50800
H  -0.98400 34.69500 20.43400
H  -1.23100 31.16500 22.46200
H  -0.24700 32.00300 21.47900
H  -1.57100 31.41400 19.73500
H  -2.98200 32.36800 20.41000
H  -2.75500 30.69600 20.82600
H  -4.48300 29.77200 24.26000
H  -5.98600 30.16200 24.94500
H  -5.04500 28.95600 25.81700
H  -3.39700 30.49100 30.36200
H  -6.02000 31.87200 33.45300
H  -5.17300 30.52600 34.04800
H  -6.58600 30.12700 33.09600

