158

Mg 8.83200 3.86800 27.93000
C  10.20400 2.51100 30.80100
C  6.81800 5.86400 29.88000
C  7.17900 4.70900 25.12400
C  10.36200 1.15400 26.04100
N  8.41400 3.95400 30.12200
C  9.34700 3.53600 31.10100
C  9.17400 4.23300 32.41400
C  8.04200 5.28500 32.07400
C  7.70100 5.03200 30.57700
C  6.86200 5.22100 33.05600
C  10.42500 4.79900 33.10000
C  10.76800 4.33000 34.49000
H  11.37600 5.33800 35.54900
N  7.26700 5.16100 27.53600
C  6.59400 6.00000 28.45600
C  5.80600 7.01700 27.69800
C  5.94400 6.65500 26.30100
C  6.83600 5.42900 26.27000
C  5.17600 8.27800 28.32500
C  5.45100 7.29000 25.03600
O  5.65000 6.94700 23.82600
C  4.60800 8.55300 25.03500
N  8.86500 3.08200 25.89300
C  8.02600 3.59700 24.91200
C  8.13900 2.93800 23.51600
C  9.11300 1.73700 23.80300
C  9.51400 2.01600 25.30900
C  6.75600 2.47700 23.13300
C  10.23000 1.56900 22.82800
C  10.04200 0.38600 21.86600
N  10.16100 2.35100 28.28800
C  10.59300 1.30200 27.46100
C  11.36200 0.40900 28.24300
C  11.26900 0.86900 29.52100
C  10.51600 2.02500 29.50900
C  12.10300 -0.78300 27.82900
C  11.82300 0.67900 30.83900
O  12.52800 -0.21400 31.31400
C  11.15200 1.73600 31.82400
C  10.39600 0.96900 32.93500
O  9.31100 0.41400 32.85500
O  11.12400 1.12100 34.07900
C  10.49700 0.87400 35.35400
H  6.34000 6.58200 30.55100
H  6.54000 4.92500 24.26500
H  10.70200 0.33600 25.40200
H  8.75800 3.47100 33.07300
H  8.58100 6.23100 32.12900
H  7.20600 5.56500 34.03200
H  6.34000 4.26700 33.13000
H  6.11100 5.95900 32.77200
H  10.28700 5.87100 33.24200
H  11.28400 4.67300 32.44100
H  11.56600 3.60000 34.34800
H  9.95600 3.75600 34.93700
H  5.51500 8.36100 29.35800
H  4.10600 8.08500 28.26000
H  5.45900 9.20500 27.82500
H  3.96300 8.64800 24.16200
H  5.25400 9.42300 25.15300
H  3.83000 8.46400 25.79400
H  8.44600 3.62800 22.73000
H  8.54200 0.81000 23.73700
H  5.93800 2.83200 23.76000
H  6.71500 1.39500 23.25500
H  6.59900 2.75800 22.09200
H  11.16000 1.46700 23.38700
H  10.21800 2.46300 22.20400
H  9.80200 0.75100 20.86800
H  9.13900 -0.15500 22.15100
H  10.87600 -0.31000 21.95900
H  11.94500 -0.68100 26.75500
H  11.57200 -1.65000 28.22300
H  13.15000 -0.78700 28.13000
H  11.89000 2.39300 32.28400
H  10.78700 -0.15700 35.55900
H  9.40900 0.80900 35.35000
H  10.87200 1.51500 36.15200
Mg -0.62700 43.86900 26.27500
C  1.85500 43.32200 28.58000
C  -2.91400 43.59000 28.75900
C  -3.07100 43.79600 24.01500
C  1.75300 43.42900 23.74400
N  -0.52500 43.40700 28.32700
C  0.59000 43.30500 29.13200
C  0.25800 43.39000 30.63000
C  -1.18500 42.78300 30.51800
C  -1.59500 43.20700 29.11000
C  -1.22800 41.19300 30.75600
C  0.34400 44.85000 31.21500
C  0.41000 44.93100 32.75000
H  0.13600 43.62900 33.63000
N  -2.74100 44.02300 26.40800
C  -3.50800 43.94600 27.58500
C  -4.86100 44.19000 27.28500
C  -4.95700 44.25600 25.84300
C  -3.57100 44.03200 25.30000
C  -5.79200 44.50900 28.40200
C  -6.14900 44.41700 24.99200
O  -6.03200 44.55000 23.77900
C  -7.61200 44.35100 25.53700
N  -0.72800 43.54300 24.24400
C  -1.85500 43.57500 23.52700
C  -1.60700 43.46000 21.98400
C  -0.05800 43.62500 21.92000
C  0.37700 43.49400 23.36800
C  -2.16800 42.04900 21.35600
C  0.52400 44.94000 21.37800
C  0.08600 46.16000 22.24400
N  1.45000 43.42500 26.11700
C  2.27800 43.37600 25.01700
C  3.61000 43.38100 25.47800
C  3.47800 43.30200 26.91100
C  2.13400 43.35500 27.22400
C  4.84500 43.50400 24.64600
C  4.24700 43.23600 28.11600
O  5.44700 43.09800 28.34600
C  3.25900 43.34400 29.24000
C  3.50800 42.27000 30.20500
O  3.77300 41.12200 29.91400
O  3.30800 42.67100 31.46500
C  3.70600 41.71300 32.51000
H  -3.57800 43.51900 29.62300
H  -3.80500 43.87000 23.20900
H  2.47600 43.44700 22.92600
H  0.88400 42.68400 31.17700
H  -1.78500 43.31500 31.25600
H  -1.64200 40.56100 29.97000
H  -1.66100 41.09500 31.75100
H  -0.22300 40.77200 30.75400
H  -0.55700 45.43700 31.03700
H  1.17200 45.38000 30.74300
H  -0.47600 45.47500 33.07800
H  1.32700 45.38100 33.12800
H  -5.27600 45.17000 29.09800
H  -6.13900 43.65900 28.98900
H  -6.71600 45.00000 28.09700
H  -8.29500 44.16900 24.70700
H  -7.80600 45.18100 26.21700
H  -7.81200 43.43300 26.09000
H  -2.18400 44.22800 21.46900
H  0.29200 42.73600 21.39600
H  -3.10300 42.08400 20.79500
H  -2.15700 41.29900 22.14600
H  -1.43500 41.87100 20.56900
H  0.13500 45.05900 20.36700
H  1.59600 44.86500 21.19500
H  0.92300 46.45700 22.87600
H  -0.79900 45.94600 22.84400
H  -0.23400 46.88900 21.49900
H  4.96200 42.64200 23.98900
H  5.69600 43.64100 25.31200
H  4.85600 44.38800 24.00800
H  3.40400 44.32100 29.70100
H  4.79600 41.70000 32.50800
H  3.29300 40.71800 32.34300
H  3.58400 42.10100 33.52100

