158

Mg 2.60600 -3.04100 44.66900
C  5.93000 -2.18500 44.44200
C  1.75500 -0.82300 42.36100
C  -0.52900 -4.23300 44.94600
C  3.71500 -5.68200 46.83100
N  3.75300 -1.75100 43.43400
C  5.08200 -1.51600 43.50900
C  5.57500 -0.39100 42.50400
C  4.21800 0.06700 41.88000
C  3.16100 -0.80700 42.67900
C  3.77500 1.55900 41.96400
C  6.62900 -0.93800 41.43600
C  7.85300 -0.11300 41.15000
H  7.94100 0.37000 39.60500
N  0.81100 -2.72200 43.62000
C  0.67000 -1.58500 42.86700
C  -0.71600 -1.51800 42.39800
C  -1.44300 -2.51800 43.19700
C  -0.40000 -3.14300 44.03100
C  -1.29900 -0.48600 41.33000
C  -2.97300 -2.72600 43.25900
O  -3.74900 -2.21000 42.45900
C  -3.61600 -3.52200 44.31500
N  1.66200 -4.80800 45.70300
C  0.38100 -5.00900 45.63400
C  -0.03600 -6.28700 46.33400
C  1.35100 -6.89100 46.73400
C  2.36100 -5.76400 46.42100
C  -0.97800 -5.92300 47.49900
C  1.71100 -8.27900 45.96400
C  1.50900 -9.61800 46.67600
N  4.40700 -3.77100 45.59000
C  4.65300 -4.80400 46.39000
C  5.99600 -4.74400 46.82600
C  6.58300 -3.67400 46.11400
C  5.56600 -3.25400 45.26200
C  6.57600 -5.68000 47.76100
C  7.81600 -2.98600 45.79400
O  8.94100 -3.08300 46.28600
C  7.43600 -1.92800 44.74900
C  7.53500 -0.52200 45.27300
O  7.03400 -0.05700 46.28200
O  8.39500 0.18700 44.46700
C  8.65100 1.62000 44.85100
H  1.50900 -0.18600 41.51000
H  -1.48500 -4.71800 45.15100
H  3.99300 -6.47200 47.53200
H  6.06100 0.34400 43.14500
H  4.23300 -0.24600 40.83600
H  3.55800 1.97500 40.98100
H  4.65600 2.05500 42.37200
H  2.89600 1.76500 42.57400
H  6.10900 -1.35300 40.57300
H  7.01500 -1.90200 41.76700
H  8.73800 -0.65400 41.48500
H  7.90000 0.81400 41.72000
H  -1.73700 0.30200 41.94300
H  -2.20600 -0.89100 40.88100
H  -0.56300 -0.05000 40.65500
H  -3.43300 -4.54500 43.98700
H  -4.68700 -3.32300 44.27800
H  -3.22500 -3.28000 45.30300
H  -0.56900 -6.90000 45.60800
H  1.47400 -6.98800 47.81300
H  -0.86400 -6.65300 48.30000
H  -2.01300 -6.17200 47.26400
H  -0.95400 -4.87600 47.80100
H  2.71200 -8.16100 45.55000
H  1.09500 -8.22200 45.06600
H  1.33500 -9.48400 47.74400
H  2.41600 -10.16300 46.41700
H  0.67300 -10.13700 46.20600
H  6.84200 -6.50400 47.09800
H  5.90700 -5.96400 48.57300
H  7.42300 -5.33700 48.35500
H  8.13900 -2.16900 43.95200
H  8.31600 1.96700 45.82800
H  8.12600 2.27400 44.15600
H  9.68400 1.96200 44.78200
Mg -12.06700 16.30600 41.34900
C  -9.18400 14.37300 40.93100
C  -10.17600 18.98100 40.04400
C  -14.83200 17.98700 40.86000
C  -13.87800 13.41200 42.46200
N  -9.96300 16.71100 40.63600
C  -8.94900 15.71300 40.54400
C  -7.71300 16.30300 40.00300
C  -7.88900 17.86400 40.00400
C  -9.41300 17.90600 40.21500
C  -7.15200 18.70400 41.15000
C  -7.42100 15.75300 38.52300
C  -6.16900 15.03400 38.17700
H  -5.43700 15.57800 36.85700
N  -12.48000 18.28800 40.66700
C  -11.59400 19.15200 40.15900
C  -12.25600 20.34900 39.77700
C  -13.63200 20.15600 40.05900
C  -13.71500 18.74500 40.55400
C  -11.49300 21.57100 39.15600
C  -14.76100 21.05000 39.63700
O  -14.65300 21.97700 38.86200
C  -16.20100 20.75000 39.99100
N  -14.13400 15.72900 41.44800
C  -15.08800 16.63400 41.22200
C  -16.48300 15.99400 41.46600
C  -16.17400 14.64400 42.24000
C  -14.62400 14.56300 42.04800
C  -17.60800 16.93900 42.07100
C  -16.97400 13.32200 41.83600
C  -17.44500 12.56300 43.06300
N  -11.56700 14.28400 41.76700
C  -12.44900 13.21600 42.16400
C  -11.60700 11.98800 42.23700
C  -10.32600 12.38200 41.71100
C  -10.35700 13.81200 41.52400
C  -12.05600 10.55700 42.70300
C  -8.97300 11.98300 41.31500
O  -8.47900 10.88300 41.22900
C  -8.15300 13.29200 41.00600
C  -7.14400 13.64200 41.98800
O  -7.31100 13.88400 43.14300
O  -5.95200 13.50800 41.35700
C  -4.79800 13.88500 42.21500
H  -9.61600 19.89200 39.82000
H  -15.69700 18.65300 40.88700
H  -14.43500 12.54000 42.81000
H  -6.95500 16.02200 40.73400
H  -7.80300 18.39000 39.05300
H  -6.29900 18.10900 41.47900
H  -7.80700 18.94700 41.98700
H  -6.74800 19.62800 40.73700
H  -7.42600 16.62900 37.87500
H  -8.26400 15.14300 38.19700
H  -6.43300 13.97700 38.13800
H  -5.48100 15.25500 38.99300
H  -12.23800 22.36700 39.17400
H  -11.21500 21.34300 38.12700
H  -10.64300 21.93700 39.73200
H  -16.83500 21.60400 39.75400
H  -16.21200 20.70000 41.08000
H  -16.59400 19.91000 39.41800
H  -16.85800 15.68600 40.49000
H  -16.54200 14.86000 43.24300
H  -18.12900 16.41700 42.87400
H  -18.41500 17.38000 41.48500
H  -17.19600 17.79900 42.59800
H  -16.34400 12.64000 41.26600
H  -17.78600 13.63600 41.18000
H  -18.24200 13.16700 43.49800
H  -16.62700 12.51900 43.78200
H  -17.75300 11.52300 42.95300
H  -12.30800 9.78400 41.97800
H  -12.90400 10.57500 43.38900
H  -11.23100 10.22700 43.33400
H  -7.66600 13.15200 40.04100
H  -4.36100 14.86600 42.03200
H  -4.14800 13.07700 41.87800
H  -4.92000 13.72600 43.28700

