158

Mg 53.65800 24.82400 45.52700
C  51.17400 27.03500 44.41700
C  52.02800 22.20200 43.88200
C  56.54400 22.86400 45.78100
C  55.51600 27.62800 46.49800
N  51.80300 24.74600 44.18100
C  50.95800 25.72500 43.89800
C  49.79700 25.10200 43.03500
C  49.89100 23.57200 43.30800
C  51.32400 23.53600 43.84700
C  48.78400 22.95100 44.26500
C  49.70400 25.52800 41.53300
C  50.99300 25.52700 40.69200
H  52.17300 24.59700 41.03500
N  54.12900 22.77200 44.95900
C  53.27900 21.85200 44.35000
C  53.96000 20.54500 44.41800
C  55.27200 20.74300 44.99500
C  55.35500 22.19600 45.25600
C  53.31500 19.39600 43.70900
C  56.31700 19.66400 45.25000
O  56.10600 18.51500 44.91500
C  57.58500 19.83900 45.95400
N  55.73900 25.19500 45.92500
C  56.70000 24.24200 46.03400
C  58.02700 24.76300 46.59600
C  57.74300 26.32600 46.51700
C  56.20800 26.40500 46.33100
C  58.29100 24.22800 48.00900
C  58.55600 27.13600 45.48900
C  58.69700 28.64200 45.71100
N  53.36700 26.88800 45.60700
C  54.19400 27.85600 46.17400
C  53.41400 29.02100 46.32400
C  52.26700 28.82300 45.57400
C  52.32100 27.48700 45.07600
C  53.79500 30.23100 47.05200
C  51.04800 29.41900 45.11800
O  50.57400 30.55500 45.28000
C  50.29500 28.30500 44.29600
C  50.03500 28.72400 42.90400
O  50.88800 28.93800 42.03800
O  48.65000 28.82800 42.71900
C  48.28900 29.18400 41.31600
H  51.56500 21.37200 43.34400
H  57.49000 22.33600 45.91600
H  56.02200 28.53600 46.83300
H  48.88200 25.54100 43.43400
H  49.88800 22.92600 42.43000
H  47.86800 23.54200 44.23000
H  49.12600 22.76400 45.28300
H  48.69700 21.96200 43.81600
H  49.18100 26.47100 41.37400
H  49.08400 24.80200 41.00800
H  51.33700 26.55200 40.55300
H  50.67500 25.32500 39.67000
H  53.11000 19.64800 42.66800
H  52.29800 19.18100 44.03800
H  53.84500 18.44400 43.73900
H  57.81400 18.83700 46.31500
H  57.50700 20.44000 46.86100
H  58.36700 20.25900 45.32200
H  58.81500 24.46700 45.90400
H  58.05300 26.78300 47.45700
H  58.05200 23.17500 48.15800
H  57.83600 24.86800 48.76500
H  59.37800 24.21900 47.93800
H  58.07200 27.02900 44.51800
H  59.54500 26.67800 45.45300
H  59.73900 28.70500 46.02400
H  57.99800 28.98000 46.47600
H  58.53100 29.17600 44.77600
H  54.37000 30.08200 47.96600
H  52.89200 30.78700 47.30400
H  54.45100 30.85900 46.45100
H  49.34000 28.10800 44.78400
H  48.76800 28.55200 40.56800
H  48.37600 30.24800 41.09300
H  47.27200 28.96500 40.98900
Mg 30.97500 58.42200 41.33500
C  28.11100 56.74300 39.77400
C  32.96500 56.30900 39.69100
C  33.41300 60.41900 42.22100
C  28.50800 60.96200 42.37800
N  30.53800 56.79600 39.76600
C  29.35100 56.16100 39.39200
C  29.67600 55.03100 38.46200
C  31.23200 54.82400 38.62000
C  31.61300 56.10700 39.42600
C  31.65500 53.57800 39.47800
C  29.24300 55.35100 36.93300
C  28.14600 54.43600 36.19800
H  27.26100 55.11700 35.18100
N  32.92700 58.25800 41.18600
C  33.59100 57.33200 40.42000
C  34.99500 57.51600 40.59100
C  35.18400 58.69400 41.41400
C  33.80700 59.18900 41.67000
C  36.05500 56.55500 40.13200
C  36.41900 59.28600 41.89000
O  37.47900 58.69500 41.72300
C  36.43000 60.60500 42.56100
N  30.88600 60.42500 42.17000
C  32.09900 60.96800 42.47700
C  31.96000 62.35600 42.99800
C  30.41400 62.49700 43.28500
C  29.88600 61.19900 42.55900
C  32.90000 62.75400 44.09400
C  29.75900 63.76800 42.63600
C  28.58200 64.45100 43.37800
N  28.84100 58.72600 41.26500
C  28.05200 59.81800 41.67600
C  26.64900 59.47000 41.45800
C  26.64700 58.33800 40.64300
C  27.95300 57.83300 40.54400
C  25.41200 60.20000 41.86100
C  25.77000 57.38600 39.95300
O  24.56800 57.46800 39.75200
C  26.67000 56.27500 39.33700
C  26.24100 54.98700 39.87100
O  26.65900 54.47900 40.92800
O  25.32500 54.44200 39.01100
C  24.84200 53.05200 39.32700
H  33.61100 55.57600 39.20300
H  34.12500 61.16400 42.58200
H  27.67000 61.61100 42.63600
H  29.15100 54.14700 38.82500
H  31.74900 54.79200 37.66100
H  32.49900 52.98300 39.13000
H  30.85200 52.84800 39.58400
H  31.92100 53.91000 40.48100
H  30.09000 55.49400 36.26200
H  28.78800 56.34100 36.91600
H  27.57700 53.94200 36.98600
H  28.85500 53.79300 35.67800
H  36.71400 57.21500 39.56800
H  35.67300 55.77700 39.47200
H  36.63700 56.09200 40.92900
H  35.79200 60.52600 43.44100
H  35.99600 61.30100 41.84300
H  37.40500 60.90500 42.94400
H  32.20800 62.92900 42.10400
H  30.09300 62.38700 44.32100
H  33.68500 63.43900 43.77200
H  33.43300 61.90500 44.52100
H  32.24000 63.21000 44.83200
H  29.39000 63.47500 41.65300
H  30.48900 64.57000 42.52800
H  27.60800 64.03900 43.11500
H  28.55300 65.51500 43.14000
H  28.70200 64.23700 44.44000
H  24.70600 59.40400 42.09500
H  25.15200 60.74900 40.95600
H  25.39800 60.83700 42.74600
H  26.63000 56.16600 38.25400
H  25.66000 52.33400 39.27300
H  24.13300 52.66800 38.59400
H  24.31100 52.99700 40.27700

