158

Mg 17.23200 -2.12200 27.41500
C  15.98200 -0.01400 30.07700
C  19.21700 -3.54800 29.82500
C  18.66900 -3.98600 24.96200
C  15.60400 -0.10900 25.19400
N  17.58300 -1.76800 29.69100
C  16.90600 -0.91500 30.54500
C  17.32500 -1.14400 32.00100
C  18.52900 -2.12000 31.82000
C  18.54000 -2.44100 30.33900
C  19.91600 -1.54500 32.17900
C  16.15300 -1.79300 32.83800
C  16.23600 -1.63000 34.39200
H  17.44000 -0.82300 35.02100
N  18.62200 -3.69700 27.42700
C  19.39300 -4.09100 28.52300
C  20.16500 -5.28800 28.13900
C  19.92800 -5.51100 26.72900
C  19.05000 -4.42000 26.31500
C  21.01100 -6.09300 29.14100
C  20.52800 -6.58000 25.72000
O  20.10800 -6.58100 24.55500
C  21.50800 -7.63200 26.13700
N  17.12000 -2.08500 25.34200
C  17.92000 -2.86600 24.51900
C  17.61400 -2.58900 23.04900
C  16.53400 -1.44600 23.13500
C  16.34400 -1.21800 24.66300
C  18.92500 -2.28700 22.32600
C  15.27600 -1.85400 22.30900
C  13.93000 -2.13000 23.10500
N  16.01000 -0.47400 27.53000
C  15.34200 0.20300 26.51900
C  14.55300 1.23900 27.04600
C  14.72900 1.17800 28.44200
C  15.58000 0.07900 28.70200
C  13.88900 2.34300 26.25400
C  14.43200 1.79500 29.73500
O  13.71400 2.82500 29.92400
C  15.17700 0.93600 30.82400
C  15.98100 1.82200 31.68400
O  17.10600 2.21100 31.50600
O  15.23300 2.17800 32.76900
C  15.84600 3.17700 33.67700
H  19.96600 -3.83300 30.56700
H  19.16700 -4.55900 24.17800
H  15.08000 0.54100 24.49000
H  17.64000 -0.17600 32.39100
H  18.36100 -3.04100 32.37900
H  19.74600 -0.52400 32.52300
H  20.51600 -1.42900 31.27600
H  20.39900 -2.06100 33.00900
H  16.09100 -2.82900 32.50400
H  15.23200 -1.28800 32.54900
H  16.29600 -2.66400 34.73100
H  15.25100 -1.26400 34.68300
H  20.61600 -6.15700 30.15500
H  22.03500 -5.72500 29.06900
H  21.19200 -7.10600 28.78100
H  21.07500 -8.38500 26.79600
H  22.36000 -7.10300 26.56400
H  21.91100 -8.09500 25.23600
H  17.27500 -3.47500 22.51300
H  17.03800 -0.54300 22.79000
H  19.76100 -2.40200 23.01600
H  18.92600 -1.25300 21.98200
H  19.12000 -2.93800 21.47400
H  15.41100 -2.74600 21.69700
H  15.12100 -1.01100 21.63600
H  14.20300 -2.38900 24.12800
H  13.59200 -3.05100 22.63100
H  13.14600 -1.37300 23.07100
H  13.34100 3.04500 26.88400
H  13.27100 1.88300 25.48300
H  14.67000 2.97500 25.83300
H  14.44100 0.37500 31.40100
H  15.80800 4.15200 33.19100
H  16.88400 2.91200 33.87900
H  15.30500 3.26600 34.61900
Mg 35.74000 48.56600 25.01200
C  35.70100 47.22600 28.28100
C  34.92700 51.58700 26.42100
C  35.34600 49.77600 21.92300
C  36.74000 45.46900 23.87000
N  35.26800 49.30700 27.18400
C  35.31300 48.59200 28.35200
C  35.23800 49.48800 29.61100
C  34.78500 50.90000 28.93600
C  34.97700 50.58600 27.38800
C  33.47500 51.50900 29.26900
C  36.59500 49.41700 30.37300
C  36.48900 48.93100 31.81700
H  35.18500 49.30000 32.59000
N  35.23600 50.40300 24.25800
C  34.85600 51.56100 25.03100
C  34.50700 52.65300 24.13700
C  34.84500 52.18900 22.82400
C  35.08100 50.68400 22.96600
C  33.82600 54.00100 24.67700
C  34.91600 52.95500 21.51600
O  35.31000 52.47700 20.47200
C  34.63000 54.42500 21.52500
N  35.66200 47.69500 23.13100
C  35.82000 48.50600 21.99500
C  36.26000 47.70100 20.85800
C  37.14200 46.58300 21.57900
C  36.45300 46.52800 22.92500
C  35.19400 47.11100 19.87300
C  38.67400 46.89700 21.81500
C  39.57900 46.82400 20.58900
N  36.12300 46.68900 25.82600
C  36.44300 45.52100 25.20400
C  36.52400 44.49100 26.19400
C  36.23900 45.13400 27.41000
C  36.02100 46.46800 27.11400
C  36.82400 43.08900 25.82600
C  36.12600 44.90900 28.75300
O  36.26900 43.87600 29.37100
C  35.78200 46.24200 29.39000
C  34.52100 46.10300 30.22700
O  33.40200 46.46600 29.96200
O  34.81600 45.35600 31.34700
C  33.71300 45.10300 32.31000
H  34.62300 52.49500 26.94500
H  35.36300 50.28400 20.95600
H  37.17200 44.55100 23.46700
H  34.39400 49.17300 30.22500
H  35.47900 51.73100 29.06400
H  32.94100 50.70700 29.77800
H  32.92600 51.69600 28.34600
H  33.52700 52.44700 29.82300
H  36.98300 50.43300 30.44300
H  37.22900 48.68700 29.86900
H  37.35300 49.38300 32.30500
H  36.53700 47.84300 31.83400
H  33.32200 53.68000 25.58800
H  33.06400 54.54200 24.11500
H  34.68500 54.60600 24.96500
H  33.54700 54.51800 21.44500
H  35.14100 54.78000 20.63000
H  35.06100 54.77100 22.46400
H  36.88100 48.42900 20.33500
H  37.03500 45.64000 21.04300
H  35.22000 47.85700 19.07900
H  34.22300 46.84600 20.29400
H  35.54000 46.28700 19.25000
H  39.11700 46.22700 22.55200
H  38.80300 47.92700 22.14800
H  38.93800 47.04700 19.73600
H  39.94100 45.79600 20.62300
H  40.45700 47.46500 20.66900
H  37.33900 43.09400 24.86500
H  35.96800 42.41400 25.80900
H  37.59600 42.62400 26.44000
H  36.57000 46.71300 29.97700
H  33.33000 44.08700 32.40400
H  32.88600 45.81400 32.33000
H  34.21300 45.34100 33.24900

