158

Mg 0.37900 43.68600 26.43500
C  2.78700 43.69400 28.89800
C  -2.06300 43.59700 28.76500
C  -1.72500 43.26400 23.88200
C  3.02600 43.45700 24.00000
N  0.41200 43.53000 28.55400
C  1.48600 43.65000 29.38800
C  1.02600 43.60600 30.91600
C  -0.50900 43.30700 30.85800
C  -0.80000 43.47800 29.33700
C  -0.89900 41.86400 31.27100
C  1.40700 44.80800 31.81100
C  2.11600 44.49500 33.12100
H  1.49400 43.30200 33.83500
N  -1.68800 43.43500 26.34400
C  -2.49600 43.51300 27.43700
C  -3.88300 43.66600 26.92600
C  -3.82900 43.59000 25.54100
C  -2.39900 43.36300 25.17000
C  -5.06300 43.90600 27.86400
C  -4.90300 43.79600 24.52700
O  -4.66100 43.80100 23.28800
C  -6.46400 44.14900 24.96800
N  0.65900 43.27500 24.24100
C  -0.40300 43.29600 23.43600
C  -0.04700 43.03500 21.97500
C  1.52000 43.20300 21.95200
C  1.79400 43.28600 23.49000
C  -0.56600 41.62200 21.51700
C  2.11900 44.47000 21.27800
C  1.77700 45.80900 21.80200
N  2.52600 43.66300 26.40600
C  3.40000 43.57600 25.35800
C  4.74000 43.72500 25.91700
C  4.52600 43.67300 27.28600
C  3.17600 43.69000 27.57000
C  6.03000 43.77100 25.18600
C  5.18900 43.76800 28.60100
O  6.34000 43.96800 28.83500
C  4.04900 43.77800 29.70500
C  4.29700 42.74900 30.67700
O  3.80000 41.62300 30.75300
O  5.18000 43.25200 31.58400
C  5.40000 42.50100 32.86200
H  -2.77400 43.55100 29.59200
H  -2.45300 43.47000 23.09400
H  3.85500 43.41900 23.29000
H  1.52800 42.74900 31.36400
H  -1.15000 43.97300 31.43600
H  -0.02600 41.21700 31.35200
H  -1.59700 41.42000 30.56000
H  -1.35000 41.80600 32.26200
H  0.57900 45.48100 32.03400
H  2.09700 45.51700 31.35400
H  1.99700 45.33800 33.80100
H  3.17300 44.35000 32.89600
H  -5.44900 44.89800 27.62700
H  -4.78600 43.94100 28.91800
H  -5.68500 43.02400 27.71300
H  -6.86500 43.22600 25.38600
H  -7.02800 44.38400 24.06500
H  -6.45800 45.00400 25.64400
H  -0.41600 43.64000 21.14600
H  2.09800 42.35400 21.58600
H  0.19700 40.84700 21.59500
H  -0.96900 41.62000 20.50400
H  -1.41300 41.28700 22.11500
H  1.73500 44.47100 20.25700
H  3.20200 44.35300 21.31400
H  2.73800 46.23800 22.08600
H  1.17800 45.73700 22.71000
H  1.26500 46.42100 21.06000
H  6.73000 44.50400 25.58600
H  5.90500 44.01200 24.13000
H  6.39400 42.74800 25.28300
H  4.14000 44.69400 30.28900
H  6.44000 42.18000 32.80300
H  4.77500 41.61900 33.00600
H  5.17200 43.13900 33.71600
Mg -1.86600 35.09500 26.58100
C  -3.62400 33.40000 29.18200
C  -0.76200 37.27700 28.99000
C  -0.84700 37.17900 24.11500
C  -3.90400 33.38000 24.22900
N  -2.21400 35.36100 28.87700
C  -2.86200 34.50000 29.70300
C  -2.42600 34.72800 31.19400
C  -1.49300 35.92400 31.10900
C  -1.45000 36.21900 29.60500
C  -1.77300 37.21000 31.97500
C  -1.87100 33.34200 31.68600
C  -2.52600 32.73100 32.92500
H  -1.70100 32.58400 34.16200
N  -0.81400 36.90100 26.59000
C  -0.42100 37.60800 27.66400
C  0.39400 38.67500 27.19800
C  0.46900 38.58800 25.79600
C  -0.50000 37.56600 25.43900
C  0.97400 39.83200 28.13000
C  1.31600 39.42700 24.83400
O  1.20000 39.38200 23.60400
C  2.44100 40.30700 25.34600
N  -2.55000 35.43300 24.46700
C  -1.77600 36.24300 23.64700
C  -2.06500 35.97700 22.19300
C  -2.93400 34.65000 22.18300
C  -3.25800 34.49700 23.70100
C  -2.72600 37.14300 21.42400
C  -2.20900 33.35400 21.65000
C  -1.04000 32.84600 22.43500
N  -3.31400 33.64100 26.62700
C  -3.97400 32.99100 25.60700
C  -4.74600 31.90200 26.11700
C  -4.70200 32.06900 27.51800
C  -3.80900 33.15200 27.79900
C  -5.57100 30.92400 25.41400
C  -5.11100 31.49800 28.74300
O  -5.83600 30.57900 28.97300
C  -4.48600 32.32000 29.87100
C  -5.66700 32.73600 30.68500
O  -6.47700 33.60700 30.39000
O  -5.68600 31.98600 31.82900
C  -6.66100 32.53000 32.82300
H  -0.16700 37.78300 29.75300
H  -0.46000 37.72800 23.25400
H  -4.19700 32.72200 23.40800
H  -3.27200 35.00900 31.82100
H  -0.48900 35.56800 31.34200
H  -0.82000 37.39500 32.47200
H  -2.44800 37.01600 32.80800
H  -2.16600 38.01400 31.35300
H  -0.79500 33.39300 31.85200
H  -1.83900 32.62600 30.86500
H  -2.86600 31.72300 32.68600
H  -3.39400 33.33500 33.19000
H  1.90900 39.48300 28.57000
H  0.19500 39.96000 28.88200
H  1.17900 40.82800 27.73900
H  2.96000 39.93100 26.22800
H  1.89200 41.21300 25.60300
H  3.06800 40.44400 24.46500
H  -1.16500 35.71500 21.63800
H  -3.90200 34.79400 21.70300
H  -3.77600 36.90400 21.25700
H  -2.27600 37.45200 20.48000
H  -2.76200 38.00400 22.09200
H  -1.91100 33.52100 20.61500
H  -3.01700 32.62500 21.71100
H  -1.34800 31.98500 23.02900
H  -0.62000 33.64300 23.04900
H  -0.22800 32.53200 21.78000
H  -5.07400 30.92500 24.44400
H  -6.63800 31.14600 25.44600
H  -5.38300 29.94300 25.85000
H  -3.91700 31.65600 30.52200
H  -7.63700 32.08200 32.64000
H  -6.73700 33.60500 32.66100
H  -6.34400 32.38300 33.85600

