158

Mg 17.24500 -2.81200 27.35600
C  16.47100 -0.80900 30.22000
C  19.38500 -4.66900 29.59400
C  18.39800 -4.48900 24.78800
C  15.75900 -0.51400 25.35300
N  17.97700 -2.63900 29.66500
C  17.44100 -1.78900 30.56700
C  17.85900 -2.17900 32.03300
C  18.86200 -3.40500 31.74000
C  18.67200 -3.59200 30.24200
C  20.35700 -3.20700 32.26100
C  16.65300 -2.49300 32.95100
C  16.56800 -1.70700 34.24400
H  17.80900 -1.24800 35.08900
N  18.61900 -4.40700 27.20000
C  19.37300 -4.96500 28.20600
C  20.18300 -6.10700 27.64800
C  19.94700 -6.02500 26.23000
C  18.93800 -4.99100 26.01100
C  21.13700 -6.95000 28.49800
C  20.47500 -6.89400 25.13400
O  20.19600 -6.81300 23.97500
C  21.32900 -8.06600 25.54200
N  17.11900 -2.52800 25.39200
C  17.63200 -3.37700 24.54700
C  17.45700 -2.92600 23.13500
C  16.37900 -1.68200 23.25700
C  16.45800 -1.51400 24.73800
C  18.84200 -2.51700 22.52700
C  14.95200 -2.04200 22.78800
C  14.17000 -0.92200 22.11800
N  16.21900 -1.03700 27.69100
C  15.66500 -0.24900 26.71900
C  14.87800 0.78500 27.38500
C  15.10600 0.54200 28.81300
C  16.00800 -0.53200 28.91700
C  14.07900 1.84100 26.71700
C  14.83000 1.09500 30.19100
O  14.11800 2.02800 30.58100
C  15.80100 0.25800 31.12700
C  16.60200 1.33200 31.73100
O  17.71300 1.64300 31.35100
O  15.93700 2.00300 32.72600
C  16.66000 2.94900 33.60400
H  20.01500 -5.28500 30.23900
H  18.61200 -5.14000 23.93700
H  15.20000 0.15000 24.69000
H  18.40700 -1.28500 32.33200
H  18.41700 -4.27100 32.23000
H  20.49500 -2.39900 32.98000
H  20.95300 -2.98400 31.37600
H  20.64500 -4.10600 32.80500
H  16.45400 -3.54300 33.16200
H  15.74600 -2.19600 32.42300
H  15.98300 -2.27600 34.96700
H  16.11900 -0.72300 34.11300
H  22.13000 -6.97300 28.04900
H  20.86700 -8.00400 28.56100
H  21.26400 -6.76100 29.56400
H  20.87100 -8.76500 26.24100
H  22.24500 -7.68200 25.99000
H  21.65600 -8.66900 24.69500
H  16.91300 -3.73100 22.64000
H  16.72000 -0.79000 22.73100
H  19.61400 -2.79400 23.24500
H  18.89900 -1.44100 22.35800
H  19.03000 -2.97700 21.55700
H  14.34300 -2.38500 23.62500
H  15.06700 -2.93600 22.17600
H  14.77200 -0.01500 22.06400
H  13.22100 -0.74900 22.62600
H  13.98200 -1.06400 21.05400
H  13.92100 2.65300 27.42700
H  13.09100 1.39900 26.58800
H  14.40600 2.17800 25.73300
H  15.18200 -0.11000 31.94600
H  17.66100 2.56600 33.80200
H  16.08200 3.31200 34.45300
H  16.79600 3.89500 33.08100
Mg 34.64400 49.36200 25.93900
C  34.44400 47.29500 28.66500
C  33.39600 51.92700 27.61300
C  34.58200 51.06600 23.00900
C  35.67300 46.46500 24.01700
N  33.81500 49.51400 27.86900
C  34.08000 48.63600 28.86500
C  33.87100 49.36900 30.21200
C  33.16200 50.69700 29.81300
C  33.47300 50.73000 28.32200
C  31.69400 50.84000 30.24500
C  35.17000 49.64000 31.08100
C  35.04000 50.26300 32.44700
H  33.61300 50.32100 33.08000
N  34.20400 51.29900 25.42900
C  33.79800 52.21800 26.30600
C  33.74600 53.48700 25.59100
C  34.03000 53.26100 24.24900
C  34.28600 51.82600 24.15000
C  33.21300 54.79300 26.26400
C  34.04600 54.24300 23.04000
O  34.19100 53.87900 21.88300
C  33.94800 55.69700 23.29200
N  34.93000 48.79800 23.77400
C  34.82700 49.74400 22.77500
C  35.23800 49.11500 21.47500
C  35.79900 47.71900 21.87000
C  35.48200 47.63700 23.29500
C  34.03300 49.08900 20.43200
C  37.23700 47.48700 21.41900
C  38.41500 47.78300 22.39200
N  34.92400 47.26900 26.21600
C  35.32900 46.26900 25.36300
C  35.30400 45.00200 26.10500
C  35.09400 45.37900 27.45000
C  34.76200 46.76400 27.42400
C  35.79600 43.76000 25.51400
C  35.06400 44.99800 28.89100
O  35.31400 43.95400 29.38900
C  34.66400 46.25500 29.69200
C  33.43200 45.90800 30.46400
O  32.38400 45.64300 29.90900
O  33.64600 45.87900 31.81900
C  32.63300 45.28600 32.64300
H  33.26500 52.83200 28.20900
H  34.74300 51.69000 22.12800
H  36.16400 45.65700 23.47100
H  33.24000 48.74600 30.84600
H  33.51700 51.53000 30.42000
H  31.40900 50.01900 30.90200
H  31.12400 50.59300 29.34900
H  31.41800 51.64100 30.93100
H  35.78600 50.19900 30.37700
H  35.62200 48.65900 31.22100
H  35.26500 51.31400 32.27200
H  35.72900 49.75200 33.12000
H  33.84700 55.66300 26.09500
H  33.12700 54.57800 27.33000
H  32.22900 55.07900 25.89300
H  33.12600 56.01800 23.93200
H  33.93100 56.12800 22.29100
H  34.86500 56.00900 23.79300
H  36.00600 49.78400 21.08700
H  35.25600 46.91100 21.37900
H  33.95000 49.88300 19.69000
H  33.17200 48.86200 21.06000
H  34.29100 48.20300 19.85100
H  37.39000 48.15600 20.57300
H  37.31800 46.43200 21.15700
H  38.89300 46.85900 22.71800
H  38.16200 48.30900 23.31200
H  39.18500 48.39100 21.91800
H  36.30600 44.08600 24.60800
H  34.89400 43.15100 25.44900
H  36.47000 43.31900 26.24800
H  35.49000 46.55500 30.33700
H  31.71100 45.74700 32.28900
H  32.79400 45.50900 33.69800
H  32.77500 44.20700 32.59900

