158

Mg 43.41500 4.29000 47.33600
C  41.26000 7.08200 47.40900
C  40.41600 2.37500 46.97500
C  45.30200 1.62800 46.65500
C  46.11000 6.35000 47.34300
N  41.08600 4.74000 46.88000
C  40.56000 5.92900 47.29800
C  39.05600 5.83900 47.49500
C  38.77000 4.26800 47.52000
C  40.17900 3.75800 47.09600
C  38.25300 3.69100 48.86000
C  38.13800 6.62600 46.37600
C  38.59000 6.40600 44.86000
H  38.81600 7.63600 43.99200
N  43.00500 2.32700 46.98200
C  41.69900 1.79500 46.93900
C  41.87100 0.40100 46.84700
C  43.22100 0.08400 46.57900
C  43.92600 1.36900 46.66300
C  40.67900 -0.57200 47.02700
C  43.78600 -1.27700 46.29800
O  43.03700 -2.24600 46.19900
C  45.16000 -1.53100 46.12700
N  45.43100 4.09000 47.06700
C  46.02900 2.81100 46.94000
C  47.52700 3.02800 46.90600
C  47.90500 4.57300 47.10900
C  46.40000 5.01400 47.19500
C  48.45800 2.05900 47.73800
C  48.75100 5.36300 46.06300
C  49.94000 4.67900 45.52200
N  43.69800 6.34500 47.31900
C  44.87900 7.06800 47.49600
C  44.60700 8.44200 47.67700
C  43.16800 8.47100 47.67000
C  42.68000 7.16900 47.36700
C  45.67700 9.53900 47.93900
C  42.04200 9.39400 47.88400
O  42.01800 10.59200 48.16600
C  40.76000 8.52800 47.70000
C  39.94100 8.54800 48.93900
O  40.21100 7.95800 50.01200
O  38.86300 9.39400 48.69300
C  37.82800 9.43800 49.84300
H  39.55300 1.71100 47.04900
H  46.05900 0.85500 46.50700
H  46.99400 6.98900 47.37200
H  38.87800 6.22800 48.49800
H  38.05800 4.08100 46.71600
H  37.59400 4.35200 49.42400
H  39.08400 3.33700 49.47100
H  37.70900 2.77500 48.62900
H  37.97200 7.65400 46.69600
H  37.16400 6.13800 46.35700
H  37.84600 5.76400 44.38600
H  39.50600 5.82200 44.77300
H  40.17100 -0.78200 46.08600
H  40.06000 -0.09800 47.78900
H  41.11900 -1.49700 47.40000
H  45.79300 -1.02100 46.85300
H  45.50200 -0.98900 45.24500
H  45.25700 -2.61100 46.02000
H  47.77500 2.71000 45.89300
H  48.41000 4.70000 48.06700
H  49.17500 1.57100 47.07800
H  47.82100 1.27600 48.15100
H  49.03500 2.55700 48.51700
H  48.96100 6.33300 46.51500
H  48.00400 5.52200 45.28500
H  49.70500 4.35900 44.50700
H  50.42600 3.86700 46.06300
H  50.68700 5.45800 45.37000
H  45.31700 10.56800 47.91300
H  46.46800 9.49200 47.19000
H  46.11700 9.21100 48.88000
H  40.20700 8.85200 46.81700
H  38.30300 9.98800 50.65500
H  37.67100 8.45300 50.28200
H  36.88100 9.80400 49.44400
Mg -11.12000 38.82500 42.53600
C  -9.22500 36.32800 41.19500
C  -9.17100 41.21600 40.85100
C  -13.25900 41.27700 43.45300
C  -13.42200 36.49600 43.54100
N  -9.52300 38.78600 41.07800
C  -8.82000 37.63600 40.72800
C  -7.72300 37.93200 39.71100
C  -7.58700 39.46900 39.81600
C  -8.83800 39.85200 40.58100
C  -6.27500 39.87200 40.52600
C  -7.80200 37.34000 38.31200
C  -6.52200 36.60400 37.74400
H  -5.75800 37.42000 36.64700
N  -11.14600 40.99300 42.32000
C  -10.28800 41.77100 41.52800
C  -10.70900 43.08700 41.61400
C  -11.78400 43.22600 42.48600
C  -12.06300 41.81800 42.83000
C  -10.04800 44.13700 40.71800
C  -12.56600 44.49700 42.80900
O  -12.13100 45.53000 42.33300
C  -13.81800 44.57600 43.58000
N  -13.08200 38.90000 43.55700
C  -13.73100 40.00900 43.77200
C  -15.18800 39.68700 44.09500
C  -15.28000 38.21900 44.10000
C  -13.82000 37.84700 43.72200
C  -15.77600 40.25200 45.44700
C  -16.30200 37.57700 43.11400
C  -17.30200 36.61700 43.76300
N  -11.27000 36.79200 42.37200
C  -12.19100 36.01300 43.03400
C  -11.78800 34.64200 42.98000
C  -10.66200 34.66500 42.15400
C  -10.35900 36.01000 41.90500
C  -12.51100 33.37600 43.59900
C  -9.68100 33.90200 41.43800
O  -9.64100 32.69100 41.27700
C  -8.67000 34.89500 40.84100
C  -7.26400 34.66300 41.31700
O  -6.61600 35.29900 42.06500
O  -6.75600 33.55900 40.63600
C  -5.28900 33.42600 40.76400
H  -8.61900 41.90500 40.20900
H  -13.99500 42.01800 43.77100
H  -14.06700 35.63500 43.73100
H  -6.81600 37.48800 40.12400
H  -7.44600 39.88700 38.82000
H  -5.48300 39.17700 40.24500
H  -6.41800 39.89100 41.60600
H  -5.90000 40.86700 40.28500
H  -7.94500 38.13300 37.57800
H  -8.65900 36.66700 38.35600
H  -6.95900 35.70500 37.30900
H  -5.84700 36.27600 38.53500
H  -10.74400 44.86000 40.29200
H  -9.48600 43.76700 39.86000
H  -9.35800 44.73100 41.31700
H  -14.50000 44.11500 42.86600
H  -13.98800 45.63600 43.76500
H  -13.79800 44.05700 44.53900
H  -15.75600 40.22700 43.33700
H  -15.45000 37.89300 45.12600
H  -15.98400 41.31700 45.34800
H  -14.95700 40.17600 46.16300
H  -16.66300 39.72500 45.79800
H  -15.83800 37.03600 42.29000
H  -16.90600 38.35300 42.64500
H  -18.33700 36.95400 43.70800
H  -17.15000 36.33100 44.80400
H  -17.11200 35.65400 43.28900
H  -11.98100 32.42600 43.53200
H  -13.52500 33.38700 43.20000
H  -12.48400 33.84600 44.58200
H  -8.56100 34.74300 39.76800
H  -4.85100 34.41600 40.63500
H  -5.04100 32.79100 39.91400
H  -4.90700 33.01100 41.69600

