158

Mg 45.95800 16.63600 27.13100
C  44.34100 16.38400 30.23200
C  48.31700 18.70600 28.55300
C  46.83800 17.67700 23.97600
C  43.15800 15.01500 25.74200
N  46.22200 17.52700 29.16700
C  45.54200 17.17300 30.29800
C  46.22000 17.70000 31.56800
C  47.40500 18.60500 30.93000
C  47.38600 18.19200 29.45800
C  47.17300 20.07600 31.20700
C  46.61100 16.70300 32.57700
C  46.74500 17.15600 34.10600
H  46.54700 18.64500 34.50900
N  47.50900 17.81700 26.33900
C  48.36600 18.55500 27.10100
C  49.35300 19.15500 26.23400
C  48.95200 18.87900 24.89400
C  47.70900 18.16700 25.00300
C  50.59700 19.97600 26.67300
C  49.54100 19.41400 23.63800
O  49.00100 19.20200 22.51600
C  50.79900 20.19500 23.61300
N  45.19900 16.31500 25.11700
C  45.70200 16.85000 23.98400
C  45.05300 16.34800 22.80000
C  44.09900 15.22400 23.42700
C  44.08100 15.65300 24.84000
C  44.41200 17.58700 22.07500
C  44.62700 13.73000 23.39100
C  43.68200 12.74800 22.63400
N  44.10700 15.85000 27.79800
C  43.16000 15.08900 27.15600
C  42.07700 14.70900 28.08200
C  42.51200 15.12200 29.30800
C  43.78500 15.80100 29.08900
C  40.73400 14.20500 27.65100
C  42.23800 15.21400 30.70200
O  41.21000 14.89000 31.34400
C  43.36800 16.06800 31.39600
C  42.76400 17.19000 32.31100
O  42.39700 18.28400 31.95800
O  42.72500 16.66900 33.57800
C  42.30700 17.57300 34.65500
H  49.18200 19.16200 29.03800
H  47.12400 17.78700 22.92800
H  42.48800 14.34600 25.19700
H  45.42700 18.28900 32.03000
H  48.34400 18.37900 31.43700
H  46.18700 20.11700 31.67000
H  47.13700 20.77100 30.36800
H  47.89800 20.30900 31.98600
H  47.59700 16.35000 32.27400
H  45.91700 15.86700 32.48200
H  47.78100 16.91400 34.34200
H  46.09600 16.52200 34.71000
H  51.47200 19.50100 26.22900
H  50.64200 20.10900 27.75400
H  50.57500 20.99700 26.29100
H  50.74800 21.14500 24.14500
H  50.81900 20.60200 22.60200
H  51.63100 19.52900 23.84100
H  45.73400 15.97600 22.03500
H  43.05400 15.18000 23.12100
H  44.55900 18.51400 22.62900
H  43.33200 17.44100 22.04300
H  44.72900 17.79900 21.05400
H  44.87700 13.31900 24.36900
H  45.54500 13.73100 22.80300
H  44.11200 12.50100 21.66300
H  42.71600 13.00000 22.19700
H  43.52300 11.83600 23.20900
H  40.63700 14.50900 26.60900
H  39.91200 14.72900 28.13800
H  40.70500 13.11800 27.72300
H  43.89300 15.37000 32.04800
H  42.86600 18.50800 34.62600
H  42.49700 17.07600 35.60600
H  41.22300 17.67600 34.61300
Mg -10.47000 39.00500 40.21800
C  -8.98200 35.81800 40.32600
C  -7.65200 40.28500 38.79700
C  -12.27900 41.94900 39.63400
C  -13.43200 37.57800 41.51600
N  -8.54600 38.12800 39.62300
C  -8.11400 36.81100 39.73000
C  -6.81200 36.56900 38.98000
C  -6.33200 38.08300 38.93600
C  -7.61500 38.87500 39.05200
C  -5.30300 38.38400 40.08400
C  -7.09800 35.88500 37.60800
C  -6.11100 34.88000 37.00900
H  -5.29800 35.40800 35.82200
N  -10.04700 40.89600 39.30000
C  -8.72700 41.24100 38.97400
C  -8.77200 42.65000 38.69300
C  -10.09500 43.16800 38.84700
C  -10.92900 41.98500 39.21300
C  -7.51500 43.37200 38.40900
C  -10.45200 44.66200 38.58200
O  -9.61900 45.41500 38.19100
C  -11.84800 45.11000 38.70200
N  -12.66700 39.55800 40.23200
C  -13.03800 40.87300 40.16400
C  -14.51100 41.07200 40.50100
C  -14.89400 39.65800 41.04600
C  -13.60300 38.87600 40.92500
C  -14.59700 42.17900 41.59700
C  -16.25000 38.92800 40.49100
C  -17.51800 39.73200 40.45800
N  -11.11300 37.11200 40.95800
C  -12.29700 36.63400 41.48500
C  -12.13000 35.28100 41.93400
C  -10.86900 34.87100 41.43000
C  -10.25000 36.02500 40.82400
C  -13.11500 34.43700 42.76200
C  -9.99300 33.69500 41.30200
O  -10.05400 32.53300 41.69800
C  -8.83700 34.28000 40.37200
C  -7.47200 33.84000 40.86800
O  -6.83000 32.96100 40.28100
O  -7.20000 34.37900 42.16000
C  -5.90600 33.92500 42.80300
H  -6.66700 40.74400 38.68400
H  -12.86400 42.85300 39.45300
H  -14.31600 37.10000 41.94300
H  -6.14400 35.98100 39.61000
H  -5.88100 38.13300 37.94400
H  -5.79500 39.25400 40.51900
H  -4.27400 38.60900 39.80700
H  -5.26300 37.62500 40.86600
H  -7.31100 36.72100 36.94200
H  -8.04700 35.35000 37.64800
H  -6.59800 33.93000 36.78700
H  -5.40300 34.68600 37.81500
H  -7.54700 43.83000 37.42100
H  -6.62100 42.75000 38.46800
H  -7.38700 44.21800 39.08400
H  -12.44000 44.93800 39.60100
H  -12.35500 44.63300 37.86300
H  -11.85500 46.16200 38.41700
H  -15.14000 41.26700 39.63200
H  -15.10200 39.68800 42.11600
H  -15.24200 42.93200 41.14600
H  -13.62300 42.62200 41.80200
H  -15.11900 41.85300 42.49700
H  -16.31400 38.00700 41.07100
H  -16.05500 38.63100 39.46100
H  -17.39100 40.74000 40.85500
H  -18.25400 39.22500 41.08100
H  -17.82000 39.79200 39.41300
H  -12.78700 33.39800 42.80600
H  -14.09500 34.39300 42.28800
H  -13.26000 34.90100 43.73800
H  -8.98600 33.78100 39.41500
H  -5.13400 34.32900 42.14800
H  -5.81900 32.84200 42.88300
H  -5.87400 34.27600 43.83500

