158

Mg 44.11800 3.68500 46.81400
C  42.17300 6.51400 47.14300
C  41.19400 1.89800 46.47200
C  45.88900 1.03600 45.57400
C  46.99300 5.59100 46.75000
N  41.91400 4.22200 46.64600
C  41.34500 5.40600 46.99600
C  39.80800 5.20800 47.28400
C  39.57300 3.66800 47.14900
C  40.99400 3.23100 46.87100
C  38.98000 3.06100 48.40400
C  38.87000 6.16600 46.47600
C  38.93800 5.88300 44.95600
H  39.13400 7.08100 43.96400
N  43.59100 1.63700 46.22600
C  42.30600 1.08700 46.13900
C  42.43200 -0.25700 45.79100
C  43.79400 -0.50700 45.52900
C  44.50400 0.77400 45.79900
C  41.19100 -1.14000 45.58500
C  44.25900 -1.81400 44.95200
O  43.47900 -2.75500 44.79000
C  45.70700 -2.16700 44.63800
N  46.25400 3.32000 46.43000
C  46.69000 2.11000 45.97600
C  48.16300 2.31200 45.60000
C  48.66100 3.67600 46.26900
C  47.24200 4.21600 46.62500
C  49.07700 1.16700 45.71800
C  49.44500 4.50500 45.18300
C  50.87300 4.98500 45.63700
N  44.56200 5.60500 46.86500
C  45.75300 6.24800 46.79800
C  45.50900 7.67300 47.08800
C  44.13400 7.81800 47.15400
C  43.57900 6.56300 47.02600
C  46.47500 8.67100 47.21000
C  43.04900 8.70400 47.43300
O  43.13000 9.90400 47.78500
C  41.77600 7.91200 47.49100
C  41.01900 8.14800 48.78400
O  41.32900 7.68600 49.88200
O  39.84800 8.85000 48.46100
C  38.98500 9.08400 49.68800
H  40.25600 1.33800 46.46200
H  46.39800 0.25100 45.01100
H  47.87400 6.23000 46.66500
H  39.62400 5.56100 48.29900
H  38.93700 3.34100 46.32600
H  38.65600 3.68900 49.23500
H  39.66300 2.42900 48.97200
H  38.05500 2.50900 48.23700
H  39.25800 7.17300 46.63000
H  37.82600 6.10100 46.78000
H  38.03300 5.43600 44.54400
H  39.74200 5.15100 44.88300
H  41.19200 -1.97900 46.28100
H  41.20700 -1.63300 44.61300
H  40.22900 -0.62800 45.59100
H  46.29100 -1.80900 45.48600
H  46.05000 -1.75900 43.68700
H  45.86900 -3.23600 44.50000
H  48.00500 2.59500 44.55900
H  49.11200 3.47100 47.24000
H  49.24400 0.86700 44.68400
H  48.66800 0.40000 46.37600
H  50.02400 1.48400 46.15600
H  48.86500 5.39000 44.92000
H  49.60300 3.97000 44.24600
H  50.68500 6.00800 45.96500
H  51.46700 5.05200 44.72600
H  51.44000 4.43400 46.38700
H  47.24400 8.51800 46.45300
H  46.91100 8.67200 48.20900
H  46.09200 9.65800 46.94700
H  41.08400 8.26600 46.72600
H  39.17100 10.13900 49.88800
H  39.18900 8.56800 50.62600
H  37.94300 8.90500 49.42200
Mg 6.99100 52.93700 40.33000
C  6.83100 49.45800 39.98900
C  10.39400 52.71100 39.78900
C  7.09400 56.36500 39.68500
C  3.61400 53.01600 40.54300
N  8.38600 51.24900 39.64600
C  8.13200 49.86100 39.68000
C  9.35500 49.06300 39.50900
C  10.46300 50.07200 40.00600
C  9.70000 51.47500 39.70100
C  10.97700 50.02400 41.48600
C  9.55400 48.55400 38.03800
C  8.98800 49.39000 36.87900
H  7.68800 48.97200 36.20500
N  8.48900 54.37000 39.83400
C  9.87000 54.03300 39.66000
C  10.63100 55.21300 39.57700
C  9.68000 56.29600 39.46200
C  8.32300 55.71600 39.60800
C  12.08800 55.24400 39.39500
C  10.00200 57.80700 39.38900
O  11.19000 58.16400 39.49300
C  9.03200 58.90000 39.14400
N  5.53500 54.50400 40.14600
C  5.75800 55.83600 40.01400
C  4.41500 56.66800 40.02300
C  3.36400 55.59800 40.30300
C  4.19800 54.24600 40.32300
C  4.49900 57.75500 41.07000
C  2.34100 55.52100 39.06000
C  0.85300 55.59900 39.51700
N  5.55200 51.54700 40.46600
C  4.14700 51.73500 40.58500
C  3.50700 50.45000 40.81900
C  4.57500 49.56000 40.61000
C  5.79600 50.25900 40.39700
C  2.02800 50.15700 40.97700
C  4.82300 48.17700 40.63600
O  4.08400 47.23900 40.88400
C  6.25000 48.04600 40.07900
C  6.21400 47.28100 38.77400
O  5.48500 47.50300 37.82000
O  7.00500 46.18100 38.93600
C  6.75900 45.14900 37.93500
H  11.47400 52.65600 39.93600
H  7.08800 57.37300 39.26500
H  2.56400 53.05100 40.84000
H  9.42500 48.24300 40.22400
H  11.36800 50.04700 39.39900
H  10.53900 50.80300 42.10900
H  12.03500 50.27200 41.39600
H  10.76800 49.04100 41.90900
H  8.98600 47.63000 37.93200
H  10.62100 48.51900 37.82000
H  9.79400 49.57800 36.17000
H  8.75300 50.40800 37.19100
H  12.27200 55.88900 38.53500
H  12.57100 54.30000 39.14300
H  12.50200 55.73200 40.27700
H  8.22200 58.96500 39.87100
H  8.53200 58.60700 38.22100
H  9.47700 59.87900 38.96700
H  4.25200 57.09800 39.03500
H  2.79900 55.65100 41.23400
H  3.84400 57.68500 41.93900
H  4.23400 58.66500 40.53000
H  5.49500 57.86800 41.49900
H  2.40500 54.56300 38.54500
H  2.39800 56.26400 38.26400
H  0.75700 55.47900 40.59600
H  0.34900 54.73100 39.09200
H  0.39500 56.51700 39.14700
H  1.61700 50.09100 39.97000
H  1.41400 50.91000 41.47200
H  1.93700 49.21300 41.51400
H  6.66200 47.36300 40.82200
H  7.44100 44.33100 38.16900
H  6.78600 45.45000 36.88800
H  5.79500 44.66400 38.08900

