158

Mg 17.46100 -1.45700 26.76400
C  16.47200 0.69500 29.48400
C  19.42300 -3.09300 28.96700
C  18.58700 -3.01900 24.25300
C  15.91900 1.01900 24.74100
N  17.87100 -1.19800 28.89800
C  17.38700 -0.29600 29.84700
C  17.93700 -0.48100 31.23700
C  19.01900 -1.49500 30.93400
C  18.80000 -2.01700 29.53200
C  20.49400 -0.97800 31.18800
C  16.73400 -0.96300 32.13800
C  16.79700 -0.69200 33.62900
H  18.18900 -0.35100 34.15600
N  18.62500 -3.01900 26.64000
C  19.33500 -3.62200 27.62900
C  20.08400 -4.74500 27.07000
C  19.72200 -4.83700 25.67100
C  18.88600 -3.62000 25.44200
C  20.93800 -5.76300 27.85400
C  20.11000 -5.88800 24.56300
O  19.84800 -5.90000 23.37600
C  20.94000 -7.05800 25.16600
N  17.29400 -0.99700 24.81600
C  17.92700 -1.82500 23.93600
C  17.82600 -1.25700 22.48700
C  16.90300 -0.05500 22.66500
C  16.68600 0.03900 24.14800
C  19.17100 -0.88900 21.79600
C  15.61900 0.03600 21.78900
C  14.52000 -0.92500 22.27700
N  16.23200 0.31000 27.02900
C  15.69000 1.21100 26.11800
C  14.86900 2.18900 26.73100
C  15.10500 1.96400 28.07000
C  15.99800 0.87900 28.19800
C  13.81400 3.12700 26.10300
C  14.67100 2.41500 29.32300
O  13.82700 3.19100 29.70800
C  15.65400 1.69900 30.38700
C  16.38200 2.72400 31.10900
O  17.43900 3.21900 30.81600
O  15.67200 3.03100 32.16800
C  16.07800 4.26800 32.92000
H  20.06600 -3.54400 29.72600
H  18.71300 -3.59400 23.33300
H  15.64500 1.82600 24.05900
H  18.28500 0.48800 31.59500
H  18.84200 -2.34900 31.58700
H  20.56300 0.06300 31.50300
H  20.98100 -0.88000 30.21700
H  21.15300 -1.61600 31.77700
H  16.47000 -1.99100 31.88700
H  15.79400 -0.44300 31.95100
H  16.65200 -1.63000 34.16300
H  16.07600 0.06200 33.94400
H  21.98000 -5.69500 27.54100
H  20.70000 -6.82700 27.86800
H  20.83900 -5.50200 28.90800
H  20.35100 -7.48500 25.97800
H  21.90700 -6.67500 25.49300
H  21.16000 -7.80600 24.40500
H  17.42700 -2.07100 21.88200
H  17.42400 0.85600 22.37400
H  19.20000 0.17000 21.54100
H  19.23300 -1.34100 20.80600
H  20.08200 -1.12600 22.34600
H  15.90400 -0.32000 20.80000
H  15.19200 1.03900 21.80300
H  13.75700 -0.33100 22.78000
H  14.95700 -1.61700 22.99600
H  14.18900 -1.35100 21.33000
H  14.04800 3.19500 25.04000
H  13.94900 4.14500 26.46900
H  12.78400 2.78000 26.18600
H  14.98200 1.14400 31.04300
H  16.57500 4.98900 32.27100
H  16.63000 3.88700 33.77900
H  15.20400 4.83400 33.24100
Mg 1.30700 42.65000 26.80800
C  2.63600 42.44400 30.07800
C  -1.73100 41.88300 28.14700
C  0.26300 42.36600 23.78200
C  4.64000 43.24800 25.66100
N  0.50200 42.42400 28.86300
C  1.22500 42.45300 30.00900
C  0.25000 42.26400 31.21200
C  -0.96700 41.66600 30.57100
C  -0.75100 42.06900 29.13200
C  -1.21900 40.16900 30.79600
C  0.06000 43.59300 31.92500
C  0.36200 43.72100 33.47200
H  0.14500 42.60000 34.44100
N  -0.52000 42.37000 26.02400
C  -1.68300 42.04300 26.73700
C  -2.77600 41.82100 25.80700
C  -2.20200 41.95300 24.51100
C  -0.77900 42.21400 24.74300
C  -4.19700 41.63900 26.20900
C  -2.78300 41.63600 23.12800
O  -2.11100 41.63200 22.09800
C  -4.20700 41.07800 23.02700
N  2.37000 42.65300 25.03800
C  1.66100 42.57300 23.85800
C  2.58300 42.53600 22.63700
C  3.88900 43.07000 23.22900
C  3.62600 43.05900 24.76700
C  2.60600 41.13200 22.00100
C  4.55800 44.44600 22.71100
C  3.65900 45.72200 22.54600
N  3.25700 42.91100 27.65900
C  4.55800 43.13400 27.04100
C  5.55900 43.17300 28.04800
C  4.87500 42.82100 29.28200
C  3.49900 42.66000 28.94900
C  6.98800 43.60500 27.97500
C  5.03300 42.62200 30.73300
O  6.07400 42.57000 31.41000
C  3.50400 42.50700 31.31300
C  3.53600 41.25000 32.20000
O  3.45100 40.08400 31.83500
O  3.62600 41.66000 33.48700
C  3.89000 40.63400 34.52100
H  -2.64300 41.49700 28.60600
H  -0.02000 42.33200 22.72800
H  5.58800 43.50700 25.18500
H  0.69200 41.57400 31.93000
H  -1.92600 42.12600 30.81100
H  -0.45500 39.69500 31.41300
H  -1.33000 39.62900 29.85600
H  -2.10500 40.12900 31.43000
H  -0.99100 43.88100 31.89600
H  0.45400 44.40100 31.30900
H  -0.24100 44.51500 33.91200
H  1.41800 43.98600 33.42200
H  -4.44400 40.57900 26.16200
H  -4.96500 42.18300 25.65800
H  -4.18400 41.95600 27.25200
H  -4.45700 40.67900 22.04400
H  -4.85400 41.92500 23.25700
H  -4.28000 40.38800 23.86700
H  2.15000 43.25800 21.94400
H  4.52900 42.18900 23.18000
H  1.84400 40.51800 22.48100
H  3.56700 40.61900 22.04200
H  2.39100 41.32200 20.95000
H  5.27700 44.28000 21.90800
H  5.19700 44.68500 23.56100
H  3.93600 46.36300 23.38400
H  2.60000 45.50300 22.68700
H  3.84000 46.22800 21.59800
H  7.16800 44.01300 26.98100
H  7.69800 42.84400 28.29800
H  7.05600 44.55400 28.50700
H  3.35000 43.47900 31.78100
H  4.67000 39.94600 34.19600
H  2.94600 40.09200 34.57200
H  4.09000 41.06200 35.50300

