158

Mg -1.55200 17.33200 25.56100
C  -2.14800 14.82900 28.10500
C  -1.94900 19.67000 27.90500
C  -1.01500 19.50000 23.10800
C  -1.19400 14.56300 23.18000
N  -2.19500 17.18200 27.74500
C  -2.39100 16.10700 28.58300
C  -2.66500 16.58500 30.03900
C  -2.69000 18.17400 29.88500
C  -2.26200 18.38300 28.42400
C  -4.02100 18.73900 30.44700
C  -1.75300 15.97200 31.05900
C  -1.33900 16.79900 32.30900
H  -0.86500 16.00500 33.50900
N  -1.35700 19.31200 25.54300
C  -1.61200 20.13500 26.60100
C  -1.60800 21.54900 26.11700
C  -1.33700 21.49000 24.70500
C  -1.19400 20.06100 24.38400
C  -1.96100 22.75900 26.99600
C  -1.23700 22.60300 23.67800
O  -0.73800 22.47700 22.55200
C  -1.59700 24.04500 24.21400
N  -1.39900 17.01500 23.38300
C  -1.10300 18.14000 22.64600
C  -0.75100 17.79700 21.24200
C  -0.62800 16.22500 21.23400
C  -1.09800 15.88900 22.65600
C  -1.66400 18.28900 20.11700
C  0.80500 15.79500 20.91300
C  1.92800 16.16900 21.92600
N  -1.78400 15.19800 25.50900
C  -1.57400 14.24500 24.48200
C  -1.85400 12.90200 25.06400
C  -2.06900 13.13600 26.44000
C  -1.94900 14.52900 26.71800
C  -1.83200 11.56900 24.33000
C  -2.25400 12.42000 27.61900
O  -2.35600 11.22900 27.87600
C  -2.38500 13.55200 28.78100
C  -1.28100 13.20400 29.69600
O  -0.11800 13.48800 29.59300
O  -1.87000 12.54200 30.78300
C  -0.96500 11.93900 31.80300
H  -1.95600 20.50000 28.61400
H  -0.71200 20.21100 22.33700
H  -1.14700 13.73500 22.47000
H  -3.59400 16.08300 30.31000
H  -1.90600 18.61700 30.49800
H  -4.05100 18.84600 31.53100
H  -4.90700 18.11900 30.31500
H  -4.30300 19.60100 29.84200
H  -0.81800 15.71200 30.56300
H  -2.13300 15.02700 31.44600
H  -2.14000 17.48800 32.57500
H  -0.49600 17.39700 31.96200
H  -2.91000 23.16400 26.64500
H  -1.23200 23.55700 26.85700
H  -1.96000 22.46600 28.04600
H  -1.22400 24.65800 23.39400
H  -1.09400 24.35500 25.13100
H  -2.67000 24.22900 24.26600
H  0.23900 18.24200 21.13700
H  -1.29100 15.85300 20.45200
H  -1.22100 19.22300 19.77000
H  -2.59400 18.56700 20.61400
H  -1.74300 17.67400 19.22000
H  1.10400 16.39800 20.05600
H  0.96700 14.75300 20.63700
H  2.43400 17.08600 21.62500
H  2.63100 15.37100 22.16300
H  1.37200 16.36200 22.84300
H  -1.04700 11.57800 23.57400
H  -2.74600 11.46000 23.74600
H  -1.65700 10.73700 25.01200
H  -3.30400 13.49600 29.36500
H  -1.24900 10.90300 31.98600
H  -1.00700 12.33500 32.81800
H  0.07300 11.94400 31.47100
Mg 9.23600 2.80500 27.83500
C  10.20900 1.21000 30.76600
C  7.11600 4.74200 29.90300
C  7.91200 4.10400 25.06300
C  10.38100 0.01500 26.06600
N  8.73700 2.91900 30.17900
C  9.40200 2.30600 31.14700
C  8.97200 2.84100 32.51700
C  7.87700 3.85900 32.18400
C  7.90600 3.86600 30.63300
C  6.36700 3.66100 32.74500
C  10.24100 3.44700 33.31600
C  10.03500 4.33100 34.54600
H  10.85900 3.95300 35.76800
N  7.88300 4.34600 27.54300
C  7.09000 5.00400 28.50500
C  6.32200 5.95900 27.86800
C  6.52100 5.76800 26.40900
C  7.48800 4.70900 26.29900
C  5.33700 6.88800 28.56800
C  5.95400 6.54600 25.20700
O  6.12100 6.26000 24.00400
C  5.10200 7.79600 25.52400
N  9.11600 2.12200 25.81100
C  8.60900 2.87400 24.82200
C  8.92800 2.33200 23.41300
C  9.57000 0.92000 23.76300
C  9.72600 0.99300 25.29500
C  7.75800 2.33600 22.41000
C  10.77000 0.38100 22.98000
C  10.60100 -1.00000 22.34900
N  10.30000 1.07000 28.20200
C  10.72000 0.07900 27.42600
C  11.55700 -0.80600 28.14800
C  11.43000 -0.40000 29.48600
C  10.49800 0.67500 29.48300
C  12.35200 -1.98100 27.51500
C  11.85900 -0.68200 30.89300
O  12.68700 -1.50200 31.31700
C  10.99400 0.31300 31.80700
C  10.17000 -0.28500 32.81900
O  9.46000 -1.24600 32.69100
O  10.59700 0.18500 34.02800
C  10.08500 -0.53600 35.26000
H  6.66100 5.39700 30.64900
H  7.66200 4.53000 24.08900
H  10.75400 -0.80200 25.44400
H  8.67600 2.01600 33.16500
H  8.14000 4.87600 32.47600
H  5.65000 3.76400 31.93000
H  6.15800 4.46200 33.45400
H  6.45500 2.69400 33.24000
H  10.86800 4.08200 32.69000
H  10.95900 2.68000 33.60400
H  8.97800 4.47900 34.76800
H  10.33400 5.36200 34.35900
H  4.40000 6.79800 28.01900
H  5.74600 7.89100 28.68200
H  5.04500 6.60000 29.57700
H  4.14900 7.53000 25.98000
H  4.95100 8.29800 24.56900
H  5.78300 8.34100 26.17900
H  9.64700 2.99400 22.93100
H  8.68300 0.28700 23.75700
H  6.85200 2.69200 22.90100
H  7.60600 1.28100 22.18300
H  8.04600 2.85000 21.49300
H  11.61500 0.37400 23.66900
H  10.99400 1.06600 22.16300
H  10.74600 -0.88200 21.27500
H  9.66100 -1.48700 22.60600
H  11.37300 -1.72000 22.62200
H  11.69800 -2.52300 26.83300
H  12.48600 -2.56600 28.42500
H  13.33500 -1.70600 27.13300
H  11.58200 1.00900 32.40700
H  10.74900 -1.35100 35.54800
H  9.12100 -1.03900 35.17800
H  9.95300 0.12900 36.11400

