158

Mg 47.29800 25.02400 29.01000
C  48.23100 27.49600 31.52400
C  46.30800 23.10600 31.59400
C  46.83900 22.65800 26.82400
C  48.61400 27.14400 26.63800
N  47.23400 25.35000 31.37100
C  47.49100 26.45800 32.15200
C  47.19200 26.17300 33.63500
C  46.87800 24.64600 33.58700
C  46.82600 24.30300 32.12200
C  47.76900 23.59400 34.34800
C  46.08600 27.15500 34.13400
C  46.57900 28.09300 35.23600
H  47.07700 27.43100 36.60600
N  46.50400 23.21100 29.18800
C  46.14700 22.53700 30.34400
C  45.69300 21.23500 29.95400
C  45.65000 21.14900 28.53100
C  46.34400 22.41900 28.09000
C  45.25000 20.29800 30.98500
C  45.17500 20.05700 27.64300
O  45.25600 20.14400 26.41300
C  44.64200 18.73300 28.17300
N  47.99500 24.84100 27.14800
C  47.57100 23.77200 26.38500
C  47.93000 23.96500 24.91300
C  48.40100 25.42300 24.81100
C  48.32100 25.85800 26.29900
C  48.94900 22.96700 24.25500
C  47.58400 26.42000 23.88700
C  48.43800 27.33400 23.03200
N  48.31000 26.87400 29.08300
C  48.73400 27.66900 28.02100
C  49.20300 28.87800 28.44400
C  49.04400 28.85000 29.84100
C  48.54500 27.60100 30.17900
C  49.74600 30.04700 27.55600
C  49.14100 29.68800 31.06600
O  49.67800 30.84700 31.10600
C  48.66500 28.74600 32.21800
C  49.80100 28.50600 33.16400
O  50.65600 27.66000 33.06200
O  49.81000 29.47000 34.14000
C  50.80100 29.15500 35.19600
H  45.85600 22.50000 32.38200
H  46.67500 22.01600 25.95700
H  48.83600 27.79000 25.78600
H  48.13400 26.48500 34.08600
H  45.88200 24.47600 33.99500
H  48.19100 22.93800 33.58700
H  47.15500 23.09700 35.09900
H  48.57000 24.15000 34.83500
H  45.24800 26.55000 34.48000
H  45.74400 27.74800 33.28600
H  45.74300 28.76200 35.43900
H  47.50500 28.60400 34.97100
H  44.23300 20.04600 30.68300
H  45.23000 20.67900 32.00600
H  45.76500 19.33800 31.03200
H  45.19200 18.39000 29.04900
H  44.55900 18.02500 27.34900
H  43.66800 19.01300 28.57400
H  46.96300 23.96600 24.41100
H  49.47200 25.36800 24.61600
H  49.95200 23.39500 24.23500
H  48.76600 22.48800 23.29400
H  48.99700 22.16200 24.98800
H  47.05800 27.13100 24.52300
H  46.91900 25.79400 23.29200
H  48.47800 26.98200 22.00100
H  49.42100 27.50200 23.47200
H  48.00300 28.33200 23.09100
H  49.43500 31.05600 27.82800
H  49.53600 29.92800 26.49300
H  50.82800 30.08000 27.68900
H  47.87800 29.28500 32.74600
H  50.50200 28.24900 35.72300
H  50.90500 29.97300 35.90800
H  51.81400 29.03900 34.81200
Mg -11.18500 16.47400 41.52600
C  -8.48200 14.21100 41.55100
C  -9.27300 18.89400 40.20300
C  -13.99800 18.27400 41.20300
C  -13.13800 13.68600 42.66400
N  -9.16200 16.41500 40.75500
C  -8.21100 15.46300 40.97500
C  -6.84600 15.99100 40.49300
C  -7.05600 17.51600 40.36700
C  -8.59100 17.63800 40.44700
C  -6.27600 18.48000 41.33800
C  -6.46500 15.22800 39.19700
C  -5.22200 14.24700 39.12600
H  -4.37400 14.43200 37.83800
N  -11.57400 18.31000 40.64400
C  -10.64100 19.18300 40.24800
C  -11.31600 20.49400 40.04700
C  -12.68500 20.25100 40.13700
C  -12.81400 18.87400 40.69100
C  -10.51800 21.67900 39.65400
C  -13.75700 21.27400 39.78300
O  -13.49100 22.34500 39.26200
C  -15.30700 21.01500 39.99500
N  -13.26500 15.95900 41.82800
C  -14.17500 16.97000 41.77300
C  -15.59400 16.38900 41.88800
C  -15.30000 15.04800 42.67100
C  -13.78600 14.83700 42.39300
C  -16.58600 17.25900 42.73100
C  -16.24900 13.84700 42.42300
C  -16.85400 13.34900 43.74900
N  -10.90500 14.32700 42.01700
C  -11.78200 13.39100 42.49700
C  -11.13100 12.08800 42.70300
C  -9.81700 12.40900 42.41600
C  -9.73700 13.75500 42.03300
C  -11.78500 10.80200 43.21200
C  -8.47500 11.91300 42.40500
O  -8.01500 10.81800 42.74800
C  -7.58600 13.02100 41.76000
C  -6.58000 13.38600 42.70000
O  -6.79500 14.08700 43.67300
O  -5.32000 12.92000 42.35100
C  -4.19600 13.55300 43.07600
H  -8.49500 19.64400 40.04600
H  -14.81800 18.99400 41.17700
H  -13.80800 12.92200 43.06400
H  -6.03800 15.90100 41.22000
H  -6.71300 17.79400 39.37100
H  -5.56400 19.07100 40.76200
H  -5.72300 17.85200 42.03600
H  -6.95300 19.14600 41.87400
H  -6.52200 15.93600 38.37000
H  -7.25600 14.52500 38.93600
H  -5.63400 13.23900 39.17900
H  -4.62100 14.28700 40.03500
H  -9.46700 21.67600 39.94200
H  -11.01200 22.58400 40.00700
H  -10.31700 21.76700 38.58600
H  -15.84500 21.84800 39.54300
H  -15.51200 20.89900 41.05900
H  -15.62900 20.06400 39.57200
H  -15.96200 16.03600 40.92500
H  -15.47500 15.38100 43.69400
H  -17.11100 17.91900 42.04000
H  -16.05100 17.86200 43.46400
H  -17.46100 16.76500 43.15300
H  -15.80000 13.00200 41.90100
H  -17.08600 14.13600 41.78800
H  -17.92600 13.54200 43.70400
H  -16.47200 13.80800 44.66100
H  -16.83900 12.25900 43.78400
H  -12.57200 10.58200 42.49200
H  -12.30600 10.86600 44.16700
H  -11.04000 10.00700 43.21500
H  -7.10800 12.68000 40.84200
H  -3.73000 12.84400 43.76100
H  -4.40100 14.56800 43.41900
H  -3.41200 13.72000 42.33700

