158

Mg 26.24900 -0.64300 29.59700
C  28.00500 -0.85100 32.57000
C  23.38400 -0.53900 31.32100
C  24.54500 -0.60800 26.61700
C  29.11700 -1.40400 27.85200
N  25.72700 -0.74000 31.66900
C  26.64200 -0.64400 32.72100
C  25.86700 -0.36600 34.07400
C  24.40200 -0.47100 33.64800
C  24.48800 -0.62800 32.11900
C  23.45200 -1.57200 34.36500
C  26.29100 1.05500 34.66900
C  27.04200 1.12000 35.97800
H  26.55800 2.01800 37.11300
N  24.18800 -0.62900 29.05000
C  23.17300 -0.55100 29.93600
C  21.93100 -0.54000 29.18000
C  22.28500 -0.45800 27.85000
C  23.71500 -0.64500 27.75900
C  20.59700 -0.66700 29.87800
C  21.35000 -0.36400 26.68200
O  21.83400 -0.32700 25.52800
C  19.86200 -0.12600 26.86500
N  26.69400 -1.26700 27.52100
C  25.89800 -0.89600 26.50700
C  26.65000 -0.71000 25.13700
C  27.99100 -1.31100 25.51500
C  27.94600 -1.26700 27.06300
C  26.00200 -1.50700 23.97600
C  29.22900 -0.67600 24.88000
C  29.61300 0.72400 25.33400
N  28.20000 -1.06300 30.06100
C  29.30600 -1.27100 29.25400
C  30.48400 -1.48200 30.05900
C  30.07800 -1.25700 31.34800
C  28.65700 -1.07000 31.32100
C  31.81100 -1.97800 29.56700
C  30.46700 -1.16900 32.75400
O  31.58600 -1.37000 33.21800
C  29.16400 -0.79700 33.66100
C  29.11800 -1.85100 34.70900
O  28.87500 -3.07700 34.57600
O  29.38400 -1.27100 35.92100
C  29.58400 -2.21800 37.03500
H  22.47200 -0.21800 31.82900
H  24.16500 -0.48000 25.60100
H  30.01500 -1.70300 27.30600
H  26.12600 -1.21300 34.70900
H  23.85600 0.46200 33.78700
H  22.82600 -1.99600 33.58000
H  22.72200 -1.11200 35.03200
H  24.00800 -2.39600 34.81000
H  25.46200 1.76000 34.73700
H  26.97300 1.35300 33.87200
H  28.07700 1.38100 35.76000
H  26.95000 0.08200 36.29600
H  19.97700 -1.37900 29.33300
H  20.16300 0.32900 29.96700
H  20.63200 -1.05100 30.89800
H  19.23700 0.01800 25.98400
H  19.82800 0.68800 27.58800
H  19.43800 -0.91100 27.49100
H  26.76500 0.36400 24.99200
H  27.99700 -2.39100 25.36800
H  25.35200 -0.80800 23.45100
H  25.32700 -2.30100 24.29600
H  26.72600 -1.87000 23.24700
H  29.02600 -0.55500 23.81600
H  30.14800 -1.25800 24.94900
H  30.59500 0.54500 25.77100
H  28.89900 1.02600 26.10000
H  29.62000 1.44300 24.51400
H  31.84000 -2.11700 28.48700
H  31.89500 -2.97800 29.99300
H  32.58100 -1.35400 30.02100
H  29.23400 0.20000 34.09800
H  29.73600 -3.24800 36.71300
H  28.71100 -2.19800 37.68700
H  30.42900 -1.77000 37.55800
Mg 48.03600 14.98000 28.58100
C  45.60500 14.83300 31.03400
C  50.03900 16.97600 30.42600
C  50.18300 15.30800 25.85700
C  45.92100 12.89500 26.57800
N  47.87200 15.86300 30.44300
C  46.79800 15.61900 31.39400
C  47.17100 16.20600 32.78800
C  48.51300 17.01900 32.49200
C  48.83400 16.67600 31.01900
C  48.27900 18.56100 32.56800
C  47.41000 15.13000 33.89400
C  46.73600 15.37100 35.25200
H  47.56000 15.67700 36.52000
N  49.91200 15.91600 28.14300
C  50.58500 16.66300 29.11400
C  51.84900 17.06000 28.55000
C  51.84500 16.70400 27.18000
C  50.60100 15.93900 27.05500
C  52.87500 17.78700 29.36200
C  52.95400 16.81500 26.15000
O  52.94500 16.33600 25.04300
C  54.22500 17.65900 26.43500
N  47.91100 14.36800 26.43700
C  48.99400 14.50600 25.59600
C  48.70500 13.78300 24.23800
C  47.30900 13.15400 24.48600
C  47.03000 13.43300 25.98100
C  48.61100 14.74100 23.00600
C  47.21100 11.64200 24.09600
C  48.05200 10.64800 24.97400
N  46.22400 13.97800 28.71500
C  45.40500 13.28100 27.79000
C  44.12000 13.00000 28.44300
C  44.21100 13.59200 29.69800
C  45.44300 14.22100 29.79000
C  42.99200 12.12300 27.93000
C  43.48400 13.80800 30.92700
O  42.36100 13.46000 31.18800
C  44.38700 14.66900 31.80400
C  43.75500 15.94900 32.08700
O  43.36900 16.76000 31.32300
O  43.87400 16.21700 33.40400
C  43.40300 17.53000 33.91200
H  50.62900 17.68700 31.00800
H  50.92900 15.46800 25.07600
H  45.27500 12.20700 26.02900
H  46.35400 16.87700 33.05400
H  49.34800 16.69400 33.11300
H  47.23500 18.87400 32.56000
H  48.82000 19.14300 31.82200
H  48.69200 18.76400 33.55600
H  48.48800 14.99800 33.98000
H  47.12300 14.13600 33.55100
H  46.14800 14.49300 35.52000
H  45.98300 16.15800 35.20300
H  52.46700 18.22900 30.27100
H  53.24900 18.65900 28.82600
H  53.73100 17.19300 29.68400
H  54.84800 17.29200 27.25100
H  53.92000 18.69100 26.60900
H  54.80400 17.67900 25.51200
H  49.45400 13.08700 23.85800
H  46.49300 13.63900 23.95000
H  49.42500 14.55300 22.30600
H  48.71100 15.81100 23.18800
H  47.68300 14.59500 22.45200
H  47.48600 11.61900 23.04200
H  46.15800 11.36400 24.08700
H  48.48100 11.16800 25.83100
H  48.81200 10.23700 24.31000
H  47.45100 9.86500 25.43800
H  43.36900 11.47300 27.14000
H  42.18100 12.71700 27.50800
H  42.73200 11.43900 28.73800
H  44.63300 14.05500 32.67000
H  43.15000 17.25000 34.93500
H  42.52400 17.86600 33.36200
H  44.19300 18.27700 33.99500

