158

Mg 7.77700 2.93200 26.89700
C  9.21700 1.68800 29.99500
C  5.55800 4.59700 28.86600
C  6.33500 3.91100 24.06300
C  9.60700 0.48900 25.22800
N  7.54600 3.21500 29.16300
C  8.20300 2.62200 30.23100
C  7.63300 3.04700 31.57100
C  6.29900 3.84400 31.18400
C  6.42900 3.83500 29.61300
C  4.96300 3.08700 31.64600
C  8.62400 3.80700 32.38700
C  8.54200 3.51500 33.92100
H  9.37800 4.45000 34.85400
N  6.36500 4.32500 26.51900
C  5.55300 4.86400 27.45200
C  4.68700 5.85100 26.81500
C  4.94100 5.72800 25.39100
C  5.92100 4.62400 25.21400
C  3.65700 6.72700 27.50300
C  4.49700 6.64700 24.17600
O  4.75300 6.35200 23.02000
C  3.66400 7.91600 24.54400
N  8.00300 2.30400 24.94000
C  7.20000 2.80600 23.91100
C  7.49100 2.09600 22.57600
C  8.68600 1.13100 22.95700
C  8.82200 1.32900 24.45200
C  6.26100 1.32300 22.14300
C  10.06100 1.51700 22.21200
C  10.71100 0.23000 21.66300
N  9.18700 1.49600 27.42000
C  9.78700 0.57000 26.61500
C  10.69600 -0.20600 27.39100
C  10.53400 0.21600 28.74100
C  9.58900 1.26200 28.67100
C  11.62300 -1.32000 26.90200
C  11.02200 0.01300 30.07600
O  11.92600 -0.68200 30.60600
C  10.03900 0.93200 30.95200
C  9.32400 0.01200 31.96300
O  8.23800 -0.55700 31.69500
O  9.98800 -0.02500 33.22100
C  9.16300 -0.67400 34.27800
H  4.93700 5.25200 29.48200
H  5.96400 4.32200 23.12100
H  10.19400 -0.28500 24.73000
H  7.43000 2.13900 32.13800
H  6.32100 4.86600 31.56200
H  5.16100 2.21000 32.26200
H  4.32200 2.85700 30.79500
H  4.37900 3.71200 32.32200
H  8.59100 4.89000 32.26500
H  9.64200 3.54700 32.09600
H  9.01200 2.54000 34.04800
H  7.51800 3.46800 34.29200
H  2.70300 6.44700 27.05600
H  3.68600 7.81500 27.44900
H  3.48100 6.43400 28.53800
H  4.32500 8.65300 24.99800
H  2.80800 7.73400 25.19400
H  3.16500 8.21200 23.62100
H  7.64900 2.89600 21.85200
H  8.43800 0.08700 22.76900
H  5.38800 1.50900 22.77000
H  6.34200 0.25600 21.93500
H  5.90800 1.55800 21.13900
H  10.68900 2.08300 22.90000
H  9.80600 2.20700 21.40900
H  11.41100 0.60500 20.91500
H  10.02400 -0.47200 21.19100
H  11.18700 -0.41600 22.40100
H  11.10500 -1.67400 26.01000
H  11.53100 -2.15900 27.59200
H  12.60500 -0.93100 26.63300
H  10.64900 1.56900 31.59300
H  8.51300 0.11900 34.64700
H  9.85000 -0.87400 35.10100
H  8.57600 -1.56600 34.06000
Mg 23.95700 -4.27700 45.15300
C  26.22300 -1.87500 44.03600
C  21.52900 -2.97800 43.18200
C  22.12600 -7.17100 45.70400
C  26.69000 -5.76200 46.85600
N  24.01600 -2.71400 43.67000
C  24.90900 -1.79200 43.40200
C  24.43000 -0.83200 42.30400
C  22.90000 -1.06700 42.23000
C  22.74700 -2.31800 43.16600
C  21.95200 0.13800 42.60300
C  25.22200 -1.09800 40.95800
C  25.52300 0.16700 40.13200
H  25.08200 0.14500 38.62900
N  22.12200 -4.96400 44.55900
C  21.18100 -4.24800 43.75000
C  19.95200 -4.94000 43.61000
C  20.13700 -6.23000 44.23800
C  21.50600 -6.15600 44.90200
C  18.80700 -4.30300 42.84400
C  19.08200 -7.30400 44.09200
O  18.01600 -7.03700 43.54000
C  19.34100 -8.54400 44.78300
N  24.28400 -6.07500 46.19300
C  23.32600 -7.04500 46.33200
C  23.87600 -8.21800 47.14900
C  25.32900 -7.75600 47.63800
C  25.44100 -6.41800 46.90200
C  22.97400 -8.79400 48.30500
C  26.50700 -8.70200 47.22700
C  27.70500 -8.71100 48.19100
N  25.97900 -3.80500 45.56100
C  26.91500 -4.49400 46.25900
C  28.16000 -3.77500 46.15700
C  27.92100 -2.70800 45.35800
C  26.62000 -2.77500 44.94600
C  29.45500 -4.14500 46.87200
C  28.47300 -1.48400 44.73000
O  29.58500 -1.07200 44.75600
C  27.34200 -0.90600 43.79300
C  27.03100 0.38800 44.27300
O  26.16400 0.75600 45.03400
O  27.92600 1.31800 43.82300
C  27.96700 2.64800 44.35500
H  20.72500 -2.43400 42.68200
H  21.64500 -8.13900 45.85600
H  27.59500 -6.26700 47.19900
H  24.69500 0.20000 42.53100
H  22.67300 -1.40000 41.21800
H  21.68000 0.59000 41.64900
H  22.55500 0.88800 43.11300
H  21.15200 -0.34500 43.16400
H  24.56600 -1.68400 40.31500
H  26.16000 -1.63300 41.10300
H  26.59000 0.32600 40.29100
H  24.82900 0.92000 40.50500
H  19.09400 -3.45100 42.22700
H  18.19200 -4.06500 43.71100
H  18.13800 -4.91100 42.23700
H  18.55500 -9.27100 44.57800
H  19.51600 -8.30700 45.83200
H  20.32400 -8.85900 44.43200
H  23.94800 -9.01700 46.41100
H  25.46400 -7.56700 48.70300
H  23.42300 -8.81500 49.29800
H  22.79100 -9.84500 48.08200
H  21.98600 -8.33400 48.31500
H  26.88100 -8.40200 46.24800
H  26.14700 -9.72900 47.17300
H  27.75200 -7.84600 48.85300
H  28.59700 -8.74200 47.56600
H  27.61700 -9.57300 48.85200
H  30.15700 -4.45300 46.09700
H  29.35300 -4.92000 47.63200
H  29.88000 -3.30700 47.42500
H  27.73200 -0.76500 42.78400
H  28.55500 3.20500 43.62600
H  28.32500 2.61800 45.38500
H  26.99100 3.13000 44.29800

