158

Mg 35.60500 47.75800 25.98400
C  35.63200 45.71000 28.78900
C  34.41000 50.37300 27.88500
C  35.21600 49.57600 23.10800
C  36.22000 44.96800 23.90200
N  35.12300 47.97700 28.11500
C  35.23900 47.00600 29.07700
C  35.16400 47.72500 30.44700
C  34.53300 49.12300 30.10300
C  34.66900 49.13200 28.57900
C  33.02600 49.44000 30.54500
C  36.61300 47.75200 31.03900
C  36.70600 47.75600 32.57000
H  35.49200 47.82900 33.40900
N  35.02900 49.70800 25.54900
C  34.63400 50.61400 26.48500
C  34.43000 51.90500 25.84700
C  34.63800 51.73300 24.43100
C  34.95400 50.25100 24.27400
C  34.05700 53.15400 26.51800
C  34.73100 52.76300 23.31900
O  35.20700 52.53900 22.19200
C  34.19700 54.13500 23.54400
N  35.40600 47.29300 23.76100
C  35.39400 48.23600 22.84400
C  35.77500 47.83400 21.42100
C  36.08500 46.31100 21.67500
C  35.93200 46.17900 23.19900
C  34.75300 48.13700 20.30900
C  37.54900 45.93300 21.12700
C  38.69700 46.34800 22.03000
N  35.97200 45.81900 26.24900
C  36.17000 44.76000 25.32600
C  36.55600 43.57700 26.08000
C  36.40400 43.87800 27.44200
C  35.99100 45.30500 27.48200
C  36.90700 42.26500 25.40500
C  36.41500 43.36300 28.78300
O  36.73300 42.22000 29.22100
C  35.90600 44.54700 29.70400
C  34.69600 44.13700 30.38300
O  33.56900 44.00600 29.93600
O  34.89200 44.11000 31.74000
C  33.68600 43.75000 32.63000
H  34.07500 51.19500 28.52100
H  35.16100 50.09600 22.15000
H  36.46100 44.20900 23.15400
H  34.44900 47.23100 31.10500
H  35.09600 49.96800 30.49900
H  33.09000 50.40700 31.04300
H  32.53300 48.59900 31.03400
H  32.34800 49.61000 29.71000
H  37.23700 48.56100 30.66100
H  37.14500 46.85000 30.73700
H  37.34900 48.59800 32.82600
H  37.21200 46.85100 32.90600
H  33.07900 53.43200 26.12600
H  34.70800 54.01000 26.33900
H  34.08100 53.00300 27.59700
H  33.23700 53.88500 23.99500
H  33.97100 54.65200 22.61200
H  34.89200 54.66900 24.19300
H  36.71200 48.29900 21.11500
H  35.35700 45.66100 21.18900
H  34.25700 47.29000 19.83400
H  35.33100 48.52100 19.46800
H  33.96600 48.78800 20.68900
H  37.64600 46.42900 20.16100
H  37.73100 44.88200 20.90300
H  38.90300 45.50500 22.68900
H  38.48500 47.25600 22.59600
H  39.56300 46.72500 21.48600
H  37.98400 42.26200 25.23800
H  36.52300 42.22400 24.38600
H  36.63300 41.46400 26.09300
H  36.63500 44.72300 30.49400
H  34.04200 43.03100 33.36700
H  32.80200 43.35500 32.12900
H  33.50200 44.66100 33.20000
Mg -11.75200 17.16000 42.03700
C  -8.56100 15.73200 41.65900
C  -10.54500 20.15500 40.78400
C  -14.85300 18.04200 41.49600
C  -12.88300 13.76700 42.44800
N  -9.74900 17.85100 41.32100
C  -8.60100 17.13800 41.29400
C  -7.43200 18.01400 40.77800
C  -8.09400 19.46800 41.05300
C  -9.57100 19.10800 40.97200
C  -7.75000 20.21600 42.31500
C  -7.13100 17.69200 39.32000
C  -5.71300 17.35800 38.99700
H  -5.01200 18.12100 37.89500
N  -12.56500 18.90900 41.36100
C  -11.91500 20.07200 41.01600
C  -12.86700 21.16000 40.85500
C  -14.14400 20.57200 40.97900
C  -13.87000 19.10500 41.27800
C  -12.48400 22.53900 40.39900
C  -15.49900 21.26900 40.90300
O  -15.62000 22.52000 40.78000
C  -16.79400 20.53900 40.92300
N  -13.58000 16.06500 41.99400
C  -14.72000 16.70400 41.80300
C  -15.96800 15.84800 41.98100
C  -15.40200 14.44200 42.28900
C  -13.86600 14.74600 42.33400
C  -16.97000 16.45300 42.98900
C  -15.86300 13.35200 41.26600
C  -16.79300 12.27100 41.78900
N  -10.87500 15.17500 42.22900
C  -11.50600 13.94000 42.49900
C  -10.41000 12.90800 42.67600
C  -9.23200 13.60000 42.37400
C  -9.59500 14.91700 42.10900
C  -10.61400 11.49100 42.96500
C  -7.81500 13.37700 42.27500
O  -7.05800 12.39800 42.42000
C  -7.32400 14.76700 41.73800
C  -6.36800 15.33900 42.65500
O  -6.68300 15.80400 43.72800
O  -5.08400 15.28100 42.20300
C  -4.03000 15.86400 43.16100
H  -10.09500 21.12700 40.57100
H  -15.89700 18.22800 41.23200
H  -13.03100 12.68700 42.38100
H  -6.60400 17.94200 41.48300
H  -7.76900 20.13700 40.25500
H  -6.81000 20.71600 42.08300
H  -7.53900 19.56800 43.16600
H  -8.52200 20.95600 42.52700
H  -7.43700 18.52600 38.68800
H  -7.76400 16.86600 38.99400
H  -5.65500 16.27300 38.91900
H  -5.09900 17.54800 39.87800
H  -12.41700 22.38300 39.32300
H  -11.48400 22.72700 40.79000
H  -13.18200 23.28000 40.78800
H  -17.54900 21.32100 41.01100
H  -16.80300 19.93800 41.83200
H  -16.88400 20.08100 39.93800
H  -16.49500 15.87800 41.02700
H  -15.64900 14.17800 43.31700
H  -17.99200 16.46300 42.61000
H  -16.71600 17.48600 43.22800
H  -16.99000 15.94500 43.95400
H  -14.99900 12.84800 40.83200
H  -16.39000 13.82400 40.43700
H  -17.06800 12.46000 42.82600
H  -16.31200 11.30000 41.90900
H  -17.75300 12.24400 41.27300
H  -9.89700 11.18500 43.72700
H  -10.69500 10.91800 42.04100
H  -11.61000 11.43400 43.40400
H  -6.80700 14.66700 40.78400
H  -4.00600 16.95000 43.25000
H  -3.11300 15.36000 42.85400
H  -4.29000 15.51100 44.15900

