158

Mg 27.22500 49.81300 27.35900
C  25.09900 50.98900 29.97300
C  29.27600 48.73200 29.85700
C  29.27900 49.05400 24.89200
C  24.88100 51.04200 25.06600
N  27.09300 49.94700 29.58400
C  26.15900 50.36100 30.50100
C  26.41300 50.03400 31.99800
C  27.73400 49.21000 31.82600
C  28.09400 49.29100 30.32700
C  29.00700 49.55600 32.74800
C  25.27500 49.35500 32.75500
C  24.88300 50.11400 34.08900
H  24.59700 49.30500 35.30000
N  29.07300 49.06000 27.42500
C  29.77900 48.62900 28.49300
C  31.12600 48.26500 28.02100
C  31.17700 48.39800 26.61800
C  29.80000 48.80100 26.25600
C  32.23700 47.85200 29.03500
C  32.31200 48.12200 25.64100
O  32.22300 48.33100 24.41000
C  33.60400 47.64400 26.13300
N  27.12200 50.11700 25.32600
C  27.99700 49.51200 24.51900
C  27.69900 49.56900 23.01600
C  26.20700 50.07200 23.09000
C  26.05400 50.50300 24.53000
C  28.69300 50.38900 22.11800
C  25.06300 49.08200 22.60400
C  23.80600 49.85200 21.96600
N  25.35600 50.86100 27.42000
C  24.51700 51.28400 26.42600
C  23.31500 51.88000 26.99500
C  23.54900 51.85500 28.38000
C  24.80800 51.19400 28.57300
C  22.16700 52.38500 26.19100
C  22.87500 52.11600 29.61200
O  21.72700 52.45600 29.85600
C  23.92000 51.59600 30.66500
C  24.31400 52.72000 31.63000
O  25.26400 53.51300 31.45700
O  23.44200 52.87600 32.70100
C  23.83900 53.86400 33.68700
H  29.85600 48.33000 30.69000
H  29.86000 48.84300 23.99200
H  24.17800 51.33300 24.28300
H  26.65000 50.99200 32.46100
H  27.35800 48.20200 31.99900
H  28.62000 49.92100 33.69900
H  29.69700 50.30600 32.36000
H  29.59300 48.68300 33.03500
H  25.59600 48.35400 33.04300
H  24.42800 49.22600 32.08100
H  23.95500 50.66700 33.94500
H  25.61300 50.84200 34.44200
H  33.20000 48.36200 29.00700
H  32.46300 46.79400 28.90200
H  31.90700 47.98500 30.06600
H  33.20400 46.82300 26.72800
H  34.15800 48.36300 26.73600
H  34.22800 47.33900 25.29200
H  27.70000 48.54300 22.64700
H  26.19500 51.01900 22.55000
H  29.42200 50.84300 22.78900
H  28.19100 51.25000 21.67700
H  29.07000 49.87500 21.23400
H  24.69300 48.51700 23.45900
H  25.38400 48.43600 21.78700
H  23.85400 49.56000 20.91700
H  23.72600 50.93900 21.98100
H  22.82900 49.60300 22.38100
H  21.23900 51.87300 26.44400
H  22.35700 52.53800 25.12900
H  22.00900 53.39200 26.57800
H  23.29600 50.91500 31.24400
H  24.85700 53.59000 33.96300
H  23.09500 53.96000 34.47800
H  23.81800 54.80800 33.14200
Mg -11.52100 16.66500 41.50900
C  -8.41200 15.01400 41.12100
C  -10.25700 19.35200 39.62700
C  -14.57200 17.79700 41.42300
C  -12.73300 13.45300 42.58100
N  -9.56300 17.10100 40.47000
C  -8.43300 16.31000 40.52300
C  -7.22500 16.94800 39.83600
C  -7.73100 18.42600 39.42300
C  -9.26700 18.33700 39.86700
C  -6.98000 19.60700 39.91000
C  -6.76200 16.15800 38.62500
C  -5.27900 16.22700 38.32500
H  -4.88000 16.90800 37.03200
N  -12.32500 18.37300 40.69900
C  -11.67600 19.36400 39.95300
C  -12.67800 20.44200 39.68400
C  -13.85200 20.03600 40.22100
C  -13.61900 18.65400 40.83500
C  -12.47600 21.64800 38.76300
C  -15.15300 20.75300 40.08000
O  -15.21300 21.94100 39.73300
C  -16.52800 20.11700 40.37200
N  -13.34600 15.69500 41.67800
C  -14.46700 16.48400 41.81100
C  -15.66600 15.80100 42.41600
C  -15.03000 14.42600 42.78300
C  -13.63800 14.46400 42.24200
C  -16.34700 16.46500 43.67300
C  -15.85500 13.16700 42.37300
C  -16.53300 12.32500 43.52600
N  -10.76200 14.70700 42.04300
C  -11.33400 13.52100 42.43100
C  -10.39800 12.44000 42.55800
C  -9.20900 12.99500 42.10000
C  -9.49000 14.32000 41.69900
C  -10.69200 11.06000 43.12100
C  -7.80400 12.71800 41.93300
O  -7.25600 11.70600 42.15900
C  -7.19100 14.03100 41.24800
C  -6.10700 14.53000 42.16500
O  -6.09400 14.41800 43.37800
O  -5.03400 15.02900 41.47400
C  -3.94000 15.52800 42.26400
H  -9.88900 20.21100 39.06100
H  -15.58900 18.12600 41.64500
H  -13.11100 12.53600 43.03700
H  -6.41500 17.04300 40.55800
H  -7.81000 18.46800 38.33700
H  -6.63800 20.11600 39.00800
H  -6.08200 19.24100 40.40600
H  -7.58500 20.25800 40.54100
H  -7.24700 16.57600 37.74200
H  -7.04600 15.10900 38.54500
H  -5.04800 15.16200 38.30000
H  -4.84500 16.81700 39.13200
H  -11.40200 21.77500 38.89200
H  -12.89300 22.55000 39.21100
H  -12.73500 21.68600 37.70400
H  -17.30000 20.84000 40.10800
H  -16.62000 19.96700 41.44800
H  -16.62900 19.17000 39.84200
H  -16.40100 15.63300 41.62900
H  -14.99300 14.42900 43.87200
H  -16.38900 17.54800 43.55700
H  -15.76900 16.18200 44.55300
H  -17.32700 16.01700 43.84100
H  -15.24000 12.50200 41.76600
H  -16.68800 13.47900 41.74300
H  -17.60700 12.50300 43.47100
H  -16.18800 12.42600 44.55500
H  -16.45100 11.25100 43.36300
H  -9.82600 10.40400 43.03900
H  -11.49600 10.63800 42.51900
H  -11.03500 11.31400 44.12400
H  -6.65300 13.74400 40.34500
H  -3.04300 15.71400 41.67200
H  -3.66700 14.72100 42.94400
H  -4.40800 16.33500 42.82800

