158

Mg 36.27900 49.45300 26.84300
C  36.63000 47.42000 29.52600
C  35.46600 52.03900 28.96700
C  36.01100 51.42600 24.15300
C  36.97100 46.69600 24.73600
N  36.19500 49.71300 29.01900
C  36.45700 48.74900 29.93700
C  36.29200 49.25500 31.39200
C  35.49300 50.61200 31.08500
C  35.73800 50.88000 29.61300
C  34.03800 50.59200 31.56700
C  37.65700 49.41200 32.23200
C  37.55900 49.35400 33.74300
H  36.23700 49.66900 34.40900
N  35.84200 51.48900 26.63200
C  35.51500 52.39400 27.58800
C  35.06200 53.62700 26.96200
C  35.38000 53.48500 25.58400
C  35.70800 52.08800 25.39900
C  34.60600 54.86400 27.78100
C  35.39600 54.60000 24.50400
O  35.77200 54.45700 23.37500
C  34.89500 56.01800 24.92900
N  36.35200 49.02800 24.69900
C  36.27000 50.06900 23.82300
C  36.59800 49.57000 22.43000
C  36.96100 48.09000 22.64000
C  36.80600 47.93300 24.13800
C  35.46500 49.71500 21.39000
C  38.41600 47.76500 22.18400
C  38.63500 46.93200 20.89900
N  36.64700 47.43400 27.01200
C  36.95600 46.40400 26.09700
C  37.26200 45.17300 26.80100
C  37.04800 45.54500 28.09100
C  36.69800 46.88900 28.18500
C  37.65400 43.90000 26.18600
C  37.11900 45.02900 29.47500
O  37.46200 43.89100 29.82200
C  36.79600 46.19200 30.43100
C  35.63200 45.92400 31.26000
O  34.47100 45.83600 30.87100
O  36.07500 45.76700 32.58100
C  35.03500 45.59400 33.55500
H  35.13600 52.85100 29.61700
H  35.93100 52.12200 23.31500
H  37.26200 45.94400 23.99900
H  35.55800 48.71000 31.98600
H  35.95500 51.44900 31.60800
H  33.61400 49.62400 31.83100
H  33.38000 50.97700 30.78800
H  33.90000 51.29800 32.38600
H  38.16700 50.34800 32.00600
H  38.31500 48.61400 31.88600
H  38.31000 50.03800 34.13800
H  37.84400 48.36600 34.10600
H  35.42900 55.54900 27.98600
H  34.44500 54.61700 28.83100
H  33.69200 55.38500 27.49700
H  35.51400 56.44400 25.71900
H  33.86100 55.87200 25.24200
H  34.98000 56.58100 24.00000
H  37.46100 50.17100 22.14300
H  36.26800 47.35900 22.22300
H  35.45300 50.74900 21.04300
H  34.47400 49.50400 21.79100
H  35.71900 49.03900 20.57400
H  39.00400 47.29500 22.97300
H  38.91000 48.72600 22.03900
H  38.63700 45.87800 21.17700
H  39.58800 47.17400 20.43000
H  37.84200 47.17100 20.19100
H  38.66500 43.87200 25.77900
H  37.16400 43.71300 25.23100
H  37.44600 43.02800 26.80500
H  37.65200 46.29900 31.09800
H  34.34200 44.87300 33.12100
H  34.58500 46.55000 33.82300
H  35.44000 45.18700 34.48100
Mg -4.58400 25.30900 26.06900
C  -3.49400 26.54200 29.12100
C  -6.78300 23.25200 27.71600
C  -5.54800 24.23600 23.01100
C  -2.23600 27.34200 24.46900
N  -5.02300 24.85400 28.27100
C  -4.46900 25.53800 29.30900
C  -5.14700 25.08800 30.67100
C  -6.13300 23.95900 30.14900
C  -5.90800 23.90600 28.65100
C  -6.14600 22.63400 30.95800
C  -5.88600 26.23600 31.38900
C  -5.50100 26.35500 32.86000
H  -4.97700 25.18900 33.69900
N  -5.94400 23.91200 25.50800
C  -6.78800 23.26800 26.29800
C  -7.80600 22.62800 25.48700
C  -7.42500 22.82600 24.09600
C  -6.25400 23.68500 24.18200
C  -9.12200 21.96500 26.06700
C  -8.13700 22.30300 22.85900
O  -7.71800 22.55600 21.73100
C  -9.45100 21.65300 23.01900
N  -3.90400 25.68600 24.06100
C  -4.52500 25.14700 22.91900
C  -3.85800 25.44700 21.56100
C  -2.76600 26.51000 22.09400
C  -2.98800 26.57100 23.66800
C  -3.31300 24.16500 20.72000
C  -2.78000 27.86300 21.27100
C  -1.46000 28.43500 20.63700
N  -3.12800 26.68500 26.65900
C  -2.27000 27.37400 25.88600
C  -1.48700 28.21100 26.72200
C  -1.87000 27.92400 28.03600
C  -2.87000 26.95100 27.96300
C  -0.54200 29.29300 26.24600
C  -1.73500 28.29500 29.40200
O  -1.09500 29.18500 29.93500
C  -2.71500 27.31600 30.17700
C  -1.68800 26.58400 31.03200
O  -1.07500 25.67200 30.54900
O  -1.61200 27.10300 32.29800
C  -0.67400 26.33800 33.19700
H  -7.49400 22.58800 28.21100
H  -5.74400 23.79600 22.03100
H  -1.41200 27.86900 23.98200
H  -4.29000 24.72000 31.23500
H  -7.11800 24.33100 30.43100
H  -5.28400 22.52500 31.61600
H  -6.16000 21.76100 30.30500
H  -7.00800 22.39700 31.58000
H  -6.97600 26.21600 31.37000
H  -5.64300 27.17100 30.88600
H  -6.33300 26.75100 33.44100
H  -4.71400 27.10500 32.77700
H  -9.02200 20.88000 26.05000
H  -10.05600 22.28800 25.60600
H  -9.21800 22.25700 27.11300
H  -9.65100 21.29300 22.01000
H  -10.29000 22.28100 23.31800
H  -9.28600 20.78000 23.65100
H  -4.58800 26.03600 21.00700
H  -1.79200 26.04100 21.95500
H  -4.05200 23.65800 20.09800
H  -2.92700 23.35900 21.34400
H  -2.43100 24.50800 20.18000
H  -3.18100 28.58800 21.97900
H  -3.53400 27.91700 20.48500
H  -1.14700 29.34500 21.14900
H  -1.75000 28.67900 19.61500
H  -0.68900 27.66400 20.62500
H  -1.16400 30.18800 26.28100
H  -0.15900 29.14000 25.23700
H  0.27400 29.31300 26.96900
H  -3.26800 27.99600 30.82600
H  -0.58900 25.29000 32.90800
H  -1.07800 26.41200 34.20700
H  0.29700 26.81900 33.08000

