158

Mg 35.49100 3.44500 29.50600
C  33.74400 4.18600 32.38500
C  38.37600 3.11500 31.30500
C  37.13200 2.78500 26.63100
C  32.62400 4.22000 27.67200
N  35.97400 3.77800 31.56200
C  35.10700 3.92200 32.61000
C  35.91100 3.75800 33.97700
C  37.44100 3.79700 33.56900
C  37.27900 3.55800 32.04400
C  38.16800 5.19500 33.84100
C  35.46100 2.42800 34.66000
C  35.20100 2.56900 36.20700
H  36.05800 3.47500 37.06500
N  37.45800 2.98300 29.09600
C  38.49000 2.81200 29.93100
C  39.60500 2.19500 29.25000
C  39.30300 2.25900 27.87300
C  37.91900 2.65900 27.78000
C  40.74600 1.53300 29.94300
C  40.23600 1.93000 26.69600
O  39.81600 2.13000 25.56700
C  41.66000 1.49400 26.93100
N  35.05200 3.59900 27.44100
C  35.81900 3.21300 26.42900
C  35.23700 3.55700 25.13200
C  33.69400 3.76000 25.48000
C  33.77700 3.88700 26.91900
C  35.85700 4.71600 24.35200
C  32.76200 2.67000 24.90400
C  32.38600 1.45900 25.84400
N  33.50700 4.06700 29.86600
C  32.46700 4.35800 29.08300
C  31.32100 4.62000 29.93000
C  31.71500 4.58500 31.24100
C  33.08500 4.34200 31.08900
C  29.87800 4.83000 29.46700
C  31.32900 4.62000 32.64100
O  30.19400 4.75400 33.10200
C  32.66400 4.39500 33.41400
C  32.88600 5.63700 34.12000
O  33.53800 6.60500 33.82400
O  32.09600 5.49200 35.20700
C  32.28400 6.46900 36.31900
H  39.29000 2.87200 31.85100
H  37.64800 2.37300 25.76100
H  31.83300 4.54300 26.99200
H  35.77900 4.57200 34.68900
H  38.03100 2.97100 33.96800
H  37.60500 5.76800 34.57800
H  38.25200 5.80300 32.94000
H  39.08400 5.06600 34.41800
H  36.25300 1.68700 34.55300
H  34.48100 2.09300 34.32100
H  35.25300 1.55600 36.60700
H  34.14700 2.83500 36.28700
H  40.79100 0.46700 29.72300
H  40.70400 1.66800 31.02400
H  41.66400 2.01400 29.60600
H  41.54800 0.66100 27.62600
H  42.41000 2.23300 27.21200
H  41.96700 1.00300 26.00700
H  35.48200 2.69900 24.50600
H  33.35300 4.74700 25.16800
H  36.25400 4.19200 23.48300
H  36.58500 5.32300 24.89000
H  35.01200 5.34300 24.07100
H  33.13800 2.37000 23.92600
H  31.78400 3.09000 24.66800
H  32.39600 0.51300 25.30300
H  31.34100 1.57400 26.13200
H  32.99300 1.45000 26.74900
H  29.40600 3.86600 29.65200
H  29.83500 5.17100 28.43200
H  29.35900 5.64900 29.96400
H  32.64500 3.50100 34.03900
H  32.84100 5.90400 37.06600
H  31.29500 6.66700 36.73200
H  32.66500 7.44800 36.02800
Mg 0.39700 42.51800 24.96700
C  1.31500 42.61200 28.37700
C  -2.68000 41.22300 26.02800
C  -0.26100 42.07200 21.81600
C  3.76200 43.21300 24.15700
N  -0.49200 41.87400 27.02100
C  -0.00100 42.27400 28.20800
C  -0.98600 41.99900 29.36100
C  -2.19900 41.17500 28.68300
C  -1.79500 41.44500 27.14700
C  -2.45000 39.65600 28.87700
C  -1.41300 43.47900 29.83100
C  -1.56600 43.55400 31.34700
H  -2.04400 42.39600 32.16800
N  -1.21100 41.85700 24.06700
C  -2.41100 41.40100 24.60100
C  -3.36500 41.19000 23.55800
C  -2.70000 41.42300 22.36100
C  -1.37100 41.86200 22.71100
C  -4.77500 40.51300 23.84600
C  -3.32900 41.31900 20.99500
O  -2.63800 41.53300 19.96800
C  -4.76200 40.83900 20.75700
N  1.58800 42.60200 23.19000
C  1.10900 42.33100 21.99400
C  2.14600 42.48900 20.86600
C  3.31100 43.28400 21.61600
C  2.87400 43.10100 23.12200
C  2.52600 41.13000 20.20800
C  3.46300 44.77600 21.17000
C  4.07300 45.17900 19.87700
N  2.18300 42.88200 25.99400
C  3.48000 43.09700 25.54000
C  4.38500 43.22600 26.66800
C  3.56500 43.12600 27.83300
C  2.23400 42.88900 27.33500
C  5.90600 43.50600 26.63500
C  3.55600 43.12000 29.26400
O  4.46800 43.14200 30.04400
C  2.09500 42.90500 29.67900
C  1.93600 41.73800 30.66000
O  2.49100 40.67300 30.49500
O  1.23400 42.05000 31.83900
C  1.18600 40.90300 32.77700
H  -3.72100 41.00300 26.27700
H  -0.41800 41.87200 20.75400
H  4.78400 43.42400 23.83800
H  -0.60600 41.42400 30.20600
H  -3.19700 41.60200 28.78000
H  -1.73600 39.35400 29.64400
H  -2.28000 39.14900 27.92800
H  -3.45000 39.45100 29.25800
H  -2.34100 43.81800 29.37100
H  -0.68300 44.21400 29.49300
H  -2.25300 44.39600 31.42500
H  -0.66300 44.00700 31.75600
H  -4.95800 39.99600 24.78700
H  -4.77700 39.69400 23.12700
H  -5.56300 41.23900 23.64400
H  -4.87400 39.78400 21.00700
H  -5.00000 40.90600 19.69500
H  -5.49100 41.42700 21.31400
H  1.59600 43.10100 20.15100
H  4.17800 42.73400 21.25100
H  2.03400 41.04300 19.23900
H  2.10300 40.31900 20.80100
H  3.59800 40.94600 20.14600
H  3.96400 45.22700 22.02600
H  2.49300 45.25700 21.29700
H  4.80900 45.97200 20.01000
H  3.23300 45.51100 19.26700
H  4.52800 44.35700 19.32600
H  6.27600 42.87700 27.44500
H  6.13800 44.52900 26.93300
H  6.39800 43.19400 25.71400
H  1.79200 43.78000 30.25500
H  0.48800 40.14600 32.42000
H  0.97500 41.26300 33.78400
H  2.12700 40.42600 33.05000

