158

Mg 35.65300 49.02100 24.84300
C  35.90100 47.15400 27.72600
C  34.24300 51.63700 26.58400
C  34.83000 50.60600 21.90800
C  36.96900 46.26600 22.97300
N  34.99100 49.28300 26.92200
C  35.25200 48.36400 27.96300
C  34.94100 48.99000 29.38700
C  34.41000 50.43100 28.97700
C  34.60400 50.50900 27.44600
C  32.94000 50.58400 29.45000
C  36.12700 49.21200 30.31300
C  35.96300 49.14100 31.91500
H  34.66700 48.92800 32.62900
N  34.52000 50.85100 24.33500
C  34.16600 51.78100 25.20000
C  33.68900 52.92200 24.43500
C  33.84300 52.64200 23.06500
C  34.48300 51.32100 23.02800
C  33.18300 54.19200 25.09500
C  33.49600 53.49000 21.94700
O  33.97000 53.24600 20.85800
C  32.72300 54.82300 22.14400
N  35.89100 48.52400 22.76600
C  35.48800 49.37100 21.76300
C  35.76500 48.69600 20.33800
C  36.61400 47.41700 20.82400
C  36.46500 47.42500 22.27100
C  34.42000 48.42600 19.60500
C  38.14200 47.38300 20.31400
C  38.92400 48.72300 20.63100
N  36.25900 47.06300 25.20400
C  36.84600 46.08800 24.39400
C  37.16800 44.92900 25.23500
C  36.86100 45.40100 26.56600
C  36.26200 46.60600 26.46700
C  37.82300 43.62200 24.82100
C  36.94200 44.95600 27.95500
O  37.27200 43.89000 28.44300
C  36.28400 46.13300 28.77800
C  35.08300 45.64600 29.45000
O  34.05900 45.33800 28.89000
O  35.27900 45.35900 30.77700
C  34.22000 44.55400 31.44600
H  33.76000 52.50600 27.03500
H  34.79200 51.04300 20.90800
H  37.29600 45.41900 22.36600
H  34.18600 48.44600 29.95400
H  34.89500 51.29000 29.44100
H  32.38000 50.98500 28.60500
H  32.83200 51.44900 30.10400
H  32.42400 49.75900 29.94000
H  36.66700 50.11100 30.01500
H  36.93200 48.55900 29.97700
H  36.34700 50.05100 32.37500
H  36.67300 48.34600 32.14600
H  33.83500 55.00700 24.78300
H  33.13500 54.16400 26.18300
H  32.15700 54.36200 24.76800
H  31.85500 54.60000 22.76400
H  32.38100 55.20300 21.18200
H  33.37700 55.55300 22.62000
H  36.27700 49.36900 19.65100
H  36.20400 46.44500 20.55100
H  34.42500 48.82900 18.59200
H  33.61400 48.78100 20.24700
H  34.34900 47.34000 19.55000
H  38.01100 47.26700 19.23800
H  38.57000 46.48100 20.75100
H  39.86900 48.63000 21.16600
H  38.40200 49.45600 21.24500
H  39.26100 49.21600 19.71900
H  37.02700 42.88500 24.92200
H  38.63500 43.43100 25.52400
H  38.16900 43.59200 23.78800
H  36.90300 46.50300 29.59600
H  33.50500 45.11800 32.04500
H  34.69200 43.90100 32.17900
H  33.57000 44.02200 30.75000
Mg 9.79900 47.36900 26.29200
C  7.60700 47.71900 28.92100
C  12.33300 48.35300 28.43000
C  11.86400 47.43500 23.68400
C  7.07000 47.27800 24.03900
N  9.85600 48.16500 28.32600
C  8.87200 48.06700 29.24900
C  9.41800 48.23400 30.70300
C  10.81200 48.87400 30.43600
C  11.04700 48.43700 28.97800
C  10.77200 50.42600 30.57400
C  9.47400 46.93400 31.53600
C  10.47800 46.96200 32.75800
H  10.08400 46.08100 34.00800
N  11.89000 47.64500 26.10000
C  12.75600 47.98500 27.10500
C  14.08300 48.11300 26.58200
C  13.95900 47.71200 25.18700
C  12.53400 47.60700 24.94300
C  15.34400 48.56000 27.35800
C  15.06300 47.47500 24.23200
O  14.87500 47.01300 23.13800
C  16.49300 47.50900 24.69100
N  9.47800 47.40000 24.19200
C  10.51600 47.39700 23.31800
C  10.14500 47.38000 21.87000
C  8.60200 47.12600 21.97500
C  8.35200 47.22000 23.46600
C  10.47000 48.61200 21.06100
C  8.13800 45.79200 21.27300
C  7.48500 45.92600 19.86100
N  7.72300 47.49700 26.35100
C  6.66800 47.51000 25.40300
C  5.41500 47.39800 26.09300
C  5.72200 47.34900 27.47900
C  7.16200 47.51500 27.58400
C  4.18200 47.43300 25.35600
C  5.18700 47.27000 28.76600
O  4.03400 47.24300 29.19800
C  6.37700 47.39400 29.78500
C  6.61700 46.04900 30.42200
O  7.11200 45.10000 29.81300
O  6.18300 46.01100 31.80600
C  6.49700 44.71400 32.51300
H  13.17100 48.54100 29.10400
H  12.57700 47.44200 22.85800
H  6.17300 47.07200 23.45100
H  8.85000 48.96800 31.27500
H  11.60000 48.42200 31.03800
H  10.10200 50.72000 31.38200
H  10.46500 51.00100 29.70000
H  11.76600 50.72600 30.90400
H  9.63400 46.05500 30.91200
H  8.49200 46.67200 31.93100
H  10.47400 47.99600 33.10400
H  11.42200 46.65200 32.31000
H  15.13800 48.82600 28.39500
H  15.75900 49.44000 26.86600
H  16.12100 47.80300 27.25300
H  16.65700 48.51000 25.09000
H  17.01200 47.30000 23.75500
H  16.73000 46.67500 25.35100
H  10.57900 46.46400 21.46900
H  7.97500 47.93400 21.59900
H  9.58000 49.22000 20.89900
H  11.04300 48.46000 20.14600
H  11.05800 49.25200 21.71900
H  7.35300 45.42200 21.93300
H  8.94600 45.06400 21.34800
H  7.44800 46.97600 19.57000
H  6.50700 45.45300 19.76900
H  8.13300 45.49400 19.09900
H  3.75100 46.43300 25.31000
H  4.31900 47.66200 24.29900
H  3.46000 48.01800 25.92600
H  6.14000 48.24700 30.42100
H  6.45300 44.75900 33.60100
H  7.50500 44.31800 32.39100
H  5.72900 43.98800 32.24600

