158

Mg 48.19600 33.87400 27.35100
C  46.18000 32.77600 30.00600
C  48.60800 36.89100 29.10800
C  49.28200 35.26500 24.55700
C  46.93500 31.12600 25.48000
N  47.64700 34.65200 29.40300
C  46.84100 33.99800 30.33900
C  46.81900 34.72900 31.60700
C  47.28600 36.19300 31.23300
C  47.90500 35.95700 29.81400
C  46.20700 37.30500 31.24800
C  47.88800 34.06500 32.51500
C  47.56700 34.13800 34.06400
H  48.49800 35.03800 34.97900
N  49.09600 35.78800 26.96000
C  49.20100 36.83600 27.84200
C  50.02900 37.80200 27.22800
C  50.20400 37.39200 25.85300
C  49.54600 36.09600 25.72100
C  50.63900 39.02700 27.84200
C  50.91100 38.07000 24.70000
O  50.93400 37.56000 23.56100
C  51.48300 39.47000 24.81600
N  47.95100 33.45800 25.27300
C  48.61600 34.10800 24.30800
C  48.55800 33.35300 22.99100
C  47.72500 32.09200 23.29200
C  47.57200 32.18300 24.80800
C  47.94100 34.24200 21.82800
C  48.42500 30.72700 22.81700
C  49.60400 30.35600 23.62600
N  47.12700 32.16200 27.73000
C  46.75300 31.07200 26.89800
C  46.00500 30.12300 27.54100
C  45.74900 30.81800 28.77200
C  46.42000 32.02500 28.81800
C  45.44500 28.78000 27.05800
C  44.89900 30.76500 29.92400
O  44.10600 29.88000 30.31200
C  45.15000 32.03700 30.76400
C  45.45200 31.70500 32.17400
O  46.40700 31.10100 32.63500
O  44.43400 32.23200 33.02000
C  44.41100 31.70700 34.44300
H  48.93200 37.77400 29.66300
H  49.85700 35.44500 23.64700
H  46.51500 30.30200 24.90000
H  45.83200 34.77100 32.06800
H  48.10100 36.36800 31.93600
H  45.18200 37.00900 31.47100
H  46.15700 37.71700 30.24000
H  46.46400 38.10200 31.94600
H  48.91300 34.41900 32.40900
H  48.14700 33.04900 32.21800
H  47.56700 33.11400 34.43800
H  46.57600 34.55500 34.23900
H  50.18800 39.96400 27.51500
H  51.70100 39.10600 27.61100
H  50.72000 38.88700 28.92000
H  50.81400 40.18200 25.30000
H  51.68600 39.93100 23.84900
H  52.43200 39.41500 25.35000
H  49.54400 33.07700 22.61600
H  46.74500 32.03600 22.81900
H  47.71100 35.23400 22.21600
H  46.97400 33.82500 21.54800
H  48.60600 34.37500 20.97500
H  48.84400 30.81100 21.81400
H  47.82300 29.82500 22.70800
H  50.39800 30.23200 22.89000
H  49.44600 29.40100 24.12700
H  49.87700 31.07300 24.39900
H  45.41000 28.76800 25.96800
H  44.38200 28.84300 27.29000
H  45.92700 27.92300 27.52800
H  44.15000 32.47100 30.74000
H  44.80700 30.69600 34.54000
H  43.44100 31.70700 34.93900
H  44.99300 32.34300 35.11000
Mg -10.64600 40.00700 42.45900
C  -10.14100 36.65600 41.30700
C  -7.67500 40.90300 41.09900
C  -11.53400 43.24500 42.79600
C  -14.03700 39.16300 42.94700
N  -9.18800 38.92400 41.21300
C  -9.10300 37.55000 41.02600
C  -7.82500 37.18100 40.28300
C  -6.92700 38.51600 40.42000
C  -7.94300 39.53400 40.89500
C  -5.84500 38.36000 41.46500
C  -8.05300 36.74100 38.81900
C  -7.36600 35.50800 38.31700
H  -6.22400 35.61100 37.32100
N  -9.67500 41.87600 42.12500
C  -8.44800 41.97300 41.49900
C  -8.12500 43.36600 41.41000
C  -9.19400 44.09900 42.07100
C  -10.17000 43.09700 42.40100
C  -6.88200 43.85300 40.69100
C  -9.32800 45.54000 42.27100
O  -8.69400 46.34700 41.61500
C  -10.27000 46.16800 43.23600
N  -12.48100 41.12800 42.63000
C  -12.51300 42.34800 43.00600
C  -13.95000 42.85000 43.22800
C  -14.79200 41.54000 43.13100
C  -13.68500 40.54900 42.84100
C  -14.05800 43.59800 44.55800
C  -15.77500 41.37900 41.95000
C  -17.12400 40.72500 42.31500
N  -11.80100 38.21100 42.47900
C  -13.16600 38.02100 42.73000
C  -13.41400 36.59400 42.58100
C  -12.22100 36.02300 42.10800
C  -11.30600 37.09400 41.91600
C  -14.70000 35.92500 42.95700
C  -11.66900 34.76100 41.76200
O  -11.97300 33.65200 41.84200
C  -10.31000 35.20100 41.11100
C  -9.17400 34.32500 41.59500
O  -8.60500 34.41100 42.66900
O  -8.73400 33.43600 40.65800
C  -7.50600 32.55700 40.94800
H  -6.64300 41.19800 40.89800
H  -11.86100 44.26900 42.98800
H  -15.07200 38.89900 43.17300
H  -7.28500 36.40600 40.82600
H  -6.35400 38.80000 39.53700
H  -4.97000 39.00500 41.38700
H  -5.49200 37.32900 41.48200
H  -6.22600 38.69100 42.43100
H  -7.59200 37.57800 38.29500
H  -9.07500 36.80500 38.44600
H  -8.11200 34.85400 37.86600
H  -6.89400 34.97700 39.14400
H  -7.21100 44.79200 40.24400
H  -6.47200 43.13900 39.97700
H  -6.04700 44.17100 41.31500
H  -11.19300 46.38500 42.69800
H  -9.86400 46.89200 43.94200
H  -10.55300 45.42800 43.98400
H  -14.18300 43.53700 42.41500
H  -15.18900 41.24900 44.10400
H  -13.12100 44.08000 44.83600
H  -14.40100 42.88200 45.30600
H  -14.84800 44.33100 44.39500
H  -15.36700 40.89700 41.06100
H  -16.06400 42.36100 41.57700
H  -17.08000 40.28200 43.31000
H  -17.49600 40.01600 41.57500
H  -17.90700 41.48400 42.31400
H  -14.75800 34.86800 42.70000
H  -15.43200 36.33900 42.26400
H  -14.92500 36.09200 44.01000
H  -10.42700 34.96100 40.05500
H  -7.17000 32.46000 41.98000
H  -6.57700 32.94000 40.52500
H  -7.68500 31.67200 40.33700

