158

Mg 24.99500 1.36100 29.38200
C  27.00400 1.51000 32.12200
C  22.17100 1.26700 31.29500
C  23.12300 1.17500 26.52500
C  27.90600 1.29900 27.33000
N  24.64300 1.05900 31.53300
C  25.61600 1.48900 32.43100
C  25.02200 1.78000 33.80900
C  23.48000 1.61900 33.56200
C  23.37700 1.31000 32.06000
C  22.75500 0.51400 34.39500
C  25.44300 3.10000 34.32100
C  24.76300 3.49600 35.67400
H  25.16400 2.83600 37.06700
N  23.00700 1.26300 28.96000
C  21.93900 1.14900 29.91300
C  20.71100 1.09900 29.22500
C  20.93200 1.07000 27.79000
C  22.39000 1.18200 27.73300
C  19.41200 1.02200 30.02800
C  19.84200 0.83800 26.70700
O  20.10000 1.09600 25.56900
C  18.37000 0.50400 27.01700
N  25.47600 1.30700 27.20500
C  24.47600 1.29800 26.29900
C  25.04500 1.37000 24.80200
C  26.59300 1.48000 25.08200
C  26.70200 1.37900 26.63200
C  24.65200 0.04100 24.01500
C  27.22800 2.74200 24.46900
C  26.46200 4.11400 24.64800
N  27.10500 1.10200 29.58800
C  28.11000 1.22700 28.74800
C  29.30200 0.94600 29.45400
C  28.98900 1.21300 30.79000
C  27.59900 1.22600 30.80600
C  30.64600 0.62600 28.83600
C  29.46100 1.38100 32.09100
O  30.59000 1.30400 32.52000
C  28.22200 1.80400 32.99400
C  28.40800 0.89100 34.21600
O  28.12600 -0.30200 34.30300
O  29.00800 1.63500 35.30200
C  28.89800 1.01100 36.62500
H  21.28600 1.30400 31.93300
H  22.34000 1.13200 25.76500
H  28.83700 1.12600 26.78700
H  25.48200 0.95300 34.35200
H  22.95200 2.55500 33.74100
H  21.70300 0.67500 34.63000
H  23.19600 0.38300 35.38400
H  22.87500 -0.42100 33.84800
H  25.33200 3.90600 33.59500
H  26.51700 3.00900 34.48100
H  23.68500 3.34700 35.74600
H  24.99400 4.55500 35.78100
H  18.70700 0.24400 29.73600
H  18.91000 1.98400 30.13200
H  19.68100 0.66600 31.02200
H  18.51700 -0.41300 27.58700
H  17.94400 0.22400 26.05400
H  17.93100 1.26600 27.66200
H  24.64500 2.24500 24.28800
H  27.16900 0.60900 24.77000
H  25.42100 -0.22000 23.28900
H  23.74500 0.14600 23.41900
H  24.25900 -0.75400 24.64900
H  27.33500 2.64700 23.38800
H  28.22300 2.90600 24.88100
H  25.64200 4.11100 25.36600
H  26.07900 4.31400 23.64700
H  27.21600 4.84000 24.95000
H  30.91600 1.37500 28.09100
H  30.62100 -0.38000 28.41800
H  31.32500 0.77900 29.67400
H  28.19100 2.86100 33.25600
H  27.99400 1.33300 37.14200
H  29.75900 1.27600 37.23900
H  28.86800 -0.06000 36.42700
Mg -12.81200 16.68000 41.77100
C  -9.77200 15.03900 41.27300
C  -11.42300 19.60400 40.56900
C  -15.88300 17.94000 41.53700
C  -14.26300 13.50800 42.68500
N  -10.86600 17.16300 40.80700
C  -9.73100 16.36900 40.90200
C  -8.57100 17.22200 40.47100
C  -9.12400 18.62100 40.17600
C  -10.55300 18.51000 40.63400
C  -8.33800 19.79500 40.83200
C  -7.68900 16.55600 39.42300
C  -6.11900 16.48300 39.66400
H  -5.37500 15.34700 39.01900
N  -13.45400 18.53100 41.27000
C  -12.75700 19.59600 40.77700
C  -13.65500 20.70200 40.50900
C  -15.00000 20.31200 40.84500
C  -14.78900 18.83900 41.26100
C  -13.12600 22.02500 40.00100
C  -16.29300 21.21500 40.81800
O  -16.29800 22.35400 40.35700
C  -17.65300 20.75700 41.51800
N  -14.80200 15.79600 42.28100
C  -15.91300 16.57400 41.97400
C  -17.16500 15.71100 42.06600
C  -16.63300 14.36500 42.48000
C  -15.10500 14.52300 42.41000
C  -18.45900 16.36900 42.78700
C  -17.24900 13.25600 41.64800
C  -17.49600 11.84800 42.32200
N  -12.24500 14.76400 41.96300
C  -12.90100 13.59300 42.40100
C  -11.92200 12.59100 42.65200
C  -10.70300 13.13400 42.18100
C  -10.91500 14.37600 41.72300
C  -12.20100 11.12300 43.16600
C  -9.31300 12.76900 42.04300
O  -8.68400 11.73800 42.15400
C  -8.68000 14.02000 41.42300
C  -7.68900 14.45700 42.46900
O  -7.91600 15.14600 43.46500
O  -6.51500 13.85600 42.15100
C  -5.47500 13.93600 43.23900
H  -10.90700 20.47900 40.16800
H  -16.87600 18.30300 41.26800
H  -14.65000 12.53600 42.99700
H  -7.87600 17.44400 41.28100
H  -9.06300 18.96800 39.14400
H  -7.38200 19.51500 41.27400
H  -8.92700 20.29500 41.60000
H  -8.00300 20.45300 40.03000
H  -7.70300 17.14000 38.50300
H  -8.10800 15.59300 39.13400
H  -6.03400 16.32900 40.73900
H  -5.61900 17.41600 39.40600
H  -13.89000 22.73600 39.68500
H  -12.54900 21.73400 39.12300
H  -12.52900 22.42000 40.82300
H  -18.31600 21.49900 41.96300
H  -17.41000 20.13000 42.37500
H  -18.23500 20.26900 40.73600
H  -17.45300 15.58400 41.02200
H  -16.68100 14.19200 43.55500
H  -18.75500 15.86200 43.70500
H  -19.27600 16.25300 42.07500
H  -18.37900 17.44000 42.97300
H  -16.59600 13.09400 40.79000
H  -18.23700 13.53400 41.28000
H  -18.53400 11.69400 42.61500
H  -17.03400 11.81000 43.30900
H  -17.04000 11.13900 41.63100
H  -11.23600 10.66300 43.37700
H  -12.76100 10.51000 42.45900
H  -12.71500 11.09800 44.12600
H  -8.15300 13.66200 40.53900
H  -5.29800 14.98700 43.46500
H  -4.51200 13.66100 42.80800
H  -5.59400 13.34400 44.14600

