158

Mg 17.52000 -0.87300 27.97000
C  16.45900 1.18600 30.57500
C  19.56400 -2.53300 29.99500
C  19.12000 -2.41700 25.26500
C  15.95400 1.25900 25.74600
N  18.05300 -0.53800 30.08600
C  17.41000 0.24600 31.02400
C  17.88300 -0.11900 32.41100
C  18.98700 -1.17700 32.09300
C  18.89400 -1.45200 30.60200
C  20.45400 -0.69500 32.39900
C  16.74500 -0.51500 33.44000
C  17.00700 -0.26500 34.98600
H  18.42500 0.18500 35.53400
N  18.86500 -2.50700 27.73700
C  19.56100 -3.03900 28.69700
C  20.31400 -4.16400 28.23100
C  20.20500 -4.16800 26.85400
C  19.38500 -2.95600 26.53900
C  21.08500 -5.04300 29.15900
C  20.76700 -5.02300 25.74800
O  20.49600 -4.94500 24.55800
C  21.57900 -6.09700 26.19400
N  17.46000 -0.69200 25.78700
C  18.25600 -1.35400 24.90400
C  17.99800 -0.76700 23.46900
C  16.78700 0.09400 23.66000
C  16.78800 0.24400 25.11900
C  19.26400 -0.05700 22.86900
C  15.47300 -0.30700 23.00900
C  14.36900 -0.93500 23.86300
N  16.43200 0.81000 28.04600
C  15.78300 1.55600 27.06400
C  14.95600 2.61100 27.63800
C  15.15800 2.49400 29.00300
C  16.08400 1.39700 29.24100
C  14.14500 3.66800 26.92000
C  14.88200 3.11700 30.34600
O  14.28300 4.10400 30.68800
C  15.65100 2.15400 31.36200
C  16.50700 3.03800 32.24700
O  17.60900 3.42600 31.94900
O  15.84600 3.39500 33.43200
C  16.66200 4.07400 34.48400
H  20.11500 -3.13400 30.72100
H  19.60600 -2.85500 24.39100
H  15.51900 1.92500 24.99800
H  18.32400 0.79300 32.81400
H  18.78600 -2.07900 32.67100
H  20.38600 0.39100 32.34100
H  21.12000 -1.09300 31.63300
H  20.83900 -0.86900 33.40400
H  16.55300 -1.58700 33.46600
H  15.73500 -0.13700 33.27800
H  16.78200 -1.24900 35.39800
H  16.30900 0.47600 35.37400
H  22.15500 -4.84400 29.09500
H  21.19100 -6.11300 28.98200
H  20.86000 -4.86400 30.21000
H  20.95200 -6.66100 26.88600
H  22.47500 -5.64500 26.61900
H  21.93300 -6.72700 25.37800
H  17.75700 -1.52900 22.72800
H  17.01500 1.04300 23.17600
H  20.04900 0.04000 23.61900
H  18.97500 0.91400 22.46600
H  19.65800 -0.64100 22.03700
H  15.78600 -0.98300 22.21300
H  15.06500 0.57600 22.51700
H  14.65300 -1.41800 24.79900
H  14.03100 -1.76600 23.24400
H  13.52500 -0.25100 23.95000
H  13.13000 3.27500 26.96100
H  14.55200 3.84800 25.92400
H  14.22900 4.61000 27.46300
H  15.02600 1.60300 32.06600
H  17.29800 3.31200 34.93700
H  15.86100 4.45200 35.11800
H  17.31000 4.81800 34.02000
Mg 47.37000 16.16800 28.19200
C  45.22700 16.16100 31.09900
C  49.57300 18.01300 30.09100
C  48.98500 16.73500 25.34300
C  44.76100 14.73100 26.50000
N  47.28900 17.06900 30.23500
C  46.44700 16.79100 31.27100
C  47.00900 17.16800 32.64400
C  48.35200 17.88800 32.31900
C  48.43000 17.68800 30.75200
C  48.48100 19.30200 32.82300
C  47.15600 16.00600 33.66500
C  46.51300 16.17500 35.11200
H  46.18600 17.54700 35.58200
N  49.13400 17.07200 27.80100
C  49.89000 17.76600 28.69800
C  51.03100 18.39300 28.04300
C  50.90600 17.95500 26.64100
C  49.69100 17.15500 26.56300
C  52.01800 19.26500 28.66100
C  51.84000 18.23800 25.48900
O  51.60600 18.01500 24.30900
C  53.17200 18.77600 25.78100
N  47.01700 15.71700 26.20000
C  47.74500 16.13200 25.13500
C  47.11100 15.68000 23.82100
C  45.95300 14.72600 24.28400
C  45.90200 15.06100 25.76000
C  46.63300 16.81200 22.91500
C  46.16300 13.18700 23.90900
C  45.21800 12.57300 22.88000
N  45.39500 15.47500 28.65500
C  44.54900 14.87900 27.86200
C  43.36500 14.40300 28.69100
C  43.56200 14.88400 29.94700
C  44.84600 15.48500 29.89100
C  42.11500 13.78300 28.26300
C  43.08200 14.98200 31.33800
O  42.12800 14.48500 31.89600
C  44.14700 15.84300 32.13800
C  43.45700 16.95800 32.81100
O  43.34200 18.11300 32.37600
O  42.86200 16.44200 33.94800
C  41.93200 17.36900 34.62500
H  50.37700 18.45600 30.68200
H  49.47700 17.02000 24.41100
H  44.10000 14.04800 25.96200
H  46.29400 17.91700 32.98700
H  49.21600 17.39200 32.76300
H  49.27600 19.35900 33.56700
H  47.50200 19.60800 33.19100
H  48.76000 19.96800 32.00700
H  48.23200 15.91100 33.81100
H  46.76000 15.11700 33.17400
H  47.30700 15.76600 35.73600
H  45.72200 15.42500 35.12100
H  52.21400 20.24900 28.23400
H  52.98600 18.76600 28.62300
H  51.83900 19.47800 29.71500
H  53.04000 19.62000 26.45800
H  53.58400 19.10100 24.82600
H  53.88100 18.01600 26.11000
H  47.92300 15.25200 23.23400
H  45.08900 15.10900 23.74100
H  45.75200 16.68200 22.28700
H  47.28100 16.80400 22.03900
H  46.55800 17.74700 23.47100
H  46.08500 12.52700 24.77300
H  47.14000 13.07500 23.43800
H  44.32600 13.17900 22.71700
H  44.74000 11.67800 23.27900
H  45.64200 12.27600 21.92100
H  41.86600 14.14600 27.26600
H  41.28100 14.10800 28.88400
H  42.26100 12.70300 28.25000
H  44.45100 15.11600 32.89200
H  42.16400 17.45900 35.68600
H  40.90700 17.02400 34.48600
H  41.85300 18.32800 34.11300

