158

Mg 47.39800 25.09300 28.76300
C  48.29300 27.18500 31.32900
C  46.14800 22.97500 31.25600
C  46.80400 22.96900 26.40000
C  48.77600 27.30700 26.42200
N  47.02800 25.18000 31.02400
C  47.46200 26.17200 31.82700
C  47.07100 25.96800 33.26800
C  46.54600 24.43700 33.27300
C  46.56800 24.17400 31.76500
C  47.24800 23.29800 34.06500
C  46.02700 26.99300 33.78100
C  46.23800 27.75800 35.13800
H  44.95600 28.08100 35.98700
N  46.51700 23.34300 28.79800
C  46.04200 22.59500 29.85100
C  45.43800 21.42600 29.43900
C  45.61800 21.35700 27.99000
C  46.38300 22.57200 27.67300
C  44.79400 20.41900 30.31400
C  45.32000 20.20100 27.04200
O  45.69100 20.25900 25.86200
C  44.74200 18.80700 27.49400
N  48.09200 24.98900 26.66800
C  47.40900 24.07700 25.91300
C  47.84600 24.24600 24.47000
C  48.14400 25.77900 24.41800
C  48.38500 26.07200 25.90200
C  49.09900 23.32200 24.16800
C  46.98700 26.59100 23.79300
C  47.03800 26.47900 22.21200
N  48.39100 26.86900 28.83900
C  48.86900 27.72000 27.79600
C  49.33000 28.93800 28.38300
C  49.22000 28.70600 29.75600
C  48.61200 27.48000 29.99200
C  49.84000 30.12800 27.64800
C  49.40100 29.31800 31.09500
O  49.82200 30.41500 31.45300
C  48.96800 28.25800 32.17300
C  50.05700 27.79200 33.11100
O  51.05400 27.15600 32.76100
O  49.82700 28.33100 34.38300
C  51.02300 28.23500 35.28500
H  45.64400 22.28900 31.94000
H  46.45300 22.28700 25.62200
H  49.10600 27.98100 25.63000
H  48.01100 26.02600 33.81700
H  45.48500 24.31700 33.49200
H  47.96600 22.70600 33.49800
H  46.56100 22.56300 34.48500
H  47.74900 23.79100 34.89900
H  45.04000 26.53300 33.79800
H  45.94200 27.79500 33.04700
H  46.77700 28.70500 35.11200
H  46.77500 27.10400 35.82500
H  45.54400 19.71000 30.66400
H  44.00200 19.84200 29.83800
H  44.36600 20.86700 31.21100
H  45.42400 18.43300 28.25800
H  44.67500 18.11000 26.65900
H  43.76100 18.97000 27.94200
H  47.06500 24.01100 23.74700
H  49.06300 25.99400 23.87300
H  49.16900 22.70200 25.06100
H  50.09100 23.76900 24.09400
H  48.98100 22.68100 23.29400
H  47.02700 27.63500 24.10500
H  46.04800 26.08300 24.00900
H  46.19900 26.07100 21.64700
H  47.93900 26.00300 21.82600
H  47.17100 27.51800 21.90900
H  50.88300 30.28100 27.92300
H  49.24400 30.97400 27.99000
H  49.71800 30.12800 26.56500
H  48.17100 28.81200 32.66800
H  50.88000 27.41200 35.98500
H  51.12700 29.21400 35.75200
H  51.93300 28.06400 34.71100
Mg 48.82900 35.40000 28.40400
C  46.76100 33.71300 30.61000
C  49.18700 37.82600 30.77000
C  50.58400 37.09700 26.18100
C  47.91800 33.05300 25.95400
N  48.13700 35.60400 30.45300
C  47.33700 34.83000 31.20100
C  47.31500 35.24800 32.71900
C  47.70200 36.75500 32.52000
C  48.34900 36.81400 31.13400
C  46.45700 37.69200 32.55100
C  48.41500 34.38400 33.46400
C  48.33400 34.15800 34.96300
H  47.43500 35.10700 35.70700
N  49.90800 37.17500 28.52000
C  49.96300 38.03500 29.59800
C  50.73400 39.21800 29.26900
C  51.11600 39.03900 27.87100
C  50.53400 37.72400 27.46600
C  50.94400 40.34300 30.22200
C  51.93500 39.96700 26.96500
O  51.97100 39.86100 25.77600
C  52.76100 41.09700 27.63600
N  48.94000 35.29500 26.26800
C  49.80800 36.04400 25.63800
C  50.06500 35.57400 24.22200
C  49.25600 34.31800 24.18700
C  48.54600 34.22100 25.54100
C  49.36800 36.60600 23.15400
C  50.19200 33.04300 23.81100
C  49.62700 32.26200 22.59200
N  47.65400 33.67200 28.25200
C  47.53700 32.74300 27.23500
C  46.64000 31.68800 27.62400
C  46.14300 32.09200 28.88000
C  46.92300 33.22300 29.27700
C  46.18000 30.48100 26.75800
C  45.33700 31.75100 30.05000
O  44.69000 30.75600 30.20100
C  45.58200 32.88400 31.12900
C  45.82200 32.18700 32.37000
O  46.81700 31.44900 32.58000
O  44.94300 32.60000 33.34800
C  45.05400 31.86600 34.61600
H  49.02600 38.74800 31.33400
H  51.26800 37.60800 25.50000
H  47.64200 32.34500 25.17000
H  46.36100 35.06400 33.21100
H  48.38400 36.97300 33.34200
H  45.65300 37.22800 33.12200
H  46.11500 37.99900 31.56200
H  46.57400 38.56100 33.19900
H  49.40000 34.74200 33.16600
H  48.49900 33.47800 32.86400
H  49.32900 34.14600 35.40700
H  47.93900 33.14200 34.98200
H  50.45300 41.22100 29.80300
H  52.02800 40.40900 30.32100
H  50.57400 40.01200 31.19200
H  53.51000 41.32900 26.87800
H  53.05500 40.55800 28.53600
H  52.01900 41.86900 27.83900
H  51.12100 35.42900 23.99500
H  48.49500 34.29600 23.40700
H  50.18700 37.15200 22.68600
H  48.68800 37.25800 23.70300
H  48.79800 36.11100 22.36700
H  50.24200 32.44400 24.72000
H  51.25500 33.25000 23.68300
H  48.76100 32.74800 22.14200
H  49.25500 31.25200 22.76800
H  50.40100 32.28400 21.82500
H  47.08500 30.27700 26.18600
H  45.37600 30.78200 26.08500
H  45.97200 29.54300 27.27200
H  44.64000 33.42800 31.20800
H  44.21100 31.17700 34.66600
H  44.96400 32.60600 35.41100
H  45.96700 31.28400 34.74000

