158

Mg 44.31800 3.22400 47.39000
C  41.58000 5.12100 46.33600
C  42.17200 0.43100 47.46200
C  46.96500 1.19300 47.42000
C  46.33000 6.02700 47.15400
N  42.08400 2.87300 46.95400
C  41.15700 3.79800 46.60000
C  39.76100 3.19000 46.38600
C  39.95000 1.76100 47.13900
C  41.48700 1.62700 47.12300
C  39.16300 1.74600 48.50300
C  39.39100 3.06800 44.89100
C  37.93700 3.42700 44.40300
H  37.96000 4.52100 43.26000
N  44.56600 1.16900 47.51900
C  43.57800 0.17800 47.55200
C  44.12700 -1.13100 47.71800
C  45.54000 -0.88200 47.84600
C  45.77600 0.52100 47.50400
C  43.35600 -2.41400 48.00200
C  46.60200 -1.90200 48.26100
O  46.26900 -3.05600 48.53600
C  48.04300 -1.62000 48.41300
N  46.33700 3.54000 47.51900
C  47.27900 2.54800 47.42200
C  48.70900 3.20900 47.41000
C  48.40900 4.68500 47.67800
C  46.92900 4.78800 47.39700
C  49.69800 2.54700 48.44000
C  49.29400 5.68500 46.84600
C  49.57900 7.00600 47.57300
N  44.05200 5.18800 46.92500
C  44.97100 6.18100 46.79400
C  44.35100 7.40400 46.38500
C  42.97900 7.06300 46.18600
C  42.85000 5.68600 46.49600
C  45.02500 8.73500 46.14400
C  41.69900 7.55100 45.79800
O  41.34100 8.68900 45.44700
C  40.74200 6.34700 45.94700
C  39.71700 6.64000 46.97600
O  40.07700 6.83000 48.13800
O  38.45500 6.48400 46.40700
C  37.47100 6.42900 47.50900
H  41.56700 -0.41600 47.79200
H  47.90100 0.65500 47.25800
H  46.92000 6.94400 47.08000
H  39.04400 3.80400 46.93100
H  39.51500 0.95400 46.54900
H  39.85700 1.56700 49.32400
H  38.48900 0.89700 48.39800
H  38.57600 2.63900 48.72100
H  39.52800 2.01500 44.64700
H  40.12500 3.68800 44.37700
H  37.24800 3.74100 45.18700
H  37.53400 2.49000 44.01800
H  42.31100 -2.60400 47.75600
H  43.47800 -2.68500 49.05100
H  43.95600 -3.09400 47.39700
H  48.60100 -1.60900 47.47600
H  48.52800 -2.42300 48.96800
H  48.24400 -0.77300 49.07000
H  49.01800 3.10400 46.37000
H  48.51200 4.90900 48.74000
H  50.53100 2.08900 47.90800
H  49.20800 1.66900 48.86000
H  50.12100 3.22500 49.18200
H  48.77200 5.98400 45.93700
H  50.20500 5.14300 46.59200
H  49.65900 7.79300 46.82300
H  50.49500 6.90400 48.15600
H  48.74500 7.21800 48.24200
H  44.45000 9.36700 45.46800
H  46.01500 8.53700 45.73300
H  45.24700 9.12700 47.13700
H  40.16200 6.06000 45.07000
H  37.46400 7.45900 47.86700
H  37.84000 5.77200 48.29600
H  36.44900 6.12500 47.28100
Mg 46.54000 43.41100 42.66700
C  43.13400 42.61300 42.05200
C  47.31900 40.21100 41.77000
C  49.67900 44.49600 42.28000
C  45.50700 46.88600 42.02500
N  45.35600 41.64400 42.09900
C  43.97800 41.49500 42.04500
C  43.55100 40.07600 41.75500
C  44.84700 39.27700 41.94700
C  45.96600 40.38800 41.93400
C  44.82900 38.27500 43.17700
C  42.84500 39.85600 40.45000
C  43.20900 40.78300 39.23600
H  43.34600 40.16700 37.88800
N  48.32600 42.41300 42.25700
C  48.43900 41.10300 41.96200
C  49.86200 40.87400 41.61400
C  50.60900 42.06200 41.75700
C  49.55600 43.07000 42.06200
C  50.28400 39.45900 41.31500
C  52.06600 42.20100 41.55800
O  52.73000 41.17800 41.42000
C  52.83400 43.57400 41.66700
N  47.55500 45.44000 42.25200
C  48.82600 45.57400 42.25800
C  49.24100 47.02700 42.16900
C  47.90700 47.74000 42.14800
C  46.84800 46.61200 42.09600
C  50.10100 47.45600 43.31100
C  47.70400 48.86300 41.12100
C  47.50100 48.42500 39.60300
N  44.65700 44.57700 42.40100
C  44.42100 45.97000 42.15600
C  42.95200 46.24800 42.01900
C  42.44500 44.93200 42.05900
C  43.50900 43.97400 42.15800
C  42.35000 47.65700 41.88400
C  41.24200 44.16000 42.11500
O  40.08500 44.55000 42.12700
C  41.61200 42.62600 42.26800
C  41.19200 42.16000 43.65400
O  40.36000 41.31200 43.82700
O  41.72000 42.98900 44.63300
C  41.09900 42.95600 45.98300
H  47.49900 39.15600 41.55300
H  50.69200 44.79200 42.00100
H  45.27400 47.95200 41.98600
H  42.78000 39.89100 42.50400
H  45.03200 38.68100 41.05300
H  45.37000 38.75800 43.99100
H  45.35300 37.34600 42.94800
H  43.88100 38.08800 43.68100
H  41.83500 40.18800 40.69000
H  42.91600 38.78700 40.25000
H  44.06500 41.44600 39.36000
H  42.31100 41.38600 39.10500
H  50.73600 39.59100 40.33200
H  49.46800 38.74400 41.42300
H  51.08700 39.30000 42.03400
H  52.55800 44.17400 40.80000
H  53.90300 43.40800 41.53900
H  52.64200 44.08400 42.61100
H  49.77800 47.11100 41.22400
H  47.78000 48.17400 43.14000
H  49.98700 46.84400 44.20500
H  49.80500 48.41100 43.74700
H  51.11500 47.45700 42.91200
H  48.60600 49.47200 41.17800
H  46.87000 49.51800 41.37300
H  48.22900 48.87700 38.92800
H  46.52000 48.86700 39.42700
H  47.52100 47.33800 39.52500
H  43.01200 48.43300 41.49800
H  41.84300 48.02800 42.77400
H  41.56500 47.47200 41.15000
H  41.12100 42.17100 41.40700
H  40.40700 42.12700 46.13300
H  40.52300 43.86200 46.17200
H  41.73900 42.87300 46.86200

