158

Mg -1.63400 17.24800 27.33700
C  -2.27900 14.83300 29.80600
C  -2.44300 19.71200 29.60200
C  -1.55900 19.47600 24.86800
C  -1.70900 14.65000 25.00400
N  -2.31900 17.21000 29.49000
C  -2.36500 16.15700 30.33600
C  -2.58700 16.67400 31.71400
C  -2.79300 18.20200 31.59200
C  -2.50000 18.44300 30.12100
C  -4.21700 18.77500 32.04600
C  -1.45800 16.36700 32.77900
C  -1.39100 17.15600 34.16300
H  -0.66500 16.55800 35.30700
N  -1.85500 19.39000 27.30400
C  -2.10200 20.19800 28.30100
C  -2.04700 21.55700 27.90100
C  -1.89800 21.56200 26.49800
C  -1.77200 20.11800 26.16200
C  -2.19800 22.71800 28.84100
C  -1.82600 22.68900 25.52200
O  -1.72800 22.53800 24.30900
C  -2.01700 24.07600 25.91600
N  -1.57600 17.06700 25.27100
C  -1.45600 18.13800 24.44900
C  -1.13100 17.78700 23.03000
C  -1.11400 16.20800 23.05800
C  -1.48200 15.93100 24.54100
C  -2.17700 18.34600 22.07400
C  0.18100 15.54000 22.54600
C  1.41000 15.92400 23.42600
N  -1.93200 15.19400 27.33800
C  -1.91200 14.22500 26.29900
C  -2.06700 12.93500 26.86200
C  -2.24600 13.14800 28.21800
C  -2.17700 14.54100 28.46300
C  -2.16700 11.66400 26.08700
C  -2.48500 12.44600 29.46300
O  -2.61700 11.23700 29.76800
C  -2.44200 13.53200 30.57100
C  -1.23600 13.26800 31.48900
O  -0.08200 13.53300 31.21700
O  -1.61900 12.70000 32.62800
C  -0.59400 12.52300 33.65500
H  -2.69600 20.42900 30.38600
H  -1.33200 20.08400 23.99000
H  -1.67800 13.84200 24.27100
H  -3.54400 16.39400 32.15600
H  -1.95100 18.70900 32.06300
H  -4.99300 18.08400 32.37400
H  -4.60400 19.28900 31.16600
H  -4.04700 19.48500 32.85500
H  -0.46800 16.26800 32.33400
H  -1.78000 15.40100 33.16800
H  -2.36600 17.44300 34.55600
H  -0.70500 17.96000 33.89500
H  -2.81800 23.48800 28.38200
H  -1.23300 23.13500 29.13000
H  -2.59800 22.38000 29.79700
H  -1.66000 24.26000 26.92900
H  -3.10000 24.17200 25.99200
H  -1.65700 24.82700 25.21300
H  -0.13400 18.14500 22.77600
H  -2.01100 15.82300 22.57400
H  -1.91000 19.35000 21.74600
H  -3.14300 18.42300 22.57300
H  -2.23500 17.58800 21.29300
H  0.39200 15.86300 21.52600
H  -0.00600 14.46600 22.55800
H  2.06100 16.67200 22.97300
H  1.98900 15.01800 23.60700
H  1.06100 16.34200 24.37000
H  -1.73300 10.90600 26.73800
H  -1.60800 11.70400 25.15200
H  -3.23500 11.47300 25.98000
H  -3.39500 13.65000 31.08700
H  0.12100 11.79000 33.28400
H  -0.90600 12.12900 34.62200
H  0.01700 13.42500 33.70800
Mg 46.26100 3.67400 48.22400
C  44.57500 6.62900 47.18000
C  43.37900 1.92000 47.62800
C  48.09200 0.94600 48.35300
C  49.22300 5.74100 48.31000
N  44.26400 4.23600 47.44100
C  43.78900 5.51500 47.05000
C  42.31200 5.47100 46.64700
C  41.95700 3.98800 46.99500
C  43.26500 3.32900 47.39500
C  40.73400 3.85700 47.94800
C  41.94900 5.99500 45.22500
C  40.59800 6.86500 45.21500
H  39.66100 6.77900 44.07800
N  45.79600 1.64700 48.05400
C  44.60200 1.14000 47.78800
C  44.67200 -0.27100 47.70100
C  46.05800 -0.64500 47.84000
C  46.76000 0.66800 48.13500
C  43.40400 -1.11800 47.27000
C  46.57900 -2.03000 47.54400
O  45.88300 -2.93100 47.12100
C  48.02300 -2.29200 47.88200
N  48.42200 3.47500 48.33300
C  48.83900 2.20000 48.38200
C  50.37800 2.19900 48.68600
C  50.78900 3.70800 48.44500
C  49.39900 4.37200 48.38700
C  50.67800 1.64500 50.10900
C  51.40500 4.05400 47.01300
C  52.92200 4.08600 46.96300
N  46.79200 5.73900 48.01800
C  48.04400 6.44700 48.03600
C  47.78300 7.90000 47.87600
C  46.43700 7.91800 47.47200
C  45.91900 6.64500 47.56800
C  48.88300 8.86500 47.75200
C  45.42300 8.86200 46.98400
O  45.52100 10.03800 46.71100
C  44.22900 8.02400 46.85000
C  43.16600 8.52800 47.73700
O  43.07600 8.35800 48.97500
O  42.20100 9.22000 47.02700
C  41.21500 10.02200 47.74000
H  42.45300 1.41800 47.34200
H  48.74600 0.07800 48.45300
H  50.08600 6.40300 48.40500
H  41.88300 6.01800 47.48700
H  41.73700 3.36000 46.13200
H  40.24800 4.83000 48.02100
H  40.99600 3.43400 48.91800
H  40.07800 3.18700 47.39200
H  41.65900 5.23200 44.50300
H  42.77800 6.53000 44.76300
H  40.89400 7.90900 45.31300
H  40.05900 6.64900 46.13800
H  43.82100 -1.90100 46.63600
H  42.66200 -0.59700 46.66400
H  42.94900 -1.63600 48.11300
H  48.66600 -1.66100 47.26800
H  48.27400 -3.34300 47.73600
H  48.20900 -2.10000 48.93900
H  50.90300 1.58200 47.95700
H  51.25000 4.24200 49.27500
H  49.79000 1.32900 50.65500
H  51.35100 2.28900 50.67600
H  51.34000 0.79400 49.94600
H  51.05200 4.97800 46.55600
H  51.10700 3.25000 46.33800
H  53.13200 3.49000 46.07500
H  53.32300 3.52800 47.81000
H  53.24900 5.12500 46.98800
H  49.47100 8.62800 46.86600
H  49.57300 8.61600 48.55900
H  48.49600 9.88000 47.84400
H  43.76100 8.15200 45.87400
H  40.43200 9.38200 48.14800
H  40.95000 10.69400 46.92400
H  41.72900 10.54600 48.54500

