158

Mg 24.13000 -5.88600 45.68100
C  26.40300 -3.58900 44.27500
C  21.70600 -4.57100 43.70300
C  22.37200 -8.82500 45.95700
C  26.95300 -7.57300 47.02800
N  24.07200 -4.32500 44.26200
C  25.08500 -3.55000 43.81500
C  24.65800 -2.59400 42.66800
C  23.08200 -2.63400 42.82200
C  22.85800 -3.89200 43.70500
C  22.31800 -1.35600 43.25300
C  25.22100 -3.11400 41.34100
C  26.10300 -2.14000 40.42900
H  25.85800 -1.99100 38.93700
N  22.22300 -6.56600 45.07800
C  21.39400 -5.85400 44.22900
C  20.17900 -6.61600 43.98000
C  20.27600 -7.79800 44.81200
C  21.67400 -7.77600 45.34100
C  19.15800 -6.11100 42.98800
C  19.19600 -8.83100 45.01200
O  18.12900 -8.73300 44.48900
C  19.31400 -9.81200 46.03400
N  24.65200 -7.93000 46.37000
C  23.72200 -8.91400 46.41200
C  24.34500 -10.24200 47.00000
C  25.82400 -9.88000 47.12500
C  25.82200 -8.34200 46.93800
C  23.69100 -10.83900 48.31300
C  26.69400 -10.57700 45.98400
C  26.83500 -12.14700 46.06400
N  26.26700 -5.47700 45.94300
C  27.19900 -6.29900 46.50900
C  28.48100 -5.54900 46.41000
C  28.25300 -4.58500 45.47800
C  26.88500 -4.55400 45.20100
C  29.76200 -5.85700 47.03800
C  28.81900 -3.52200 44.66900
O  29.99800 -3.13300 44.64400
C  27.64700 -2.77700 43.91100
C  27.54300 -1.29600 44.44300
O  26.56100 -0.74600 44.87100
O  28.79600 -0.63500 44.41300
C  29.02300 0.61000 45.24100
H  20.89100 -4.03500 43.21200
H  21.80600 -9.74600 46.11500
H  27.76100 -8.17200 47.45300
H  25.04400 -1.59800 42.88600
H  22.75700 -2.76700 41.78900
H  22.98400 -0.56200 43.59000
H  21.49600 -1.58800 43.93000
H  21.90900 -0.87200 42.36600
H  24.42400 -3.59600 40.77600
H  25.84700 -3.96300 41.61800
H  27.12900 -2.49700 40.34100
H  26.14400 -1.14500 40.87200
H  18.59600 -6.97700 42.63800
H  19.62400 -5.47600 42.23400
H  18.38400 -5.46500 43.40200
H  18.37200 -10.33700 46.18600
H  19.65200 -9.41600 46.99100
H  19.98200 -10.51600 45.53800
H  24.40500 -10.96100 46.18300
H  26.27600 -10.10500 48.09100
H  23.16700 -11.78300 48.16000
H  22.93900 -10.22000 48.80200
H  24.44500 -11.02900 49.07800
H  27.67800 -10.10900 45.98300
H  26.09600 -10.23600 45.13900
H  26.57500 -12.42100 47.08700
H  27.85200 -12.40800 45.77200
H  26.24200 -12.80000 45.42200
H  30.14400 -6.85300 46.81600
H  29.68800 -5.71400 48.11600
H  30.48200 -5.09200 46.74500
H  27.92600 -2.68400 42.86100
H  29.87500 0.44300 45.90000
H  28.19100 0.88400 45.89000
H  29.37600 1.49500 44.71100
Mg 47.46500 24.85300 27.74900
C  48.09300 27.26400 30.16300
C  46.65400 22.76900 30.36400
C  46.47400 22.59100 25.55600
C  48.67900 26.98100 25.24700
N  47.22300 25.07600 29.99800
C  47.51500 26.17500 30.74600
C  47.26500 25.96500 32.26700
C  47.05100 24.41500 32.32900
C  47.07900 24.04800 30.81700
C  48.07200 23.56400 33.19100
C  46.18100 26.91000 33.02300
C  45.48200 26.40000 34.31000
H  45.55400 27.37900 35.45300
N  46.81300 22.91600 27.95700
C  46.54100 22.14000 29.09400
C  46.10100 20.76800 28.80400
C  45.89900 20.84000 27.38000
C  46.44300 22.11400 26.90000
C  45.79000 19.67900 29.82600
C  45.24800 19.70100 26.49800
O  45.15700 19.82000 25.26200
C  44.60600 18.54000 27.16800
N  47.67900 24.73800 25.67900
C  47.02000 23.79500 24.99600
C  47.33700 24.02600 23.51800
C  47.83400 25.46800 23.46600
C  48.07700 25.76400 24.86400
C  48.19400 22.96900 22.74500
C  46.91900 26.50900 22.63500
C  47.64900 27.30500 21.58100
N  48.38000 26.64300 27.71300
C  48.81600 27.42500 26.59600
C  49.35900 28.70800 27.05900
C  49.04900 28.68600 28.48400
C  48.45800 27.44800 28.77400
C  50.23400 29.77400 26.24400
C  49.26200 29.43900 29.73000
O  49.90900 30.40200 29.98500
C  48.52900 28.53300 30.91300
C  49.51600 28.22500 32.01900
O  50.56100 27.67400 31.93000
O  49.07800 28.89600 33.08700
C  49.72600 28.60200 34.37000
H  46.49300 22.15500 31.25300
H  46.15800 21.99700 24.69600
H  48.99500 27.74200 24.53100
H  48.18200 26.16200 32.82300
H  46.05000 24.29900 32.74600
H  47.56700 22.96400 33.94900
H  48.82100 24.23400 33.61200
H  48.56200 22.88500 32.49300
H  45.39600 27.15000 32.30600
H  46.64600 27.85200 33.31300
H  46.00200 25.49300 34.61700
H  44.46500 26.13400 34.02000
H  46.35600 18.75300 29.72100
H  44.71100 19.52100 29.83800
H  45.86500 20.12500 30.81700
H  43.80400 18.84700 27.83900
H  45.40700 18.09400 27.75700
H  44.27500 17.83300 26.40700
H  46.29500 24.02000 23.19700
H  48.85000 25.48000 23.07000
H  48.70600 22.26500 23.40000
H  48.89500 23.43300 22.05100
H  47.63200 22.38200 22.01900
H  46.45500 27.28100 23.24900
H  46.12900 25.88100 22.22300
H  47.72900 26.80600 20.61500
H  48.66200 27.40400 21.96900
H  47.09800 28.24500 21.56100
H  49.83300 29.97200 25.25000
H  51.23100 29.35500 26.10500
H  50.24500 30.62600 26.92400
H  47.75100 29.21100 31.26400
H  49.37500 27.64100 34.74500
H  49.56200 29.42400 35.06700
H  50.79900 28.45100 34.25500

