158

Mg 46.50600 24.94600 29.16100
C  47.11000 27.31200 31.63600
C  45.51500 22.74200 31.56700
C  46.46400 22.64400 26.87800
C  48.17300 27.21100 26.87500
N  46.23500 25.10400 31.34200
C  46.55100 26.14400 32.12300
C  46.08700 25.85400 33.52100
C  45.80900 24.30500 33.53600
C  45.96900 23.96100 32.07200
C  46.63900 23.44400 34.45800
C  44.95100 26.78300 34.12600
C  45.17900 27.62500 35.46000
H  45.73400 26.87000 36.66000
N  45.90000 22.98700 29.17900
C  45.47400 22.27200 30.24300
C  45.04000 20.92200 29.83700
C  45.28800 20.85700 28.38500
C  45.96300 22.17400 28.08700
C  44.44500 19.88700 30.66200
C  44.88800 19.77700 27.35500
O  45.16100 19.89000 26.18400
C  44.10600 18.57200 27.75400
N  47.17300 25.01200 27.15800
C  47.10100 23.84900 26.42800
C  47.67900 24.03800 24.96300
C  48.27600 25.46400 25.11000
C  47.81000 25.93000 26.44300
C  48.83100 23.03900 24.69600
C  47.78300 26.34400 23.92300
C  48.73200 26.55400 22.75700
N  47.38500 26.95100 29.18000
C  47.98400 27.68000 28.18900
C  48.34200 28.93300 28.64900
C  48.01500 28.90700 30.05700
C  47.47100 27.61600 30.31300
C  49.16300 29.98800 27.94200
C  48.12300 29.62800 31.31500
O  48.52400 30.80900 31.51300
C  47.57600 28.50700 32.42200
C  48.57800 28.04800 33.45700
O  49.22900 27.00800 33.40700
O  48.70800 29.07600 34.35700
C  49.51400 28.74800 35.52500
H  45.17800 22.04500 32.33700
H  46.37700 21.87500 26.10800
H  48.67300 27.86000 26.15300
H  46.96700 25.97600 34.15200
H  44.76900 24.06300 33.75600
H  47.34100 22.76200 33.97800
H  46.02600 22.83400 35.12200
H  47.20300 24.04500 35.17200
H  44.02800 26.25400 34.36200
H  44.62700 27.46800 33.34300
H  44.17000 27.93600 35.73100
H  45.91100 28.35500 35.11500
H  43.55500 19.45000 30.20900
H  44.11600 20.19200 31.65600
H  45.03900 18.99200 30.84600
H  43.06400 18.86500 27.87900
H  44.52900 18.08200 28.63000
H  44.17100 17.84700 26.94200
H  46.80000 23.81700 24.35700
H  49.36500 25.42800 25.08600
H  49.41300 23.48100 23.88800
H  48.35100 22.10300 24.41100
H  49.46100 22.76000 25.54000
H  47.52500 27.34700 24.26200
H  46.88700 25.87800 23.51400
H  49.26300 27.50500 22.70200
H  48.02600 26.53300 21.92600
H  49.45200 25.74600 22.63500
H  49.48800 29.59700 26.97800
H  49.96100 30.39600 28.56300
H  48.59200 30.89400 27.73600
H  46.81800 28.91900 33.08700
H  48.85200 28.54500 36.36600
H  50.09600 29.57300 35.93600
H  50.22100 27.92600 35.41300
Mg 16.82900 51.87200 26.55000
C  18.71800 50.73600 28.99900
C  14.47100 52.82700 28.97600
C  15.08300 53.35400 24.21700
C  19.30300 51.04900 24.15800
N  16.60400 51.74500 28.68700
C  17.57400 51.32000 29.51100
C  17.28000 51.45800 31.08600
C  15.76200 51.88100 30.97000
C  15.61200 52.24200 29.50500
C  14.79400 50.82300 31.53300
C  18.34500 52.43700 31.87700
C  18.30200 52.17900 33.43800
H  17.18200 51.47900 34.16800
N  14.91600 52.81500 26.58000
C  14.11800 53.11400 27.64300
C  12.87800 53.86800 27.16100
C  13.05300 54.07500 25.76000
C  14.36000 53.36200 25.43300
C  11.67200 54.26100 27.97500
C  12.16300 54.70000 24.69700
O  12.48200 54.64400 23.50400
C  10.90000 55.54800 25.03000
N  17.16500 52.06700 24.48000
C  16.25200 52.71900 23.76400
C  16.69300 53.16400 22.35400
C  17.96300 52.26400 22.25600
C  18.23100 51.85400 23.72000
C  15.67700 52.98400 21.20400
C  19.24100 52.87400 21.50400
C  19.73700 52.02000 20.29400
N  18.49600 50.82800 26.46400
C  19.43000 50.62700 25.45800
C  20.50400 49.83200 26.02200
C  20.27500 49.92500 27.40700
C  19.08100 50.54600 27.61700
C  21.64600 49.22400 25.30400
C  20.81600 49.48400 28.67400
O  21.74900 48.71900 28.89300
C  19.88500 50.12200 29.76300
C  19.50500 49.05300 30.66100
O  18.66600 48.13900 30.46600
O  20.14700 49.11200 31.83000
C  19.49500 48.34800 32.93800
H  13.71300 53.10900 29.71000
H  14.86700 54.13300 23.48300
H  20.08400 50.80200 23.43600
H  17.35300 50.50800 31.61600
H  15.55800 52.82000 31.48600
H  15.19600 50.10700 32.25000
H  14.32000 50.30300 30.70000
H  13.94300 51.28100 32.03700
H  17.98400 53.41700 31.56500
H  19.38000 52.31400 31.55600
H  18.52900 53.11800 33.94200
H  19.16600 51.51400 33.45600
H  10.80400 53.62200 27.81500
H  11.31900 55.28800 27.87800
H  11.90100 54.13000 29.03300
H  10.26000 55.50100 24.14800
H  11.11500 56.60600 25.18000
H  10.37200 55.06400 25.85200
H  17.01300 54.20000 22.46700
H  17.75600 51.36100 21.68100
H  14.92700 52.26300 21.52900
H  16.19900 52.74600 20.27700
H  15.14400 53.91900 21.03100
H  20.02600 52.83800 22.26000
H  19.07700 53.91800 21.23600
H  19.43400 52.56000 19.39700
H  19.38400 50.99000 20.25500
H  20.82600 52.04700 20.33600
H  21.46100 48.19400 24.99700
H  22.54900 49.28600 25.91200
H  21.70800 49.67400 24.31300
H  20.45400 50.84000 30.35400
H  18.45700 48.65600 33.06000
H  20.02000 48.57500 33.86600
H  19.52100 47.27900 32.72600

