158

Mg 48.60000 44.84600 44.43300
C  45.09300 44.99000 43.74900
C  48.53800 41.47000 43.32900
C  51.90500 44.90800 44.06200
C  48.43300 48.28700 44.82800
N  46.96400 43.46200 43.55300
C  45.64600 43.70300 43.40900
C  44.88700 42.48400 42.83800
C  45.89800 41.33300 43.03400
C  47.22600 42.09300 43.34100
C  45.60200 40.23200 44.05200
C  44.49300 42.67500 41.37000
C  43.38000 41.69700 40.81900
H  43.24500 41.42300 39.33500
N  50.04900 43.31800 43.93000
C  49.75500 42.03200 43.46900
C  50.97500 41.37400 43.30600
C  52.06300 42.31500 43.64200
C  51.37100 43.55200 43.94500
C  51.03300 39.96800 42.83200
C  53.54000 42.08000 43.67600
O  54.03400 40.97100 43.32900
C  54.51100 43.02200 44.32400
N  49.97400 46.38700 44.14500
C  51.34200 46.17700 44.28300
C  52.14300 47.42000 44.62300
C  51.00400 48.46800 44.75400
C  49.73500 47.66600 44.61000
C  52.97400 47.25700 45.91300
C  51.10400 49.62700 43.77500
C  51.13100 50.98200 44.39600
N  47.08800 46.40800 44.40100
C  47.17400 47.77600 44.51100
C  45.85700 48.38000 44.45700
C  44.98100 47.32100 44.25200
C  45.78000 46.12900 44.15100
C  45.51400 49.79200 44.78300
C  43.56700 46.93200 44.04000
O  42.55400 47.62700 43.99800
C  43.59700 45.38800 43.66800
C  42.81700 44.71100 44.71800
O  42.15000 43.71900 44.44700
O  43.13400 45.13300 46.01600
C  42.50700 44.45700 47.17000
H  48.51400 40.41900 43.03600
H  52.99100 45.02600 44.09400
H  48.49500 49.32000 45.17600
H  44.10100 42.11200 43.49400
H  46.09400 40.78900 42.11000
H  44.60500 40.35500 44.47400
H  46.41800 40.11600 44.76500
H  45.36200 39.31800 43.50900
H  45.30100 42.41100 40.68800
H  44.17000 43.69700 41.17400
H  42.46200 42.21200 41.10200
H  43.35000 40.78500 41.41500
H  52.05900 39.59900 42.80900
H  50.60100 39.87000 41.83600
H  50.53400 39.37100 43.59500
H  54.85300 43.85800 43.71500
H  55.43200 42.50400 44.59100
H  54.02100 43.49200 45.17700
H  52.93200 47.54800 43.88100
H  50.95300 48.87900 45.76200
H  52.70300 46.32100 46.40300
H  52.87600 48.10100 46.59500
H  54.03700 47.13100 45.70500
H  50.25400 49.64100 43.09200
H  51.99700 49.50100 43.16300
H  51.25400 51.70800 43.59300
H  52.00800 50.89300 45.03700
H  50.14800 51.15400 44.83600
H  45.99800 50.28100 45.62900
H  44.44700 49.80100 45.00100
H  45.73800 50.31900 43.85500
H  43.15400 45.22700 42.68500
H  42.92800 43.45200 47.14400
H  41.42100 44.50300 47.09800
H  42.72000 44.84100 48.16700
Mg 16.17400 51.34300 25.43300
C  17.93600 50.53600 28.27800
C  13.42500 52.10700 27.17000
C  14.58200 51.83900 22.50400
C  18.92800 49.92400 23.67400
N  15.76000 51.17900 27.45500
C  16.68100 51.07500 28.48400
C  16.03800 51.60300 29.84100
C  14.49200 51.66000 29.56400
C  14.51000 51.68800 27.94600
C  13.74600 50.49600 30.10200
C  16.73300 52.89100 30.35700
C  16.53100 53.31000 31.80300
H  15.89000 52.40100 32.82000
N  14.17300 51.85000 24.88300
C  13.15200 52.22400 25.76400
C  11.94200 52.61900 25.03400
C  12.20500 52.28800 23.62300
C  13.71400 52.00100 23.61200
C  10.62300 52.80300 25.75800
C  11.20200 52.09700 22.43800
O  11.58200 51.71700 21.33400
C  9.73900 52.22800 22.66300
N  16.64100 51.02600 23.36700
C  15.87800 51.33300 22.37200
C  16.51600 51.16100 20.99700
C  17.91600 50.61800 21.39400
C  17.84000 50.55000 22.93600
C  15.58100 50.30900 20.05300
C  19.05000 51.58100 20.90700
C  20.22800 50.91200 20.12600
N  18.07600 50.50700 25.83400
C  19.10100 50.01600 25.05700
C  20.29700 49.68800 25.76100
C  19.85400 49.87300 27.13100
C  18.55400 50.38200 27.06600
C  21.57200 49.11500 25.13100
C  20.26100 49.81800 28.50000
O  21.36100 49.61900 28.95200
C  18.98600 50.22300 29.30300
C  18.52900 49.22100 30.30100
O  17.93800 48.19100 30.00600
O  18.84900 49.70500 31.56200
C  18.41400 48.98300 32.74000
H  12.64200 52.50900 27.81700
H  14.03100 52.06500 21.58900
H  19.65800 49.43900 23.02100
H  16.23500 50.82300 30.57700
H  14.03600 52.58500 29.91700
H  14.15200 49.89000 30.91200
H  13.31900 49.93400 29.27100
H  12.95000 50.98500 30.66400
H  16.27400 53.66800 29.74600
H  17.79100 52.83800 30.10100
H  15.95100 54.22800 31.70600
H  17.53300 53.49000 32.19200
H  10.69400 53.24700 26.75200
H  10.13800 51.83100 25.84700
H  10.03500 53.57000 25.25400
H  9.54300 53.24400 23.00700
H  9.49100 51.49600 23.43200
H  9.23500 52.08100 21.70800
H  16.52600 52.17800 20.60300
H  18.07300 49.61900 20.98700
H  16.16300 49.53600 19.55100
H  15.19500 50.93400 19.24700
H  14.72600 49.80200 20.50000
H  19.46100 52.00000 21.82500
H  18.66800 52.40700 20.30700
H  20.08900 49.83700 20.01300
H  21.21600 51.12200 20.53800
H  20.27200 51.27700 19.10000
H  21.67900 49.45900 24.10300
H  21.57300 48.02500 25.15800
H  22.40800 49.53600 25.69100
H  19.24000 51.19700 29.72200
H  19.02400 49.32200 33.57700
H  18.71000 47.93800 32.64000
H  17.37200 49.14200 33.01700

