158

Mg 47.12300 17.22300 28.31500
C  45.10900 17.13700 31.22100
C  49.48400 18.95600 30.21700
C  48.70500 17.71000 25.49300
C  44.53700 15.66000 26.57700
N  47.29400 17.89000 30.49100
C  46.37400 17.73500 31.45300
C  46.94600 18.06700 32.83800
C  48.24800 18.90300 32.45500
C  48.38500 18.58800 30.93800
C  48.26000 20.49900 32.76800
C  47.11300 16.86100 33.78100
C  46.88300 17.07600 35.29800
H  46.45400 18.49000 35.76000
N  48.94200 17.97200 27.96300
C  49.75800 18.66000 28.84700
C  50.95900 19.08400 28.09100
C  50.77400 18.75100 26.68700
C  49.43600 18.14400 26.62900
C  52.13600 19.70700 28.84800
C  51.69600 19.01900 25.51500
O  51.38800 18.70000 24.37400
C  53.03100 19.62700 25.78600
N  46.67300 16.74900 26.40400
C  47.45500 17.07600 25.34100
C  47.03300 16.46700 24.02100
C  45.97700 15.47600 24.52200
C  45.63000 16.08100 25.92600
C  46.60000 17.60700 23.04100
C  46.34000 13.97100 24.47500
C  45.58900 13.13700 23.43600
N  45.21500 16.60000 28.73400
C  44.28900 15.94500 27.89900
C  43.15800 15.61100 28.61900
C  43.41900 16.01200 29.94700
C  44.70900 16.69300 29.94600
C  41.94000 14.87100 28.01700
C  42.93100 15.97500 31.31900
O  41.91000 15.44200 31.77000
C  44.03800 16.70500 32.12000
C  43.46900 17.68600 33.11300
O  43.24400 18.90100 32.94000
O  43.01600 16.92000 34.14100
C  42.27300 17.66000 35.11600
H  50.21000 19.53700 30.79000
H  49.39400 17.82400 24.65400
H  43.79500 15.17100 25.94100
H  46.18300 18.67400 33.32400
H  49.15100 18.49900 32.91100
H  48.24500 21.07900 31.84400
H  49.07600 20.78400 33.43100
H  47.39100 20.69800 33.39500
H  48.12600 16.49600 33.61300
H  46.46500 16.02000 33.53600
H  47.84800 16.96800 35.79200
H  46.35000 16.27600 35.81300
H  52.03100 20.79200 28.81400
H  53.01300 19.27300 28.36700
H  52.22400 19.43200 29.89900
H  52.78500 20.44900 26.45800
H  53.49900 20.00900 24.87800
H  53.64600 18.86500 26.26400
H  47.94400 16.08100 23.56500
H  45.04700 15.61100 23.97100
H  47.40400 17.67700 22.30900
H  46.47600 18.56800 23.54100
H  45.65000 17.23600 22.65700
H  46.12800 13.66100 25.49900
H  47.42300 13.92200 24.36400
H  46.30700 12.38200 23.11800
H  45.35200 13.70200 22.53400
H  44.75500 12.56700 23.84600
H  41.99500 13.82500 28.31600
H  41.89500 14.91600 26.92800
H  41.00900 15.23100 28.45600
H  44.51900 15.97600 32.77200
H  41.23600 17.80500 34.81300
H  42.81300 18.57500 35.36100
H  42.29800 17.08000 36.03900
Mg 1.88500 42.04400 24.80400
C  3.10400 42.22600 28.18900
C  -1.06200 40.65800 26.19600
C  0.96800 41.06200 21.79300
C  5.02800 42.89500 23.71900
N  1.17500 41.57300 26.98200
C  1.73700 41.84000 28.16700
C  0.81600 41.70900 29.34900
C  -0.46800 41.06300 28.69900
C  -0.08800 41.08100 27.17400
C  -0.91500 39.66700 29.12500
C  0.50500 43.01100 30.22000
C  0.43200 42.88800 31.77800
H  -0.20200 41.67000 32.42600
N  0.26600 41.01900 24.07300
C  -0.89100 40.60100 24.78200
C  -1.84000 40.01500 23.85200
C  -1.31400 40.24200 22.55100
C  0.06400 40.79000 22.78000
C  -3.17900 39.37300 24.10600
C  -1.98200 39.93300 21.22600
O  -1.44500 40.26600 20.19900
C  -3.28400 39.39800 21.04800
N  2.86800 42.04000 23.05200
C  2.25000 41.61900 21.84000
C  3.15900 41.81900 20.64100
C  4.30700 42.68600 21.27000
C  4.04900 42.55900 22.80100
C  3.67400 40.44300 20.06000
C  4.31400 44.08700 20.73800
C  3.61500 45.17900 21.59200
N  3.65700 42.50000 25.69400
C  4.88300 42.73200 25.12700
C  5.96100 42.83500 26.15900
C  5.27700 42.72700 27.37900
C  3.88000 42.42000 27.04900
C  7.39600 43.22100 25.99400
C  5.43100 42.69200 28.82600
O  6.42700 42.72400 29.55400
C  3.98500 42.32000 29.40400
C  4.10500 41.00200 30.15600
O  4.53500 39.93500 29.67100
O  3.69700 41.20500 31.42100
C  3.90800 40.13100 32.36900
H  -2.04300 40.33000 26.54700
H  0.68100 40.82600 20.76700
H  6.00200 43.21500 23.34400
H  1.31100 41.00400 30.01700
H  -1.29900 41.76600 28.64800
H  -0.38200 39.04600 28.40500
H  -1.99600 39.67200 28.98600
H  -0.54900 39.41300 30.12000
H  -0.46900 43.38000 29.90100
H  1.22700 43.78100 29.95000
H  -0.17500 43.75500 32.04000
H  1.46200 42.99700 32.11700
H  -3.96700 39.75000 23.45500
H  -3.53900 39.67100 25.09000
H  -3.12300 38.28400 24.12600
H  -3.40800 38.42500 21.52300
H  -3.47200 39.09100 20.01800
H  -3.95300 40.24600 21.19300
H  2.64600 42.25300 19.78200
H  5.30100 42.29300 21.05700
H  4.69800 40.25800 20.38700
H  3.68400 40.46500 18.97000
H  3.07700 39.59000 20.38300
H  3.80100 44.11900 19.77700
H  5.36600 44.31300 20.56500
H  3.02900 44.67000 22.35700
H  2.90700 45.72700 20.96900
H  4.36900 45.86600 21.97700
H  7.53900 44.27500 25.76000
H  7.72100 42.54700 25.20100
H  7.94900 43.06200 26.92000
H  3.64700 43.14900 30.02700
H  3.96300 39.18900 31.82300
H  3.24600 40.24700 33.22800
H  4.83600 40.45000 32.84300

