158

Mg 24.94400 -8.00300 46.11800
C  27.31400 -5.44300 44.82900
C  22.58600 -6.75400 43.90400
C  23.30500 -10.75000 46.68700
C  27.64500 -9.18400 47.95600
N  25.05800 -6.48700 44.41900
C  26.06900 -5.50400 44.24200
C  25.46900 -4.42800 43.28900
C  24.01300 -4.83200 43.09100
C  23.86200 -6.15000 43.84300
C  22.99200 -3.76700 43.70700
C  26.20300 -4.36100 41.92900
C  26.10600 -3.04000 41.21500
H  25.53100 -2.99700 39.82300
N  23.14300 -8.69300 45.46400
C  22.26100 -7.97300 44.59300
C  21.03800 -8.74800 44.46900
C  21.22100 -9.93800 45.25900
C  22.60300 -9.86800 45.81000
C  19.91000 -8.30800 43.64000
C  20.19200 -10.99400 45.41700
O  19.05300 -10.84900 44.93300
C  20.44100 -12.24500 46.12500
N  25.42700 -9.78800 47.11700
C  24.50600 -10.75400 47.34000
C  25.14400 -11.96200 48.05600
C  26.38900 -11.36700 48.72500
C  26.55700 -10.00300 47.90600
C  24.16200 -12.74000 49.02200
C  27.64700 -12.32900 48.68600
C  28.22500 -12.59900 50.11300
N  27.02900 -7.42700 46.38100
C  27.97900 -8.02600 47.18400
C  29.17900 -7.22100 47.27900
C  28.94000 -6.21400 46.36300
C  27.67100 -6.41200 45.73000
C  30.43100 -7.41800 48.07600
C  29.55200 -5.01700 45.81600
O  30.65900 -4.47600 45.97800
C  28.52300 -4.57000 44.71100
C  28.22200 -3.12400 44.78500
O  28.53600 -2.33400 43.89000
O  27.60300 -2.73400 45.97200
C  27.20600 -1.31900 46.03700
H  21.88400 -6.26900 43.22200
H  22.78400 -11.68700 46.89800
H  28.50700 -9.48400 48.55500
H  25.58500 -3.46600 43.78800
H  23.76700 -5.00500 42.04400
H  22.32400 -3.27100 43.00400
H  23.51400 -2.91600 44.14500
H  22.46100 -4.19400 44.55800
H  25.80000 -5.16000 41.30700
H  27.25700 -4.57800 42.10300
H  27.15400 -2.76900 41.08900
H  25.57800 -2.30600 41.82400
H  20.09800 -7.37900 43.10200
H  19.03000 -8.03700 44.22300
H  19.74500 -9.15200 42.97000
H  20.45800 -12.07000 47.20000
H  21.34100 -12.76000 45.79100
H  19.66700 -12.90100 45.72700
H  25.36800 -12.63600 47.22800
H  26.06400 -11.24000 49.75700
H  24.57300 -12.87900 50.02100
H  23.90400 -13.70500 48.58600
H  23.18600 -12.28200 49.18100
H  28.48700 -11.83700 48.19500
H  27.37800 -13.28200 48.23100
H  29.04700 -11.92500 50.35300
H  28.73500 -13.54500 49.93200
H  27.45500 -12.64900 50.88200
H  30.35700 -8.06000 48.95300
H  30.99500 -6.52100 48.32900
H  31.07000 -8.08700 47.49900
H  29.00600 -4.57200 43.73400
H  26.11800 -1.38400 46.01100
H  27.47300 -0.64300 45.22500
H  27.58300 -0.91700 46.97800
Mg 30.47000 59.62100 39.13700
C  27.27800 58.23100 38.26400
C  31.92600 56.62500 38.13000
C  33.34200 61.22000 39.17700
C  28.69000 62.52200 39.88200
N  29.71600 57.72500 38.21500
C  28.43000 57.37800 37.98700
C  28.36500 55.98800 37.34600
C  29.79900 55.42100 37.58600
C  30.55300 56.65900 37.95300
C  29.92000 54.29900 38.66100
C  27.94300 56.13400 35.90800
C  27.88400 54.83900 35.10700
H  27.25100 54.85300 33.67500
N  32.42700 59.01600 38.83900
C  32.77700 57.72800 38.48800
C  34.19500 57.64100 38.42300
C  34.71900 58.97400 38.68300
C  33.53400 59.81700 38.91000
C  34.89300 56.35200 38.01600
C  36.22100 59.28300 38.84900
O  37.09900 58.48400 38.56300
C  36.56500 60.59600 39.35100
N  30.98800 61.55500 39.51100
C  32.25300 62.01300 39.49700
C  32.34200 63.46200 39.77800
C  30.85000 63.86600 40.00100
C  30.12800 62.52500 39.81000
C  33.34000 63.81800 40.94500
C  30.29800 64.97900 39.04300
C  29.56800 66.06800 39.77600
N  28.29000 60.29900 39.20900
C  27.82200 61.50700 39.53400
C  26.39300 61.44000 39.53400
C  26.07300 60.13600 39.08300
C  27.28900 59.53000 38.86500
C  25.32000 62.46000 39.89300
C  25.03500 59.18700 38.78600
O  23.80500 59.30400 38.78900
C  25.75000 57.89000 38.19100
C  25.34300 56.82900 39.07500
O  25.46100 56.88400 40.26700
O  24.75800 55.84400 38.28900
C  24.15300 54.71500 39.02100
H  32.39600 55.64700 38.00500
H  34.27500 61.77700 39.28000
H  28.11100 63.38100 40.22700
H  27.66800 55.37700 37.92000
H  30.17100 55.01700 36.64400
H  28.94700 54.03300 39.07400
H  30.62000 54.61400 39.43400
H  30.28100 53.41900 38.12700
H  28.55100 56.87500 35.38900
H  26.90900 56.47600 35.93900
H  27.32200 54.09400 35.67000
H  28.88100 54.40900 35.00700
H  34.51000 55.47800 38.54400
H  35.96300 56.55300 38.06100
H  34.64600 56.10400 36.98400
H  37.61700 60.51900 39.62500
H  35.92700 60.65400 40.23300
H  36.27400 61.31900 38.58900
H  32.78900 63.92100 38.89600
H  30.62000 63.94900 41.06300
H  33.70800 62.83200 41.22500
H  32.93800 64.20400 41.88200
H  34.19700 64.43400 40.67200
H  29.59000 64.63700 38.28800
H  31.14100 65.39600 38.49100
H  29.93600 66.14500 40.79900
H  28.53700 65.71800 39.74400
H  29.82200 67.09800 39.52400
H  24.97700 62.29700 40.91500
H  24.48700 62.26900 39.21700
H  25.77900 63.44700 39.84100
H  25.34500 57.78800 37.18400
H  24.83600 54.37500 39.80000
H  23.72400 53.87000 38.48200
H  23.22600 55.13900 39.40600

