158

Mg 45.09900 4.77200 46.31400
C  43.11300 7.58800 46.07500
C  42.26700 2.74000 46.13900
C  47.18800 2.09200 45.54300
C  47.91500 6.79200 45.72800
N  42.89600 5.13600 45.96700
C  42.34800 6.38100 45.97000
C  40.84300 6.31300 45.79100
C  40.56400 4.77000 46.13600
C  41.96000 4.11000 46.16100
C  39.83400 4.60500 47.58400
C  40.09100 6.90400 44.58000
C  41.02800 7.38500 43.39300
H  40.38300 7.48800 41.98400
N  44.78400 2.73500 45.78900
C  43.53000 2.12800 45.83800
C  43.78700 0.71600 45.83500
C  45.14400 0.47300 45.54800
C  45.79200 1.80100 45.57600
C  42.69200 -0.24600 46.14800
C  45.81500 -0.82100 45.17000
O  45.06300 -1.76400 45.27100
C  47.22000 -1.11400 44.67500
N  47.30000 4.46900 45.76400
C  47.88200 3.25600 45.61400
C  49.47400 3.44700 45.61000
C  49.58000 4.93500 45.03400
C  48.18200 5.43100 45.50700
C  50.12800 3.12100 46.99300
C  49.77100 5.00100 43.47000
C  51.22500 5.33700 42.91400
N  45.50500 6.76700 46.13800
C  46.72200 7.46400 46.05100
C  46.42800 8.88300 46.14300
C  45.07400 8.97000 46.25700
C  44.52200 7.67900 46.10600
C  47.23200 10.05600 46.00300
C  43.99700 9.89200 46.47900
O  43.92600 11.07900 46.64400
C  42.70800 9.03900 46.49200
C  41.97500 9.14400 47.77500
O  41.78500 8.31400 48.69300
O  41.34300 10.30400 47.76600
C  40.71400 10.71700 49.01500
H  41.37700 2.12300 46.28100
H  47.86400 1.23700 45.61800
H  48.77500 7.46500 45.70500
H  40.52400 6.94800 46.61800
H  39.98000 4.23000 45.39100
H  39.49000 5.50000 48.10300
H  40.58200 4.11400 48.20600
H  38.94200 3.98100 47.65000
H  39.49600 7.69500 45.03600
H  39.51000 6.06200 44.20500
H  41.89900 6.73100 43.34600
H  41.36900 8.35000 43.76800
H  42.68100 -0.84300 45.23600
H  41.69400 0.16600 46.30000
H  42.94400 -0.90200 46.98100
H  47.31100 -2.10900 44.23900
H  47.80300 -1.08700 45.59600
H  47.38800 -0.29600 43.97400
H  49.96300 2.77600 44.90400
H  50.24600 5.44900 45.72600
H  49.19800 2.91700 47.52400
H  50.60500 3.97400 47.47500
H  50.83800 2.31400 46.81000
H  49.06000 5.70600 43.04000
H  49.51000 4.01600 43.08500
H  51.61900 4.49900 42.34000
H  51.96600 5.56800 43.67900
H  51.27700 6.29700 42.40000
H  47.34200 10.11600 44.92000
H  48.24400 10.03100 46.40600
H  46.67100 10.89600 46.41300
H  42.01900 9.45300 45.75500
H  41.40200 11.04200 49.79600
H  40.15200 9.90300 49.47400
H  39.99900 11.52500 48.86200
Mg 49.29900 35.00700 28.11000
C  47.03300 33.75700 30.57400
C  49.56000 37.89000 29.93100
C  51.15400 36.31700 25.71700
C  48.60700 32.18900 26.28900
N  48.32700 35.77600 30.03100
C  47.52300 35.01400 30.85600
C  47.23300 35.77900 32.23600
C  47.81500 37.20600 31.85800
C  48.69300 36.98300 30.55200
C  46.75800 38.36400 31.72600
C  47.94700 35.04100 33.43000
C  48.90500 35.78600 34.40000
H  48.22200 36.75400 35.39000
N  50.18500 36.92500 27.85600
C  50.19000 37.93800 28.71300
C  51.04100 39.02400 28.25700
C  51.71600 38.51400 27.10100
C  51.04800 37.22700 26.85000
C  51.26500 40.35400 29.06400
C  52.95000 39.06400 26.40000
O  53.42000 38.44300 25.45900
C  53.50600 40.45500 26.70700
N  49.63200 34.45300 26.28500
C  50.43200 35.17600 25.44300
C  50.65900 34.36000 24.15300
C  50.15100 32.91400 24.40800
C  49.43900 33.18600 25.71500
C  50.08100 34.97500 22.90600
C  51.15300 31.79800 24.56600
C  51.00500 30.57400 23.57200
N  48.20200 33.23900 28.43300
C  47.94600 32.22100 27.50700
C  47.04800 31.26900 28.08300
C  46.66800 31.84000 29.28000
C  47.36100 33.05000 29.45800
C  46.63100 30.00500 27.38200
C  45.74600 31.61900 30.37200
O  44.99500 30.69800 30.68400
C  46.03400 32.76600 31.32500
C  46.39000 32.19200 32.67200
O  47.45500 31.63000 32.97000
O  45.30800 32.42700 33.47900
C  45.74100 32.34500 34.91500
H  49.56400 38.78600 30.55500
H  51.81300 36.67700 24.92500
H  48.51700 31.23000 25.77400
H  46.15200 35.78900 32.37200
H  48.49700 37.59300 32.61400
H  47.05300 39.16800 32.40100
H  45.72000 38.05700 31.85800
H  46.82400 38.69100 30.68800
H  48.44400 34.11200 33.15100
H  47.14800 34.66700 34.07100
H  49.60700 36.30000 33.74400
H  49.40000 34.91300 34.82600
H  52.15400 40.20700 29.67700
H  50.46800 40.43700 29.80400
H  51.31700 41.23600 28.42600
H  52.56600 41.00500 26.68000
H  54.25400 40.65700 25.94100
H  53.91500 40.40600 27.71700
H  51.74500 34.30500 24.08500
H  49.41100 32.75100 23.62500
H  50.86800 35.46300 22.33000
H  49.31800 35.69700 23.19600
H  49.76200 34.25200 22.15600
H  51.17200 31.35400 25.56100
H  52.15800 32.17500 24.37800
H  50.39900 30.79600 22.69400
H  50.38600 29.85500 24.10800
H  52.03700 30.41200 23.26000
H  45.73400 30.22600 26.80300
H  46.42800 29.26400 28.15500
H  47.43800 29.70500 26.71400
H  45.03800 33.19700 31.43200
H  46.68600 32.86600 35.06600
H  45.80900 31.30800 35.24100
H  44.99200 32.81400 35.55400

