158

Mg 8.00400 3.02100 27.59500
C  9.17700 1.57800 30.47600
C  5.94500 5.12400 29.63500
C  6.26700 4.05000 24.87000
C  9.52700 0.58100 25.72600
N  7.62600 3.30500 29.76400
C  8.42200 2.70600 30.74700
C  8.28200 3.41400 32.13900
C  7.09700 4.42500 31.77200
C  6.91500 4.32300 30.28500
C  5.82800 4.23400 32.60200
C  9.52200 3.95800 32.81200
C  9.90700 3.33000 34.09700
H  10.15400 4.23000 35.27900
N  6.36400 4.43900 27.32500
C  5.70600 5.24600 28.27700
C  4.90200 6.22600 27.56200
C  5.06300 6.01600 26.16200
C  5.87700 4.77400 26.04700
C  4.32400 7.47800 28.27900
C  4.46700 6.79700 25.06700
O  4.68900 6.54100 23.84800
C  3.56300 7.96600 25.33900
N  7.95600 2.44600 25.61600
C  7.12400 2.99400 24.71000
C  7.16700 2.23800 23.39600
C  8.38800 1.37000 23.56500
C  8.68600 1.45700 25.04700
C  5.84000 1.59600 22.86700
C  9.68200 1.77000 22.72900
C  10.46700 0.67400 21.96000
N  9.22000 1.36400 27.96200
C  9.75800 0.49300 27.13300
C  10.64400 -0.39700 27.89900
C  10.45200 -0.04100 29.23700
C  9.54700 1.03700 29.24600
C  11.37500 -1.63700 27.39500
C  10.82500 -0.36800 30.59000
O  11.51800 -1.23500 31.06900
C  10.01700 0.69800 31.42100
C  9.11500 0.03500 32.38200
O  7.90700 -0.02900 32.39900
O  9.90900 -0.31900 33.49000
C  9.15400 -0.73500 34.71500
H  5.55600 5.89100 30.30900
H  5.82800 4.29500 23.90100
H  10.09100 -0.15300 25.14700
H  7.87800 2.65200 32.80500
H  7.54000 5.41200 31.90000
H  5.97800 3.36900 33.24700
H  4.94200 4.21200 31.96600
H  5.70100 5.05100 33.31200
H  9.33600 5.02100 32.96400
H  10.30700 3.88900 32.05900
H  10.86100 2.89400 33.80200
H  9.29400 2.48300 34.40500
H  4.70700 8.38500 27.81200
H  4.54100 7.46600 29.34700
H  3.24900 7.41800 28.10900
H  2.70100 7.48300 25.79900
H  3.20100 8.26000 24.35400
H  4.02100 8.82200 25.83500
H  7.46100 3.03600 22.71400
H  8.02600 0.37500 23.30600
H  5.12400 1.68100 23.68400
H  5.93500 0.55500 22.55700
H  5.55500 2.23700 22.03300
H  10.36600 2.21400 23.45200
H  9.45600 2.52200 21.97300
H  11.46200 0.73600 22.40000
H  10.49200 0.76000 20.87300
H  10.15700 -0.31800 22.28800
H  11.24400 -2.39300 28.16800
H  12.43900 -1.45400 27.24900
H  10.85300 -2.09700 26.55600
H  10.76400 1.26200 31.97800
H  8.74100 -1.72000 34.49800
H  8.30500 -0.05500 34.78100
H  9.66700 -0.70700 35.67700
Mg -2.68100 33.70600 26.09400
C  -4.44000 32.15600 28.77700
C  -1.32800 35.93300 28.55400
C  -1.52400 35.66500 23.75600
C  -4.29900 31.66400 23.92700
N  -2.90900 34.00800 28.42500
C  -3.58200 33.19500 29.26400
C  -3.41200 33.57900 30.73200
C  -2.53300 34.92300 30.57000
C  -2.19900 34.98000 29.08100
C  -3.12100 36.20800 31.20300
C  -2.77300 32.40900 31.57000
C  -3.58600 31.76500 32.64700
H  -2.91100 31.87900 34.01200
N  -1.45200 35.46200 26.08500
C  -1.01100 36.21600 27.17700
C  -0.15200 37.35200 26.72000
C  -0.18700 37.25100 25.28900
C  -1.04500 36.07600 24.95500
C  0.35200 38.42400 27.68100
C  0.53000 38.06600 24.18600
O  0.61500 37.84500 22.97100
C  1.40600 39.20500 24.69000
N  -3.08300 33.78100 24.10400
C  -2.36300 34.63800 23.32100
C  -2.51000 34.29000 21.84100
C  -3.02800 32.86000 21.99100
C  -3.53900 32.73900 23.43300
C  -3.41900 35.30600 21.07400
C  -1.89400 31.75600 21.62000
C  -1.19600 30.86800 22.62000
N  -4.07700 32.18600 26.28700
C  -4.65900 31.41800 25.27300
C  -5.45100 30.34100 25.78100
C  -5.45100 30.58300 27.17900
C  -4.57400 31.74200 27.44400
C  -6.20100 29.32100 25.08100
C  -5.86700 30.15400 28.44900
O  -6.47900 29.12900 28.70300
C  -5.25000 31.14700 29.56200
C  -6.40300 31.63700 30.29200
O  -7.20800 32.44600 29.81700
O  -6.46200 31.02000 31.59700
C  -7.59600 31.15300 32.45400
H  -0.66300 36.49500 29.21400
H  -1.16800 36.22400 22.88800
H  -4.79100 30.90100 23.31900
H  -4.41000 33.79000 31.11700
H  -1.57600 34.71900 31.05000
H  -2.41400 36.60300 31.93300
H  -3.98500 35.99800 31.83300
H  -3.31600 36.96500 30.44300
H  -1.81500 32.72800 31.98200
H  -2.47700 31.57900 30.92900
H  -3.83500 30.74200 32.36700
H  -4.63700 32.05300 32.64600
H  1.35600 38.77300 27.43600
H  0.25500 38.31300 28.76100
H  -0.27100 39.24700 27.33200
H  0.72800 39.89800 25.18800
H  1.99500 39.71100 23.92600
H  2.07900 38.77700 25.43400
H  -1.54300 34.41000 21.35200
H  -3.85500 32.71000 21.29800
H  -3.47400 36.16800 21.73900
H  -4.42300 34.90100 20.94800
H  -2.92200 35.73200 20.20200
H  -1.10000 32.33100 21.14400
H  -2.21300 31.10300 20.80800
H  -1.82300 30.95500 23.50800
H  -0.16000 31.12600 22.83700
H  -1.26000 29.83800 22.27000
H  -5.47700 29.13600 24.28800
H  -7.08200 29.77800 24.63100
H  -6.40100 28.40200 25.63200
H  -4.64900 30.54000 30.23900
H  -7.25600 31.76000 33.29300
H  -8.06300 30.30500 32.95500
H  -8.40200 31.79300 32.09500

