158

Mg 46.26100 3.67400 48.22400
C  44.57500 6.62900 47.18000
C  43.37900 1.92000 47.62800
C  48.09200 0.94600 48.35300
C  49.22300 5.74100 48.31000
N  44.26400 4.23600 47.44100
C  43.78900 5.51500 47.05000
C  42.31200 5.47100 46.64700
C  41.95700 3.98800 46.99500
C  43.26500 3.32900 47.39500
C  40.73400 3.85700 47.94800
C  41.94900 5.99500 45.22500
C  40.59800 6.86500 45.21500
H  39.66100 6.77900 44.07800
N  45.79600 1.64700 48.05400
C  44.60200 1.14000 47.78800
C  44.67200 -0.27100 47.70100
C  46.05800 -0.64500 47.84000
C  46.76000 0.66800 48.13500
C  43.40400 -1.11800 47.27000
C  46.57900 -2.03000 47.54400
O  45.88300 -2.93100 47.12100
C  48.02300 -2.29200 47.88200
N  48.42200 3.47500 48.33300
C  48.83900 2.20000 48.38200
C  50.37800 2.19900 48.68600
C  50.78900 3.70800 48.44500
C  49.39900 4.37200 48.38700
C  50.67800 1.64500 50.10900
C  51.40500 4.05400 47.01300
C  52.92200 4.08600 46.96300
N  46.79200 5.73900 48.01800
C  48.04400 6.44700 48.03600
C  47.78300 7.90000 47.87600
C  46.43700 7.91800 47.47200
C  45.91900 6.64500 47.56800
C  48.88300 8.86500 47.75200
C  45.42300 8.86200 46.98400
O  45.52100 10.03800 46.71100
C  44.22900 8.02400 46.85000
C  43.16600 8.52800 47.73700
O  43.07600 8.35800 48.97500
O  42.20100 9.22000 47.02700
C  41.21500 10.02200 47.74000
H  42.45300 1.41800 47.34200
H  48.74600 0.07800 48.45300
H  50.08600 6.40300 48.40500
H  41.88300 6.01800 47.48700
H  41.73700 3.36000 46.13200
H  40.24800 4.83000 48.02100
H  40.99600 3.43400 48.91800
H  40.07800 3.18700 47.39200
H  41.65900 5.23200 44.50300
H  42.77800 6.53000 44.76300
H  40.89400 7.90900 45.31300
H  40.05900 6.64900 46.13800
H  43.82100 -1.90100 46.63600
H  42.66200 -0.59700 46.66400
H  42.94900 -1.63600 48.11300
H  48.66600 -1.66100 47.26800
H  48.27400 -3.34300 47.73600
H  48.20900 -2.10000 48.93900
H  50.90300 1.58200 47.95700
H  51.25000 4.24200 49.27500
H  49.79000 1.32900 50.65500
H  51.35100 2.28900 50.67600
H  51.34000 0.79400 49.94600
H  51.05200 4.97800 46.55600
H  51.10700 3.25000 46.33800
H  53.13200 3.49000 46.07500
H  53.32300 3.52800 47.81000
H  53.24900 5.12500 46.98800
H  49.47100 8.62800 46.86600
H  49.57300 8.61600 48.55900
H  48.49600 9.88000 47.84400
H  43.76100 8.15200 45.87400
H  40.43200 9.38200 48.14800
H  40.95000 10.69400 46.92400
H  41.72900 10.54600 48.54500
Mg 36.00100 2.65800 30.65800
C  33.51200 3.56100 32.98200
C  38.29600 2.60800 33.33200
C  38.40300 2.04200 28.46800
C  33.63700 2.76300 28.07400
N  35.88600 3.17700 32.90700
C  34.77200 3.43700 33.67800
C  35.10600 3.46400 35.19400
C  36.65400 3.34600 35.23500
C  37.01700 3.00400 33.77500
C  37.38700 4.64300 35.63200
C  34.39400 2.26800 35.85400
C  34.33200 2.24800 37.38000
H  34.87100 3.39200 38.19300
N  38.09800 2.55600 30.86000
C  38.80900 2.47300 32.00100
C  40.24000 2.21400 31.70200
C  40.29100 1.95400 30.28100
C  38.91200 2.17300 29.81500
C  41.39300 2.13200 32.72700
C  41.44100 1.58800 29.42300
O  41.30900 1.36200 28.24300
C  42.85400 1.55500 30.02900
N  36.08000 2.53000 28.61200
C  37.21800 2.30400 27.93000
C  36.91900 2.04800 26.45300
C  35.40800 2.25900 26.28200
C  35.01200 2.51000 27.74900
C  37.80500 2.89600 25.48300
C  34.56800 1.13500 25.74300
C  33.52400 1.48000 24.67500
N  34.03600 3.17100 30.46400
C  33.20500 3.16800 29.33600
C  31.84400 3.52900 29.82600
C  31.91500 3.73000 31.21100
C  33.26300 3.44900 31.57600
C  30.50600 3.66000 28.99900
C  31.19500 4.01400 32.40600
O  29.99600 4.18500 32.54700
C  32.18200 3.88200 33.53900
C  32.18500 5.25000 34.11800
O  32.54400 6.24700 33.55000
O  31.80400 5.11900 35.44800
C  31.83100 6.35400 36.18900
H  39.04300 2.70100 34.12300
H  39.12500 1.78400 27.69100
H  32.98700 2.75800 27.19600
H  34.70700 4.33300 35.71900
H  36.91900 2.45600 35.80700
H  38.14700 4.39600 36.37400
H  36.80500 5.47500 36.02700
H  37.86700 5.06000 34.74600
H  34.92400 1.37100 35.53400
H  33.36800 2.18000 35.49700
H  34.82700 1.30300 37.60400
H  33.33300 2.03300 37.75800
H  41.80900 1.12700 32.80400
H  41.14400 2.55600 33.70000
H  42.14900 2.77400 32.27400
H  42.89500 0.84000 30.85100
H  43.32900 2.47700 30.36500
H  43.55600 1.21600 29.26800
H  37.11900 0.99300 26.27000
H  35.27200 3.14100 25.65600
H  38.28800 3.71500 26.01600
H  37.16700 3.30700 24.70000
H  38.56700 2.24400 25.05700
H  33.96200 0.69400 26.53400
H  35.26500 0.38000 25.37900
H  33.25400 2.51800 24.48500
H  32.62500 0.91300 24.92000
H  33.98600 1.08800 23.76900
H  30.67300 3.32000 27.97700
H  30.42800 4.74700 29.02800
H  29.67600 3.08700 29.41200
H  31.91000 3.16800 34.31600
H  31.11000 7.05300 35.76700
H  32.79900 6.85500 36.17900
H  31.56100 6.16900 37.22900

