158

Mg 34.71100 2.43300 29.61700
C  32.52700 3.42500 32.12600
C  37.27900 2.43300 31.80000
C  36.73400 1.46000 27.05500
C  32.11300 2.96800 27.31900
N  34.90600 2.92000 31.63300
C  33.85300 3.23200 32.51100
C  34.32600 3.13000 33.99100
C  35.90200 3.25300 33.79100
C  36.05400 2.81300 32.32200
C  36.46300 4.67700 34.07700
C  33.86700 1.84600 34.72400
C  33.13000 2.09200 36.09900
H  33.72000 3.09000 37.02900
N  36.71700 1.96000 29.47500
C  37.58600 1.95700 30.49000
C  38.85800 1.47600 29.98500
C  38.76100 1.23500 28.64200
C  37.35600 1.49400 28.30900
C  40.01700 1.28200 30.91100
C  39.80500 0.76700 27.66300
O  39.62400 0.68600 26.48200
C  41.18500 0.48700 28.13800
N  34.46300 2.17100 27.54300
C  35.44400 1.80100 26.69100
C  34.98500 1.75600 25.28600
C  33.42300 1.95700 25.44700
C  33.30900 2.43100 26.89800
C  35.58500 2.79600 24.29800
C  32.57000 0.65400 25.27200
C  31.43700 0.71800 24.17200
N  32.80600 3.11900 29.59000
C  31.82500 3.26500 28.67700
C  30.54500 3.71400 29.25500
C  30.79700 3.65800 30.62500
C  32.14600 3.34000 30.78000
C  29.24200 3.92900 28.47900
C  30.18100 3.72000 31.92200
O  29.04000 3.86800 32.34600
C  31.38900 3.66700 32.92400
C  31.51800 5.07700 33.45300
O  31.87400 6.09100 32.84800
O  31.02500 5.15700 34.76100
C  31.21600 6.45400 35.40200
H  38.12000 2.60100 32.47600
H  37.32000 1.07700 26.21700
H  31.28600 3.04500 26.61000
H  33.76800 3.99700 34.34300
H  36.49100 2.56000 34.39200
H  37.37800 4.68000 34.67000
H  35.70400 5.23700 34.62300
H  36.78900 5.27700 33.22800
H  34.74900 1.21800 34.84600
H  33.10400 1.27600 34.19300
H  33.25300 1.20500 36.72000
H  32.05300 2.08400 35.92900
H  40.48100 0.30400 30.78300
H  39.78400 1.37600 31.97100
H  40.78200 2.00900 30.63700
H  41.89800 0.38600 27.32100
H  41.17500 -0.33800 28.85000
H  41.40900 1.42400 28.64800
H  35.23000 0.74900 24.94900
H  33.09700 2.80500 24.84400
H  36.21100 2.21100 23.62400
H  36.13000 3.54100 24.87600
H  34.78500 3.28400 23.74100
H  32.01800 0.51300 26.20200
H  33.17300 -0.24000 25.11600
H  30.46800 0.38400 24.54500
H  31.77000 0.05000 23.37800
H  31.33300 1.73000 23.78100
H  29.55200 4.45300 27.57400
H  28.69700 4.74400 28.95500
H  28.69000 2.99800 28.35100
H  31.15800 2.97900 33.73800
H  30.85100 7.25400 34.75800
H  32.27300 6.49700 35.66400
H  30.65100 6.34700 36.32900
Mg 40.70700 9.76400 29.26300
C  42.61900 10.82800 31.93600
C  38.63400 8.01200 31.42900
C  39.34800 7.87700 26.52700
C  43.24000 10.87700 27.07100
N  40.76000 9.35900 31.51700
C  41.50700 10.08100 32.41300
C  41.02400 9.82600 33.81100
C  39.64500 9.14200 33.58800
C  39.69600 8.74500 32.09300
C  39.37600 7.86600 34.49500
C  40.98200 10.99100 34.75600
C  41.46200 10.75600 36.21900
H  40.86500 11.47100 37.38200
N  39.14800 8.28500 29.00800
C  38.32500 7.78100 30.02300
C  37.29200 6.98700 29.45200
C  37.49900 6.92700 28.08400
C  38.70200 7.74300 27.81800
C  36.15600 6.30600 30.36400
C  36.63600 6.23900 27.00800
O  36.86800 6.40300 25.79900
C  35.44500 5.37800 27.37000
N  41.26100 9.33700 27.11100
C  40.49400 8.55600 26.22800
C  40.91300 8.87100 24.81800
C  42.19000 9.78800 25.03000
C  42.27100 10.00200 26.48800
C  41.19100 7.55900 24.06900
C  42.26500 10.98600 24.11500
C  41.75400 12.36200 24.61800
N  42.52400 10.82100 29.41100
C  43.45300 11.19900 28.43100
C  44.58200 11.85800 29.08200
C  44.28300 11.77700 30.44800
C  43.03200 11.07400 30.60300
C  45.68500 12.55000 28.39500
C  44.72300 12.18300 31.75400
O  45.67900 12.79000 32.17000
C  43.65000 11.57300 32.72200
C  44.39300 10.72100 33.77200
O  44.66700 9.54200 33.79200
O  44.82300 11.59600 34.74300
C  45.51700 11.14100 35.90100
H  37.85700 7.68900 32.12500
H  38.89400 7.35800 25.68100
H  43.91000 11.33800 26.34200
H  41.80700 9.17900 34.20600
H  38.79100 9.81200 33.69100
H  39.84600 7.00400 34.02100
H  38.33600 7.63200 34.72300
H  39.80500 7.93800 35.49400
H  39.91200 11.17700 34.84200
H  41.37600 11.90500 34.31100
H  42.48900 11.12100 36.24900
H  41.33800 9.73800 36.58800
H  36.24500 5.22000 30.32700
H  35.17700 6.53700 29.94400
H  36.14200 6.71200 31.37600
H  34.96100 5.16200 26.41700
H  34.80800 5.98700 28.01100
H  35.76400 4.53400 27.98200
H  40.11300 9.48000 24.39700
H  43.08500 9.21000 24.80100
H  42.18600 7.55900 23.62200
H  40.56100 7.33400 23.20900
H  41.21900 6.69200 24.72900
H  41.76900 10.73100 23.17900
H  43.29700 11.17200 23.81800
H  42.58600 13.03400 24.82900
H  41.19800 12.24600 25.54800
H  41.15100 12.81000 23.82800
H  45.47000 12.59100 27.32700
H  46.57100 11.92400 28.50000
H  45.86600 13.47300 28.94700
H  43.08100 12.33700 33.25200
H  44.86200 11.26400 36.76300
H  46.30900 11.87100 36.06800
H  45.83500 10.09800 35.89200

