158

Mg 50.44300 46.04700 42.30700
C  47.36800 46.75400 40.59200
C  50.40400 42.89800 40.92800
C  53.74200 45.67000 43.12800
C  50.85800 49.54800 42.69800
N  48.94400 44.92200 40.99800
C  47.78500 45.41700 40.45000
C  47.03600 44.29600 39.61600
C  47.96600 43.05700 39.93000
C  49.21400 43.65300 40.68300
C  47.37500 41.95300 40.76800
C  46.81000 44.57900 38.14200
C  45.40900 44.70200 37.57400
H  44.83400 43.73800 36.55100
N  51.92300 44.50000 42.06100
C  51.64500 43.21600 41.57300
C  52.77800 42.38300 41.88700
C  53.80200 43.08400 42.62200
C  53.16900 44.49900 42.67000
C  52.82000 40.86400 41.49800
C  55.10300 42.59900 43.21800
O  55.50100 41.45900 43.05300
C  55.80200 43.43100 44.16600
N  52.17300 47.46000 42.68800
C  53.35200 47.05400 43.11600
C  54.28500 48.21300 43.53800
C  53.33100 49.41700 43.51000
C  52.03900 48.79000 42.94500
C  55.10200 48.04500 44.89600
C  53.84900 50.74600 42.80600
C  53.40200 52.03700 43.46400
N  49.28400 47.77700 42.05800
C  49.54100 49.11900 42.30000
C  48.41900 49.95200 41.98500
C  47.53600 49.06200 41.33000
C  48.13100 47.74400 41.29600
C  48.28100 51.46100 42.11700
C  46.27900 48.89200 40.63200
O  45.42300 49.79100 40.46700
C  46.10100 47.42100 40.11500
C  44.85500 46.85100 40.60900
O  44.78200 46.16800 41.62700
O  43.82000 47.18500 39.72300
C  42.62700 46.35200 40.05400
H  50.37500 41.85400 40.60900
H  54.77000 45.60500 43.49000
H  50.90100 50.60900 42.95100
H  46.08400 44.13900 40.12200
H  48.28800 42.69000 38.95600
H  48.00700 41.55600 41.56300
H  47.10400 41.11300 40.12800
H  46.48900 42.40400 41.21600
H  47.37400 43.80300 37.62400
H  47.46100 45.44700 38.04400
H  45.30800 45.71800 37.19400
H  44.61800 44.64400 38.32100
H  53.76500 40.54700 41.05600
H  52.02400 40.66600 40.78100
H  52.68400 40.23800 42.38000
H  55.28300 44.02000 44.92300
H  56.38800 44.09100 43.52700
H  56.48000 42.75500 44.68800
H  54.94300 48.31700 42.67500
H  53.02900 49.67100 44.52600
H  54.74600 47.18800 45.46700
H  55.10800 48.97400 45.46600
H  56.10300 47.75000 44.58300
H  53.44400 50.72000 41.79400
H  54.93700 50.68200 42.80600
H  52.47500 52.29400 42.95200
H  54.14600 52.82900 43.38600
H  53.09300 51.72900 44.46300
H  48.65600 51.80000 43.08300
H  47.23600 51.69100 41.91300
H  48.78100 51.99400 41.30900
H  46.13300 47.53500 39.03200
H  41.91500 46.49500 39.24100
H  42.05700 46.65000 40.93400
H  42.70200 45.26900 39.96300
Mg 26.84000 49.15700 26.31500
C  25.08000 50.98600 28.82400
C  28.88400 47.96300 28.74700
C  28.91500 48.28700 23.90000
C  24.97300 50.87600 24.06400
N  26.85100 49.28700 28.60600
C  25.98700 50.05800 29.35500
C  26.21600 49.78200 30.89500
C  27.64200 49.00100 30.81600
C  27.80600 48.71900 29.34400
C  28.86500 49.84500 31.37900
C  25.01600 49.03000 31.40800
C  24.54100 49.52500 32.83700
H  24.21600 48.52100 33.96000
N  28.57500 48.15500 26.38500
C  29.22600 47.64400 27.45100
C  30.44100 46.95800 27.01500
C  30.49900 47.18000 25.58100
C  29.28600 47.92900 25.21700
C  31.38900 46.27900 27.91400
C  31.64400 46.72700 24.68900
O  31.60500 47.02100 23.49500
C  32.87100 45.93900 25.26600
N  26.98600 49.69900 24.24100
C  27.82100 48.97300 23.41500
C  27.46900 49.15300 21.89500
C  26.03700 49.92000 22.02000
C  25.92800 50.07800 23.52900
C  28.46600 49.78300 20.90300
C  24.79400 49.16200 21.45900
C  24.33500 47.88600 22.23800
N  25.25000 50.64900 26.36600
C  24.64000 51.25200 25.33900
C  23.55500 52.13500 25.86700
C  23.70300 52.00000 27.22800
C  24.81100 51.17500 27.43900
C  22.64800 52.93000 24.95600
C  23.15200 52.46400 28.55600
O  22.14400 53.16600 28.92800
C  24.03500 51.83800 29.62100
C  24.56600 52.89400 30.55300
O  25.24100 53.86800 30.27900
O  23.83600 52.79100 31.74000
C  23.70500 53.87000 32.74700
H  29.54400 47.50300 29.48600
H  29.61200 47.82300 23.19900
H  24.39900 51.36000 23.27000
H  26.36700 50.64800 31.54000
H  27.74500 48.06100 31.35900
H  28.55200 50.81300 31.77000
H  29.58300 50.04200 30.58400
H  29.31200 49.19500 32.13200
H  25.31100 47.99200 31.55900
H  24.21300 49.06800 30.67200
H  23.53700 49.90700 32.65100
H  25.22300 50.27600 33.23400
H  31.46300 45.25500 27.55000
H  30.95300 46.28900 28.91300
H  32.31300 46.82700 28.10300
H  33.43000 46.53000 25.99000
H  33.52100 45.72200 24.41800
H  32.40900 45.06800 25.73000
H  27.39500 48.13500 21.51300
H  26.20200 50.89700 21.56700
H  29.26700 50.30000 21.43100
H  27.86400 50.57200 20.45400
H  28.83800 49.08500 20.15200
H  24.99700 48.85400 20.43300
H  23.90200 49.78000 21.35100
H  24.56100 47.08400 21.53600
H  23.25100 47.98700 22.28500
H  24.96000 47.68500 23.10900
H  21.98600 53.46500 25.63700
H  22.00000 52.25800 24.39300
H  23.24100 53.57500 24.30700
H  23.54300 51.04900 30.19000
H  24.19600 53.44100 33.62000
H  22.68700 54.08200 33.07600
H  24.22900 54.74200 32.35600

