158

Mg 8.72700 3.25900 26.91300
C  10.11600 1.48500 29.69200
C  6.92400 5.11400 28.98100
C  7.83100 4.75400 24.15800
C  10.22100 0.66700 24.80700
N  8.49100 3.26300 29.11600
C  9.25000 2.61000 30.03300
C  8.91300 3.08800 31.50000
C  7.60500 3.96800 31.25000
C  7.67300 4.11900 29.68400
C  6.33400 3.32300 31.69300
C  10.17800 3.75700 32.11800
C  10.73000 3.10200 33.41800
H  11.49600 4.03600 34.45100
N  7.51600 4.76200 26.60700
C  6.99600 5.46900 27.66400
C  6.32200 6.59700 27.09500
C  6.43500 6.49700 25.68200
C  7.31800 5.31700 25.43800
C  5.51900 7.55900 27.92100
C  5.82100 7.37300 24.69500
O  5.99000 7.04300 23.50200
C  5.24700 8.70700 24.99300
N  8.99800 2.73100 24.78700
C  8.52700 3.63300 23.84900
C  8.81400 3.16400 22.40900
C  9.46800 1.79800 22.62900
C  9.60400 1.70900 24.17200
C  7.65200 3.16500 21.41100
C  10.60000 1.26200 21.68500
C  10.56100 -0.23300 21.33300
N  9.82900 1.38600 27.16000
C  10.38000 0.51700 26.21300
C  11.06200 -0.55600 26.83100
C  11.07700 -0.17200 28.19000
C  10.29900 0.98800 28.38100
C  11.67300 -1.77800 26.24000
C  11.60900 -0.38500 29.49100
O  12.26200 -1.27800 29.92700
C  10.93300 0.61300 30.56400
C  10.02400 -0.11800 31.45800
O  9.22800 -0.96400 31.11400
O  10.30000 0.26500 32.74300
C  9.29000 -0.30600 33.74000
H  6.31200 5.66400 29.69900
H  7.59000 5.45000 23.35100
H  10.72000 -0.05900 24.16100
H  8.51600 2.32700 32.17100
H  7.76300 4.98100 31.62100
H  6.36200 3.22800 32.77900
H  6.19800 2.29400 31.36100
H  5.42100 3.85300 31.42200
H  10.03800 4.81300 32.35200
H  10.88100 3.71100 31.28600
H  11.49700 2.37800 33.14500
H  9.96100 2.63000 34.02900
H  5.76800 7.47200 28.97900
H  4.47400 7.34900 27.69400
H  5.84000 8.56200 27.64200
H  6.05600 9.23600 25.49600
H  4.37800 8.55500 25.63400
H  4.95200 9.15300 24.04300
H  9.52800 3.84200 21.94200
H  8.68200 1.04700 22.56000
H  6.74400 3.65000 21.76800
H  7.27800 2.19900 21.07100
H  7.88300 3.81700 20.56800
H  11.50600 1.33900 22.28800
H  10.80800 1.85200 20.79300
H  9.53800 -0.60900 21.30400
H  11.15800 -0.83100 22.02100
H  11.01000 -0.40900 20.35600
H  12.32400 -1.38700 25.45800
H  10.96600 -2.30100 25.59500
H  12.22900 -2.37300 26.96300
H  11.62900 1.26600 31.09000
H  9.36700 -1.37700 33.93100
H  8.28100 -0.09800 33.38400
H  9.52700 0.12500 34.71200
Mg 30.14700 59.12400 40.28200
C  27.38500 57.06100 39.14200
C  32.14400 56.83300 38.72100
C  32.48600 61.31900 40.68600
C  27.65500 61.50700 41.30700
N  29.80900 57.12800 39.18600
C  28.64400 56.47700 38.88700
C  28.91300 55.33000 37.94300
C  30.47700 55.10000 38.10000
C  30.84900 56.45500 38.71100
C  30.81000 53.82100 38.88500
C  28.60700 55.74600 36.44600
C  27.69100 54.70600 35.75000
H  26.73300 55.32800 34.68000
N  32.02200 59.06100 39.85000
C  32.69700 58.03100 39.23100
C  34.08500 58.30500 39.30200
C  34.24200 59.55500 39.92400
C  32.91000 60.10400 40.13000
C  35.14700 57.33000 38.80000
C  35.60800 60.12100 40.44300
O  36.67700 59.58500 40.23800
C  35.65900 61.30200 41.37700
N  29.96500 61.17500 40.77700
C  31.18400 61.87600 40.86700
C  30.84800 63.28400 41.24700
C  29.34900 63.28100 41.67100
C  28.99500 61.93000 41.19600
C  31.75200 63.91700 42.24800
C  28.45700 64.35700 41.08400
C  27.42900 64.95100 42.08000
N  27.94500 59.18300 40.39200
C  27.15700 60.29800 40.73900
C  25.75200 59.84900 40.61400
C  25.75500 58.61600 39.96500
C  27.15900 58.26300 39.82200
C  24.56800 60.65600 40.96900
C  25.01400 57.46700 39.40000
O  23.82300 57.27400 39.47600
C  26.07300 56.42500 38.81100
C  25.83700 54.97700 39.35900
O  26.41300 54.52400 40.32500
O  24.89200 54.27000 38.59000
C  24.24100 53.18600 39.27200
H  32.84600 56.19700 38.17700
H  33.31700 61.99500 40.89800
H  27.01400 62.28600 41.72500
H  28.33000 54.45900 38.24200
H  30.93100 54.94500 37.12200
H  29.88400 53.44000 39.31500
H  31.37200 54.12500 39.76800
H  31.49800 53.09800 38.44500
H  29.49900 55.91300 35.84200
H  28.15300 56.72900 36.32000
H  27.11100 54.07800 36.42600
H  28.23800 53.93800 35.20200
H  35.14700 57.15000 37.72500
H  35.09700 56.31100 39.18400
H  36.15400 57.63200 39.08800
H  35.01900 61.02100 42.21400
H  35.47500 62.23800 40.85100
H  36.68900 61.45900 41.69900
H  30.83000 63.79300 40.28400
H  29.24800 63.35800 42.75400
H  32.54400 63.24700 42.58100
H  31.28400 64.35600 43.12900
H  32.30100 64.74600 41.80300
H  27.91700 63.93800 40.23500
H  28.88300 65.31100 40.77300
H  26.45000 64.65900 41.69800
H  27.43800 66.03800 41.99900
H  27.54000 64.54200 43.08400
H  23.77300 60.01200 41.34600
H  24.28400 61.18800 40.06100
H  24.89100 61.50800 41.56700
H  25.97300 56.45800 37.72600
H  24.82000 52.68400 40.04700
H  23.92300 52.39100 38.59600
H  23.35300 53.50100 39.82100

