158

Mg 26.51100 0.43000 29.71700
C  28.17200 0.16300 32.77900
C  23.63500 1.07800 31.49900
C  24.66700 0.40900 26.73700
C  29.19600 -0.99600 28.00400
N  25.99400 0.62600 31.90700
C  26.86900 0.58900 32.98500
C  26.21100 0.94100 34.27500
C  24.76600 1.35200 33.81200
C  24.78800 0.98900 32.31400
C  23.64300 0.42500 34.47800
C  26.94700 2.04800 35.10700
C  27.45700 1.80000 36.50000
H  27.21500 2.90300 37.48700
N  24.46500 0.78500 29.15400
C  23.47600 0.96700 30.06500
C  22.22800 1.16600 29.38200
C  22.53800 1.09700 28.01200
C  23.96100 0.75100 27.94100
C  20.92900 1.50700 29.98100
C  21.62300 1.29600 26.76500
O  22.00100 1.01900 25.64600
C  20.31000 1.85900 26.91000
N  26.85600 -0.21600 27.65900
C  25.99400 -0.06500 26.64800
C  26.59600 -0.27400 25.22300
C  28.06000 -0.79900 25.70200
C  28.06100 -0.70400 27.17700
C  25.87100 -1.23500 24.25400
C  29.30300 -0.10800 25.11400
C  29.28900 1.37000 25.06100
N  28.37200 -0.30900 30.26100
C  29.33800 -0.80600 29.44300
C  30.44700 -1.14500 30.26600
C  30.09000 -0.67800 31.55800
C  28.74500 -0.20000 31.52000
C  31.65000 -1.79400 29.71900
C  30.53300 -0.50900 32.92700
O  31.59300 -0.89800 33.35300
C  29.32700 0.04600 33.81200
C  29.09300 -0.95600 34.88400
O  28.37600 -1.93500 34.85300
O  29.84700 -0.61700 35.94800
C  29.94100 -1.68500 36.94000
H  22.78100 1.49200 32.03800
H  24.35000 0.42100 25.69200
H  30.03900 -1.43400 27.46500
H  26.38400 0.02000 34.83100
H  24.39400 2.36800 33.94200
H  24.09200 -0.11200 35.31400
H  23.22000 -0.33100 33.81800
H  22.81100 1.05500 34.79200
H  26.23700 2.87500 35.08200
H  27.81800 2.44800 34.58800
H  28.54400 1.75600 36.42000
H  26.85500 0.95600 36.83600
H  20.88700 1.30000 31.05000
H  20.12100 0.94800 29.50900
H  20.72200 2.55500 29.76300
H  20.03400 2.34600 25.97500
H  20.30100 2.60300 27.70700
H  19.69600 1.00700 27.20400
H  26.67800 0.71800 24.78000
H  28.18600 -1.85600 25.46500
H  24.91100 -1.47600 24.71100
H  26.44300 -2.15100 24.11000
H  25.61700 -0.82600 23.27600
H  29.25500 -0.42000 24.07100
H  30.15400 -0.59000 25.59500
H  28.60200 1.82600 25.77400
H  29.40600 1.73200 24.03900
H  30.28800 1.51100 25.47200
H  32.08500 -2.46800 30.45700
H  32.43600 -1.07500 29.48600
H  31.42100 -2.24400 28.75300
H  29.58400 0.96400 34.34100
H  29.33100 -1.53500 37.83100
H  30.93300 -1.63700 37.38800
H  29.78100 -2.67900 36.52100
Mg 48.04600 15.73000 27.84600
C  46.08700 15.60800 30.74800
C  50.33200 17.67400 29.67000
C  49.64000 16.46300 24.94300
C  45.46000 14.30100 26.02800
N  48.08000 16.58500 29.96100
C  47.24100 16.33400 30.96400
C  47.86800 16.77900 32.31700
C  49.04300 17.69800 31.89700
C  49.11700 17.36800 30.37600
C  48.75900 19.19000 32.16000
C  48.39200 15.62800 33.24000
C  48.37800 16.02600 34.73100
H  47.62100 17.28100 35.23600
N  49.85100 16.69600 27.37500
C  50.63800 17.41200 28.31100
C  51.90700 17.83600 27.60300
C  51.76500 17.43900 26.17400
C  50.40000 16.79900 26.13400
C  52.98400 18.62500 28.31500
C  52.72900 17.58600 25.05500
O  52.38000 17.28900 23.94000
C  54.15400 18.15400 25.36800
N  47.49400 15.68500 25.82800
C  48.35300 15.96200 24.79700
C  47.63200 15.77900 23.41400
C  46.48400 14.82800 23.81300
C  46.53000 14.89400 25.36100
C  47.10700 17.20100 22.94000
C  46.42800 13.32200 23.16800
C  46.99500 12.12600 24.07800
N  46.15500 14.98300 28.22200
C  45.22200 14.43300 27.43400
C  44.14900 13.91100 28.26700
C  44.40800 14.39500 29.50200
C  45.67800 15.05700 29.49100
C  43.09700 13.01200 27.84900
C  43.89100 14.53600 30.84600
O  42.82100 14.14400 31.31800
C  44.99400 15.25400 31.72200
C  44.41200 16.21700 32.65100
O  44.27700 17.39000 32.26300
O  43.98600 15.73400 33.87400
C  43.34600 16.53200 34.91400
H  51.03000 18.23000 30.30000
H  50.08100 16.68000 23.96800
H  44.71900 13.74700 25.44800
H  47.00100 17.25100 32.77900
H  49.96500 17.47900 32.43500
H  47.70600 19.36400 32.37700
H  48.80100 19.70000 31.19700
H  49.34600 19.80700 32.84000
H  49.41800 15.34600 33.00700
H  47.75700 14.77200 33.01400
H  49.37200 15.82400 35.13200
H  47.76800 15.22000 35.13800
H  53.93400 18.11200 28.16600
H  52.75900 18.79800 29.36700
H  53.17500 19.59900 27.86400
H  54.03100 19.10500 25.88600
H  54.61100 18.32700 24.39400
H  54.88000 17.48700 25.83500
H  48.41600 15.34100 22.79600
H  45.52900 15.26800 23.52600
H  46.05100 17.42500 23.08700
H  47.41100 17.21900 21.89300
H  47.68300 18.01300 23.38500
H  46.95100 13.40200 22.21500
H  45.37500 13.13500 22.95800
H  46.16600 11.42200 24.15500
H  47.29600 12.38000 25.09400
H  47.86900 11.66200 23.62300
H  43.35400 12.28600 27.07800
H  42.39200 13.77100 27.50900
H  42.80800 12.25000 28.57200
H  45.31200 14.36300 32.26400
H  42.25900 16.57900 34.85000
H  43.63100 17.58000 34.81700
H  43.68800 16.08500 35.84700

