158

Mg -1.96800 17.85600 27.30000
C  -2.46100 15.31400 29.70100
C  -2.87400 20.13100 29.69900
C  -2.37600 20.15300 24.91100
C  -2.05700 15.34400 24.94000
N  -2.46700 17.70900 29.51600
C  -2.53600 16.59900 30.30500
C  -2.72000 16.94400 31.80000
C  -3.06900 18.50200 31.69200
C  -2.72800 18.81400 30.24000
C  -4.50500 18.95800 32.18200
C  -1.52300 16.70100 32.71700
C  -1.80300 16.03900 34.07100
H  -0.85900 16.36100 35.29700
N  -2.27200 19.90600 27.34800
C  -2.62300 20.63100 28.43900
C  -2.71300 22.03600 28.09200
C  -2.43400 22.16700 26.68400
C  -2.33700 20.71400 26.19200
C  -3.01500 23.17600 29.03100
C  -2.15400 23.42800 25.84900
O  -1.84100 23.34700 24.67500
C  -2.01300 24.70200 26.54400
N  -2.04400 17.79200 25.23200
C  -2.32200 18.88000 24.45100
C  -2.40200 18.44200 22.95300
C  -2.27100 16.88600 23.02400
C  -2.01200 16.65100 24.49200
C  -3.68300 18.91700 22.17900
C  -1.13600 16.37500 22.11400
C  0.25600 16.34800 22.70100
N  -2.13700 15.74700 27.19200
C  -2.12000 14.88000 26.20800
C  -2.27300 13.52700 26.57200
C  -2.33100 13.59600 27.99000
C  -2.34300 14.98900 28.29400
C  -2.40700 12.26100 25.78100
C  -2.51800 12.89100 29.23900
O  -2.44600 11.61400 29.35600
C  -2.61600 13.95300 30.38900
C  -1.60800 13.48400 31.43100
O  -0.38800 13.66100 31.37800
O  -2.29800 12.75400 32.33600
C  -1.52900 12.23600 33.50000
H  -3.15400 20.87500 30.44900
H  -2.55700 20.90500 24.14000
H  -2.05000 14.57000 24.17000
H  -3.57700 16.41500 32.21700
H  -2.34600 19.19100 32.12900
H  -5.14900 19.05500 31.30800
H  -4.35000 19.87500 32.75000
H  -4.80800 18.19300 32.89700
H  -1.02200 17.66300 32.82800
H  -0.79900 16.11900 32.14600
H  -1.87600 14.95700 33.96800
H  -2.79700 16.36600 34.37700
H  -2.15400 23.82300 29.19500
H  -3.51500 22.96200 29.97600
H  -3.73400 23.74800 28.44500
H  -1.78900 25.50200 25.83800
H  -1.18700 24.54700 27.23800
H  -2.99200 25.00000 26.91700
H  -1.65800 18.93900 22.33100
H  -3.16900 16.33900 22.73800
H  -3.53400 19.67400 21.40900
H  -4.41800 19.44300 22.78700
H  -4.18800 18.04200 21.77000
H  -1.30300 16.98800 21.22800
H  -1.34100 15.35000 21.80600
H  0.46200 15.27800 22.71000
H  0.43300 16.58600 23.75000
H  0.99700 16.89400 22.11700
H  -2.33000 11.35700 26.38500
H  -1.57000 12.31000 25.08600
H  -3.31900 12.22200 25.18500
H  -3.61000 13.71700 30.77000
H  -1.51100 11.14600 33.52200
H  -1.91300 12.65900 34.42800
H  -0.50100 12.59400 33.56700
Mg 0.83000 8.48100 26.07600
C  1.52200 10.27600 29.10300
C  1.49800 5.56200 27.89200
C  0.59400 6.75000 23.30000
C  1.23700 11.45500 24.36100
N  1.56400 8.04100 28.25200
C  1.44900 8.90200 29.29700
C  1.30000 8.21500 30.61100
C  1.59400 6.72800 30.24200
C  1.58800 6.75800 28.68500
C  2.96400 6.29600 30.80500
C  -0.06700 8.54500 31.28300
C  -0.02800 8.67600 32.81200
H  1.14600 8.02400 33.57600
N  0.94800 6.49100 25.66900
C  1.18800 5.43400 26.54500
C  1.18400 4.21000 25.79900
C  0.69400 4.55000 24.49500
C  0.74800 5.99400 24.42300
C  1.63000 2.89700 26.39500
C  0.23000 3.68700 23.31400
O  -0.00800 4.06000 22.20600
C  0.12600 2.29500 23.50400
N  0.71700 9.02800 24.18600
C  0.64400 8.13900 23.18800
C  0.69400 8.80400 21.75900
C  0.45600 10.31600 22.18400
C  0.91500 10.32100 23.64400
C  2.05900 8.46700 21.07300
C  -1.01300 10.70700 22.06600
C  -1.41000 11.68100 20.92700
N  1.29200 10.45900 26.57300
C  1.32400 11.59200 25.73100
C  1.63800 12.75300 26.55200
C  1.67400 12.28300 27.91700
C  1.45800 10.92000 27.80500
C  1.88500 14.13100 26.08900
C  1.85000 12.73400 29.25900
O  2.07000 13.80900 29.78300
C  1.66000 11.48800 30.12300
C  2.73700 11.26800 31.13300
O  3.85800 10.78800 30.92200
O  2.38300 11.80200 32.41600
C  3.35100 11.75100 33.51900
H  1.62400 4.69700 28.54700
H  0.59200 6.28800 22.31100
H  1.39800 12.32600 23.72200
H  2.10500 8.58900 31.24300
H  0.79000 6.16000 30.70900
H  2.67100 5.38900 31.33400
H  3.31500 6.95400 31.59900
H  3.67600 5.98100 30.04200
H  -0.68300 7.69500 30.99200
H  -0.55800 9.44100 30.90300
H  -0.93100 8.16400 33.14400
H  -0.12100 9.70700 33.15500
H  1.12000 2.02300 25.99000
H  1.48300 2.79300 27.47000
H  2.69600 2.83600 26.17700
H  -0.19600 1.82600 22.57400
H  -0.58700 2.02800 24.28300
H  1.14600 2.00400 23.75600
H  -0.05500 8.38900 21.08600
H  1.01500 10.89600 21.45000
H  2.36600 7.46100 21.36000
H  2.86000 9.15100 21.35400
H  1.87300 8.32700 20.00800
H  -1.33400 11.27100 22.94200
H  -1.69100 9.85600 22.13700
H  -0.53600 11.63100 20.27700
H  -1.63100 12.68300 21.29400
H  -2.29800 11.35700 20.38500
H  2.14300 14.76000 26.94100
H  0.91000 14.50800 25.78400
H  2.49300 14.06200 25.18700
H  0.78600 11.48200 30.77500
H  3.49600 12.70400 34.02700
H  4.33400 11.37100 33.24300
H  2.88500 11.07200 34.23300

