158

Mg 24.99700 -7.48200 47.37200
C  27.04200 -5.05000 45.83800
C  22.38300 -6.26200 45.24900
C  23.08500 -10.31000 47.94100
C  27.74600 -8.98700 48.71100
N  24.77200 -5.81200 45.63000
C  25.75900 -4.94100 45.28100
C  25.18000 -3.93400 44.27300
C  23.57800 -4.14700 44.31200
C  23.51700 -5.44000 45.15500
C  22.91800 -3.00200 45.06100
C  25.86000 -4.19600 42.87200
C  26.55200 -2.98800 42.18200
H  25.75100 -2.26200 41.06600
N  22.93400 -8.15100 46.72900
C  22.07600 -7.53600 45.96100
C  20.81200 -8.12200 46.01700
C  20.91200 -9.25900 46.82400
C  22.35600 -9.31400 47.21700
C  19.65500 -7.47300 45.30200
C  19.91600 -10.32400 47.12100
O  18.82700 -10.27500 46.49700
C  20.11100 -11.32400 48.21900
N  25.37300 -9.33200 48.20200
C  24.45700 -10.33100 48.32000
C  25.02000 -11.49200 49.18700
C  26.52100 -11.18900 49.08600
C  26.54900 -9.71500 48.63900
C  24.41300 -11.65400 50.68600
C  27.40200 -12.15700 48.11300
C  28.54700 -13.06400 48.85500
N  26.91800 -6.96300 47.58000
C  27.96900 -7.72700 48.13100
C  29.22200 -6.99600 48.01200
C  28.84900 -5.93100 47.17800
C  27.47000 -5.98000 46.83400
C  30.54500 -7.31100 48.61000
C  29.30300 -4.70900 46.51000
O  30.41400 -4.21400 46.50500
C  28.16900 -4.17300 45.53700
C  27.98900 -2.75400 45.78600
O  27.32000 -2.31100 46.72800
O  28.76200 -2.02300 44.91600
C  28.78000 -0.55500 45.22100
H  21.52200 -5.85200 44.71800
H  22.57000 -11.23700 48.20100
H  28.60200 -9.57100 49.05600
H  25.49300 -2.99300 44.72400
H  23.17200 -4.22400 43.30400
H  22.69500 -3.40800 46.04800
H  21.99400 -2.72700 44.55300
H  23.47900 -2.12600 45.38500
H  25.04100 -4.51100 42.22600
H  26.63700 -4.95300 42.98200
H  27.49200 -3.34400 41.76100
H  26.84100 -2.20900 42.88700
H  18.68700 -7.97100 45.34400
H  19.97800 -7.40000 44.26400
H  19.43800 -6.51900 45.78200
H  19.17200 -11.65200 48.66500
H  20.74300 -10.70300 48.85300
H  20.55500 -12.20200 47.74800
H  24.88600 -12.42200 48.63400
H  27.03300 -11.17800 50.04700
H  25.16500 -11.37900 51.42600
H  24.13400 -12.69800 50.83000
H  23.54700 -11.00200 50.79300
H  27.83300 -11.49000 47.36600
H  26.80000 -12.90600 47.59800
H  28.41700 -12.92000 49.92800
H  29.50500 -12.70800 48.47500
H  28.44700 -14.14100 48.72000
H  30.93600 -8.19200 48.10000
H  30.54700 -7.46900 49.68800
H  31.22600 -6.49100 48.37800
H  28.54000 -4.33400 44.52500
H  27.73900 -0.23700 45.27600
H  29.43000 0.02000 44.56100
H  29.06900 -0.32900 46.24800
Mg 40.43600 8.87600 28.90200
C  42.33100 10.01700 31.70100
C  38.62600 7.12100 31.22600
C  38.91700 7.44200 26.43400
C  42.97800 9.97100 26.81900
N  40.51500 8.58500 31.17100
C  41.29700 9.23600 32.13000
C  40.90100 8.93000 33.56800
C  39.85100 7.75300 33.31000
C  39.68400 7.77800 31.82800
C  40.36600 6.39500 33.82600
C  40.29900 10.14000 34.22600
C  39.58600 9.90600 35.55600
H  39.97900 10.70700 36.71300
N  38.84200 7.55900 28.77900
C  38.22600 6.95700 29.85900
C  37.07500 6.22400 29.38700
C  37.08100 6.44000 27.92400
C  38.28700 7.21400 27.68300
C  36.05800 5.49400 30.21200
C  36.07000 6.02600 26.91300
O  36.08700 6.44800 25.76500
C  35.05100 5.07000 27.34000
N  40.90500 8.65200 26.92700
C  40.16200 8.00500 26.11200
C  40.62300 8.11300 24.59600
C  41.82500 9.01700 24.69800
C  41.92600 9.25600 26.24400
C  40.87600 6.68400 23.93900
C  41.70100 10.38600 23.88100
C  41.03600 11.70300 24.54000
N  42.26100 9.77100 29.13800
C  43.15100 10.16300 28.19000
C  44.27400 10.87900 28.82700
C  43.95600 10.92900 30.20900
C  42.81100 10.13700 30.35800
C  45.43000 11.56000 28.17300
C  44.30600 11.42800 31.54800
O  45.28400 12.05400 31.85700
C  43.29000 10.81400 32.58300
C  44.01400 10.09900 33.53000
O  44.66100 9.08000 33.31600
O  43.92500 10.70400 34.74700
C  44.34600 9.88900 35.89000
H  38.05700 6.56800 31.97500
H  38.44600 6.94600 25.58300
H  43.71600 10.41900 26.15100
H  41.74200 8.63000 34.19300
H  38.92200 7.89700 33.86200
H  40.80100 5.73400 33.07600
H  39.59500 5.88000 34.39900
H  41.13800 6.51800 34.58500
H  39.65700 10.68100 33.53100
H  41.13700 10.81600 34.39400
H  39.71600 8.85800 35.82900
H  38.53300 10.14200 35.40400
H  35.04900 5.75600 29.89300
H  36.10300 5.87000 31.23500
H  36.20100 4.41400 30.18500
H  34.31500 5.42700 28.06000
H  35.52800 4.19600 27.78400
H  34.67900 4.74200 26.36900
H  39.84500 8.54900 23.96900
H  42.76600 8.63500 24.30300
H  40.89900 5.85200 24.64300
H  41.75300 6.78500 23.30100
H  40.02200 6.46600 23.29700
H  41.18000 10.12100 22.96200
H  42.71900 10.65800 23.60100
H  40.52400 11.47400 25.47400
H  40.29000 12.05200 23.82600
H  41.73700 12.53800 24.58000
H  46.33600 11.06600 28.52500
H  45.53400 12.63100 28.35000
H  45.31900 11.46600 27.09300
H  42.61100 11.55700 33.00200
H  43.57500 9.73300 36.64400
H  45.12500 10.48600 36.36400
H  44.82700 8.92600 35.72100

