158

Mg 1.19700 8.58100 27.50100
C  2.16600 10.84700 30.01400
C  1.62200 6.12800 29.64400
C  0.76500 6.65300 24.92500
C  1.54400 11.32500 25.27100
N  1.81300 8.50300 29.63500
C  1.96500 9.51400 30.50100
C  1.88100 9.09100 31.93300
C  2.14400 7.55000 31.69800
C  1.80000 7.32300 30.23300
C  3.64000 7.09700 32.06500
C  0.50700 9.49200 32.48300
C  0.29200 9.58000 33.99800
H  1.49600 9.17500 34.87500
N  1.15500 6.55800 27.32400
C  1.42400 5.70100 28.31400
C  1.33000 4.30700 27.82700
C  1.02200 4.39000 26.43400
C  0.98600 5.91700 26.13500
C  1.61200 3.09800 28.68900
C  0.86100 3.34100 25.36400
O  0.33900 3.55700 24.23400
C  1.12800 1.89200 25.71700
N  1.33200 8.92600 25.43900
C  0.94500 7.94200 24.63400
C  0.99500 8.35400 23.13500
C  0.97000 9.92600 23.22800
C  1.32800 10.08100 24.71000
C  2.22200 7.77400 22.42400
C  -0.37300 10.58500 22.99400
C  -0.39300 11.85300 22.10500
N  1.71400 10.69100 27.57500
C  1.80700 11.65200 26.62200
C  2.18200 12.94900 27.15300
C  2.36200 12.64700 28.49400
C  2.03100 11.29400 28.73700
C  2.20500 14.19300 26.38400
C  2.78000 13.16300 29.78600
O  3.25000 14.22900 30.17300
C  2.56700 12.08600 30.84200
C  3.74700 11.87300 31.76200
O  4.77800 11.20500 31.58800
O  3.42900 12.46700 32.95000
C  4.62500 12.61800 33.84900
H  1.68300 5.22000 30.24700
H  0.61200 5.98000 24.07800
H  1.48800 12.22800 24.66000
H  2.63400 9.51800 32.59500
H  1.48900 6.93300 32.31300
H  3.65700 6.71700 33.08700
H  4.20000 8.03200 32.03200
H  4.08400 6.34400 31.41400
H  -0.24800 8.80800 32.09200
H  0.20200 10.48000 32.13900
H  -0.57200 9.01100 34.34300
H  0.14000 10.61700 34.29800
H  1.04700 2.24300 28.31700
H  1.21500 3.26000 29.69100
H  2.68300 2.90200 28.73300
H  2.06200 1.73600 26.25700
H  1.22300 1.36800 24.76600
H  0.24600 1.59300 26.28300
H  0.08100 7.98700 22.66700
H  1.66400 10.34400 22.49900
H  2.57000 8.38000 21.58700
H  1.74600 6.90800 21.96300
H  2.99000 7.54000 23.16100
H  -0.83700 10.82400 23.95100
H  -1.14300 9.95900 22.54400
H  -0.25400 11.40300 21.12200
H  0.51500 12.44800 22.21100
H  -1.30600 12.36400 22.40900
H  1.24600 14.70900 26.42300
H  2.46300 14.08400 25.33100
H  2.89600 14.91000 26.82800
H  1.76200 12.38400 31.51300
H  5.31500 13.33400 33.40200
H  5.15500 11.73600 34.20900
H  4.29400 13.08800 34.77500
Mg 55.51100 22.59500 44.78200
C  53.42500 24.96200 43.52900
C  53.12900 20.23400 43.89200
C  57.84500 20.19800 45.16300
C  57.89200 24.99300 45.35200
N  53.57500 22.61600 43.69000
C  52.90100 23.71500 43.18800
C  51.54300 23.30000 42.71000
C  51.34800 21.83700 43.33600
C  52.72700 21.54500 43.72800
C  50.32200 21.71600 44.49900
C  51.33700 23.66800 41.22200
C  50.05600 24.40300 40.91100
H  49.25100 23.86900 39.75200
N  55.46400 20.57800 44.39500
C  54.42700 19.75500 44.03500
C  54.81100 18.36900 44.06000
C  56.20000 18.34800 44.33500
C  56.60200 19.72600 44.63300
C  53.87600 17.25600 43.87500
C  57.03300 17.07900 44.52000
O  56.44300 15.96300 44.46300
C  58.47400 17.05900 45.01700
N  57.54300 22.51000 45.32800
C  58.32100 21.45400 45.48100
C  59.83700 21.71900 45.85100
C  59.80400 23.35000 45.74000
C  58.30300 23.65100 45.47500
C  60.25400 21.23600 47.28700
C  60.69800 23.94700 44.53100
C  61.44800 25.25100 44.79700
N  55.63700 24.55700 44.65800
C  56.60700 25.44700 45.00800
C  56.11700 26.80700 44.83900
C  54.84300 26.70300 44.32800
C  54.58600 25.29800 44.21500
C  56.85100 28.09700 45.19400
C  53.65200 27.38000 43.86600
O  53.38100 28.57500 43.89100
C  52.82800 26.31200 43.15000
C  52.92000 26.54700 41.69400
O  53.87500 26.23100 40.95500
O  51.86300 27.30400 41.35200
C  51.93100 28.12000 40.14900
H  52.38500 19.47100 43.65300
H  58.64900 19.51700 45.44600
H  58.54700 25.85500 45.49200
H  50.89300 23.89900 43.34800
H  51.05500 21.08600 42.60100
H  50.85800 21.19500 45.29300
H  49.49100 21.09800 44.15700
H  49.93400 22.71600 44.68800
H  51.39000 22.73600 40.66000
H  52.14100 24.31900 40.88000
H  50.26500 25.40300 40.53000
H  49.42000 24.43400 41.79500
H  54.02600 16.94000 42.84300
H  52.82900 17.48500 44.07400
H  54.11100 16.42700 44.54300
H  58.53300 17.40900 46.04800
H  59.07700 17.66400 44.33900
H  58.94100 16.07500 45.05100
H  60.37600 21.27300 45.01500
H  60.05700 23.86300 46.66700
H  59.39600 20.75200 47.75300
H  60.56300 22.13400 47.82200
H  61.02000 20.47200 47.15100
H  60.07600 24.10700 43.65000
H  61.43600 23.17800 44.30100
H  61.33200 25.79900 43.86100
H  62.52800 25.20300 44.93700
H  60.97800 25.89800 45.53800
H  56.36500 28.64700 46.00000
H  56.72000 28.76400 44.34100
H  57.93200 27.98300 45.27500
H  51.77200 26.37200 43.41300
H  51.28500 28.99800 40.15100
H  51.57600 27.50500 39.32300
H  52.96800 28.39000 39.95100

