158

Mg 25.46100 1.00400 30.04100
C  27.73700 1.11100 32.88400
C  22.90600 1.69000 32.17600
C  23.34200 0.48800 27.54300
C  28.09300 0.15900 27.97100
N  25.39800 1.47300 32.27500
C  26.37800 1.48200 33.20300
C  25.81200 1.84800 34.64600
C  24.25900 1.88000 34.40400
C  24.18300 1.60900 32.86600
C  23.38500 0.97100 35.28800
C  26.33000 3.17200 35.29300
C  27.19600 3.17500 36.51000
H  26.97400 4.17500 37.65300
N  23.45200 1.08400 29.91000
C  22.56800 1.37500 30.90200
C  21.20400 1.25000 30.42400
C  21.31600 0.85900 29.04100
C  22.74700 0.73800 28.81000
C  20.05100 1.72700 31.36600
C  20.18100 0.80400 28.01800
O  20.42200 0.60000 26.81600
C  18.69500 0.95900 28.47400
N  25.64800 0.46400 28.05600
C  24.66400 0.42400 27.20000
C  25.18500 0.31500 25.72500
C  26.72600 0.18100 25.84600
C  26.84900 0.30200 27.39500
C  24.47200 -0.74600 24.83200
C  27.74200 1.22900 25.15800
C  27.74100 2.68500 25.60300
N  27.50200 0.70200 30.30300
C  28.43800 0.38500 29.36700
C  29.79000 0.50100 29.96800
C  29.54800 0.70800 31.33700
C  28.15700 0.80400 31.49500
C  31.04700 0.25600 29.19900
C  30.15900 0.88400 32.62400
O  31.36400 0.92600 32.85600
C  29.00100 1.14000 33.71400
C  28.93200 0.15700 34.81700
O  28.27900 -0.90000 34.80100
O  29.74900 0.65200 35.86600
C  29.64700 0.03100 37.21500
H  22.10800 1.96100 32.87000
H  22.60200 0.40000 26.74500
H  29.02000 -0.20900 27.52600
H  25.92100 1.01400 35.34000
H  23.81300 2.87400 34.44800
H  22.58100 1.53100 35.76500
H  23.95900 0.48600 36.07800
H  22.90200 0.23200 34.65000
H  25.48300 3.83400 35.47600
H  26.87300 3.67700 34.49400
H  28.21200 3.31400 36.14100
H  27.15200 2.15700 36.89700
H  19.22300 1.02600 31.26600
H  19.74200 2.68700 30.95200
H  20.25600 1.73600 32.43700
H  18.07800 1.11200 27.58800
H  18.80400 1.88200 29.04400
H  18.33900 0.07200 28.99800
H  24.92300 1.27100 25.27100
H  27.10600 -0.83400 25.73200
H  25.09800 -1.63700 24.88000
H  24.31400 -0.42800 23.80100
H  23.45100 -0.87300 25.19200
H  27.45900 1.17700 24.10700
H  28.75300 0.84300 25.29000
H  27.16900 2.89700 26.50700
H  27.45400 3.33100 24.77300
H  28.77500 2.91400 25.86000
H  31.19400 -0.82200 29.12100
H  31.90500 0.59700 29.77800
H  31.12400 0.51000 28.14200
H  29.19900 2.11200 34.16600
H  30.60300 -0.12600 37.71500
H  29.29400 -0.99300 37.09500
H  28.89900 0.49600 37.85800
Mg 44.56200 4.04500 47.29700
C  42.40700 6.75400 47.00800
C  41.74500 1.88100 47.21800
C  46.61800 1.42000 47.22300
C  47.23500 6.23900 47.26800
N  42.37700 4.33200 47.01000
C  41.75700 5.49900 46.86800
C  40.32200 5.26800 46.68700
C  39.93600 3.77200 47.02600
C  41.41300 3.21100 47.11000
C  39.03900 3.56100 48.24000
C  40.01600 5.60800 45.14400
C  39.06300 6.67600 44.80100
H  39.42100 7.64300 43.66800
N  44.20900 2.00200 47.28200
C  43.05700 1.30600 47.28200
C  43.29500 -0.11800 47.08900
C  44.69800 -0.27100 47.19100
C  45.22000 1.10700 47.17600
C  42.30500 -1.15900 46.79900
C  45.44000 -1.60500 47.11100
O  44.88100 -2.67500 47.24900
C  46.88300 -1.73600 46.81200
N  46.67300 3.86400 47.25800
C  47.30000 2.65700 47.18800
C  48.86100 2.84500 47.20100
C  49.02200 4.37900 47.11500
C  47.59400 4.89700 47.25700
C  49.50800 2.34800 48.48100
C  49.62500 4.92000 45.76800
C  51.10300 5.43000 45.89600
N  44.83100 6.17400 47.12300
C  45.98600 6.90100 47.15100
C  45.56000 8.30200 47.14100
C  44.17100 8.34300 47.14200
C  43.77500 6.97700 47.12000
C  46.48000 9.55500 47.28000
C  42.97300 9.17700 47.16000
O  42.84200 10.36300 47.20900
C  41.80700 8.16000 47.05200
C  40.91100 8.25400 48.27100
O  41.07200 7.62000 49.33000
O  40.01500 9.25200 48.04900
C  39.01200 9.52500 49.05300
H  40.82900 1.28900 47.18200
H  47.32300 0.58700 47.18400
H  48.04600 6.95500 47.42000
H  39.70800 5.95800 47.26600
H  39.58400 3.14200 46.20900
H  38.57500 2.57500 48.23200
H  38.35600 4.40100 48.37300
H  39.76000 3.63300 49.05400
H  39.66500 4.73000 44.60200
H  40.95600 5.85500 44.65100
H  38.99100 7.42400 45.59000
H  38.12300 6.16500 44.59200
H  42.31100 -1.68900 45.84600
H  41.28300 -0.88200 47.05800
H  42.53400 -2.01800 47.42900
H  46.98200 -1.00100 46.01300
H  47.24700 -2.65800 46.35800
H  47.53200 -1.47500 47.64800
H  49.17600 2.19800 46.38100
H  49.47900 4.86100 47.97900
H  50.16700 1.52000 48.22200
H  48.75200 1.94700 49.15600
H  50.14900 3.10600 48.93200
H  48.92700 5.69300 45.44500
H  49.67000 4.13100 45.01700
H  51.61900 5.41700 44.93600
H  51.64800 4.75900 46.56000
H  51.09600 6.46400 46.24100
H  46.78800 9.75700 48.30600
H  46.08000 10.47400 46.85100
H  47.34200 9.27800 46.67300
H  41.30400 8.41900 46.12000
H  38.76100 10.58600 49.03700
H  39.34400 9.30700 50.06700
H  38.06000 9.01800 48.89400

