158

Mg 24.36100 -4.24700 45.81300
C  26.69700 -2.14400 44.12100
C  22.00000 -3.42800 43.44400
C  22.51200 -7.16200 46.66600
C  27.05500 -5.68300 47.44900
N  24.38000 -2.95900 43.99000
C  25.39900 -2.12700 43.51900
C  24.89900 -1.16400 42.40500
C  23.26200 -1.39600 42.51600
C  23.17900 -2.70000 43.36700
C  22.47600 -0.12700 42.99300
C  25.60100 -1.44000 41.10600
C  25.67200 -0.37600 39.95300
H  25.14600 -0.79000 38.54900
N  22.42300 -5.04300 45.25900
C  21.60700 -4.49700 44.30200
C  20.35500 -5.25200 44.28800
C  20.55700 -6.40000 45.15500
C  21.89500 -6.19500 45.81700
C  19.15500 -4.84100 43.30800
C  19.60400 -7.60900 45.32800
O  18.65800 -7.66000 44.59600
C  19.79200 -8.84500 46.19000
N  24.76300 -6.09200 46.82600
C  23.78700 -6.96500 47.24000
C  24.30400 -8.08100 48.22100
C  25.69800 -7.48200 48.57600
C  25.88900 -6.39400 47.48900
C  23.51900 -8.56900 49.36700
C  26.85100 -8.55200 48.67000
C  27.98600 -8.37100 49.69600
N  26.46400 -4.00100 45.91400
C  27.42900 -4.60100 46.57500
C  28.72000 -3.93600 46.40000
C  28.49100 -2.87300 45.44200
C  27.11000 -3.03600 45.14500
C  30.00300 -4.22800 47.25500
C  29.08000 -1.82500 44.67000
O  30.20100 -1.31400 44.54500
C  27.93400 -1.35300 43.69000
C  27.65500 0.07200 43.77800
O  27.03700 0.54800 44.72000
O  28.10700 0.89100 42.69600
C  27.86500 2.31300 42.53300
H  21.14400 -3.20700 42.80300
H  21.92000 -8.01400 47.01000
H  27.80700 -6.02700 48.16200
H  25.14200 -0.15000 42.72200
H  22.73500 -1.69800 41.61100
H  23.20000 0.68600 43.05600
H  21.95800 -0.32900 43.93000
H  21.80100 0.31900 42.26200
H  25.10700 -2.27100 40.60300
H  26.59600 -1.83700 41.30600
H  26.73000 -0.13500 39.85400
H  25.08700 0.39000 40.46200
H  19.37600 -5.53700 42.50000
H  19.24200 -3.80000 42.99600
H  18.27000 -5.10100 43.88900
H  20.57100 -9.49000 45.78400
H  18.82600 -9.35100 46.19100
H  19.96200 -8.53300 47.22100
H  24.44500 -8.91800 47.53600
H  25.65300 -7.02700 49.56500
H  22.53800 -8.09400 49.38400
H  23.92400 -8.52500 50.37800
H  23.15900 -9.59800 49.36600
H  27.31800 -8.42000 47.69400
H  26.48400 -9.57500 48.75100
H  28.37200 -9.32400 50.05800
H  27.64700 -7.89300 50.61500
H  28.80300 -7.75300 49.32200
H  30.11600 -3.56600 48.11400
H  30.89100 -4.05700 46.64600
H  29.97600 -5.29100 47.49600
H  28.29700 -1.64300 42.70400
H  27.15200 2.81500 43.18700
H  27.52600 2.43000 41.50400
H  28.85000 2.77400 42.60200
Mg 10.23900 47.23400 26.30700
C  8.44300 47.36900 29.27900
C  12.92600 48.45200 27.96900
C  11.83900 47.02300 23.40100
C  7.14600 46.69100 24.59300
N  10.66400 47.81100 28.32500
C  9.82200 47.71200 29.43800
C  10.51900 48.21900 30.65500
C  11.74500 49.06300 30.07900
C  11.78200 48.45600 28.67100
C  11.62100 50.65800 30.08500
C  10.84300 47.12500 31.66400
C  10.19800 47.31700 33.07700
H  10.40900 46.17100 34.11400
N  12.17400 47.55500 25.82500
C  13.18000 47.99900 26.65600
C  14.48400 47.87500 25.99800
C  14.15700 47.36100 24.69100
C  12.67600 47.37900 24.51300
C  15.80000 47.99800 26.81300
C  15.17700 47.06500 23.56000
O  14.76700 46.84000 22.39800
C  16.61800 47.01800 23.85200
N  9.55700 46.93600 24.25300
C  10.45900 46.84800 23.24800
C  9.73100 46.38400 21.97000
C  8.31000 46.13600 22.52100
C  8.33500 46.69900 23.87400
C  9.95900 47.26200 20.69800
C  7.79100 44.73400 22.45100
C  8.62900 43.65600 23.10600
N  8.14900 47.10700 26.75500
C  7.07400 46.86200 25.98600
C  5.91300 46.72100 26.86000
C  6.35800 46.93900 28.16100
C  7.71300 47.14200 28.01500
C  4.51300 46.40000 26.47700
C  6.03100 46.99500 29.59700
O  4.98600 46.82800 30.18200
C  7.31400 47.35300 30.32400
C  7.57400 46.21900 31.37600
O  8.16800 45.17500 31.13700
O  6.94100 46.43300 32.55700
C  6.95900 45.36600 33.58500
H  13.79000 48.82800 28.52300
H  12.38100 46.91000 22.46000
H  6.11000 46.66300 24.24900
H  9.78100 48.89600 31.08700
H  12.67100 48.70000 30.52400
H  10.70400 50.83000 30.64900
H  11.55200 51.04900 29.07000
H  12.43500 51.14400 30.62200
H  11.90900 47.13200 31.89400
H  10.61600 46.12300 31.30200
H  9.16100 47.64100 32.98800
H  10.47800 48.19400 33.66000
H  15.50800 47.70000 27.82000
H  16.13900 49.02800 26.92300
H  16.56600 47.30700 26.46100
H  17.13900 46.71600 22.94400
H  16.73900 46.26400 24.63000
H  16.88100 47.99100 24.26700
H  10.16600 45.40500 21.77000
H  7.57700 46.75800 22.00600
H  10.68300 48.06400 20.84100
H  9.02600 47.78600 20.49300
H  10.22100 46.64800 19.83700
H  7.82100 44.56600 21.37500
H  6.78900 44.63000 22.86600
H  9.50500 44.21700 23.42900
H  9.00400 42.87100 22.45000
H  8.11300 43.18300 23.94200
H  4.59600 45.38600 26.08500
H  4.12700 46.95200 25.62000
H  3.92500 46.38200 27.39400
H  7.16800 48.22100 30.96700
H  7.96500 45.24500 33.98700
H  6.62000 44.38400 33.25300
H  6.35200 45.76500 34.39700

