158

Mg 41.45800 41.14000 25.98800
C  40.65900 43.44500 28.43600
C  42.49800 38.97500 28.49400
C  42.50500 39.05700 23.55400
C  41.11000 43.68300 23.49200
N  41.71600 41.29200 28.21700
C  41.11800 42.22200 28.93700
C  41.17700 41.87800 30.44300
C  41.81900 40.46700 30.42400
C  42.06500 40.21100 29.01600
C  43.08100 40.38700 31.24600
C  39.74700 41.81700 31.07500
C  39.73300 41.72400 32.63000
H  39.24200 43.00800 33.47600
N  42.10800 39.20000 26.04700
C  42.49500 38.45200 27.15200
C  42.87800 37.18300 26.65200
C  42.69100 37.14300 25.27400
C  42.49800 38.54300 24.90800
C  43.25700 35.99800 27.57800
C  42.66500 35.87700 24.36000
O  42.35400 36.02800 23.18400
C  42.84500 34.40900 24.91000
N  41.83300 41.37400 23.84100
C  42.19200 40.33100 23.04900
C  42.18000 40.79200 21.49600
C  41.63100 42.22100 21.52300
C  41.50700 42.46600 23.01500
C  43.57700 40.61500 20.88100
C  40.31100 42.43700 20.77900
C  39.03100 41.90700 21.51100
N  40.96700 43.15300 25.91500
C  40.94000 44.05700 24.85800
C  40.52200 45.36700 25.38500
C  40.35400 45.17100 26.83600
C  40.71900 43.79100 27.06800
C  40.27600 46.64100 24.63800
C  39.98800 45.82800 28.11900
O  39.72100 47.01600 28.45300
C  40.16400 44.72700 29.21100
C  41.20400 45.22200 30.14800
O  42.31400 45.62700 29.83600
O  40.70800 45.17100 31.35200
C  41.64200 45.43400 32.50700
H  42.85900 38.23600 29.21300
H  42.83900 38.23900 22.91300
H  41.07400 44.47800 22.74400
H  41.75600 42.58500 31.03700
H  41.16000 39.63100 30.65600
H  42.97100 39.71000 32.09300
H  43.20300 41.40100 31.62700
H  43.98000 40.16000 30.67400
H  39.35400 40.82100 30.86900
H  39.07500 42.60000 30.72400
H  40.69600 41.39800 33.02400
H  38.97900 41.01000 32.96000
H  42.47900 35.25000 27.73100
H  43.23300 36.33800 28.61300
H  44.25100 35.63700 27.31400
H  43.65600 34.39200 25.63700
H  43.23300 33.83400 24.06800
H  41.91700 33.96400 25.26800
H  41.45300 40.16600 20.97900
H  42.36000 42.92000 21.11500
H  44.33300 40.58000 21.66500
H  44.05400 41.32800 20.20900
H  43.64200 39.66900 20.34300
H  40.29000 41.89900 19.83100
H  40.17000 43.50100 20.58700
H  38.34800 42.72000 21.75900
H  39.23500 41.26800 22.37000
H  38.52400 41.28200 20.77600
H  41.19000 47.23500 24.66000
H  39.51700 47.22600 25.15700
H  39.89400 46.37000 23.65400
H  39.18500 44.54900 29.65700
H  41.15100 45.17000 33.44400
H  41.99200 46.45800 32.38300
H  42.45300 44.72700 32.32900
Mg -11.64700 39.33500 42.69500
C  -10.06500 36.36500 41.59100
C  -9.12900 40.96700 41.19900
C  -13.39200 42.13100 43.13500
C  -14.38000 37.39800 43.65200
N  -9.84800 38.62600 41.44400
C  -9.30800 37.43900 41.20100
C  -8.01600 37.49000 40.40800
C  -7.57800 39.03100 40.59100
C  -8.92600 39.58000 41.10800
C  -6.47000 39.26800 41.68200
C  -8.18800 37.05500 38.90100
C  -7.09500 36.09300 38.34000
H  -6.03900 36.73300 37.48700
N  -11.23000 41.35100 42.37700
C  -10.17100 41.78100 41.64800
C  -10.25000 43.21700 41.56900
C  -11.51700 43.59800 42.14800
C  -12.09500 42.32900 42.62100
C  -9.07400 44.07300 41.13000
C  -11.97800 45.00000 42.34700
O  -11.40000 45.98100 41.94100
C  -13.20000 45.37500 43.28400
N  -13.52200 39.70200 43.39000
C  -14.04500 40.95500 43.47900
C  -15.37400 40.95600 44.31200
C  -15.74300 39.42600 44.10800
C  -14.47100 38.76700 43.66600
C  -15.06300 41.39000 45.74700
C  -17.04900 38.96200 43.26200
C  -18.27200 38.32200 44.03200
N  -12.23100 37.24300 42.59800
C  -13.32100 36.67900 43.08600
C  -13.15700 35.25500 42.99100
C  -11.95000 35.09700 42.38600
C  -11.38900 36.35300 42.23300
C  -14.07900 34.25200 43.53900
C  -11.03100 34.11600 41.92400
O  -10.99900 32.90400 41.93300
C  -9.76600 34.90600 41.41200
C  -8.55100 34.39600 42.13800
O  -8.26100 34.55400 43.30200
O  -7.78800 33.74400 41.25000
C  -6.58500 33.07400 41.80200
H  -8.47700 41.64000 40.63900
H  -14.02200 43.01900 43.22700
H  -15.20700 36.91100 44.17300
H  -7.26500 36.85700 40.88100
H  -7.27400 39.50700 39.66000
H  -5.56100 39.72900 41.29400
H  -6.19400 38.26400 42.00600
H  -6.82200 39.85400 42.53100
H  -8.10000 37.96100 38.30000
H  -9.13800 36.55500 38.71100
H  -7.77400 35.41800 37.82000
H  -6.57200 35.45900 39.05600
H  -8.09600 43.60000 41.21500
H  -9.09000 44.92400 41.81100
H  -9.17700 44.38600 40.09200
H  -14.14500 45.28000 42.74900
H  -13.14500 46.39900 43.65400
H  -13.14900 44.72400 44.15700
H  -16.14100 41.55400 43.82100
H  -15.76400 39.06900 45.13800
H  -14.12500 41.94200 45.80300
H  -15.03300 40.63900 46.53600
H  -15.72100 42.17000 46.13100
H  -16.72000 38.25300 42.50300
H  -17.39000 39.80600 42.66300
H  -18.26500 38.43500 45.11600
H  -18.38500 37.25700 43.82800
H  -19.19900 38.84400 43.79700
H  -13.56600 33.29400 43.62300
H  -14.91800 34.21600 42.84400
H  -14.48200 34.56600 44.50200
H  -9.65500 34.70500 40.34600
H  -5.76600 33.79400 41.78900
H  -6.33800 32.25000 41.13300
H  -6.72500 32.73100 42.82700

