158

Mg 2.12400 -3.34000 45.62400
C  5.57700 -2.23200 45.28400
C  1.37600 -1.35800 43.00500
C  -0.80100 -4.66900 45.76100
C  3.47700 -6.09100 47.44000
N  3.39800 -2.11800 44.20800
C  4.73300 -1.77000 44.25900
C  5.08500 -0.82600 43.10600
C  3.69300 -0.24800 42.75600
C  2.77200 -1.34500 43.29500
C  3.31100 1.14400 43.34100
C  5.76200 -1.61900 41.95500
C  7.06300 -1.03700 41.36900
H  7.08600 -0.05300 40.19500
N  0.45900 -2.96100 44.66700
C  0.30600 -2.05800 43.60900
C  -1.07700 -1.99500 43.29000
C  -1.72100 -2.78400 44.20000
C  -0.71600 -3.51700 44.97900
C  -1.66900 -1.02400 42.27500
C  -3.25800 -2.85300 44.40200
O  -3.92000 -2.23300 43.60400
C  -3.94300 -3.47500 45.58900
N  1.39000 -5.20800 46.47000
C  0.10700 -5.45600 46.52300
C  -0.20600 -6.67500 47.34800
C  1.21400 -7.27400 47.71800
C  2.09000 -6.17600 47.10000
C  -1.27800 -6.39000 48.44200
C  1.65700 -8.66000 47.26700
C  1.19300 -9.07000 45.81600
N  4.06600 -3.99700 46.30500
C  4.38300 -5.10200 47.06700
C  5.77500 -5.04700 47.44500
C  6.31000 -3.97300 46.73500
C  5.22000 -3.29800 46.06700
C  6.43100 -6.05200 48.44400
C  7.45700 -3.21100 46.43600
O  8.55900 -3.25500 46.93400
C  7.06700 -2.06300 45.46400
C  7.39900 -0.67600 46.08900
O  7.08800 -0.28100 47.15800
O  7.99100 0.18500 45.11800
C  8.20700 1.63300 45.52100
H  1.18500 -0.64900 42.19600
H  -1.86000 -4.92900 45.82100
H  3.84500 -6.85500 48.12800
H  5.65800 0.04700 43.41800
H  3.45000 -0.27000 41.69400
H  4.18400 1.69600 43.69000
H  2.62300 0.97500 44.17000
H  2.81400 1.75500 42.58800
H  5.14000 -1.71500 41.06500
H  6.08800 -2.57800 42.35800
H  7.70100 -1.85000 41.02000
H  7.59800 -0.47600 42.13500
H  -1.95400 -0.04700 42.66600
H  -2.60300 -1.40800 41.86500
H  -0.91800 -0.89700 41.49600
H  -3.89400 -4.54500 45.39100
H  -4.96500 -3.11700 45.71500
H  -3.40400 -3.34900 46.52800
H  -0.65300 -7.36900 46.63600
H  1.33400 -7.28500 48.80100
H  -2.01300 -5.61400 48.23000
H  -0.69000 -6.14400 49.32700
H  -1.69300 -7.38300 48.61400
H  1.01400 -9.40700 47.73100
H  2.72500 -8.86300 47.34700
H  0.49400 -9.89300 45.96300
H  2.07200 -9.40700 45.26800
H  0.68600 -8.24700 45.31200
H  5.65100 -6.44900 49.09400
H  7.18500 -5.47100 48.97600
H  6.83200 -6.73900 47.70000
H  7.54000 -2.06700 44.48200
H  7.24600 2.13900 45.60700
H  8.74900 2.08200 44.68800
H  8.85600 1.75600 46.38900
Mg 24.87800 1.32600 30.17500
C  27.07400 0.95900 32.89100
C  22.30500 1.72600 32.32500
C  22.82800 1.43500 27.54700
C  27.57800 0.30700 28.07700
N  24.69400 1.26800 32.36200
C  25.76400 1.30400 33.27500
C  25.19100 1.59000 34.66000
C  23.65100 1.65600 34.45200
C  23.50400 1.47900 32.96400
C  22.71700 0.63400 35.18300
C  25.83900 2.78800 35.45000
C  26.40600 2.50600 36.78800
H  26.20400 3.71300 37.78300
N  22.80400 1.53500 29.97800
C  21.91200 1.64900 30.95500
C  20.54800 1.71700 30.40600
C  20.73000 1.69300 29.03700
C  22.18400 1.58700 28.79100
C  19.29800 1.90800 31.20600
C  19.71500 1.70400 27.89700
O  19.97500 1.82200 26.71500
C  18.32600 1.62600 28.24600
N  25.15100 0.88000 28.11500
C  24.15000 1.08300 27.19900
C  24.74200 0.96800 25.73000
C  26.15900 0.57100 25.97700
C  26.30800 0.48900 27.47700
C  23.87200 0.07300 24.66200
C  27.22500 1.56800 25.43600
C  27.25200 3.07500 25.86200
N  26.95800 0.78600 30.38000
C  27.89100 0.33700 29.44500
C  29.15200 0.09200 30.11400
C  28.91600 0.44000 31.44500
C  27.56500 0.75700 31.56000
C  30.44700 -0.32100 29.49200
C  29.43500 0.50300 32.75100
O  30.54200 0.17600 33.11900
C  28.29300 0.83400 33.73100
C  28.10900 -0.24300 34.71300
O  27.49000 -1.27400 34.63100
O  28.76500 0.19900 35.78500
C  28.47000 -0.26300 37.12400
H  21.45400 1.90900 32.98400
H  22.13800 1.26700 26.71800
H  28.34900 -0.02500 27.37800
H  25.40900 0.67200 35.20600
H  23.17600 2.60600 34.69600
H  22.25900 -0.00900 34.43200
H  21.93000 1.27600 35.57700
H  23.20600 0.03000 35.94800
H  25.17500 3.65300 35.43400
H  26.61800 3.09600 34.75300
H  27.46700 2.33600 36.60200
H  25.94400 1.58600 37.14600
H  18.92700 2.76400 30.64300
H  19.41500 2.17800 32.25600
H  18.62500 1.05100 31.15800
H  17.93100 2.45800 28.83000
H  18.30400 0.79300 28.94900
H  17.68300 1.41300 27.39200
H  24.83000 1.98800 25.35700
H  26.28700 -0.41000 25.51800
H  23.09300 -0.40800 25.25400
H  24.46400 -0.67500 24.13400
H  23.31400 0.62700 23.90700
H  27.15800 1.64400 24.35100
H  28.20900 1.13800 25.62400
H  26.52200 3.30000 26.64000
H  27.02900 3.75800 25.04200
H  28.22200 3.30800 26.29900
H  30.82500 0.34200 28.71400
H  30.31500 -1.28000 28.99100
H  31.22100 -0.21500 30.25200
H  28.40300 1.82500 34.17200
H  28.59600 -1.34100 37.22400
H  27.39400 -0.10700 37.20500
H  29.01600 0.22400 37.93200

