158

Mg 41.78900 41.38000 25.80000
C  40.68000 43.69000 28.14600
C  42.69000 39.28100 28.39000
C  42.97500 39.39600 23.41100
C  41.06300 43.80900 23.20300
N  41.40800 41.38300 28.08600
C  41.02600 42.51700 28.74900
C  40.92100 42.14100 30.32600
C  41.82600 40.88900 30.30500
C  41.94100 40.44000 28.85700
C  43.23800 41.18100 30.85900
C  39.52000 41.94700 30.93500
C  39.56600 41.52000 32.46800
H  38.79700 42.39000 33.40900
N  42.55800 39.53700 25.88400
C  42.85900 38.79800 27.01900
C  43.27000 37.52000 26.55100
C  43.42500 37.55400 25.16900
C  43.00200 38.88700 24.76400
C  43.54700 36.32300 27.48400
C  43.92500 36.53300 24.13500
O  43.89800 36.68500 22.92500
C  44.21700 35.24200 24.56100
N  41.90100 41.51400 23.57500
C  42.56900 40.65600 22.84100
C  42.72300 41.07900 21.36600
C  41.68200 42.22200 21.30400
C  41.52000 42.56000 22.78500
C  44.09700 41.45500 20.88900
C  40.30700 41.87500 20.62700
C  39.31100 40.94800 21.48800
N  41.08700 43.31900 25.67000
C  40.88800 44.16000 24.56900
C  40.37000 45.48100 25.01600
C  40.26300 45.28600 26.40200
C  40.75300 44.00500 26.76100
C  39.85600 46.57200 24.11800
C  39.81100 45.94800 27.64600
O  39.22700 47.00900 27.74500
C  40.07600 44.96100 28.79900
C  40.96700 45.56000 29.74400
O  42.09500 46.02900 29.51300
O  40.46200 45.32100 31.00300
C  41.41000 45.40400 32.15400
H  42.93100 38.61400 29.22100
H  43.49800 38.95900 22.55700
H  40.78000 44.48500 22.39400
H  41.36900 42.99500 30.83400
H  41.35400 40.03700 30.79400
H  44.03200 40.97900 30.14100
H  43.56000 40.41500 31.56400
H  43.35000 42.14700 31.35200
H  38.88600 41.43600 30.21000
H  39.05600 42.92600 31.05300
H  40.55100 41.54200 32.93400
H  39.07800 40.54500 32.46700
H  43.47600 36.69600 28.50600
H  44.60000 36.04500 27.46300
H  43.07500 35.35800 27.29200
H  44.96900 35.37800 25.33800
H  44.57600 34.64000 23.72700
H  43.32300 34.80300 25.00400
H  42.36800 40.28700 20.70500
H  42.06100 43.01400 20.65900
H  44.91800 41.30300 21.58900
H  44.25600 42.47300 20.53500
H  44.33300 40.86700 20.00200
H  40.61000 41.25300 19.78400
H  39.72200 42.67400 20.17200
H  39.85900 40.27800 22.15000
H  38.60600 40.47000 20.80800
H  38.66000 41.66700 21.98500
H  39.61900 46.11900 23.15600
H  40.69400 47.20500 23.82500
H  39.07700 47.27800 24.40400
H  39.08400 44.86200 29.23900
H  42.43400 45.74900 32.01000
H  41.34300 44.49200 32.74700
H  40.88400 46.17400 32.71800
Mg 16.19400 51.64400 24.99000
C  18.06000 50.67300 27.81100
C  13.75500 52.78400 27.13500
C  14.49900 52.46000 22.39300
C  18.77600 50.25400 22.88500
N  15.97100 51.66500 27.24500
C  16.87500 51.34700 28.18000
C  16.46300 51.62400 29.63300
C  14.95400 52.14300 29.36900
C  14.81200 52.13900 27.78400
C  13.72500 51.38000 30.12600
C  17.30400 52.52100 30.51300
C  17.25000 52.39700 32.05500
H  16.23100 51.41300 32.61200
N  14.38400 52.53300 24.80700
C  13.57000 53.00100 25.80200
C  12.46300 53.67900 25.20900
C  12.69900 53.72000 23.82100
C  13.91200 52.87700 23.64200
C  11.14600 54.00900 25.91700
C  11.83200 54.24900 22.75000
O  12.10700 54.00200 21.58400
C  10.45400 55.01500 23.03600
N  16.62600 51.34700 22.97300
C  15.61200 51.75800 22.11400
C  16.02000 51.52600 20.63300
C  17.50300 51.12900 20.67000
C  17.65700 50.89100 22.24200
C  15.11800 50.56900 19.84000
C  18.57100 52.09500 20.23500
C  19.22300 51.67800 18.91100
N  18.04900 50.57200 25.23800
C  19.00300 50.09500 24.28300
C  19.96900 49.36600 25.05900
C  19.74600 49.63700 26.42400
C  18.53000 50.33800 26.49600
C  21.06900 48.62500 24.40500
C  20.28900 49.52000 27.75800
O  21.31800 49.04500 28.18700
C  19.22900 50.15800 28.73100
C  18.70500 49.08200 29.65900
O  17.78900 48.28500 29.40600
O  19.40500 49.19600 30.85200
C  19.05000 48.12300 31.76500
H  12.98500 53.19500 27.79100
H  14.16900 52.89400 21.44600
H  19.54700 49.87000 22.21300
H  16.40900 50.60100 30.00600
H  14.93100 53.21200 29.57700
H  13.39300 51.97700 30.97600
H  13.96400 50.44000 30.62300
H  12.93700 51.20700 29.39400
H  16.92200 53.50800 30.24900
H  18.34900 52.42000 30.21700
H  16.97700 53.40400 32.37000
H  18.26500 52.20900 32.40500
H  11.07000 55.09700 25.92700
H  11.18800 53.49100 26.87500
H  10.26700 53.61100 25.41000
H  9.64900 54.31800 23.27000
H  10.27700 55.60900 22.13900
H  10.72900 55.68800 23.84800
H  15.91100 52.47700 20.11300
H  17.77500 50.21700 20.13700
H  14.67000 51.17100 19.04900
H  14.36200 50.23600 20.55100
H  15.54300 49.72000 19.30500
H  19.31800 52.06500 21.02800
H  18.33000 53.15600 20.29700
H  19.36700 52.48600 18.19400
H  18.50500 51.06700 18.36400
H  20.17600 51.20100 19.13800
H  20.62600 48.26600 23.47600
H  21.37200 47.79600 25.04600
H  21.86400 49.28100 24.05100
H  19.66800 50.99700 29.27200
H  18.78000 47.18900 31.27300
H  18.27400 48.46000 32.45200
H  19.93400 47.73700 32.27400

