158

Mg 23.96300 -4.88900 45.42200
C  25.92800 -2.64600 43.54400
C  21.23600 -3.90900 43.58200
C  22.31900 -7.62700 46.35700
C  26.86000 -6.16500 46.93800
N  23.64200 -3.42700 43.84500
C  24.55400 -2.55700 43.31200
C  23.96400 -1.66700 42.27300
C  22.36700 -1.99600 42.33500
C  22.34100 -3.10100 43.43200
C  21.51400 -0.75200 42.69100
C  24.57600 -1.83000 40.83300
C  25.26600 -0.64400 40.13600
H  24.89700 -0.42600 38.63600
N  21.98100 -5.60800 45.10000
C  21.00200 -5.05900 44.33300
C  19.86100 -5.88000 44.25800
C  20.23500 -6.98600 45.07200
C  21.56200 -6.80000 45.51100
C  18.53000 -5.54500 43.52000
C  19.32700 -8.19300 45.25000
O  18.14900 -8.15000 44.87800
C  19.79600 -9.47700 45.77100
N  24.60400 -6.79300 46.39200
C  23.65700 -7.62200 46.81300
C  24.27700 -8.70000 47.69000
C  25.74200 -8.16800 47.97700
C  25.77200 -6.96100 47.09500
C  23.39900 -9.10800 48.88900
C  26.92100 -9.17200 47.69600
C  27.96100 -9.23200 48.86200
N  26.02900 -4.45500 45.39000
C  27.01000 -5.10200 46.08700
C  28.22600 -4.48700 45.62700
C  27.91100 -3.46100 44.68200
C  26.49600 -3.51900 44.51100
C  29.60800 -4.78800 46.10600
C  28.44000 -2.55900 43.82000
O  29.59300 -2.15800 43.49700
C  27.13100 -1.82700 43.14900
C  26.99000 -0.59300 43.90100
O  26.07700 -0.22300 44.65500
O  28.01700 0.23300 43.63500
C  27.96500 1.66100 44.06600
H  20.39000 -3.60700 42.96000
H  21.82700 -8.53100 46.72400
H  27.72900 -6.54900 47.47700
H  24.10800 -0.60800 42.48500
H  21.98200 -2.47000 41.43200
H  22.05200 0.19300 42.76300
H  21.21100 -1.00000 43.70800
H  20.68900 -0.56000 42.00600
H  23.73900 -2.08500 40.18400
H  25.29600 -2.64300 40.92900
H  26.34500 -0.65400 40.28400
H  24.92600 0.31200 40.53600
H  18.22700 -6.34400 42.84400
H  18.72400 -4.71800 42.83700
H  17.69000 -5.44000 44.20600
H  19.16400 -10.30900 45.46200
H  19.96200 -9.53800 46.84700
H  20.78200 -9.56300 45.31300
H  24.43000 -9.56700 47.04700
H  25.80100 -7.84000 49.01500
H  23.92100 -9.25600 49.83500
H  22.76600 -9.94000 48.58100
H  22.70000 -8.30400 49.11700
H  27.41400 -8.92100 46.75700
H  26.44900 -10.13500 47.50300
H  28.46500 -10.19700 48.90700
H  27.38900 -9.25800 49.78900
H  28.69700 -8.42700 48.85400
H  29.42400 -5.78300 46.51300
H  29.80200 -4.12700 46.95100
H  30.15300 -4.73200 45.16500
H  27.27500 -1.58900 42.09500
H  27.19100 2.04500 44.73000
H  28.20700 2.36300 43.26800
H  28.80200 1.76800 44.75600
Mg -12.90900 16.57200 42.81300
C  -9.78400 14.77300 42.63600
C  -11.31700 19.20800 41.48000
C  -15.96700 17.97700 42.70600
C  -14.42700 13.36200 43.59100
N  -10.77500 16.81800 42.06500
C  -9.70900 16.02100 42.02600
C  -8.52300 16.64900 41.36400
C  -9.01500 18.08200 41.11700
C  -10.50200 18.05000 41.54400
C  -8.06700 19.15600 41.79300
C  -8.06100 15.83000 40.06300
C  -6.46600 15.54100 39.97900
H  -6.04100 14.18800 39.31600
N  -13.60400 18.43100 42.15800
C  -12.78100 19.40300 41.66600
C  -13.61000 20.58100 41.38000
C  -14.91900 20.29400 41.76900
C  -14.91100 18.89000 42.27800
C  -13.10300 21.87400 40.87100
C  -16.06400 21.27000 41.64700
O  -15.85800 22.46800 41.37400
C  -17.47300 20.81400 42.04400
N  -14.99400 15.74200 42.99000
C  -15.98200 16.59000 43.07300
C  -17.28000 15.80200 43.46200
C  -16.87800 14.34500 43.58900
C  -15.29600 14.43500 43.37800
C  -18.22300 16.32300 44.64300
C  -17.50300 13.47100 42.54200
C  -18.67900 12.59100 42.98100
N  -12.30000 14.44000 43.24000
C  -13.03100 13.31900 43.44200
C  -12.02400 12.17700 43.47200
C  -10.74100 12.71900 43.33100
C  -10.95000 14.14000 43.10300
C  -12.30000 10.71500 43.69700
C  -9.29600 12.36400 43.31100
O  -8.66000 11.35400 43.55400
C  -8.62500 13.77600 42.87200
C  -7.67500 14.15800 43.99000
O  -7.95800 14.51000 45.12600
O  -6.39500 14.16200 43.53300
C  -5.35600 14.56500 44.47100
H  -10.70400 20.00100 41.04600
H  -17.03800 18.19300 42.70800
H  -14.92000 12.45000 43.93400
H  -7.67400 16.70100 42.04500
H  -8.93900 18.29600 40.05100
H  -7.66700 19.74400 40.96700
H  -7.35500 18.67800 42.46500
H  -8.78300 19.77300 42.33500
H  -8.20500 16.44800 39.17700
H  -8.68200 14.93500 40.08700
H  -6.02800 15.45100 40.97300
H  -6.07800 16.38600 39.41000
H  -13.73400 22.08200 40.00700
H  -12.04800 21.96100 40.60800
H  -13.22800 22.74400 41.51600
H  -17.89800 20.18700 41.26100
H  -18.02400 21.74000 42.20800
H  -17.49600 20.26700 42.98600
H  -17.89900 15.91900 42.57200
H  -17.06500 14.05100 44.62100
H  -19.10000 16.84900 44.26800
H  -17.61100 16.87000 45.36100
H  -18.59300 15.51200 45.27000
H  -16.82000 12.71000 42.16400
H  -17.75500 14.00000 41.62300
H  -18.34400 11.55400 42.97000
H  -19.49300 12.74000 42.27200
H  -19.11500 12.91800 43.92500
H  -13.32400 10.41000 43.91300
H  -11.66900 10.32400 44.49500
H  -11.94200 10.27100 42.76900
H  -8.03200 13.72400 41.95900
H  -5.73500 14.69300 45.48500
H  -4.78700 15.41500 44.09600
H  -4.52500 13.86600 44.56700

