158

Mg 9.02900 48.08200 28.20900
C  6.97200 47.31500 30.92400
C  11.71000 48.29600 30.32900
C  10.91100 48.86500 25.55900
C  6.18200 48.33000 26.22000
N  9.26500 47.89000 30.36600
C  8.33200 47.48500 31.25000
C  8.89300 47.44700 32.72300
C  10.39000 47.96300 32.58600
C  10.46700 48.04800 31.02200
C  10.57200 49.25500 33.41800
C  8.81100 45.95500 33.34000
C  9.85000 45.45200 34.38200
H  9.39300 45.09100 35.83600
N  11.03800 48.45700 27.94100
C  12.01000 48.45300 28.94100
C  13.29900 48.69800 28.36800
C  13.02200 48.84100 26.95600
C  11.61600 48.69100 26.75100
C  14.54300 48.81500 29.24800
C  14.05600 48.89300 25.84000
O  13.79900 48.76300 24.63700
C  15.57200 48.94100 26.13600
N  8.60200 48.69500 26.29300
C  9.54300 48.90900 25.29100
C  8.89400 49.34400 24.02600
C  7.53300 48.74800 24.10400
C  7.42000 48.56200 25.63700
C  8.88400 50.83200 23.62300
C  7.35300 47.42700 23.22700
C  6.26200 47.48500 22.03500
N  6.95000 48.01900 28.49000
C  5.86800 48.08500 27.56900
C  4.63200 47.81300 28.34500
C  5.00600 47.52100 29.63400
C  6.44100 47.63200 29.68300
C  3.23900 47.63000 27.72700
C  4.48800 47.12500 30.93000
O  3.31200 46.91600 31.35500
C  5.71600 46.96800 31.78700
C  5.74100 45.53700 32.29000
O  6.40400 44.60300 31.80300
O  5.12700 45.53100 33.52400
C  5.13800 44.24600 34.25500
H  12.50700 48.29000 31.07500
H  11.51200 49.13200 24.68700
H  5.35900 48.42500 25.50800
H  8.41300 48.12500 33.42900
H  11.06900 47.19600 32.95800
H  10.66000 50.05900 32.68700
H  11.50300 49.28700 33.98500
H  9.80200 49.35800 34.18300
H  8.60300 45.29200 32.50000
H  7.88400 45.82100 33.89700
H  10.54000 46.23800 34.68900
H  10.45400 44.62600 34.00600
H  14.30700 48.87600 30.31000
H  15.08900 49.70900 28.94500
H  15.24000 47.98900 29.10900
H  15.94800 48.94400 25.11300
H  15.86200 48.02300 26.64800
H  15.96700 49.81000 26.66100
H  9.45400 48.97600 23.16700
H  6.84000 49.52300 23.77600
H  8.92600 51.51600 24.47100
H  7.96800 51.09800 23.09600
H  9.74000 51.01100 22.97200
H  7.11100 46.60400 23.89900
H  8.24700 47.11400 22.68800
H  6.82100 47.66900 21.11700
H  5.48400 48.20000 22.30200
H  5.74700 46.52800 21.94800
H  2.61100 48.43800 28.09900
H  2.73600 46.73900 28.10200
H  3.43600 47.57800 26.65600
H  5.52600 47.58200 32.66700
H  4.19300 43.70400 34.20400
H  5.32200 44.49500 35.30000
H  5.92900 43.58700 33.89800
Mg -11.59000 16.05600 42.04000
C  -8.27500 16.52200 42.51800
C  -12.06800 19.44500 41.55900
C  -14.81600 15.46200 41.19800
C  -11.06000 12.54600 42.31300
N  -10.33300 17.76800 41.93200
C  -8.98800 17.72300 42.11700
C  -8.33900 19.11900 41.93000
C  -9.60600 20.06800 42.15600
C  -10.77200 19.03800 41.79400
C  -9.80700 20.52300 43.61000
C  -7.71300 19.32600 40.52900
C  -6.34300 19.91000 40.49700
H  -5.27200 19.32000 39.52800
N  -13.21600 17.28900 41.26100
C  -13.23200 18.66100 41.19300
C  -14.53900 19.11900 40.66800
C  -15.30400 17.92300 40.44100
C  -14.47100 16.79200 40.92800
C  -14.91700 20.55400 40.38000
C  -16.62800 17.89700 39.77600
O  -17.28600 18.88900 39.56700
C  -17.33500 16.67700 39.38600
N  -12.65200 14.18800 41.56900
C  -14.02200 14.32600 41.49900
C  -14.72500 13.06600 42.03100
C  -13.54700 11.99500 42.06800
C  -12.34500 12.92300 41.96200
C  -15.38500 13.34600 43.39200
C  -13.52700 11.04800 40.85500
C  -13.41600 9.61200 41.31100
N  -10.08100 14.74600 42.47000
C  -9.96600 13.36400 42.54500
C  -8.62700 13.07500 42.90900
C  -7.94200 14.24500 42.80400
C  -8.82900 15.25600 42.56100
C  -8.18400 11.63000 43.03400
C  -6.61100 14.80600 42.78100
O  -5.55700 14.23100 42.87200
C  -6.76400 16.29300 42.70100
C  -6.18500 16.91200 43.86000
O  -6.40500 16.56800 44.98900
O  -5.33000 17.91300 43.42400
C  -4.66400 18.60200 44.51000
H  -12.28200 20.51400 41.49900
H  -15.88600 15.24100 41.19700
H  -10.85200 11.47800 42.40000
H  -7.56500 19.25100 42.68600
H  -9.74400 20.92100 41.49200
H  -8.86600 20.41100 44.14800
H  -10.57000 19.86500 44.02700
H  -10.03200 21.57100 43.80400
H  -8.30000 20.01400 39.92000
H  -7.79600 18.40500 39.95300
H  -5.92600 19.88600 41.50400
H  -6.50400 20.93500 40.16100
H  -15.92200 20.75400 40.75100
H  -14.98900 20.79500 39.32000
H  -14.32500 21.32500 40.87400
H  -17.91900 16.77900 38.47100
H  -18.12300 16.51400 40.12200
H  -16.68300 15.80400 39.36500
H  -15.50000 12.74400 41.33500
H  -13.54200 11.44400 43.00800
H  -14.77400 12.79300 44.10600
H  -16.34800 12.83600 43.36600
H  -15.41100 14.38400 43.72200
H  -12.75400 11.30200 40.13100
H  -14.44500 11.27700 40.31300
H  -14.32300 9.09100 41.00500
H  -13.14300 9.40600 42.34600
H  -12.65100 9.10600 40.72300
H  -8.99900 10.99200 43.37700
H  -7.39300 11.61800 43.78500
H  -7.96700 11.13600 42.08700
H  -6.39200 16.71700 41.76800
H  -5.41800 18.97400 45.20400
H  -4.10000 19.43100 44.08200
H  -3.88000 17.99500 44.96300

