158

Mg 16.16700 -1.74300 27.64800
C  15.46000 0.51000 30.29200
C  18.33000 -3.40200 29.81800
C  17.59200 -3.14100 25.00400
C  14.37600 0.39400 25.51700
N  16.95600 -1.32800 29.69900
C  16.39800 -0.50300 30.61900
C  16.77100 -0.91500 32.01000
C  17.81800 -2.02800 31.84100
C  17.66200 -2.32800 30.37200
C  19.29000 -1.93300 32.34800
C  15.55400 -1.23300 32.97800
C  15.72400 -0.52500 34.36000
H  17.01700 -0.05600 34.83800
N  17.72200 -3.15900 27.41800
C  18.44600 -3.76500 28.41500
C  19.26200 -4.73100 27.78700
C  19.06100 -4.70600 26.35800
C  18.15700 -3.63200 26.20600
C  20.03900 -5.57100 28.68500
C  19.56800 -5.58600 25.21400
O  19.27900 -5.47500 24.03200
C  20.42600 -6.66500 25.59200
N  16.02200 -1.38000 25.58900
C  16.71300 -2.11100 24.69800
C  16.61000 -1.50800 23.28600
C  15.36200 -0.59900 23.40000
C  15.17700 -0.55500 24.91800
C  17.81900 -0.69400 22.76800
C  14.18500 -1.06600 22.54500
C  13.68600 -0.11600 21.45900
N  15.02100 0.00700 27.80400
C  14.32900 0.73000 26.85600
C  13.57800 1.73100 27.48400
C  14.02200 1.75400 28.85200
C  14.92700 0.68100 28.95600
C  12.63200 2.70500 26.84200
C  13.89800 2.44600 30.05100
O  13.14800 3.35800 30.45400
C  14.80800 1.60800 31.10400
C  15.76900 2.59200 31.72600
O  16.71100 3.09100 31.16400
O  15.38900 2.82800 33.00900
C  16.05800 3.99900 33.60400
H  18.83800 -3.87500 30.66100
H  18.00800 -3.56900 24.09000
H  13.89200 1.00200 24.75000
H  17.13500 0.07400 32.28700
H  17.40800 -2.88600 32.37500
H  20.00300 -1.69800 31.55800
H  19.44400 -2.92500 32.77300
H  19.52900 -1.26300 33.17400
H  15.50400 -2.32100 33.02800
H  14.66700 -0.87200 32.45600
H  15.36600 -1.33800 34.99200
H  15.04800 0.32800 34.41400
H  20.93300 -5.82500 28.11500
H  19.42100 -6.42200 28.97100
H  20.36600 -5.08100 29.60200
H  20.76300 -7.25500 24.74000
H  19.93900 -7.28000 26.34900
H  21.32800 -6.26400 26.05400
H  16.44000 -2.33300 22.59400
H  15.47400 0.43600 23.07700
H  18.72500 -1.25500 23.00000
H  17.91300 0.30600 23.19200
H  17.76700 -0.66700 21.68000
H  13.27400 -1.35300 23.07000
H  14.50500 -1.85900 21.87000
H  12.98400 0.67600 21.72100
H  13.15200 -0.73300 20.73600
H  14.48500 0.38700 20.91500
H  11.62200 2.48500 27.18700
H  12.55900 2.71400 25.75400
H  12.85000 3.75800 27.02200
H  14.12500 1.30900 31.89900
H  16.48800 3.68000 34.55300
H  15.28800 4.73700 33.83200
H  16.88500 4.41400 33.03000
Mg 54.38500 25.20100 43.21800
C  51.60600 27.32000 42.81100
C  52.47700 22.58800 42.14400
C  57.25700 23.40800 42.84200
C  56.22200 28.07200 44.09700
N  52.28100 25.05500 42.50200
C  51.30900 26.01400 42.48500
C  49.95600 25.34300 42.21600
C  50.21800 23.87100 42.45800
C  51.74200 23.79700 42.36100
C  49.90800 23.26600 43.81900
C  49.33500 25.57900 40.77700
C  50.39700 26.05100 39.65600
H  50.99100 24.96200 38.79500
N  54.80200 23.21200 42.64600
C  53.84800 22.28000 42.25300
C  54.49600 20.99500 42.01900
C  55.93000 21.18400 42.24700
C  56.08600 22.64000 42.55800
C  53.66700 19.80600 41.63900
C  56.95800 20.12400 42.16400
O  56.68900 19.02700 41.82300
C  58.35900 20.33200 42.64600
N  56.43700 25.69900 43.38900
C  57.42900 24.76900 43.29700
C  58.88100 25.39900 43.50800
C  58.47400 26.85800 43.88500
C  56.88700 26.86300 43.86300
C  59.76800 24.63200 44.52100
C  59.12500 27.91800 43.03700
C  60.30600 28.70200 43.56800
N  54.02500 27.29200 43.38000
C  54.84800 28.31900 43.86200
C  54.04700 29.52200 44.06200
C  52.75100 29.16100 43.65200
C  52.82700 27.79300 43.21400
C  54.54600 30.85000 44.66100
C  51.37300 29.60500 43.63600
O  50.97600 30.71900 43.96600
C  50.55600 28.48400 43.03100
C  49.95300 28.99400 41.78000
O  50.47500 29.17200 40.63400
O  48.62200 29.16000 41.96800
C  47.83700 29.49300 40.76800
H  51.89200 21.69500 41.91600
H  58.16700 22.84900 42.61400
H  56.79700 28.93100 44.45000
H  49.20900 25.78100 42.87800
H  49.75700 23.33900 41.62600
H  50.67700 22.69900 44.34300
H  49.10800 22.57400 43.55500
H  49.61900 23.96200 44.60600
H  48.48100 26.25600 40.78000
H  48.80400 24.69400 40.42800
H  51.23800 26.59700 40.08400
H  49.89300 26.64500 38.89300
H  53.37300 19.87700 40.59200
H  52.77100 19.68600 42.24900
H  54.25000 18.88500 41.63200
H  58.79100 19.44300 43.10500
H  58.28000 21.02800 43.48100
H  58.98900 20.73300 41.85100
H  59.41100 25.26700 42.56400
H  58.71900 27.11800 44.91400
H  59.54200 23.57000 44.43100
H  59.39800 24.90800 45.50800
H  60.81100 24.90900 44.36900
H  58.34700 28.61400 42.72000
H  59.52000 27.53900 42.09400
H  60.18500 29.78300 43.49200
H  61.23500 28.44200 43.06100
H  60.48500 28.56100 44.63400
H  55.10100 30.76500 45.59500
H  53.57200 31.28900 44.87700
H  55.09300 31.33300 43.85200
H  49.81600 28.20000 43.78000
H  47.67800 28.62600 40.12600
H  48.34900 30.28100 40.21600
H  46.84600 29.83400 41.06600

