158

Mg 41.35800 7.96300 28.68500
C  42.87500 9.19500 31.72200
C  39.32200 5.95600 30.68100
C  40.28900 6.40100 25.85500
C  43.80400 9.69100 26.85900
N  41.09400 7.64800 31.00400
C  41.78700 8.32700 31.97200
C  41.23300 7.85300 33.34700
C  40.38800 6.58800 33.00700
C  40.20800 6.76200 31.49200
C  40.87500 5.21400 33.51000
C  40.45600 8.99700 34.14000
C  40.95200 9.34600 35.55500
H  41.34300 10.72400 35.78100
N  39.90100 6.46200 28.25300
C  39.12100 5.85900 29.22600
C  38.10500 5.05600 28.58600
C  38.40700 5.19700 27.17300
C  39.56000 6.02100 27.02600
C  37.07300 4.30800 29.41900
C  37.53700 4.68400 26.06300
O  37.71900 4.95700 24.90000
C  36.30400 3.85900 26.38300
N  41.97700 8.04300 26.59500
C  41.31300 7.34100 25.63000
C  41.89800 7.60400 24.25200
C  42.92800 8.84800 24.56400
C  42.83500 8.99000 26.11200
C  42.56700 6.34200 23.60000
C  42.47400 10.18900 23.90400
C  41.10500 10.75700 24.23000
N  42.95100 9.17200 29.07800
C  43.90000 9.73600 28.25100
C  44.91500 10.37700 29.04100
C  44.43700 10.22700 30.36900
C  43.29700 9.45800 30.34200
C  46.12500 11.12200 28.58200
C  44.81200 10.58500 31.76700
O  45.74400 11.29800 32.14800
C  43.81200 9.91000 32.67600
C  44.58300 8.95000 33.53800
O  44.72000 7.77600 33.25600
O  45.07300 9.60800 34.63800
C  45.69200 8.71500 35.60000
H  38.75800 5.29200 31.33900
H  39.85300 6.10300 24.89900
H  44.66100 10.13000 26.34300
H  42.04700 7.59300 34.02300
H  39.40700 6.75000 33.45500
H  41.67500 5.42800 34.21800
H  41.27500 4.51800 32.77300
H  40.07400 4.72900 34.06800
H  39.41700 8.69600 34.27100
H  40.52600 9.88900 33.51800
H  41.80600 8.72000 35.81500
H  40.10400 9.01000 36.15200
H  36.11600 4.53900 28.95200
H  37.10400 4.65700 30.45100
H  37.33200 3.25000 29.46000
H  36.61400 2.96700 26.92700
H  35.86200 3.44100 25.47800
H  35.53800 4.41100 26.92800
H  41.00100 7.81400 23.67000
H  43.95500 8.62000 24.27900
H  42.61300 5.53800 24.33400
H  43.44600 6.55500 22.99100
H  41.89100 5.85100 22.90100
H  42.50300 10.06800 22.82200
H  43.19100 10.89700 24.32000
H  40.59800 11.06400 23.31500
H  41.17500 11.62000 24.89300
H  40.43700 9.98700 24.61700
H  46.28700 10.92300 27.52300
H  46.98200 10.79100 29.16800
H  46.03300 12.18900 28.78800
H  43.27000 10.70600 33.18700
H  46.27000 7.91700 35.13500
H  44.84100 8.34000 36.16800
H  46.40500 9.30400 36.17700
Mg 41.17200 41.73100 27.21800
C  39.85200 43.94600 29.75200
C  42.02700 39.56600 29.71800
C  42.01300 39.70200 24.90300
C  40.18500 44.19600 24.86500
N  41.10300 41.87900 29.48600
C  40.39800 42.75100 30.27100
C  40.33800 42.32300 31.76900
C  41.13400 40.98400 31.67100
C  41.46100 40.80200 30.18300
C  42.40300 40.82900 32.60100
C  38.86900 42.27100 32.21800
C  38.59400 41.55900 33.49600
H  37.96000 42.44700 34.63200
N  42.05600 39.89700 27.32700
C  42.33900 39.16000 28.43400
C  42.91200 37.91700 28.01900
C  42.94300 37.95100 26.55400
C  42.36800 39.23100 26.18100
C  43.42800 36.89300 28.99500
C  43.51600 36.88600 25.65800
O  43.51100 36.98300 24.40000
C  44.07800 35.66200 26.25400
N  41.11000 41.91300 25.16900
C  41.47300 40.87400 24.41500
C  41.11800 41.10600 23.01400
C  40.26700 42.48000 22.99400
C  40.47900 42.88300 24.43800
C  42.32500 40.97400 22.00600
C  38.75900 42.29700 22.60400
C  37.88000 41.47100 23.46400
N  40.32300 43.70700 27.25400
C  40.04200 44.58000 26.23900
C  39.52500 45.86300 26.78200
C  39.39700 45.61100 28.14800
C  39.88900 44.33500 28.40200
C  39.17200 47.01300 25.93800
C  39.02100 46.25800 29.37500
O  38.56500 47.39000 29.57900
C  39.32400 45.14300 30.42400
C  40.34200 45.71800 31.31700
O  41.46800 46.10800 31.05200
O  39.88300 45.90100 32.59100
C  40.84900 46.65400 33.47400
H  42.31200 38.85000 30.49200
H  42.14800 38.98100 24.09400
H  39.82000 44.84500 24.06700
H  40.86400 43.05900 32.37800
H  40.48300 40.14100 31.90000
H  42.81700 41.76800 32.96900
H  43.16300 40.40000 31.94700
H  42.36600 40.11200 33.42100
H  38.36100 41.72800 31.42200
H  38.51200 43.29700 32.31500
H  39.53300 41.33800 34.00300
H  37.93400 40.71500 33.29800
H  42.90800 35.97300 28.72800
H  43.23600 37.13100 30.04100
H  44.49000 36.83800 28.75800
H  44.96400 35.90300 26.84100
H  44.36300 35.06000 25.39100
H  43.28800 35.28000 26.89900
H  40.39100 40.31900 22.81500
H  40.79300 43.17500 22.34000
H  42.19900 40.00700 21.51900
H  43.23200 40.86500 22.60100
H  42.38000 41.83400 21.33900
H  38.85900 41.84900 21.61500
H  38.35800 43.24900 22.25800
H  38.25300 41.02500 24.38600
H  37.59300 40.62000 22.84700
H  37.10600 42.21900 23.63400
H  38.97900 47.91300 26.52100
H  38.31500 46.72400 25.32900
H  39.96500 47.26300 25.23300
H  38.41400 44.93100 30.98500
H  41.82300 46.90200 33.05300
H  40.96100 46.10000 34.40700
H  40.39000 47.63500 33.58900

