158

Mg 24.50200 -4.99800 46.10700
C  26.41900 -2.74900 44.23600
C  21.96100 -4.37000 43.99200
C  23.05500 -7.75100 47.38600
C  27.48900 -5.74200 47.97000
N  24.27200 -3.79900 44.23800
C  25.12400 -2.85400 43.73100
C  24.59900 -2.11900 42.56200
C  23.04400 -2.41600 42.67800
C  23.02200 -3.57400 43.73700
C  22.09900 -1.24400 43.05400
C  25.34200 -2.59000 41.22000
C  25.98800 -1.50700 40.29600
H  25.81200 -1.56600 38.71400
N  22.68000 -5.93600 45.74900
C  21.74300 -5.40900 44.93000
C  20.51500 -6.13900 45.06200
C  20.83500 -7.24900 45.99200
C  22.28300 -7.01100 46.45400
C  19.25500 -5.81900 44.26500
C  19.93400 -8.38700 46.41500
O  18.86800 -8.48400 45.76500
C  20.24000 -9.50100 47.30900
N  25.17900 -6.58100 47.39100
C  24.37500 -7.52800 47.88100
C  25.04000 -8.25700 49.05800
C  26.34100 -7.53000 49.21800
C  26.37200 -6.57400 48.08300
C  24.28800 -8.57200 50.33400
C  27.59200 -8.43100 49.28100
C  27.50300 -9.64700 50.22200
N  26.49400 -4.43700 46.20000
C  27.56100 -4.71500 46.97700
C  28.72300 -3.86900 46.78800
C  28.27800 -3.09900 45.70400
C  26.94700 -3.47300 45.39600
C  29.98300 -3.82100 47.63600
C  28.67500 -2.00700 44.75900
O  29.73800 -1.46700 44.48500
C  27.56900 -1.77700 43.80100
C  27.07100 -0.36700 44.03100
O  26.24600 -0.03900 44.84000
O  27.50900 0.36200 43.01700
C  26.76200 1.67200 42.81400
H  21.13100 -4.11100 43.33200
H  22.59700 -8.58000 47.93000
H  28.41600 -5.89200 48.52700
H  24.77400 -1.09300 42.88500
H  22.73300 -2.76600 41.69400
H  22.61000 -0.28400 43.13000
H  21.79700 -1.45300 44.08100
H  21.35700 -1.19400 42.25800
H  24.58100 -3.08300 40.61500
H  26.18000 -3.22400 41.50900
H  27.07300 -1.57900 40.37000
H  25.78200 -0.53800 40.75100
H  18.47400 -6.57800 44.30500
H  19.40800 -6.02300 43.20600
H  18.91500 -4.78500 44.32100
H  21.13900 -10.03500 47.00100
H  19.43800 -10.23900 47.30800
H  20.37000 -9.08500 48.30800
H  25.35700 -9.20600 48.62600
H  26.39100 -6.88900 50.09800
H  24.66700 -8.27300 51.31100
H  24.13100 -9.62700 50.55400
H  23.31000 -8.11400 50.18800
H  28.42900 -7.81900 49.61700
H  27.79600 -8.76300 48.26300
H  28.05500 -9.52500 51.15400
H  27.89100 -10.46000 49.60800
H  26.50000 -9.94700 50.52500
H  30.64000 -4.65400 47.38300
H  29.66500 -3.97300 48.66700
H  30.42300 -2.84700 47.42600
H  27.90300 -1.88200 42.76900
H  25.70900 1.48200 43.02000
H  26.92300 1.99200 41.78500
H  26.93500 2.47900 43.52600
Mg 47.72800 25.17900 28.70400
C  48.59000 27.48400 31.21000
C  47.21400 22.76800 31.16700
C  47.36600 22.78900 26.30700
C  49.02800 27.36900 26.37100
N  47.94100 25.16900 30.95400
C  48.13700 26.26500 31.74400
C  47.82800 25.96200 33.18400
C  47.49900 24.48200 33.15200
C  47.61300 24.00400 31.65400
C  48.40400 23.62800 34.11100
C  46.78300 26.93800 33.80200
C  47.25200 27.79300 35.02300
H  46.18800 28.05500 36.06900
N  47.17800 23.11800 28.74500
C  47.02400 22.36100 29.85800
C  46.48500 21.09200 29.38800
C  46.60700 21.01400 27.98400
C  47.05100 22.34500 27.62000
C  45.97200 20.12700 30.40800
C  46.33600 19.85800 27.04700
O  46.57000 19.89100 25.85100
C  45.73400 18.63400 27.61000
N  48.06700 25.08800 26.60000
C  47.86200 23.99500 25.82100
C  48.26100 24.24900 24.38100
C  48.69900 25.80900 24.40100
C  48.60700 26.13000 25.84200
C  49.37900 23.33400 23.84300
C  47.74100 26.77700 23.64400
C  48.36400 28.11700 23.03900
N  48.55000 27.08900 28.72700
C  49.05500 27.86100 27.68100
C  49.54300 29.08900 28.18800
C  49.42500 28.94400 29.58400
C  48.79900 27.73800 29.87300
C  50.23900 30.16500 27.43000
C  49.67800 29.71800 30.81600
O  50.26800 30.79100 31.07700
C  49.17400 28.70900 31.93300
C  50.28600 28.38500 32.85500
O  51.10700 27.47600 32.76500
O  50.16900 29.15300 33.93700
C  51.16400 28.80200 35.02900
H  46.97100 22.03900 31.94200
H  47.20200 22.09000 25.48400
H  49.37200 28.05900 25.59800
H  48.83800 26.12500 33.56200
H  46.45300 24.31800 33.41300
H  47.83200 23.49800 35.03000
H  49.34500 24.13700 34.32200
H  48.57900 22.62400 33.72600
H  45.86300 26.45700 34.13500
H  46.56300 27.62400 32.98400
H  47.58100 28.78600 34.71400
H  48.08800 27.30000 35.51900
H  44.94900 19.88900 30.11500
H  45.91500 20.36900 31.46900
H  46.57400 19.22400 30.50500
H  46.42100 17.86500 27.96200
H  45.36700 18.04500 26.77000
H  44.92000 18.83900 28.30500
H  47.37600 24.24200 23.74500
H  49.73100 26.01200 24.11500
H  49.51600 22.39900 24.38700
H  50.34300 23.82800 23.72400
H  49.23400 23.08100 22.79200
H  47.01000 27.08200 24.39300
H  47.17000 26.24400 22.88500
H  47.75000 28.38500 22.17900
H  49.43200 27.98000 22.87300
H  48.23800 28.87100 23.81600
H  49.53600 30.99700 27.44900
H  50.42200 29.87500 26.39600
H  51.09600 30.55500 27.97900
H  48.38300 29.26700 32.43400
H  52.20400 28.66800 34.73200
H  50.98500 27.85100 35.53100
H  51.19200 29.64200 35.72300

