158

Mg 2.14200 -1.15200 43.69100
C  5.48800 -0.05100 43.28200
C  1.17900 1.78900 42.23400
C  -0.98200 -2.47300 43.51300
C  3.38900 -4.10300 44.92100
N  3.26000 0.55900 42.77600
C  4.59100 0.83900 42.66700
C  4.86600 2.23300 42.11500
C  3.47700 2.89700 41.97800
C  2.58600 1.65500 42.37900
C  3.19700 4.15300 42.85800
C  5.70400 2.22300 40.74600
C  5.21700 1.27600 39.61000
H  6.13600 0.15400 38.98000
N  0.39900 -0.45600 42.99500
C  0.17800 0.76000 42.42000
C  -1.13800 0.90000 41.99800
C  -1.83100 -0.25300 42.52000
C  -0.81300 -1.13600 43.04100
C  -1.67300 2.08600 41.28500
C  -3.31100 -0.41000 42.39800
O  -4.04100 0.49000 41.96600
C  -4.04900 -1.72900 42.79700
N  1.36500 -3.09700 43.88900
C  -0.00000 -3.39700 43.93000
C  -0.27200 -4.73600 44.57100
C  1.16700 -5.19100 45.00100
C  2.04600 -4.03100 44.57700
C  -1.35100 -4.93400 45.73100
C  1.61700 -6.55300 44.36300
C  2.49900 -7.43500 45.22700
N  4.05600 -1.95300 44.00800
C  4.38800 -3.14100 44.63100
C  5.84800 -3.17400 44.82800
C  6.32000 -1.97600 44.37400
C  5.19500 -1.28000 43.86500
C  6.72100 -4.34900 45.39600
C  7.47000 -1.10700 44.30100
O  8.61700 -1.35400 44.62400
C  6.96600 0.16400 43.60300
C  7.02700 1.25900 44.60100
O  7.64700 2.27900 44.38200
O  6.36200 0.96800 45.73100
C  6.25400 2.07700 46.71700
H  0.85300 2.73700 41.80000
H  -2.01400 -2.81400 43.62700
H  3.73200 -4.92500 45.55200
H  5.44400 2.92600 42.72600
H  3.09900 3.24100 41.01500
H  3.20800 3.87400 43.91200
H  2.25800 4.63000 42.57800
H  4.01600 4.85600 42.70900
H  6.67100 1.86300 41.09700
H  5.75200 3.23000 40.33100
H  4.78200 1.78300 38.74800
H  4.31300 0.81200 40.00600
H  -2.00700 1.63600 40.34900
H  -0.98400 2.88400 41.00900
H  -2.58000 2.59700 41.60600
H  -3.60700 -2.60900 42.33000
H  -5.11000 -1.67200 42.55400
H  -4.05700 -1.95900 43.86200
H  -0.49300 -5.41900 43.75100
H  1.15200 -5.27700 46.08800
H  -0.87900 -5.46000 46.56100
H  -2.21400 -5.48200 45.35500
H  -1.66600 -3.91700 45.96600
H  2.15700 -6.29300 43.45300
H  0.76500 -7.13300 44.00800
H  3.53100 -7.50400 44.88200
H  2.19600 -8.47300 45.36300
H  2.56900 -7.06300 46.24900
H  7.57100 -4.72400 44.82700
H  6.11000 -5.24800 45.48400
H  7.15700 -4.12300 46.36900
H  7.56800 0.53100 42.77100
H  6.42000 3.05100 46.25800
H  6.92500 1.93500 47.56400
H  5.26400 2.10900 47.17200
Mg 47.47700 14.87600 28.27900
C  45.43700 14.87200 30.97300
C  49.42100 17.10600 29.77400
C  49.13000 15.31500 25.35100
C  44.90500 13.11700 26.41500
N  47.37100 15.87000 30.13600
C  46.51200 15.64600 31.16700
C  47.00600 16.37700 32.43700
C  48.02300 17.39600 31.89100
C  48.26300 16.79000 30.48200
C  47.56300 18.85000 31.89100
C  47.45000 15.41200 33.66100
C  47.38000 16.00600 35.02600
H  48.52000 15.69900 35.95200
N  49.12300 15.92000 27.71000
C  49.72600 16.89800 28.43100
C  50.84600 17.48100 27.67600
C  50.90300 16.76300 26.38300
C  49.66500 15.91000 26.42900
C  51.71500 18.56800 28.24800
C  51.75700 16.88800 25.16600
O  51.71100 16.17600 24.13400
C  52.96500 17.80800 25.35500
N  47.13100 14.12900 26.23000
C  47.95600 14.54700 25.19400
C  47.46600 13.96000 23.86300
C  46.17200 13.21400 24.30400
C  46.04400 13.50200 25.72800
C  47.26900 15.05300 22.83600
C  46.15600 11.74000 23.91600
C  46.76700 10.75000 24.98100
N  45.52300 14.04600 28.60400
C  44.65100 13.41400 27.77400
C  43.55000 13.05600 28.57800
C  43.81100 13.57700 29.84100
C  45.04500 14.16800 29.80700
C  42.33900 12.30100 28.19100
C  43.34300 13.68000 31.15900
O  42.25100 13.24300 31.59200
C  44.39900 14.46300 32.00100
C  43.74000 15.66600 32.63900
O  43.34700 16.64700 32.06300
O  43.62200 15.45200 33.98100
C  42.89900 16.50800 34.73300
H  50.08100 17.77100 30.33600
H  49.59400 15.25800 24.36500
H  44.14400 12.53500 25.89100
H  46.16400 16.98700 32.76400
H  48.89600 17.38500 32.54400
H  48.17900 19.48100 32.53200
H  46.56600 18.95500 32.31700
H  47.58600 19.32200 30.90900
H  48.49000 15.09700 33.57300
H  46.76700 14.56200 33.67300
H  46.41200 15.86900 35.50800
H  47.41700 17.08400 34.86700
H  51.83600 19.32400 27.47200
H  52.58800 18.06900 28.67000
H  51.14200 19.05300 29.03900
H  53.63200 17.58900 26.18900
H  52.53700 18.80500 25.45700
H  53.57900 17.72100 24.45900
H  48.14400 13.15600 23.58100
H  45.37100 13.66800 23.72100
H  47.13000 16.06600 23.21400
H  46.44500 14.66700 22.23600
H  48.09300 14.97500 22.12700
H  46.79700 11.55200 23.05400
H  45.17100 11.41200 23.58400
H  46.10700 10.12000 25.57900
H  47.34100 11.31400 25.71600
H  47.44000 10.06700 24.46200
H  42.18500 11.57500 28.98900
H  42.40000 11.69900 27.28400
H  41.43100 12.89900 28.26600
H  44.70800 13.88300 32.87000
H  43.00500 16.20600 35.77500
H  41.86600 16.61300 34.40100
H  43.36900 17.48700 34.64500

