158

Mg 9.18100 3.04400 27.59700
C  10.74500 1.52300 30.36600
C  7.22700 4.80600 29.70800
C  7.65100 4.35900 24.79700
C  10.95200 0.88700 25.43200
N  8.97900 3.10800 29.80900
C  9.81500 2.53400 30.75900
C  9.52900 3.12900 32.16500
C  8.29100 4.02600 31.92900
C  8.10400 3.95900 30.41000
C  7.00100 3.69700 32.66100
C  10.76200 3.73000 32.90200
C  10.37200 4.52800 34.19100
H  11.05400 4.25600 35.52700
N  7.61900 4.49900 27.33600
C  6.95400 5.12100 28.38800
C  5.97900 6.07300 27.70600
C  6.26700 6.05000 26.28200
C  7.18300 4.92800 26.09800
C  4.95000 6.75200 28.50700
C  5.68800 6.90100 25.21300
O  5.73700 6.70200 24.02800
C  4.92000 8.02000 25.71900
N  9.19800 2.52700 25.45800
C  8.50600 3.29100 24.53000
C  8.75400 2.86600 23.06500
C  9.96600 1.79700 23.29800
C  10.06500 1.76300 24.81800
C  7.54800 2.28700 22.27300
C  11.40400 2.05800 22.72500
C  12.05800 1.07100 21.64800
N  10.55000 1.49500 27.80100
C  11.17700 0.72400 26.84400
C  12.12300 -0.15200 27.50000
C  11.92500 0.05500 28.87300
C  10.94600 1.09300 29.03000
C  12.96400 -1.28900 26.92300
C  12.35200 -0.37000 30.18900
O  13.15900 -1.25200 30.52800
C  11.74800 0.70900 31.24700
C  11.08800 0.02100 32.38800
O  10.37500 -0.96300 32.32600
O  11.47400 0.53400 33.60500
C  10.88600 -0.08300 34.77200
H  6.79400 5.56000 30.36900
H  7.09200 4.69500 23.92100
H  11.57000 0.19700 24.85300
H  9.20600 2.24200 32.71000
H  8.35900 5.09600 32.12100
H  6.75600 4.42900 33.43100
H  7.00900 2.66700 33.01600
H  6.15300 3.68200 31.97600
H  11.21600 4.40200 32.17400
H  11.38000 2.89700 33.23900
H  9.29600 4.45200 34.34600
H  10.51900 5.59000 33.99600
H  3.94800 6.41300 28.24300
H  5.15500 7.82300 28.52300
H  5.07500 6.52200 29.56500
H  4.01100 7.63100 26.17800
H  4.53100 8.70500 24.96600
H  5.54500 8.46400 26.49400
H  9.07800 3.73800 22.49600
H  9.64000 0.87400 22.81800
H  6.58900 2.34400 22.78800
H  7.64600 1.21000 22.13700
H  7.42500 2.84700 21.34500
H  12.10900 2.14500 23.55100
H  11.36500 3.07100 22.32400
H  11.32500 0.48100 21.09800
H  12.80600 0.38400 22.04500
H  12.50800 1.71700 20.89500
H  12.54400 -2.22800 27.28400
H  14.01000 -1.31600 27.22600
H  12.95400 -1.29100 25.83300
H  12.55700 1.26800 31.71900
H  9.82400 -0.30400 34.66100
H  10.90700 0.62100 35.60400
H  11.37600 -1.01300 35.06100
Mg 0.79100 43.96700 25.47500
C  2.58300 43.93800 28.50000
C  -2.10600 43.46700 27.31600
C  -0.87300 43.70600 22.53400
C  3.75400 44.61100 23.75300
N  0.29700 43.56400 27.63000
C  1.21700 43.72700 28.70700
C  0.57400 43.40300 30.03300
C  -0.91200 43.12500 29.57000
C  -0.95700 43.42900 28.09100
C  -1.43300 41.61700 29.77500
C  0.64300 44.65500 31.03500
C  1.33900 44.48900 32.40500
H  1.00000 43.25900 33.19000
N  -1.16400 43.62000 24.99300
C  -2.23200 43.61100 25.87900
C  -3.47900 43.37400 25.12900
C  -3.14400 43.31600 23.75100
C  -1.70000 43.57800 23.71400
C  -4.87600 43.38300 25.67900
C  -4.04300 43.21800 22.54900
O  -3.58400 43.07200 21.42800
C  -5.56900 43.25800 22.64400
N  1.34400 44.15200 23.45300
C  0.50000 43.90600 22.38200
C  1.29300 43.93700 21.04000
C  2.58500 44.72800 21.51500
C  2.60700 44.50200 23.01400
C  1.53200 42.56400 20.61800
C  2.61300 46.18900 21.03900
C  2.85400 46.29300 19.52300
N  2.72000 44.19000 25.96700
C  3.84000 44.42500 25.19800
C  5.09300 44.51800 25.93400
C  4.65200 44.33400 27.28500
C  3.21700 44.14000 27.21700
C  6.44900 44.76700 25.50700
C  5.06400 44.21800 28.71500
O  6.20400 44.16100 29.22400
C  3.72600 44.10200 29.51700
C  3.94800 42.88100 30.34700
O  3.60400 41.71900 30.09800
O  4.57500 43.29600 31.52200
C  4.97200 42.25500 32.55200
H  -3.00500 43.25500 27.89900
H  -1.33500 43.71900 21.54500
H  4.66100 44.79800 23.17400
H  1.05300 42.51800 30.45400
H  -1.67700 43.67500 30.11800
H  -0.64900 41.08900 30.31800
H  -1.72000 41.08500 28.86800
H  -2.32700 41.82600 30.36200
H  -0.35900 44.98700 31.30500
H  1.20300 45.39000 30.45600
H  1.01900 45.35900 32.97900
H  2.42400 44.57200 32.34100
H  -5.52500 44.17900 25.31600
H  -4.97100 43.22400 26.75300
H  -5.35500 42.46200 25.34400
H  -6.03400 42.34900 23.02600
H  -6.01900 43.32600 21.65400
H  -5.78900 44.09100 23.31200
H  0.78400 44.48300 20.24600
H  3.54300 44.25600 21.29600
H  2.26100 42.53100 19.80900
H  0.61200 42.11500 20.24100
H  1.88700 41.87800 21.38600
H  3.51900 46.53000 21.54000
H  1.72000 46.75400 21.30300
H  3.83900 46.70500 19.30300
H  2.23100 47.03700 19.02800
H  2.78700 45.28000 19.12800
H  7.12800 43.99600 25.87100
H  6.71600 45.76300 25.85900
H  6.48700 44.91800 24.42800
H  3.58700 45.03200 30.06900
H  4.55700 42.58200 33.50500
H  6.06100 42.27500 32.51800
H  4.58100 41.26500 32.31900

