158

Mg 17.13400 51.17200 26.18400
C  19.07000 50.22700 28.82700
C  14.70100 52.20600 28.45200
C  15.24200 52.12800 23.53300
C  19.73100 50.52900 23.91800
N  16.86000 51.10300 28.43400
C  17.88000 50.79400 29.27000
C  17.55100 51.27400 30.75300
C  16.00300 51.49700 30.63500
C  15.82500 51.57500 29.08500
C  15.18100 50.40000 31.33100
C  18.43700 52.37500 31.48500
C  18.72900 52.12800 32.98600
H  17.74100 51.38300 33.84100
N  15.20400 51.92500 26.04500
C  14.40700 52.47000 27.09500
C  13.28800 53.18400 26.54500
C  13.38100 53.14800 25.13300
C  14.70000 52.46000 24.89900
C  12.27700 53.85700 27.48100
C  12.48700 53.78800 24.05200
O  12.62600 53.54600 22.88000
C  11.37400 54.64500 24.42000
N  17.39700 51.19700 23.97600
C  16.46700 51.59400 23.09500
C  16.93000 51.55200 21.65300
C  18.50600 51.35600 21.91500
C  18.60600 51.01900 23.38000
C  16.22700 50.52100 20.73300
C  19.46600 52.40700 21.43100
C  19.57800 53.67900 22.38600
N  18.97200 50.34700 26.24400
C  19.93700 50.18000 25.30900
C  21.07800 49.70400 25.95200
C  20.76400 49.65300 27.32900
C  19.44200 50.10400 27.45800
C  22.40600 49.40200 25.34100
C  21.31800 49.40700 28.63700
O  22.42600 49.06800 28.96500
C  20.21600 49.67300 29.64300
C  19.81000 48.43300 30.39100
O  19.02200 47.56900 30.04900
O  20.39000 48.62000 31.66400
C  20.07000 47.59100 32.71800
H  14.08700 52.61500 29.25800
H  14.68400 52.54200 22.69100
H  20.58800 50.32800 23.27100
H  17.75900 50.41400 31.39000
H  15.70900 52.48800 30.98200
H  15.78700 49.69200 31.89600
H  14.71100 49.78800 30.56100
H  14.47800 50.83100 32.04300
H  17.99300 53.36700 31.55800
H  19.41600 52.40100 31.00600
H  18.73000 53.15600 33.35000
H  19.75300 51.75700 32.94400
H  11.51500 54.46100 26.98800
H  12.89000 54.44000 28.16800
H  11.77200 53.27300 28.25000
H  10.52000 54.15300 24.88500
H  10.88900 55.19200 23.61200
H  11.62500 55.48200 25.07200
H  16.77700 52.54300 21.22700
H  18.83200 50.41200 21.47700
H  15.16600 50.76800 20.77100
H  16.47400 49.55200 21.16700
H  16.64400 50.58300 19.72800
H  19.07900 52.70100 20.45500
H  20.40600 51.86900 21.30500
H  18.72400 53.79900 23.05200
H  19.49300 54.58900 21.79300
H  20.48200 53.54800 22.98200
H  22.52300 48.46600 24.79400
H  23.16000 49.41000 26.12700
H  22.68700 50.12400 24.57400
H  20.61600 50.52700 30.18900
H  19.47500 46.75900 32.34100
H  19.47400 48.13600 33.45000
H  20.95000 47.21000 33.23600
Mg -12.21200 37.45100 42.89000
C  -9.58100 35.19800 42.65600
C  -10.01700 39.88600 41.87800
C  -14.80100 39.52600 42.62800
C  -14.33600 34.75800 43.66500
N  -9.98100 37.57100 42.46300
C  -9.14200 36.51400 42.40100
C  -7.77200 36.89700 41.82500
C  -7.88800 38.49200 41.91400
C  -9.37200 38.67900 42.10900
C  -6.92200 39.14100 42.93500
C  -7.57900 36.40400 40.34200
C  -6.48600 35.35000 40.13600
H  -6.87000 34.42100 38.97400
N  -12.43700 39.40800 42.26700
C  -11.35400 40.27000 41.96900
C  -11.88600 41.55200 41.68500
C  -13.25000 41.50900 41.86100
C  -13.56900 40.13700 42.31700
C  -10.99300 42.72600 41.22400
C  -14.21100 42.70000 41.67500
O  -13.70200 43.80200 41.40900
C  -15.77500 42.58700 41.70600
N  -14.31100 37.13100 43.07100
C  -15.22800 38.19200 42.96800
C  -16.60800 37.74700 43.45700
C  -16.42200 36.27600 43.83000
C  -14.92800 36.03900 43.52900
C  -17.25700 38.58100 44.54500
C  -17.27700 35.33000 42.88800
C  -16.80600 34.86600 41.45700
N  -12.08400 35.39800 43.02300
C  -13.02100 34.41800 43.29500
C  -12.44200 33.13100 43.29100
C  -11.13500 33.35800 42.95700
C  -10.93300 34.76600 42.85900
C  -13.17000 31.87100 43.56800
C  -9.88300 32.73700 42.84100
O  -9.55600 31.55400 43.01700
C  -8.81100 33.85600 42.60700
C  -7.91300 33.83200 43.89700
O  -7.90900 34.61400 44.77800
O  -6.95300 32.88100 43.78900
C  -5.98900 32.74800 44.90400
H  -9.30200 40.68400 41.66600
H  -15.68100 40.14400 42.82000
H  -15.01000 33.98100 44.03000
H  -6.99200 36.50600 42.47800
H  -7.71800 38.92500 40.92800
H  -6.19300 38.44200 43.34600
H  -7.36400 39.57100 43.83400
H  -6.34600 39.92700 42.44800
H  -7.48300 37.22500 39.63100
H  -8.42800 35.76800 40.09300
H  -6.30000 34.72700 41.01100
H  -5.57200 35.91800 39.96300
H  -11.53800 43.28300 40.46200
H  -10.11700 42.36100 40.69000
H  -10.65100 43.37100 42.03400
H  -15.99700 41.72400 41.07800
H  -16.23100 43.48000 41.27700
H  -16.08300 42.44100 42.74100
H  -17.26600 37.80300 42.58900
H  -16.64600 36.13200 44.88700
H  -17.78900 38.03600 45.32400
H  -17.96900 39.19600 43.99300
H  -16.48800 39.25700 44.91800
H  -18.29500 35.69900 42.76300
H  -17.26300 34.45900 43.54400
H  -16.84000 33.77700 41.47600
H  -15.77800 35.09500 41.17400
H  -17.43200 35.27700 40.66500
H  -13.05600 31.76300 44.64600
H  -12.80000 31.00100 43.02600
H  -14.23200 31.98900 43.35400
H  -8.23900 33.58200 41.72100
H  -5.76900 31.68200 44.95300
H  -6.36400 33.18800 45.82800
H  -5.11200 33.25900 44.50700

