158

Mg 43.31400 2.92700 47.16500
C  41.65400 5.90000 46.49000
C  40.39500 1.16700 46.58900
C  45.10600 0.08600 47.10900
C  46.28300 4.81900 46.89900
N  41.29600 3.46300 46.65800
C  40.84000 4.75500 46.48100
C  39.37800 4.64800 46.00500
C  38.98600 3.25200 46.55100
C  40.30500 2.54200 46.60500
C  38.21200 3.19500 47.93100
C  39.21200 4.71700 44.47600
C  38.49100 6.00700 44.00300
H  39.09900 6.63100 42.70100
N  42.79800 0.87000 46.83500
C  41.59400 0.41200 46.67600
C  41.59600 -1.02800 46.64900
C  42.92200 -1.41600 46.63300
C  43.70200 -0.13500 46.87400
C  40.27400 -1.87200 46.63800
C  43.44700 -2.85000 46.43800
O  42.71500 -3.79700 46.17700
C  44.97000 -3.05400 46.54900
N  45.42500 2.52100 46.64800
C  45.85000 1.29600 47.06400
C  47.43200 1.33300 47.19600
C  47.72900 2.82800 46.80400
C  46.34000 3.41500 46.86100
C  48.00500 0.92200 48.62500
C  48.26500 2.87300 45.34500
C  49.75000 3.45300 45.29700
N  43.94400 5.00200 46.88800
C  45.14400 5.62200 46.83800
C  44.95600 7.02400 46.86000
C  43.58600 7.16000 46.68100
C  43.02800 5.93600 46.69600
C  46.02400 8.10000 46.98500
C  42.53100 8.16200 46.53300
O  42.60200 9.39900 46.42200
C  41.18900 7.32000 46.40000
C  40.36900 7.73800 47.56000
O  40.47400 7.34500 48.72900
O  39.45200 8.69500 47.08300
C  38.65600 9.47300 48.07000
H  39.46800 0.62000 46.40400
H  45.79400 -0.76200 47.09800
H  47.21500 5.38000 46.99300
H  38.74800 5.34400 46.56000
H  38.31600 2.68100 45.90700
H  38.95200 3.15900 48.73100
H  37.74200 2.21300 47.99000
H  37.52000 4.01900 48.10400
H  38.62600 3.84300 44.19000
H  40.23300 4.64100 44.10100
H  38.58900 6.73000 44.81200
H  37.41700 5.85900 43.89300
H  39.70800 -1.62500 45.73900
H  39.68100 -1.55100 47.49300
H  40.52200 -2.93200 46.58400
H  45.35400 -2.40700 45.76000
H  45.30000 -4.06900 46.32600
H  45.21300 -2.72700 47.56000
H  47.74600 0.57300 46.47900
H  48.35600 3.34000 47.53400
H  47.19900 0.49700 49.22400
H  48.41900 1.86000 48.99700
H  48.86400 0.25000 48.62200
H  47.68200 3.59200 44.77000
H  48.19400 1.92700 44.80800
H  49.59100 4.52500 45.18200
H  50.44400 2.97500 44.60600
H  50.14100 3.21000 46.28500
H  45.54500 9.05500 46.77000
H  46.70400 7.89800 46.15700
H  46.55600 7.87200 47.90900
H  40.64500 7.45800 45.46500
H  38.81200 9.26600 49.12800
H  37.59300 9.34400 47.86400
H  38.89500 10.50700 47.82000
Mg 9.09800 48.29200 27.40800
C  6.84800 48.21000 30.12600
C  11.74000 49.08100 29.44600
C  11.00200 48.42900 24.71400
C  6.17400 47.91600 25.35600
N  9.24200 48.60000 29.55800
C  8.23100 48.40400 30.48000
C  8.79800 48.41800 31.90200
C  10.25600 48.96000 31.62700
C  10.44000 48.92300 30.11000
C  10.30200 50.32000 32.33900
C  8.78700 47.05900 32.75800
C  9.81300 46.82000 33.89200
H  9.19900 46.36900 35.28000
N  11.03400 48.67700 27.14200
C  11.97400 48.97000 28.07000
C  13.30400 48.97400 27.52400
C  13.13600 49.00000 26.13600
C  11.66900 48.62700 25.90900
C  14.57800 49.14700 28.48400
C  14.12700 49.27000 25.00100
O  13.82500 49.13700 23.83500
C  15.60200 49.59700 25.35200
N  8.52600 48.24300 25.30900
C  9.60600 48.35900 24.43600
C  9.13800 48.23000 22.94700
C  7.58300 48.17200 23.13700
C  7.42200 48.06200 24.67200
C  9.65500 49.20700 21.84500
C  6.81700 47.01000 22.36600
C  6.76200 47.12700 20.85800
N  6.86800 48.14100 27.66100
C  5.87700 48.01100 26.71600
C  4.55900 47.90900 27.38400
C  4.89500 48.00600 28.76200
C  6.29400 48.11100 28.82400
C  3.13800 47.77100 26.71800
C  4.33900 47.95100 30.08300
O  3.18300 47.87200 30.41700
C  5.63700 47.98300 31.04900
C  5.62800 46.64600 31.64800
O  5.92600 45.58500 31.09300
O  5.21100 46.73000 32.96100
C  5.20000 45.45700 33.70200
H  12.58100 49.14100 30.14000
H  11.59400 48.44700 23.79700
H  5.26000 47.86200 24.76100
H  8.11400 49.09200 32.41700
H  10.98000 48.26200 32.04700
H  11.29200 50.38800 32.79200
H  9.53600 50.37900 33.11200
H  10.13900 51.11500 31.61200
H  8.83700 46.24800 32.03100
H  7.77000 47.04200 33.15000
H  10.24200 47.77300 34.19900
H  10.42700 45.98700 33.55000
H  15.43200 48.62800 28.05000
H  14.46400 48.70400 29.47300
H  14.85000 50.20000 28.55400
H  16.08600 48.62900 25.22400
H  15.72300 50.17400 26.26900
H  16.00000 50.24900 24.57400
H  9.40200 47.21400 22.65400
H  7.15100 49.12900 22.84600
H  10.27000 48.72100 21.08800
H  10.31600 49.97000 22.25600
H  9.03200 49.79400 21.17000
H  5.84700 47.07200 22.86000
H  7.33300 46.07600 22.58500
H  7.18500 46.17600 20.53400
H  7.23200 47.91900 20.27500
H  5.72000 47.16100 20.53800
H  3.03500 46.83500 26.17000
H  3.03000 48.53500 25.94900
H  2.37800 47.76400 27.50000
H  5.61500 48.70100 31.86900
H  4.71200 45.61300 34.66400
H  6.24500 45.27700 33.95700
H  4.75300 44.59200 33.21200

