158

Mg 55.47000 22.71100 44.27100
C  53.31100 25.44300 43.27500
C  53.05700 20.58400 43.10900
C  57.66200 20.32300 44.81000
C  57.79600 25.10200 45.31900
N  53.49200 23.04300 43.18500
C  52.81200 24.20600 42.95700
C  51.33700 23.94800 42.57900
C  51.19100 22.38600 42.95900
C  52.68800 21.96800 42.97200
C  50.33600 21.98000 44.26000
C  50.99900 24.32400 41.07800
C  49.56500 24.67300 40.76400
H  48.84200 23.98100 39.62500
N  55.45100 20.70400 43.84900
C  54.36700 19.96400 43.42500
C  54.65400 18.56200 43.51600
C  55.99300 18.43800 43.99300
C  56.45800 19.85500 44.26500
C  53.66300 17.56600 42.99600
C  56.80000 17.14100 44.00400
O  56.29500 16.08200 43.68200
C  58.19700 17.12600 44.23300
N  57.47300 22.68400 44.83400
C  58.19800 21.58500 44.96400
C  59.68500 21.85000 45.25000
C  59.62500 23.36400 45.56700
C  58.22900 23.78500 45.24900
C  60.35900 21.02000 46.40300
C  60.70000 24.20000 44.69300
C  61.09300 25.62200 45.23400
N  55.60700 24.82000 44.29900
C  56.56500 25.62000 44.82100
C  56.18500 27.00800 44.61900
C  54.87400 26.94500 44.21900
C  54.57100 25.61300 43.94200
C  57.01300 28.31700 44.87000
C  53.69700 27.73600 43.89900
O  53.47600 28.90800 44.08000
C  52.68700 26.81400 43.17200
C  52.57300 27.26600 41.75700
O  53.44500 27.06800 40.92500
O  51.27300 27.77200 41.57400
C  50.99900 28.21100 40.16000
H  52.34000 19.76900 42.99100
H  58.44300 19.61500 45.09500
H  58.46200 25.91100 45.62800
H  50.71800 24.50900 43.27900
H  50.70600 21.79600 42.18100
H  51.03200 21.55900 44.98500
H  49.52700 21.27900 44.05300
H  49.92500 22.85800 44.75900
H  51.09200 23.36700 40.56500
H  51.80900 24.93100 40.67200
H  49.78700 25.68800 40.43500
H  48.99600 24.43200 41.66200
H  52.61000 17.80100 43.14800
H  53.78100 16.64900 43.57400
H  53.87000 17.30200 41.95900
H  58.56200 17.91500 43.57400
H  58.75200 16.22200 43.98400
H  58.43400 17.35700 45.27100
H  60.16300 21.71500 44.28000
H  59.75500 23.54900 46.63400
H  59.72000 20.29200 46.90200
H  60.89000 21.44700 47.25400
H  60.94000 20.21000 45.96100
H  60.23700 24.39700 43.72600
H  61.63500 23.70000 44.43900
H  60.49600 26.32100 44.64800
H  62.12200 25.81300 44.92900
H  60.99400 25.81900 46.30100
H  57.48200 28.20000 45.84700
H  56.36400 29.18400 44.74900
H  57.81600 28.47000 44.14900
H  51.71400 26.80500 43.66300
H  51.88700 28.71400 39.77800
H  50.23100 28.98500 40.14900
H  50.74000 27.39300 39.48800
Mg 48.16100 16.18100 28.49700
C  46.12000 15.86500 31.20100
C  50.21400 18.18400 30.30200
C  49.91700 16.62800 25.63800
C  45.59500 14.62900 26.49500
N  48.17700 17.01500 30.46600
C  47.32700 16.56100 31.45400
C  47.73500 17.03200 32.84700
C  48.81000 18.06000 32.51300
C  49.07000 17.76500 30.99900
C  48.26400 19.48600 32.72000
C  48.04300 15.85500 33.82200
C  47.49300 15.92400 35.24300
H  47.22600 17.29000 35.88200
N  49.98900 17.10300 28.11100
C  50.62700 17.96100 28.95900
C  51.78300 18.44000 28.34300
C  51.75600 18.00400 26.96500
C  50.50000 17.26600 26.82700
C  52.84900 19.36300 29.00500
C  52.80100 18.37700 25.79300
O  52.64900 17.95500 24.66900
C  54.07200 19.05000 26.12400
N  47.84000 15.65600 26.29700
C  48.76700 15.85000 25.39100
C  48.40900 15.24900 24.05400
C  47.14600 14.42000 24.40000
C  46.84700 14.86300 25.84000
C  48.33000 16.33600 22.90000
C  47.25100 12.91000 24.13000
C  46.02200 12.19600 23.64800
N  46.20600 15.42000 28.71000
C  45.31300 14.78900 27.90800
C  44.12700 14.37500 28.63000
C  44.37500 14.82000 29.93000
C  45.68200 15.36900 29.94300
C  43.01500 13.61200 27.98500
C  43.90200 14.89500 31.23700
O  42.78700 14.53000 31.68000
C  45.05700 15.49800 32.18000
C  44.48900 16.61900 32.93200
O  44.29600 17.76900 32.49800
O  44.16800 16.12900 34.16500
C  43.43200 17.04500 35.10500
H  50.88900 18.78500 30.91600
H  50.52800 16.95900 24.79600
H  44.89000 14.05100 25.89300
H  46.82300 17.54600 33.14900
H  49.76600 17.94200 33.02300
H  48.98200 19.93900 33.40500
H  47.29100 19.56300 33.20500
H  48.08200 20.06000 31.81200
H  49.11100 15.67100 33.94100
H  47.65800 14.96000 33.33300
H  48.22100 15.44400 35.89700
H  46.54600 15.39100 35.33300
H  53.22400 20.15500 28.35700
H  53.56000 18.57000 29.23800
H  52.41800 19.79100 29.91000
H  54.53700 18.46300 26.91700
H  54.06600 20.12700 26.29200
H  54.61700 18.86100 25.19900
H  49.23100 14.58500 23.78700
H  46.32200 14.78000 23.78300
H  47.38700 16.16500 22.38000
H  49.13500 16.25000 22.17000
H  48.27600 17.35600 23.28000
H  47.48100 12.44700 25.09000
H  48.02100 12.68200 23.39300
H  46.20900 11.88500 22.62000
H  45.15600 12.82600 23.84900
H  45.98900 11.30100 24.26900
H  43.19400 12.56600 28.23600
H  42.99800 13.75000 26.90400
H  42.06300 13.95300 28.39100
H  45.41000 14.69000 32.82100
H  42.40200 17.21400 34.79100
H  43.95700 17.99300 34.98900
H  43.58300 16.54100 36.06000

