158

Mg 1.51800 42.28300 25.90300
C  3.87900 42.01100 28.54100
C  -0.96100 41.54300 28.20100
C  -0.50900 41.80900 23.38100
C  4.22400 42.89500 23.74000
N  1.53500 41.88400 28.03000
C  2.52700 41.88700 28.92700
C  2.04400 41.90100 30.33700
C  0.54600 41.57400 30.27400
C  0.36200 41.69500 28.73600
C  0.24500 40.16300 30.93900
C  2.27400 43.31400 30.96000
C  2.58000 43.41500 32.44000
H  2.10000 42.22000 33.38200
N  -0.48100 41.79900 25.80300
C  -1.27200 41.38000 26.85100
C  -2.58800 40.92700 26.33400
C  -2.59100 41.08000 24.97200
C  -1.18600 41.58300 24.67800
C  -3.65000 40.35000 27.34400
C  -3.67400 40.86200 23.90400
O  -3.50100 41.11100 22.71700
C  -5.04600 40.27900 24.45700
N  1.84500 42.22200 23.86200
C  0.81200 42.22800 23.01100
C  1.27700 42.35300 21.52100
C  2.73400 43.02700 21.74200
C  2.92800 42.74800 23.25300
C  1.44200 41.00000 20.78400
C  2.70900 44.56600 21.43700
C  3.35800 45.09500 20.07600
N  3.65500 42.48100 26.02800
C  4.64900 42.73700 25.11600
C  5.89100 42.77500 25.78000
C  5.62100 42.51600 27.12700
C  4.27500 42.27900 27.21200
C  7.23100 43.14200 25.23300
C  6.29500 42.33800 28.44300
O  7.43800 42.35700 28.81700
C  5.08700 42.19700 29.40800
C  5.36500 41.12200 30.48200
O  5.08400 39.96100 30.32400
O  6.04800 41.64000 31.55500
C  6.23800 40.78900 32.68400
H  -1.75100 41.35900 28.93200
H  -1.25100 41.62000 22.60200
H  4.94200 43.29600 23.02200
H  2.64000 41.22400 30.95100
H  -0.03800 42.33100 30.79800
H  -0.01400 39.45300 30.15300
H  -0.63300 40.28600 31.57200
H  1.01300 39.82100 31.63300
H  1.37800 43.90400 30.76800
H  3.06300 43.84000 30.42200
H  1.99900 44.20800 32.91000
H  3.66200 43.49200 32.53800
H  -4.73400 40.35600 27.22900
H  -3.60200 40.92900 28.26700
H  -3.41200 39.31300 27.58100
H  -4.77300 39.37700 25.00500
H  -5.64000 40.05200 23.57200
H  -5.51500 41.03600 25.08600
H  0.58400 43.05100 21.05100
H  3.44900 42.46600 21.13900
H  2.43100 40.81500 20.36300
H  0.84700 41.15100 19.88300
H  0.94100 40.14200 21.23000
H  3.16300 45.11800 22.26000
H  1.65100 44.82100 21.50300
H  2.73700 45.90500 19.69500
H  3.38300 44.30500 19.32500
H  4.31000 45.58900 20.26900
H  7.46600 44.18800 25.42900
H  7.16600 43.14200 24.14500
H  8.09500 42.59600 25.60900
H  5.06800 43.15900 29.92000
H  7.27000 40.44000 32.65100
H  5.60700 39.90100 32.71200
H  6.27400 41.40400 33.58300
Mg -1.37900 33.58700 26.50300
C  -3.19000 31.98200 29.10500
C  -0.22700 35.81500 29.01400
C  0.04700 35.50500 24.18800
C  -3.29400 31.91800 24.17700
N  -1.62600 33.76000 28.80300
C  -2.34700 32.96600 29.67900
C  -2.28200 33.42100 31.06800
C  -1.42900 34.74200 30.98900
C  -1.09000 34.81000 29.50000
C  -2.20500 35.95500 31.52700
C  -1.63700 32.37800 32.08700
C  -2.33600 32.39300 33.54400
H  -1.37200 32.17800 34.72400
N  -0.21000 35.35100 26.61000
C  0.20100 36.09500 27.65800
C  1.14400 37.09200 27.25100
C  1.17100 37.10900 25.84100
C  0.30000 35.97700 25.49500
C  1.81300 38.06300 28.23300
C  1.86100 38.12000 24.92100
O  1.77100 38.10400 23.73400
C  2.73400 39.13200 25.56000
N  -1.72800 33.82000 24.49500
C  -0.86700 34.53600 23.73900
C  -1.12000 34.28900 22.23600
C  -2.03700 32.95700 22.26000
C  -2.36000 32.91400 23.70100
C  -1.85900 35.47500 21.55400
C  -1.42000 31.64900 21.68400
C  -0.95400 30.47700 22.65000
N  -2.82800 32.12200 26.53000
C  -3.60300 31.58300 25.53900
C  -4.50200 30.58100 26.13100
C  -4.33800 30.68600 27.50800
C  -3.38700 31.61800 27.72700
C  -5.50500 29.90700 25.40200
C  -4.84300 30.18000 28.73900
O  -5.71800 29.39500 29.08700
C  -3.99200 30.93500 29.86600
C  -5.00900 31.50300 30.72600
O  -5.55000 32.58200 30.74700
O  -5.18600 30.59000 31.73400
C  -5.96900 30.95700 32.97800
H  0.14300 36.51200 29.76900
H  0.59100 36.03700 23.40500
H  -3.69200 31.26500 23.39800
H  -3.30200 33.67300 31.35800
H  -0.44600 34.68900 31.45700
H  -1.58300 36.48000 32.25200
H  -3.08500 35.64800 32.09300
H  -2.52800 36.68800 30.78900
H  -0.64300 32.71200 32.38400
H  -1.52700 31.38400 31.65400
H  -3.08800 31.60500 33.50900
H  -2.90300 33.31300 33.68400
H  1.98200 37.56000 29.18500
H  1.18400 38.94700 28.34100
H  2.84800 38.35700 28.05900
H  3.64900 38.72300 25.98800
H  2.20700 39.73000 26.30300
H  3.18400 39.76700 24.79700
H  -0.16300 34.21800 21.71800
H  -3.02400 33.04200 21.80600
H  -1.47500 35.74200 20.56900
H  -2.00000 36.32800 22.21800
H  -2.86300 35.07300 21.42600
H  -0.42200 31.86000 21.29900
H  -1.99200 31.33500 20.81100
H  -0.61700 30.88300 23.60400
H  -0.00400 30.11800 22.25400
H  -1.63400 29.63300 22.76300
H  -5.04600 28.98600 25.04200
H  -5.79200 30.54000 24.56400
H  -6.38800 29.69500 26.00400
H  -3.41500 30.21400 30.44400
H  -6.93500 31.30500 32.61100
H  -5.49500 31.78600 33.50400
H  -6.21900 30.10800 33.61400

