158

Mg 49.52300 35.26300 26.71900
C  47.36700 34.05600 29.13600
C  50.00600 38.03900 28.45900
C  51.42600 36.41200 24.10500
C  48.74400 32.41000 24.78500
N  48.67400 36.00000 28.56300
C  47.96700 35.26800 29.45600
C  48.06100 35.88400 30.79500
C  48.62200 37.28500 30.58300
C  49.11200 37.17600 29.10400
C  47.67100 38.53900 30.80500
C  49.19100 35.12100 31.64600
C  48.94400 34.67900 33.04900
H  47.85200 35.47000 33.80300
N  50.52400 37.07400 26.28200
C  50.64200 38.09300 27.20400
C  51.52000 39.11700 26.67900
C  51.95200 38.62400 25.40900
C  51.32500 37.33200 25.21700
C  51.77300 40.42900 27.39900
C  52.70500 39.35500 24.39200
O  52.77100 39.00300 23.22500
C  53.30900 40.68300 24.68900
N  49.97500 34.52100 24.77300
C  50.78500 35.16600 23.90200
C  51.16600 34.29900 22.70900
C  50.44500 32.97200 22.95300
C  49.63300 33.28800 24.20400
C  50.88700 35.05600 21.26000
C  51.45800 31.83900 23.03500
C  51.23400 30.77300 22.00600
N  48.30400 33.67400 26.85100
C  48.05600 32.63300 25.98100
C  47.11600 31.72200 26.54200
C  46.73300 32.25700 27.82600
C  47.52500 33.41900 27.89700
C  46.74700 30.33800 25.90700
C  45.92700 31.97000 28.95000
O  45.12400 31.10600 29.27000
C  46.43000 33.12800 29.95300
C  46.97700 32.45500 31.15300
O  48.09400 31.98100 31.24700
O  45.85400 32.34300 32.05100
C  46.10200 31.58000 33.26700
H  50.23200 38.84600 29.15900
H  52.10100 36.65800 23.28200
H  48.51100 31.44300 24.33400
H  47.14200 35.94900 31.37700
H  49.50900 37.47400 31.18800
H  47.56800 39.11800 29.88700
H  48.18800 39.11600 31.57200
H  46.66600 38.46100 31.22000
H  50.16400 35.60800 31.57600
H  49.26400 34.22700 31.02700
H  49.81300 35.04400 33.59700
H  48.88600 33.59800 33.17800
H  51.51600 40.29100 28.44900
H  51.20000 41.24200 26.95300
H  52.84200 40.63900 27.43400
H  52.52700 41.40100 24.94000
H  53.88200 41.13500 23.88000
H  54.01500 40.45100 25.48600
H  52.24700 34.17900 22.76900
H  49.70600 32.83600 22.16300
H  50.65000 36.10100 21.46100
H  50.31400 34.54000 20.48900
H  51.88000 35.11700 20.81600
H  51.33700 31.35900 24.00600
H  52.45900 32.22900 22.84700
H  51.87700 30.81500 21.12700
H  50.22700 30.64800 21.60800
H  51.42400 29.82700 22.51300
H  45.90100 29.90400 26.44100
H  47.52600 29.58200 25.81100
H  46.47700 30.40800 24.85300
H  45.54700 33.67000 30.29100
H  47.09100 31.12500 33.21500
H  45.46900 30.70400 33.40700
H  45.97000 32.29200 34.08100
Mg 35.99200 48.82700 24.95800
C  36.16200 47.26900 28.16200
C  35.03800 51.66600 26.68200
C  35.79200 50.19900 22.03600
C  36.90200 45.78200 23.51300
N  35.64800 49.36800 27.24600
C  35.81000 48.60100 28.34300
C  35.68800 49.44400 29.63200
C  35.14100 50.83800 29.09900
C  35.28800 50.64900 27.60200
C  33.69300 51.28700 29.50600
C  36.94100 49.44400 30.46600
C  36.88700 49.22600 31.91400
H  35.52300 49.33200 32.67000
N  35.41600 50.61500 24.43500
C  35.09000 51.69700 25.26300
C  35.02300 52.86900 24.41900
C  35.17900 52.43200 23.10000
C  35.48300 50.99700 23.17500
C  34.80700 54.30200 24.97800
C  34.99100 53.31300 21.88400
O  35.07900 52.90700 20.71800
C  34.79000 54.82000 22.03800
N  36.20600 48.08200 23.00800
C  36.14700 48.86000 21.94400
C  36.44700 48.09200 20.60300
C  36.95500 46.69100 21.17300
C  36.58900 46.87100 22.65800
C  35.17500 47.84500 19.80700
C  38.51900 46.48300 20.95900
C  38.83000 46.00400 19.51100
N  36.41900 46.90700 25.66700
C  36.83500 45.77700 24.92100
C  37.13400 44.68500 25.81900
C  36.89800 45.22600 27.11300
C  36.39500 46.57400 26.90500
C  37.62400 43.36100 25.43200
C  37.00300 44.97500 28.51900
O  37.52600 43.99200 29.05800
C  36.51100 46.22600 29.31300
C  35.33400 45.86200 30.12500
O  34.25100 45.59400 29.66500
O  35.69500 45.83500 31.44400
C  34.67000 45.15200 32.24700
H  34.77200 52.65100 27.07200
H  35.67700 50.69300 21.06900
H  37.25400 44.87400 23.02000
H  34.84000 49.03300 30.17900
H  35.91200 51.57200 29.33600
H  33.79100 52.19500 30.10200
H  33.20500 50.59500 30.19100
H  33.06100 51.42100 28.62800
H  37.32200 50.45200 30.29800
H  37.72700 48.79100 30.08700
H  37.56400 49.97600 32.32200
H  37.28500 48.25300 32.20100
H  35.27000 55.10500 24.40500
H  35.39300 54.34100 25.89700
H  33.76400 54.49800 25.22700
H  34.52900 55.20800 21.05300
H  35.79100 55.16600 22.29400
H  33.98100 55.14800 22.69000
H  37.29000 48.48100 20.03200
H  36.49700 45.73900 20.90300
H  34.27300 47.77600 20.41400
H  35.36000 46.97200 19.18000
H  35.10400 48.71600 19.15700
H  38.96700 45.91200 21.77300
H  38.97600 47.46500 21.08200
H  39.43800 45.10100 19.56600
H  39.45800 46.79000 19.09300
H  37.91400 45.75600 18.97400
H  36.90200 42.69800 24.95400
H  37.86300 42.91100 26.39600
H  38.50600 43.48300 24.80300
H  37.41100 46.47600 29.87500
H  33.76200 45.74200 32.36700
H  35.12800 45.01000 33.22600
H  34.36800 44.19900 31.81000

