158

Mg -10.73100 16.75200 40.65000
C  -7.39300 16.09900 41.14800
C  -10.00800 19.98300 39.84700
C  -13.86700 17.06600 39.45900
C  -11.24900 13.19700 40.71600
N  -8.86600 17.84500 40.53600
C  -7.62600 17.42700 40.74100
C  -6.61400 18.55100 40.53100
C  -7.54300 19.85000 40.57100
C  -8.90300 19.21600 40.36700
C  -7.64300 20.64000 41.94800
C  -5.95500 18.41600 39.08700
C  -4.48500 17.94300 39.07000
H  -4.19300 16.69200 38.27300
N  -11.86300 18.28200 39.90200
C  -11.34700 19.52900 39.60900
C  -12.40900 20.31900 38.96500
C  -13.60800 19.58700 38.97800
C  -13.12300 18.26000 39.46400
C  -12.15100 21.59000 38.38700
C  -15.00400 20.00200 38.59900
O  -15.17700 21.16900 38.34300
C  -16.17300 19.09800 38.78000
N  -12.24900 15.28900 39.94500
C  -13.51300 15.71700 39.77300
C  -14.50600 14.59700 39.90300
C  -13.61700 13.30200 39.96800
C  -12.28700 13.94400 40.25500
C  -15.59200 14.79300 41.10200
C  -13.69100 12.33500 38.76300
C  -13.79800 10.85000 39.08200
N  -9.54100 14.92500 40.88600
C  -9.99000 13.65100 41.01900
C  -8.75800 12.85700 41.38600
C  -7.70600 13.74900 41.48200
C  -8.29300 14.99000 41.15400
C  -8.73500 11.45100 41.78800
C  -6.30000 13.93600 41.75300
O  -5.38800 13.09600 41.96700
C  -6.07600 15.47400 41.63100
C  -5.73800 15.98100 42.95400
O  -6.45400 16.10700 43.94200
O  -4.36100 16.20000 43.02800
C  -3.82100 16.54200 44.35700
H  -9.62400 20.97500 39.60000
H  -14.89100 17.10500 39.08300
H  -11.37800 12.12000 40.84900
H  -5.89900 18.49900 41.35200
H  -7.33000 20.61900 39.82900
H  -7.68300 21.69900 41.69400
H  -6.75300 20.38600 42.52400
H  -8.53400 20.40700 42.53000
H  -6.04300 19.43100 38.70200
H  -6.60200 17.75300 38.51300
H  -4.25100 17.76200 40.11900
H  -3.88100 18.74800 38.65200
H  -12.00500 21.48500 37.31200
H  -11.24100 22.04400 38.78000
H  -12.87200 22.39800 38.51400
H  -16.94200 19.86000 38.90900
H  -16.07300 18.45800 39.65700
H  -16.41600 18.52300 37.88700
H  -15.12600 14.48700 39.01200
H  -13.77000 12.72200 40.87800
H  -16.04700 15.72600 40.76900
H  -15.24000 15.07400 42.09500
H  -16.33100 14.02700 41.33600
H  -12.82300 12.44700 38.11400
H  -14.51300 12.60900 38.10100
H  -13.38400 10.56700 40.05000
H  -13.22900 10.26700 38.35800
H  -14.81500 10.50400 38.89700
H  -7.97300 11.22100 42.53200
H  -8.49500 10.88700 40.88600
H  -9.72600 11.12100 42.09900
H  -5.15700 15.65300 41.07200
H  -2.78200 16.84900 44.24100
H  -3.89200 15.77100 45.12400
H  -4.32400 17.42000 44.76400
Mg -5.41500 25.45000 25.52800
C  -4.09900 26.81200 28.42700
C  -7.36100 23.42100 27.25200
C  -6.29800 24.10200 22.54500
C  -3.00300 27.43100 23.76900
N  -5.48200 24.94300 27.66800
C  -5.01400 25.78700 28.68100
C  -5.60000 25.39800 30.00600
C  -6.62800 24.24100 29.60600
C  -6.47800 24.14700 28.07000
C  -6.48900 22.93000 30.42400
C  -6.35700 26.52400 30.79900
C  -6.09700 26.55900 32.33400
H  -5.65900 25.29200 32.99800
N  -6.62300 23.90900 24.99600
C  -7.41500 23.21300 25.86600
C  -8.34400 22.29500 25.17900
C  -8.06500 22.54600 23.72900
C  -6.93200 23.55600 23.70500
C  -9.24400 21.39300 25.93800
C  -8.66800 21.81100 22.52300
O  -8.31500 22.09700 21.34500
C  -9.80900 20.87900 22.73100
N  -4.71700 25.69800 23.44200
C  -5.33700 25.07000 22.46400
C  -4.66100 25.33700 21.11000
C  -3.98200 26.65700 21.48800
C  -3.85000 26.59200 22.99800
C  -3.59900 24.26400 20.73800
C  -4.77400 27.84300 20.88400
C  -3.96900 28.82400 19.91400
N  -3.91300 26.95400 25.98200
C  -3.02400 27.63500 25.17000
C  -2.17300 28.49800 25.94100
C  -2.56400 28.19500 27.28300
C  -3.57900 27.23700 27.24100
C  -1.05300 29.41700 25.50000
C  -2.28400 28.49900 28.57200
O  -1.51600 29.28700 29.01500
C  -3.36900 27.69500 29.44900
C  -2.67500 26.99600 30.56900
O  -1.90800 26.08600 30.39400
O  -2.74800 27.64000 31.78700
C  -2.06700 27.01000 32.93400
H  -8.23500 23.05600 27.79600
H  -6.58600 23.72200 21.56200
H  -2.24700 27.84600 23.09900
H  -4.75900 24.99700 30.57100
H  -7.66600 24.53200 29.77200
H  -5.99400 22.25200 29.72800
H  -7.50700 22.65100 30.69600
H  -5.89900 23.06700 31.33000
H  -7.42500 26.49200 30.58500
H  -6.00800 27.46200 30.36700
H  -6.93100 26.95000 32.91600
H  -5.28400 27.23800 32.59000
H  -8.89300 21.23200 26.95700
H  -9.35000 20.40200 25.49500
H  -10.19800 21.90700 26.05600
H  -10.62400 21.44800 23.17700
H  -9.42800 20.09500 23.38600
H  -10.23300 20.41300 21.84200
H  -5.44900 25.43900 20.36300
H  -2.97000 26.66700 21.08200
H  -3.43700 23.98000 19.69800
H  -3.83300 23.32100 21.23300
H  -2.61400 24.57400 21.08600
H  -5.15000 28.27600 21.81000
H  -5.60700 27.55800 20.24100
H  -3.09500 28.26400 19.58300
H  -3.44700 29.55700 20.52900
H  -4.63200 29.18900 19.12900
H  -1.48600 29.92700 24.64000
H  -0.14500 28.82300 25.39400
H  -0.87900 30.10200 26.33000
H  -3.97400 28.45500 29.94400
H  -1.04300 26.70000 32.72200
H  -2.58100 26.25000 33.52200
H  -1.94900 27.86000 33.60500

