158

Mg 49.10200 47.27600 42.19200
C  45.69800 47.65100 41.12900
C  49.15600 44.30300 40.43800
C  52.37300 47.22400 42.68400
C  49.06300 50.75100 42.79200
N  47.63000 46.20400 40.84800
C  46.32100 46.49700 40.58300
C  45.62300 45.65300 39.55300
C  46.57100 44.41400 39.66400
C  47.88300 44.97800 40.37500
C  45.94800 43.16300 40.46700
C  45.65200 46.28600 38.15000
C  44.40700 46.15400 37.41900
H  44.63500 45.67400 35.97600
N  50.57900 45.79800 41.86900
C  50.39200 44.63200 41.15600
C  51.62500 43.92500 41.20600
C  52.56700 44.74200 41.92900
C  51.89700 45.96300 42.27400
C  51.82600 42.49000 40.66800
C  53.99400 44.42400 42.31100
O  54.44000 43.31500 42.08800
C  54.95000 45.38800 43.01600
N  50.53200 48.75700 42.73100
C  51.81000 48.49300 42.84600
C  52.64400 49.75400 43.25200
C  51.64200 50.84400 42.95000
C  50.28000 50.07000 42.90400
C  53.24700 49.77000 44.71600
C  52.05500 51.58200 41.63900
C  52.53100 52.93300 41.91100
N  47.64900 48.82500 42.32400
C  47.78800 50.17000 42.59500
C  46.54100 50.90200 42.37300
C  45.60000 49.84800 41.98500
C  46.38000 48.69600 41.85200
C  46.39300 52.32700 42.46800
C  44.23200 49.54100 41.63200
O  43.16900 50.24200 41.65900
C  44.24500 48.09700 41.02200
C  43.14300 47.30400 41.70500
O  43.17000 46.97800 42.92500
O  42.22200 46.83200 40.81100
C  41.83000 45.41500 41.01800
H  49.24400 43.32900 39.95100
H  53.45700 47.21700 42.81100
H  49.13500 51.83300 42.91500
H  44.60900 45.38200 39.84900
H  46.74500 44.07200 38.64300
H  45.15400 42.72700 39.86000
H  45.41200 43.50400 41.35300
H  46.71000 42.43200 40.73800
H  46.42800 45.70200 37.65400
H  45.98700 47.32300 38.19100
H  43.83900 47.07900 37.51500
H  43.77700 45.40300 37.89400
H  51.36300 42.12900 39.75000
H  51.57000 41.76700 41.44300
H  52.88100 42.31400 40.45800
H  54.61200 45.81100 43.96200
H  55.04700 46.22200 42.32100
H  55.89200 44.85500 43.14700
H  53.47800 49.68800 42.55400
H  51.65400 51.59800 43.73700
H  52.72300 49.04100 45.33400
H  53.24700 50.77500 45.13600
H  54.30400 49.50500 44.76100
H  51.11200 51.65500 41.09800
H  52.69200 50.89300 41.08500
H  52.92700 53.39800 41.00900
H  53.19800 53.00100 42.77100
H  51.62000 53.45900 42.19900
H  46.82000 52.73700 43.38300
H  45.34500 52.53400 42.68800
H  46.58800 52.93700 41.58600
H  43.89800 48.26700 40.00300
H  42.53400 44.80600 41.58600
H  41.74700 44.96100 40.03000
H  40.90400 45.35900 41.59000
Mg -11.73800 37.90500 41.11100
C  -9.40600 35.22900 40.43200
C  -9.41500 40.10000 39.92700
C  -14.23700 40.19100 41.03800
C  -13.99700 35.41600 42.14200
N  -9.78500 37.60900 40.03300
C  -8.97900 36.47600 40.00300
C  -7.56300 36.77000 39.42700
C  -7.57700 38.36200 39.44300
C  -9.02200 38.69100 39.81200
C  -6.67100 39.03300 40.50400
C  -7.39100 36.18300 38.02100
C  -6.38900 35.04300 37.90500
H  -5.25600 35.25800 36.87800
N  -11.80500 39.86400 40.63200
C  -10.67800 40.64100 40.25000
C  -11.14500 41.97200 40.18300
C  -12.50400 42.03000 40.51000
C  -12.91500 40.65000 40.69600
C  -10.25800 43.14400 39.80800
C  -13.34800 43.26600 40.58800
O  -12.94800 44.37800 40.22300
C  -14.84300 43.21800 41.04700
N  -13.81800 37.77800 41.43400
C  -14.66300 38.88600 41.38300
C  -16.12300 38.44500 41.67700
C  -15.89200 36.98700 42.20800
C  -14.47500 36.70600 41.94400
C  -16.94500 39.45500 42.57900
C  -16.87500 35.85800 41.75700
C  -17.58400 35.00900 42.89400
N  -11.83100 35.80500 41.29200
C  -12.75400 34.95400 41.85200
C  -12.22200 33.63300 41.99800
C  -10.97900 33.67900 41.38700
C  -10.77200 34.99500 40.96900
C  -12.82200 32.40600 42.60200
C  -9.79600 32.87100 41.14000
O  -9.51700 31.73000 41.43800
C  -8.79300 33.88300 40.57300
C  -7.52700 33.74900 41.34400
O  -6.68600 32.83100 41.14900
O  -7.38900 34.73400 42.22400
C  -6.14000 34.84600 43.05300
H  -8.67300 40.88000 39.74500
H  -15.13100 40.81900 41.06400
H  -14.58000 34.66100 42.67500
H  -6.82400 36.41500 40.14500
H  -7.21700 38.81800 38.52100
H  -6.64500 40.05400 40.12200
H  -5.64500 38.66900 40.54300
H  -7.23500 38.97100 41.43500
H  -6.99600 36.88600 37.28800
H  -8.35500 35.84500 37.64100
H  -6.93400 34.15300 37.58900
H  -5.97500 34.92200 38.90600
H  -9.24400 42.78400 39.63500
H  -10.17900 43.96000 40.52600
H  -10.63800 43.50500 38.85200
H  -15.05000 44.28800 41.03900
H  -14.88400 42.80400 42.05400
H  -15.51300 42.70300 40.35900
H  -16.71000 38.39700 40.75900
H  -16.02200 37.00500 43.29000
H  -17.58800 38.95700 43.30500
H  -17.51700 40.03700 41.85600
H  -16.25300 40.09400 43.12800
H  -16.39200 35.24800 40.99300
H  -17.77400 36.27400 41.30000
H  -18.56400 35.46000 43.05500
H  -17.02700 35.10000 43.82600
H  -17.73700 33.97200 42.59400
H  -13.89900 32.49500 42.74700
H  -12.37200 32.08200 43.54000
H  -12.69800 31.51500 41.98700
H  -8.67600 33.48700 39.56500
H  -5.28100 34.53000 42.46100
H  -6.22300 34.26900 43.97400
H  -5.97000 35.91000 43.21700

