158

Mg 1.78900 -2.87200 44.84300
C  5.09500 -2.21700 44.45500
C  1.00300 -0.33800 42.81000
C  -1.41500 -3.99200 44.75300
C  2.74500 -5.87100 46.46400
N  2.90000 -1.52800 43.52600
C  4.21900 -1.46200 43.56900
C  4.74100 -0.42500 42.47300
C  3.38600 0.29900 42.13500
C  2.35800 -0.54700 42.89000
C  3.25300 1.79800 42.42100
C  5.42200 -1.02500 41.18900
C  6.95000 -0.65700 41.10400
H  7.55100 -0.31900 39.74400
N  0.04700 -2.16500 44.01000
C  -0.08200 -1.01100 43.26500
C  -1.50000 -0.75500 43.04900
C  -2.23600 -1.75200 43.71700
C  -1.26500 -2.64400 44.19900
C  -2.00800 0.43200 42.26500
C  -3.74200 -1.83700 43.89100
O  -4.48800 -0.95600 43.47500
C  -4.34700 -2.88400 44.76200
N  0.79500 -4.83000 45.31900
C  -0.51900 -4.94800 45.37900
C  -0.94000 -6.38200 45.77200
C  0.38700 -6.94200 46.37700
C  1.40000 -5.78600 46.03500
C  -2.15200 -6.53800 46.74600
C  0.77600 -8.37300 45.86000
C  -0.22600 -9.47900 46.07700
N  3.56700 -3.80300 45.53500
C  3.79700 -4.92600 46.24000
C  5.27800 -5.00600 46.48800
C  5.81900 -3.91800 45.87000
C  4.76800 -3.28500 45.21900
C  6.03500 -6.25200 46.94200
C  7.04100 -3.19400 45.59800
O  8.18000 -3.48800 45.86700
C  6.56700 -2.12700 44.53600
C  7.13000 -0.82000 44.87400
O  8.11600 -0.39400 44.37600
O  6.26900 -0.08100 45.67400
C  6.59300 1.31100 45.81500
H  0.78600 0.53700 42.19300
H  -2.44200 -4.35700 44.81900
H  3.19800 -6.71600 46.98700
H  5.37400 0.16200 43.13800
H  3.15500 0.15700 41.07900
H  4.25000 2.23500 42.37000
H  2.80600 1.92100 43.40800
H  2.61300 2.26100 41.66900
H  4.91800 -0.75500 40.26100
H  5.29900 -2.10000 41.32700
H  7.53800 -1.46600 41.53800
H  7.14300 0.20300 41.74500
H  -2.90200 0.19500 41.68800
H  -1.23000 0.77000 41.58100
H  -2.35200 1.18300 42.97700
H  -4.58100 -3.75500 44.15000
H  -5.29900 -2.40600 44.99600
H  -3.80900 -3.08200 45.68900
H  -1.20000 -6.94600 44.87600
H  0.30500 -7.00800 47.46200
H  -1.83300 -6.64100 47.78300
H  -2.70500 -7.42800 46.44600
H  -2.80000 -5.66300 46.80800
H  1.75800 -8.58700 46.28200
H  1.02200 -8.21600 44.81000
H  -0.48600 -9.91500 45.11200
H  -1.14700 -9.15800 46.56400
H  0.16000 -10.31600 46.65900
H  6.75300 -5.83600 47.64800
H  6.50000 -6.71300 46.07000
H  5.35300 -6.90700 47.48400
H  6.95400 -2.44500 43.56800
H  7.50000 1.42500 46.40800
H  5.75300 1.83800 46.26800
H  6.75200 1.87100 44.89300
Mg 6.78200 54.15500 41.45400
C  5.85200 50.94900 40.50100
C  9.84300 53.63400 39.96300
C  7.32400 57.37500 41.83700
C  3.27500 54.79800 42.14400
N  7.69800 52.47100 40.18200
C  7.18000 51.27400 39.96900
C  8.17500 50.29600 39.25200
C  9.48400 51.14700 39.26800
C  9.00100 52.53000 39.75300
C  10.62400 50.58700 40.17000
C  7.61200 49.87000 37.86000
C  8.47900 50.03300 36.62500
H  7.91300 49.60200 35.22200
N  8.38100 55.36400 41.00200
C  9.52100 54.92300 40.47400
C  10.42700 56.11400 40.38300
C  9.70100 57.18600 40.76900
C  8.40100 56.68200 41.21400
C  11.80600 56.05000 39.68300
C  10.30500 58.55400 40.94400
O  11.45400 58.78400 40.65100
C  9.55300 59.75700 41.50700
N  5.45800 55.87700 41.89900
C  6.02900 57.12400 42.18300
C  4.98100 58.11700 42.72800
C  3.75100 57.18300 42.89800
C  4.14800 55.89200 42.19500
C  5.18400 58.90200 44.07600
C  2.48100 57.73200 42.29800
C  1.19900 57.77700 43.16600
N  4.96900 53.14800 41.41000
C  3.66900 53.55000 41.66200
C  2.80400 52.37800 41.55600
C  3.59600 51.32900 41.17900
C  4.91400 51.85700 41.02800
C  1.30000 52.37800 41.84200
C  3.60200 49.92000 40.87700
O  2.74400 49.04400 40.90600
C  5.17300 49.61800 40.66900
C  5.26800 48.74000 39.52900
O  4.69200 48.86600 38.43300
O  5.91800 47.59800 39.92000
C  5.70900 46.48700 38.94900
H  10.80400 53.49500 39.46500
H  7.51200 58.41700 42.10700
H  2.25300 54.92500 42.50800
H  8.33300 49.44400 39.91400
H  9.92800 51.46300 38.32400
H  10.71400 50.99800 41.17600
H  11.53700 50.92100 39.67900
H  10.56600 49.50200 40.07800
H  6.65800 50.38600 37.75200
H  7.37500 48.80600 37.85400
H  9.42800 49.55300 36.86400
H  8.62700 51.09500 36.42500
H  12.04800 55.03300 39.37300
H  12.68900 56.24100 40.29300
H  11.82200 56.62200 38.75500
H  9.34000 59.60800 42.56500
H  8.59900 59.82500 40.98300
H  10.10400 60.63300 41.16600
H  4.64600 58.74700 41.90500
H  3.73700 56.85300 43.93700
H  6.13200 58.62800 44.53900
H  4.49700 58.60300 44.86800
H  5.15800 59.97800 43.90400
H  2.27600 57.15300 41.39800
H  2.65300 58.75600 41.96800
H  1.46800 57.70600 44.22000
H  0.52500 56.98700 42.83400
H  0.71800 58.74200 43.01100
H  0.97900 51.33800 41.79200
H  0.80400 52.91700 41.03500
H  1.10000 52.81700 42.82000
H  5.68400 49.21800 41.54400
H  6.06400 45.64600 39.54400
H  6.30700 46.73500 38.07200
H  4.66900 46.28100 38.69700

