158

Mg 8.08200 47.76400 24.69400
C  5.76900 48.20800 27.19600
C  10.55000 48.90400 26.70300
C  10.22000 47.54100 21.95100
C  5.42200 47.29900 22.39600
N  8.14200 48.33200 26.72700
C  7.11000 48.45600 27.57600
C  7.61300 48.79800 29.02000
C  9.05400 49.32600 28.82700
C  9.27800 48.84500 27.34600
C  9.34300 50.79800 29.23700
C  7.41600 47.73500 30.11400
C  8.29800 47.83400 31.41400
H  7.73400 47.12100 32.65900
N  10.02700 48.14400 24.42900
C  10.90500 48.59100 25.37400
C  12.29300 48.55700 24.90100
C  12.23100 48.17800 23.46800
C  10.82000 47.92700 23.22100
C  13.48500 48.88900 25.71800
C  13.34700 47.94100 22.56300
O  13.19100 47.69400 21.36600
C  14.75700 48.07600 23.00200
N  7.86900 47.38900 22.48400
C  8.85400 47.28700 21.62200
C  8.36600 47.29200 20.13500
C  6.85400 47.14700 20.28200
C  6.70000 47.29600 21.81200
C  8.87500 48.61800 19.46200
C  6.18800 45.95500 19.60300
C  6.39700 45.73600 18.06200
N  6.00000 47.91100 24.69600
C  5.07900 47.54800 23.73600
C  3.78700 47.46500 24.38200
C  4.00100 47.80400 25.74700
C  5.37400 48.00600 25.86100
C  2.47500 47.26500 23.67900
C  3.36500 47.98800 27.04500
O  2.15000 47.87500 27.34600
C  4.48500 48.16600 28.01300
C  4.41400 46.88900 28.81200
O  5.00100 45.84100 28.57600
O  3.91800 47.21900 30.04900
C  3.93600 46.20000 31.08800
H  11.32300 49.28400 27.37400
H  10.86400 47.37600 21.08400
H  4.63600 47.17000 21.64900
H  7.05500 49.69500 29.29000
H  9.75800 48.72500 29.40100
H  9.36600 51.57800 28.47600
H  10.32100 50.84700 29.71500
H  8.56000 51.09800 29.93400
H  7.59200 46.78000 29.61800
H  6.38500 47.71000 30.46700
H  8.42900 48.89800 31.61100
H  9.26400 47.41900 31.12600
H  13.16300 49.19400 26.71400
H  14.05800 49.71400 25.29400
H  14.16200 48.05800 25.91800
H  14.97800 47.28000 23.71300
H  15.04300 49.10000 23.24100
H  15.34000 47.81800 22.11800
H  8.78800 46.41000 19.65400
H  6.30700 48.03000 19.95200
H  9.29700 49.26300 20.23300
H  8.02300 49.13300 19.01900
H  9.63500 48.33900 18.73200
H  5.10500 45.88300 19.71200
H  6.64100 45.11700 20.13300
H  6.47400 46.67900 17.52100
H  5.59100 45.11100 17.67900
H  7.31900 45.18200 17.88300
H  1.99300 48.23000 23.52000
H  1.93200 46.71400 24.44800
H  2.65700 46.67200 22.78400
H  4.25500 49.05200 28.60600
H  3.97100 46.71600 32.04700
H  4.86900 45.63500 31.06200
H  3.11100 45.50400 30.93800
Mg -10.76800 39.74000 42.76500
C  -9.00800 36.92000 41.63400
C  -8.55600 41.59000 40.95300
C  -12.90100 42.35700 43.16200
C  -13.37600 37.60800 43.91000
N  -9.01000 39.19900 41.29000
C  -8.40800 38.01900 41.08500
C  -7.08100 38.08600 40.18900
C  -6.83400 39.67200 40.28500
C  -8.19800 40.22400 40.83400
C  -5.63000 40.07800 41.12900
C  -7.32200 37.55200 38.74400
C  -6.54200 36.33800 38.23800
H  -5.94400 36.52100 36.90000
N  -10.73300 41.70400 42.19000
C  -9.79500 42.23600 41.40700
C  -10.05100 43.70600 41.23900
C  -11.15100 43.98500 42.05900
C  -11.66400 42.65400 42.52400
C  -9.26900 44.57500 40.39600
C  -11.60900 45.40100 42.32300
O  -11.06300 46.38900 41.86600
C  -12.91000 45.68500 43.11500
N  -12.83200 39.93500 43.56100
C  -13.51000 41.15200 43.60900
C  -14.90700 40.95100 44.20400
C  -15.07600 39.40100 44.29000
C  -13.66200 38.95200 43.86200
C  -15.10300 41.77700 45.50800
C  -16.26000 38.83800 43.37300
C  -17.05100 37.62900 43.92700
N  -11.05100 37.71400 42.93600
C  -12.15200 36.98700 43.46400
C  -11.83800 35.55900 43.42000
C  -10.59500 35.49600 42.65700
C  -10.11800 36.82700 42.43300
C  -12.72200 34.42100 43.91500
C  -9.63500 34.63300 42.12300
O  -9.60800 33.38400 42.10600
C  -8.58000 35.53600 41.44400
C  -7.24100 35.21900 41.87200
O  -6.88900 35.29300 43.04500
O  -6.66700 34.51000 40.86900
C  -5.37300 33.85800 41.08000
H  -7.79000 42.27600 40.58600
H  -13.51500 43.26000 43.15700
H  -14.19900 36.91100 44.08000
H  -6.29000 37.47800 40.62800
H  -6.65800 40.12400 39.30900
H  -4.88500 40.59500 40.52500
H  -5.14000 39.29300 41.70500
H  -5.95900 40.92000 41.73800
H  -7.42400 38.39200 38.05700
H  -8.34600 37.18300 38.69600
H  -7.21300 35.49500 38.07400
H  -5.68000 36.23600 38.89700
H  -8.74200 43.90600 39.71600
H  -8.54800 45.02500 41.07800
H  -9.89100 45.32800 39.91000
H  -12.87400 45.19400 44.08700
H  -13.78500 45.38500 42.53800
H  -13.06000 46.75100 43.28600
H  -15.70000 41.46300 43.66000
H  -15.27100 39.06400 45.30900
H  -14.13300 42.10700 45.87700
H  -15.63500 41.14000 46.21600
H  -15.68100 42.65500 45.22100
H  -15.82200 38.57300 42.41000
H  -16.87100 39.65700 42.99200
H  -18.01300 37.86400 44.38300
H  -16.44500 36.99900 44.57800
H  -17.17700 37.01700 43.03400
H  -12.23300 33.44900 43.86300
H  -13.65100 34.39200 43.34500
H  -13.06100 34.49900 44.94900
H  -8.67500 35.27600 40.39000
H  -4.67300 34.41000 41.70500
H  -4.87800 33.86100 40.10900
H  -5.55200 32.93700 41.63500

