158

Mg -1.71600 17.89700 27.38600
C  -2.53600 15.81000 29.99700
C  -2.61100 20.61900 29.37600
C  -1.19400 19.94100 24.77200
C  -1.32000 15.16000 25.28600
N  -2.37700 18.16900 29.50400
C  -2.74100 17.20400 30.35400
C  -3.10500 17.79100 31.72000
C  -3.44200 19.29700 31.29100
C  -2.80500 19.38700 29.98000
C  -4.90200 19.72500 31.25400
C  -1.95300 17.69700 32.71500
C  -2.19800 17.14000 34.12200
H  -1.01500 16.98400 35.05100
N  -1.62700 19.93300 27.20800
C  -1.97600 20.93300 28.14600
C  -1.78200 22.25000 27.56400
C  -1.40100 22.09700 26.19400
C  -1.36300 20.62400 26.02500
C  -2.19900 23.47900 28.33100
C  -1.23300 23.16600 25.03500
O  -0.81800 22.79600 23.94600
C  -1.29600 24.55300 25.45300
N  -1.40700 17.61300 25.25900
C  -1.16700 18.58000 24.39900
C  -0.97400 18.09900 23.01400
C  -0.80700 16.57700 23.22500
C  -1.21000 16.38600 24.69900
C  -2.08700 18.47800 21.97600
C  0.66600 16.00400 22.89800
C  1.85400 16.67600 23.65900
N  -1.94400 15.90100 27.53300
C  -1.72500 14.89300 26.64900
C  -1.80100 13.62900 27.34400
C  -2.09300 13.89600 28.66700
C  -2.16900 15.37100 28.72400
C  -1.85100 12.28800 26.73900
C  -2.37500 13.30000 29.92900
O  -2.34900 12.13900 30.31000
C  -2.67300 14.53400 30.82800
C  -1.65100 14.34600 31.90100
O  -0.49600 14.70000 31.78800
O  -2.16900 13.69700 32.95500
C  -1.22600 13.04600 33.88400
H  -2.88200 21.41200 30.07700
H  -0.88900 20.58000 23.94000
H  -1.11900 14.27800 24.67300
H  -3.97000 17.30300 32.16900
H  -3.00400 19.99000 32.01000
H  -5.51500 18.86200 31.51100
H  -5.17500 20.11400 30.27200
H  -5.11900 20.42400 32.06200
H  -1.66000 18.71100 32.98700
H  -1.13700 17.14100 32.25400
H  -2.50900 16.12100 33.89200
H  -2.97300 17.74400 34.59300
H  -1.35500 24.16700 28.38000
H  -2.50700 23.29600 29.36000
H  -3.06300 23.88400 27.80300
H  -2.30300 24.85100 25.74600
H  -0.98000 25.19000 24.62700
H  -0.51600 24.69800 26.20000
H  -0.02100 18.55200 22.74300
H  -1.44500 16.01500 22.54300
H  -2.80800 19.14600 22.44800
H  -2.57800 17.73000 21.35400
H  -1.52200 19.10600 21.28700
H  0.90500 16.32000 21.88300
H  0.69700 14.91500 22.88500
H  1.54100 17.20000 24.56200
H  2.56100 17.29100 23.10300
H  2.45000 15.81700 23.96900
H  -2.73800 11.76500 27.09500
H  -0.92500 11.76800 26.98500
H  -2.02500 12.45900 25.67700
H  -3.65100 14.49900 31.30900
H  -1.27900 11.97400 33.69200
H  -1.56200 13.17200 34.91300
H  -0.17700 13.31300 33.75600
Mg 26.86900 50.82900 25.99400
C  24.97700 52.03600 28.77000
C  29.51300 50.33000 28.08400
C  28.21800 49.57100 23.40500
C  24.26800 52.17000 23.88900
N  27.06700 50.94200 28.16600
C  26.17300 51.33900 29.10300
C  26.71700 51.17700 30.55400
C  28.25300 51.10000 30.27900
C  28.32300 50.74500 28.73500
C  29.09600 52.38900 30.65900
C  26.01100 49.91100 31.33400
C  25.43300 50.35000 32.69400
H  26.44200 50.92000 33.72800
N  28.62800 50.12400 25.75300
C  29.67500 49.99100 26.71500
C  30.69000 49.15600 26.06100
C  30.23400 48.70700 24.84300
C  28.96900 49.47700 24.58600
C  32.07100 48.85100 26.75400
C  30.84600 47.78200 23.74500
O  30.27600 47.47200 22.68100
C  32.15000 47.07300 24.08100
N  26.29500 50.96600 23.85200
C  27.02000 50.23800 23.03900
C  26.40100 50.20800 21.68000
C  25.16000 51.07900 21.78100
C  25.19900 51.37100 23.25200
C  27.33600 50.60900 20.56500
C  23.86400 50.35300 21.38900
C  22.81400 51.19200 20.54000
N  25.05000 51.93700 26.24900
C  24.17100 52.46800 25.26200
C  23.10600 53.17100 25.92400
C  23.30700 52.83700 27.33300
C  24.54200 52.19300 27.43200
C  21.91400 53.74800 25.33500
C  22.79000 53.17200 28.64400
O  21.77500 53.79900 28.91000
C  23.84800 52.59800 29.69200
C  24.10100 53.68200 30.65600
O  24.93000 54.59200 30.48100
O  23.38600 53.48200 31.83700
C  23.82200 54.32500 32.96000
H  30.31900 50.13800 28.79500
H  28.76400 49.25800 22.51300
H  23.57200 52.72600 23.25900
H  26.52600 52.09500 31.11000
H  28.72600 50.27400 30.81100
H  29.53900 52.08800 31.60900
H  28.50200 53.28300 30.84600
H  29.89700 52.65100 29.96700
H  26.69300 49.06200 31.28800
H  25.16000 49.71000 30.68400
H  24.82200 49.50500 33.01200
H  24.68000 51.12600 32.56100
H  32.87000 49.32100 26.18100
H  32.21100 47.77100 26.80300
H  32.06800 49.28300 27.75500
H  32.92100 47.84200 24.12900
H  32.49000 46.43500 23.26500
H  32.15900 46.50700 25.01200
H  26.13000 49.15900 21.56200
H  25.22500 52.01100 21.22000
H  28.21800 51.15200 20.90700
H  26.93000 51.31800 19.84400
H  27.68900 49.78800 19.94100
H  23.26200 49.92100 22.18900
H  24.11400 49.55700 20.68800
H  22.35900 50.56300 19.77500
H  23.27400 52.11100 20.17500
H  22.02600 51.39900 21.26300
H  22.23200 54.34700 24.48200
H  21.34700 54.33300 26.06000
H  21.21800 52.99800 24.95900
H  23.22300 51.81500 30.12300
H  23.82800 55.35800 32.61100
H  24.82100 53.97700 33.22500
H  23.07900 54.22600 33.75100

