158

Mg 8.86100 3.81000 28.48000
C  10.30900 2.10700 31.24600
C  7.37600 5.88000 30.44800
C  7.55900 5.18600 25.63000
C  9.92300 0.88300 26.48300
N  8.92000 3.96000 30.64200
C  9.57800 3.26200 31.57800
C  9.22500 3.84700 32.96400
C  8.30700 5.09000 32.59700
C  8.22500 4.97600 31.10000
C  6.93700 5.09000 33.34900
C  10.47900 4.16500 33.84800
C  10.37800 5.42000 34.89700
H  10.94500 5.21100 36.26300
N  7.67900 5.38500 28.08200
C  7.05900 6.09900 29.10700
C  6.42500 7.18800 28.47600
C  6.41100 6.99200 27.06100
C  7.27900 5.83300 26.86600
C  5.81700 8.38200 29.27800
C  5.66500 7.76100 25.96900
O  5.75600 7.51900 24.75100
C  4.77200 8.87500 26.29200
N  8.77700 3.07900 26.35300
C  8.22200 3.86000 25.40300
C  8.05500 3.05700 24.10700
C  9.00000 1.78800 24.37600
C  9.26400 1.92500 25.86300
C  6.65200 2.61300 23.61700
C  10.30100 1.67600 23.44700
C  10.61200 0.37200 22.66800
N  9.98200 2.00200 28.72200
C  10.36500 0.95900 27.85900
C  11.16800 0.00400 28.52800
C  11.31000 0.45300 29.81700
C  10.53900 1.66100 29.92300
C  11.83600 -1.21500 27.90300
C  11.86100 0.20200 31.16000
O  12.66500 -0.61500 31.61400
C  11.14000 1.20800 32.11900
C  10.27700 0.32400 32.96500
O  9.38100 -0.37400 32.53200
O  10.53900 0.40000 34.27900
C  9.61500 -0.22700 35.21400
H  6.93300 6.62800 31.10900
H  7.23200 5.67200 24.70800
H  10.07900 -0.01700 25.88500
H  8.62200 3.04700 33.39300
H  8.81700 6.03700 32.77100
H  6.02900 4.94300 32.76400
H  6.73700 6.03300 33.85700
H  6.87700 4.40100 34.19100
H  11.38200 4.36900 33.27100
H  10.76000 3.25900 34.38500
H  9.32400 5.69400 34.93000
H  10.97900 6.23200 34.48800
H  4.75400 8.18900 29.42400
H  5.95500 9.34600 28.78800
H  6.03400 8.47700 30.34200
H  4.33500 8.86700 27.29000
H  3.98800 8.75800 25.54300
H  5.33600 9.79200 26.12300
H  8.54200 3.62700 23.31600
H  8.43000 0.86800 24.24900
H  6.00700 3.32600 24.13100
H  6.38000 1.64600 24.04000
H  6.81400 2.85100 22.56600
H  11.20200 1.88000 24.02600
H  10.40000 2.46000 22.69500
H  9.91800 -0.36400 23.07400
H  11.61400 0.06100 22.96400
H  10.51300 0.58000 21.60300
H  11.23900 -1.59200 27.07200
H  11.89500 -1.94700 28.70900
H  12.84700 -0.90100 27.64400
H  11.80900 1.84500 32.69700
H  9.55400 0.29500 36.16900
H  9.91700 -1.22200 35.54000
H  8.56900 -0.22700 34.91000
Mg -5.01500 25.23700 26.49100
C  -3.50600 26.86000 29.03700
C  -6.54700 23.09400 28.65700
C  -6.54400 23.59800 23.80900
C  -3.65200 27.48800 24.25700
N  -4.93700 24.96300 28.55200
C  -4.45100 25.88900 29.45300
C  -4.81600 25.48100 30.90000
C  -5.58800 24.14000 30.68800
C  -5.72600 24.10100 29.18300
C  -4.73400 22.96200 31.27500
C  -5.58800 26.68400 31.56700
C  -5.86700 26.69900 33.11200
H  -5.55700 25.41700 33.91800
N  -6.29100 23.53000 26.29500
C  -6.79000 22.84600 27.33300
C  -7.62400 21.72200 26.83300
C  -7.76700 21.87200 25.46300
C  -6.81800 22.99500 25.11600
C  -8.30200 20.70800 27.69900
C  -8.53200 21.09400 24.41600
O  -8.42300 21.42600 23.27200
C  -9.59000 20.04600 24.91700
N  -5.07600 25.53900 24.28900
C  -5.91200 24.81700 23.45900
C  -5.77300 25.30500 22.06000
C  -4.84900 26.66000 22.21500
C  -4.50700 26.55900 23.65900
C  -5.26300 24.40900 20.86500
C  -5.54800 27.96200 21.80200
C  -5.07600 28.54300 20.41700
N  -3.73800 26.70200 26.55000
C  -3.23300 27.53800 25.59500
C  -2.29800 28.49700 26.16100
C  -2.34100 28.24500 27.49600
C  -3.24700 27.15100 27.66200
C  -1.39900 29.54100 25.48000
C  -1.78900 28.66400 28.73800
O  -0.85000 29.46300 29.00700
C  -2.62900 27.83600 29.80900
C  -2.00200 27.19700 30.95600
O  -1.24000 26.26500 30.85600
O  -2.36800 27.88700 32.12700
C  -1.89200 27.22000 33.27800
H  -7.12900 22.55300 29.40600
H  -6.87700 23.14200 22.87400
H  -3.30300 28.35100 23.68500
H  -3.90500 25.27800 31.46300
H  -6.55300 24.28100 31.17500
H  -5.29400 22.39300 32.01600
H  -3.74500 23.18000 31.67800
H  -4.47200 22.35100 30.41100
H  -6.47000 26.87500 30.95600
H  -4.96400 27.56900 31.43800
H  -6.90500 26.99500 33.26400
H  -5.34400 27.58000 33.48500
H  -7.94100 19.70600 27.47000
H  -9.37000 20.79900 27.49800
H  -8.21100 20.83500 28.77800
H  -9.31800 19.23400 25.59000
H  -10.15700 19.72300 24.04300
H  -10.32900 20.68400 25.40200
H  -6.78700 25.59000 21.77800
H  -3.92800 26.48000 21.66100
H  -4.22700 24.50000 20.53800
H  -5.93000 24.76400 20.08000
H  -5.52400 23.35500 20.95400
H  -5.36200 28.71900 22.56400
H  -6.57700 27.60500 21.84800
H  -4.34800 29.30700 20.68900
H  -5.89000 28.99700 19.85100
H  -4.57500 27.76600 19.84100
H  -1.58700 29.49000 24.40800
H  -0.35000 29.33100 25.68900
H  -1.78300 30.52400 25.75400
H  -3.38800 28.50100 30.22100
H  -1.04700 27.74400 33.72400
H  -1.60600 26.18100 33.11400
H  -2.71700 27.09200 33.98000

