158

Mg 46.77000 25.05900 27.23500
C  48.00800 27.31400 29.69500
C  46.15600 22.80800 29.74600
C  46.01300 22.91000 24.85400
C  48.28400 27.20000 24.70500
N  47.22600 25.06300 29.54500
C  47.58000 26.15300 30.29300
C  47.24500 25.90500 31.75400
C  46.93400 24.30700 31.76700
C  46.80300 24.00000 30.24100
C  48.02800 23.35600 32.35900
C  46.18100 26.87400 32.35500
C  45.90700 26.53300 33.84900
H  46.32700 27.59200 34.87200
N  46.15000 23.16200 27.31100
C  45.89600 22.42800 28.47800
C  45.42200 21.11600 28.02900
C  45.38700 21.08600 26.61800
C  45.90400 22.42900 26.17100
C  45.00600 19.99600 28.99500
C  44.89400 20.00300 25.67800
O  45.09700 20.05200 24.46000
C  44.20100 18.74600 26.20300
N  47.18100 25.02500 24.98200
C  46.53500 24.10800 24.31300
C  46.75700 24.25300 22.82900
C  47.35600 25.75700 22.79600
C  47.68300 26.00700 24.23100
C  47.60200 23.10500 22.24400
C  46.47400 26.87200 22.07800
C  46.99200 27.45700 20.84100
N  47.94000 26.76700 27.18400
C  48.44200 27.54100 26.07200
C  49.09500 28.78300 26.56500
C  48.90500 28.70100 28.00300
C  48.16800 27.51600 28.24900
C  49.78100 29.85100 25.76300
C  49.23000 29.39600 29.19500
O  49.84400 30.46000 29.35600
C  48.54200 28.60400 30.27700
C  49.42700 28.49700 31.52900
O  50.48200 28.00900 31.59800
O  48.71600 29.12100 32.55600
C  49.37500 29.06500 33.83400
H  46.00000 22.07000 30.53700
H  45.67700 22.18600 24.10800
H  48.53100 27.87800 23.88500
H  48.12600 26.05300 32.37900
H  45.95100 24.16600 32.21500
H  48.47000 23.95900 33.15200
H  48.78300 23.08500 31.62000
H  47.53900 22.47200 32.76800
H  45.18400 26.65600 31.97100
H  46.38800 27.93200 32.19300
H  46.32500 25.55500 34.08800
H  44.84400 26.38300 34.03600
H  45.54900 20.12900 29.93100
H  45.31600 19.10500 28.44900
H  43.93300 20.09100 29.16100
H  43.48100 19.08800 26.94700
H  45.01600 18.15700 26.62200
H  43.83900 18.12300 25.38400
H  45.83500 24.21800 22.24900
H  48.32900 25.83500 22.31000
H  48.43700 22.91800 22.91900
H  48.14700 23.23800 21.30900
H  47.05000 22.17800 22.09400
H  46.32000 27.75000 22.70600
H  45.44700 26.53100 21.95000
H  46.96500 26.83400 19.94700
H  48.03000 27.69100 21.08000
H  46.54600 28.39800 20.52000
H  49.05800 30.33800 25.10800
H  50.62900 29.41200 25.23700
H  50.05400 30.72700 26.35100
H  47.59200 29.09400 30.48800
H  50.43800 29.29900 33.77200
H  49.29800 28.10400 34.34300
H  49.07000 29.87600 34.49700
Mg -10.76500 17.01400 40.43700
C  -7.32900 16.07900 40.61200
C  -9.90800 20.25400 39.75000
C  -14.03600 17.59700 39.48800
C  -11.55400 13.52000 40.79300
N  -8.84100 17.96200 40.18000
C  -7.55000 17.43000 40.35900
C  -6.45700 18.53800 40.10300
C  -7.31600 19.88600 40.20200
C  -8.82200 19.32400 40.04400
C  -7.13200 20.85900 41.45900
C  -5.82800 18.31800 38.71700
C  -4.48500 17.59900 38.79000
H  -4.12800 16.37900 37.92300
N  -11.82800 18.70100 39.72400
C  -11.25000 19.98400 39.58200
C  -12.31700 20.89600 39.45900
C  -13.54900 20.17200 39.41900
C  -13.23100 18.76800 39.52700
C  -12.08600 22.42000 39.26600
C  -14.93500 20.88900 39.26100
O  -15.10700 22.09600 39.07600
C  -16.11800 20.04400 39.27500
N  -12.53200 15.77200 40.31400
C  -13.75200 16.30500 39.90200
C  -14.82400 15.25300 39.84900
C  -13.97100 13.92800 40.06400
C  -12.63700 14.39000 40.47400
C  -16.06800 15.43100 40.72700
C  -14.03900 12.85600 38.95200
C  -14.10600 11.36200 39.34000
N  -9.74100 15.17500 40.77900
C  -10.15400 13.86200 40.83400
C  -9.01700 12.99800 41.23000
C  -7.93000 13.79600 41.02800
C  -8.35900 15.12600 40.81900
C  -8.96200 11.53900 41.48400
C  -6.45700 13.77400 40.97500
O  -5.62400 12.89400 41.00100
C  -6.05800 15.31300 40.98800
C  -5.44700 15.56000 42.26600
O  -4.24600 15.75400 42.36900
O  -6.29800 15.56000 43.42200
C  -5.58800 15.66000 44.67400
H  -9.51100 21.26900 39.82700
H  -15.06100 17.71600 39.12900
H  -11.97400 12.51700 40.89200
H  -5.70400 18.46700 40.88700
H  -7.12900 20.49100 39.31600
H  -6.38400 20.30600 42.02800
H  -8.10400 20.94700 41.94300
H  -6.62200 21.73700 41.06100
H  -5.63800 19.14600 38.03400
H  -6.43900 17.65300 38.10800
H  -4.18400 17.40400 39.81900
H  -3.72500 18.33600 38.53100
H  -12.48300 22.79900 38.32400
H  -11.03000 22.68400 39.22100
H  -12.40800 22.99400 40.13500
H  -17.00700 20.63800 39.05900
H  -16.12500 19.50400 40.22100
H  -16.05500 19.42500 38.38000
H  -15.17500 15.22700 38.81700
H  -14.41900 13.40500 40.90900
H  -16.15100 16.46800 41.05400
H  -16.10700 14.71200 41.54600
H  -16.84600 15.26300 39.98300
H  -13.13300 12.89900 38.34800
H  -14.90800 13.08900 38.33700
H  -15.08000 10.93500 39.09800
H  -14.00300 11.28700 40.42200
H  -13.31600 10.82600 38.81400
H  -8.07500 11.24200 42.04500
H  -8.87100 11.04400 40.51800
H  -9.85700 11.32900 42.07000
H  -5.27100 15.34800 40.23400
H  -5.92500 16.47100 45.31900
H  -4.50600 15.53400 44.69800
H  -5.97900 14.86700 45.31300

