158

Mg 40.62300 8.20300 28.99700
C  42.47500 9.51900 31.82400
C  38.40700 6.81700 31.07900
C  39.47300 6.28100 26.38500
C  43.33300 9.16400 26.92000
N  40.52300 8.14800 31.15700
C  41.28300 8.83700 32.14300
C  40.59800 8.72000 33.57600
C  39.43600 7.70300 33.23600
C  39.45600 7.46800 31.74900
C  39.52900 6.47400 34.05900
C  40.08900 10.12900 34.00500
C  39.89500 10.39200 35.54600
H  40.75200 11.39600 36.25300
N  39.00900 6.93700 28.68900
C  38.17800 6.49600 29.71900
C  37.13100 5.72400 29.12500
C  37.36800 5.73600 27.74800
C  38.63200 6.37900 27.50600
C  36.00600 4.98800 29.97400
C  36.55400 5.14300 26.57200
O  36.96900 5.17500 25.42800
C  35.15700 4.61900 26.87100
N  41.29300 7.77600 26.95100
C  40.70400 6.96500 26.12000
C  41.50300 6.78800 24.86000
C  42.50800 7.97600 24.86400
C  42.37800 8.38800 26.35100
C  42.25300 5.37100 24.85200
C  42.12700 9.15700 23.94200
C  41.32100 10.43800 24.46900
N  42.52900 9.16500 29.25500
C  43.45700 9.57900 28.30400
C  44.45800 10.38200 29.00400
C  44.13300 10.36900 30.38500
C  42.91800 9.65200 30.45000
C  45.69000 10.94900 28.28400
C  44.53600 10.83300 31.63500
O  45.49900 11.44600 32.02000
C  43.47500 10.29200 32.67600
C  44.05700 9.49300 33.76500
O  45.17200 8.95100 33.80800
O  43.31400 9.58300 34.90300
C  43.96500 9.10900 36.18000
H  37.71700 6.36700 31.79600
H  39.24000 5.75600 25.45600
H  44.20600 9.49600 26.35500
H  41.31200 8.32900 34.30100
H  38.48400 8.15300 33.51600
H  40.45600 6.41600 34.62900
H  39.44700 5.59100 33.42600
H  38.76100 6.52800 34.83000
H  39.13900 10.14400 33.47000
H  40.62800 10.92000 33.48400
H  39.89600 9.42000 36.04000
H  38.89600 10.82900 35.53000
H  35.04200 5.03700 29.46700
H  35.85000 5.33100 30.99700
H  36.20400 3.91700 29.99600
H  35.09500 3.88500 27.67500
H  34.67700 4.10400 26.03800
H  34.61200 5.51100 27.18000
H  40.86300 6.82600 23.97900
H  43.54700 7.71600 24.65900
H  41.78000 4.67700 25.54600
H  43.31000 5.45100 25.10400
H  42.21800 4.89200 23.87400
H  41.70000 8.87700 22.97900
H  43.14600 9.46200 23.70400
H  41.66500 11.35400 23.98700
H  41.62500 10.64600 25.49500
H  40.24600 10.41600 24.28800
H  45.52800 11.24300 27.24700
H  46.56600 10.30300 28.34400
H  45.96700 11.80200 28.90400
H  42.97300 11.15700 33.11000
H  44.25800 8.07900 35.97900
H  43.27400 9.19600 37.01900
H  44.79900 9.73300 36.50100
Mg 35.90900 49.69200 26.01200
C  35.77000 47.96200 29.02200
C  34.74600 52.43400 27.56200
C  35.62800 51.13900 22.95800
C  36.71800 46.66300 24.44300
N  35.33500 50.07900 28.06000
C  35.42400 49.32500 29.22500
C  35.07000 50.04300 30.53200
C  34.59100 51.41000 29.94500
C  34.89800 51.33700 28.37400
C  33.14100 51.84000 30.38000
C  36.19400 50.04100 31.56300
C  35.84300 49.89800 32.96300
H  34.36100 50.10000 33.51100
N  35.31100 51.50300 25.32600
C  34.94800 52.54300 26.20400
C  34.79600 53.71800 25.40500
C  34.89100 53.36500 24.04300
C  35.26800 51.91500 24.05200
C  34.51800 55.14800 25.90900
C  34.45300 54.17700 22.86600
O  34.47600 53.74100 21.68700
C  34.06500 55.59400 23.09300
N  36.08800 48.90300 24.02500
C  35.93700 49.73700 22.89800
C  36.22400 49.01200 21.62500
C  36.72800 47.67000 22.16200
C  36.51900 47.77100 23.66300
C  34.99900 48.95400 20.68100
C  38.19500 47.33800 21.78600
C  39.31600 47.91100 22.72100
N  36.24600 47.67300 26.58400
C  36.59500 46.53300 25.86400
C  36.64000 45.47400 26.73000
C  36.35700 45.95200 27.98500
C  36.06400 47.31000 27.85400
C  37.06900 43.99900 26.39600
C  36.24000 45.57500 29.40600
O  36.47000 44.50200 29.93500
C  35.73900 46.89600 30.09900
C  34.43900 46.53300 30.66100
O  33.42700 46.50800 30.00900
O  34.57300 46.12700 31.99200
C  33.38400 45.69200 32.75600
H  34.40000 53.32900 28.08500
H  35.59600 51.67400 22.00600
H  37.02800 45.78900 23.86700
H  34.24800 49.48100 30.97700
H  35.25100 52.21200 30.27500
H  32.61300 50.93100 30.66700
H  32.69300 52.17000 29.44300
H  33.12700 52.65300 31.10700
H  36.71800 50.98400 31.40600
H  37.00900 49.32700 31.44100
H  36.45800 50.67000 33.42600
H  36.26300 48.95400 33.31000
H  34.75000 55.05700 26.97100
H  33.47400 55.45500 25.83700
H  35.23700 55.89000 25.56300
H  33.81400 56.01200 22.11800
H  34.84400 56.30000 23.37900
H  33.17200 55.61800 23.71800
H  37.06700 49.56000 21.20300
H  36.16200 46.81600 21.78900
H  34.22500 49.55100 21.16300
H  34.60300 47.95200 20.51900
H  35.20800 49.51600 19.77100
H  38.58100 47.67200 20.82300
H  38.34600 46.26400 21.67600
H  40.10600 48.43600 22.18300
H  39.77800 47.13200 23.32800
H  38.90500 48.60700 23.45200
H  36.21200 43.33900 26.26300
H  37.73400 43.62100 27.17200
H  37.39800 43.89500 25.36100
H  36.50300 47.14900 30.83300
H  33.67300 45.69800 33.80700
H  33.05100 44.70000 32.44900
H  32.48600 46.28000 32.56600

