158

Mg -1.63600 17.13700 25.80800
C  -1.97900 14.81600 28.49100
C  -2.26900 19.60600 28.06500
C  -1.66100 19.48900 23.31200
C  -1.43200 14.67000 23.56200
N  -2.29200 17.15400 28.07100
C  -2.24500 16.11500 28.91300
C  -2.72500 16.53800 30.33300
C  -2.84700 18.13000 30.23300
C  -2.45400 18.36600 28.71600
C  -4.16500 18.72500 30.71700
C  -2.02800 15.97500 31.57500
C  -2.12600 16.70500 32.90000
H  -2.03200 15.99900 34.24100
N  -1.78000 19.18300 25.71800
C  -1.93000 20.02800 26.80900
C  -1.86700 21.41600 26.44400
C  -1.66500 21.38600 25.02100
C  -1.74300 19.94600 24.62500
C  -2.14200 22.60100 27.35200
C  -1.61800 22.59700 24.04100
O  -1.56600 22.61300 22.83700
C  -1.59000 23.94500 24.68700
N  -1.62800 17.03700 23.71300
C  -1.52100 18.13400 22.90600
C  -1.42800 17.68700 21.48100
C  -1.02600 16.12800 21.64400
C  -1.34700 15.95900 23.05000
C  -2.75300 17.96800 20.75500
C  0.44200 15.73300 21.21200
C  1.63200 16.36000 22.01000
N  -1.64200 15.19400 25.95500
C  -1.52700 14.21400 24.90400
C  -1.65800 12.89500 25.57400
C  -1.76200 13.09100 26.93500
C  -1.77000 14.49400 27.14200
C  -1.80800 11.59900 24.82900
C  -1.82600 12.38700 28.15600
O  -1.74100 11.19800 28.41900
C  -1.92100 13.50300 29.27500
C  -0.92000 13.39100 30.37700
O  0.25700 13.71000 30.36100
O  -1.54200 12.76100 31.44100
C  -0.75700 12.28400 32.52900
H  -2.22400 20.34400 28.86900
H  -1.50700 20.22600 22.52200
H  -1.35100 13.87000 22.82300
H  -3.75200 16.17500 30.35900
H  -2.06800 18.60100 30.83300
H  -4.65300 19.17100 29.85000
H  -3.92000 19.47200 31.47200
H  -4.75800 17.94600 31.19500
H  -0.98800 15.77900 31.31300
H  -2.55200 15.03500 31.74900
H  -2.91900 17.44800 32.98300
H  -1.24200 17.34100 32.85700
H  -2.98200 23.15400 26.93100
H  -1.23700 23.20500 27.41900
H  -2.49300 22.36300 28.35600
H  -2.54100 24.29800 25.08700
H  -1.37400 24.61700 23.85600
H  -0.89900 24.01500 25.52700
H  -0.55300 18.21300 21.09800
H  -1.69700 15.46900 21.09400
H  -3.30400 17.03300 20.64900
H  -2.57700 18.48800 19.81300
H  -3.36900 18.62600 21.36700
H  0.60000 15.96300 20.15800
H  0.62800 14.66300 21.29900
H  2.37900 15.65300 22.37000
H  1.21300 16.85800 22.88500
H  2.19000 17.09300 21.42700
H  -1.93400 11.92300 23.79600
H  -2.65400 11.02200 25.20200
H  -0.83200 11.12500 24.93100
H  -2.86900 13.53000 29.81100
H  -0.55800 13.14800 33.16200
H  0.16800 11.85600 32.14200
H  -1.28500 11.52100 33.10100
Mg -2.10600 34.80100 26.41300
C  -3.80900 33.11200 29.09100
C  -1.20900 37.14200 28.86900
C  -0.95600 36.74900 23.92800
C  -3.73500 32.78200 24.24900
N  -2.52900 35.10600 28.67800
C  -3.08400 34.20000 29.52200
C  -2.73500 34.42200 30.99700
C  -2.08400 35.86000 30.90800
C  -1.85600 36.03800 29.40200
C  -2.84300 36.96100 31.59700
C  -1.73400 33.35000 31.67700
C  -2.04700 33.05500 33.16100
H  -0.90400 33.18700 34.15200
N  -1.04900 36.63300 26.40200
C  -0.74300 37.37800 27.47300
C  0.02900 38.50200 27.02700
C  0.09900 38.38700 25.56600
C  -0.63400 37.25500 25.21500
C  0.61900 39.58200 27.97900
C  0.94100 39.26900 24.57100
O  1.05200 38.97900 23.37700
C  1.66500 40.50600 24.97200
N  -2.38400 34.79600 24.41400
C  -1.72700 35.65700 23.56000
C  -2.00900 35.40500 22.08800
C  -2.69000 33.96900 22.24400
C  -2.97500 33.82200 23.74000
C  -2.85000 36.48000 21.35200
C  -1.76300 32.79000 21.64400
C  -0.24400 32.62000 22.00400
N  -3.52600 33.24400 26.58800
C  -4.00000 32.46300 25.58500
C  -4.71100 31.34800 26.22000
C  -4.63100 31.58900 27.58500
C  -3.92900 32.72600 27.73100
C  -5.54100 30.30900 25.51100
C  -5.07900 31.07000 28.87700
O  -5.78500 30.09000 29.09800
C  -4.44600 31.97900 29.95700
C  -5.53000 32.45100 30.86900
O  -6.58300 32.86600 30.41900
O  -5.22000 32.37400 32.25400
C  -6.34600 32.63000 33.18800
H  -0.82300 37.81500 29.63800
H  -0.54400 37.27200 23.06200
H  -4.07400 32.10000 23.46700
H  -3.73500 34.44700 31.42900
H  -1.12600 35.87000 31.42700
H  -3.81600 36.70800 32.01700
H  -2.99300 37.70700 30.81600
H  -2.19500 37.38200 32.36600
H  -0.72200 33.74500 31.58600
H  -1.76900 32.43300 31.08800
H  -2.55700 32.09200 33.16900
H  -2.83500 33.73800 33.48000
H  1.65600 39.78500 27.71100
H  0.59700 39.39800 29.05300
H  -0.00200 40.39600 27.60600
H  1.00600 41.07500 25.62700
H  1.90400 41.13900 24.11700
H  2.65000 40.32100 25.40100
H  -1.05400 35.19500 21.60500
H  -3.65300 33.80800 21.76000
H  -3.11300 37.35400 21.94900
H  -3.77100 36.13700 20.88000
H  -2.16600 36.80500 20.56800
H  -1.83600 32.89300 20.56100
H  -2.25500 31.87900 21.98500
H  -0.21200 31.92300 22.84100
H  0.24900 33.52200 22.36400
H  0.28800 32.29400 21.11000
H  -5.35900 30.22700 24.43900
H  -6.56600 30.55700 25.78700
H  -5.27600 29.29500 25.80900
H  -3.64100 31.44700 30.46300
H  -7.08200 33.31200 32.76100
H  -5.89500 32.99000 34.11200
H  -6.92100 31.74200 33.45200

