158

Mg 17.07200 -1.45300 28.19600
C  16.45500 0.83800 30.85900
C  19.37000 -3.08500 29.93000
C  18.52300 -2.51600 25.15800
C  15.27200 1.04000 26.12200
N  18.01900 -0.93900 30.06800
C  17.41700 -0.22700 31.12400
C  17.91500 -0.74800 32.44300
C  19.05800 -1.73900 32.05300
C  18.72400 -1.96600 30.59400
C  20.54400 -1.22400 32.36400
C  16.75700 -1.37700 33.32900
C  16.64800 -1.02700 34.84100
H  17.97400 -0.84500 35.62800
N  18.56600 -2.77600 27.64500
C  19.40400 -3.42300 28.54500
C  20.23400 -4.38900 27.88900
C  19.93300 -4.27100 26.49700
C  19.00800 -3.14700 26.33300
C  21.23100 -5.27700 28.62400
C  20.55800 -5.01400 25.37000
O  20.40800 -4.67300 24.21500
C  21.61200 -6.16800 25.51000
N  16.88500 -0.89600 26.00800
C  17.67100 -1.40200 24.99200
C  17.41100 -0.94500 23.63300
C  16.26900 0.10700 23.98600
C  16.15800 0.11400 25.49600
C  18.73500 -0.45900 22.92400
C  14.97200 -0.04900 23.14400
C  13.62400 -0.33700 23.80400
N  15.86000 0.42700 28.40500
C  15.20300 1.21600 27.47400
C  14.53600 2.26800 28.22000
C  14.94500 2.14300 29.54300
C  15.81800 1.05700 29.60500
C  13.83900 3.31900 27.56900
C  14.89100 2.68000 30.86800
O  14.21600 3.69400 31.17500
C  15.77100 1.76300 31.82000
C  16.68900 2.68400 32.57700
O  17.84200 2.90900 32.32100
O  15.97000 3.32200 33.57700
C  16.61200 4.12000 34.57400
H  20.07200 -3.60900 30.58200
H  18.91300 -2.76400 24.16900
H  14.63900 1.66000 25.48200
H  18.39300 0.07400 32.97500
H  18.97600 -2.67300 32.61000
H  20.64600 -0.22400 32.78500
H  21.14300 -1.32700 31.45900
H  21.13100 -1.84800 33.03800
H  16.78600 -2.46600 33.30500
H  15.82100 -1.13800 32.82300
H  16.13000 -1.79500 35.41600
H  15.97000 -0.18500 34.97500
H  21.03000 -6.34100 28.49200
H  21.26400 -5.05100 29.69000
H  22.23300 -5.00000 28.29700
H  21.33100 -6.81700 26.34000
H  22.52700 -5.59400 25.65400
H  21.85500 -6.74600 24.61800
H  16.81400 -1.69700 23.11800
H  16.73300 1.06700 23.76000
H  19.10400 0.51000 23.25900
H  18.39000 -0.31800 21.89900
H  19.55700 -1.17400 22.89500
H  15.15000 -0.70700 22.29400
H  14.86100 0.99700 22.85600
H  13.81500 -0.92300 24.70300
H  13.02400 -0.88200 23.07500
H  13.00000 0.50900 24.09200
H  14.39800 3.89100 26.82800
H  13.52200 4.12500 28.23200
H  12.92100 2.88300 27.17500
H  15.13600 1.26200 32.55100
H  16.58500 3.52400 35.48600
H  16.03900 4.98400 34.91300
H  17.57800 4.57900 34.36600
Mg 26.30600 50.61700 26.80000
C  24.17900 51.97300 29.32600
C  28.45300 49.65600 29.18700
C  28.36800 49.39500 24.29800
C  24.25500 52.16700 24.41100
N  26.22900 50.74200 28.96800
C  25.33800 51.41400 29.81000
C  25.56300 51.09200 31.31600
C  27.09800 50.56900 31.15700
C  27.28400 50.28600 29.69900
C  28.06400 51.51600 31.85100
C  24.58300 50.01000 31.95300
C  24.63400 49.58400 33.45700
H  25.57900 50.40100 34.38600
N  28.07200 49.61300 26.76200
C  28.83500 49.29800 27.88000
C  30.03100 48.64500 27.58000
C  30.02800 48.58300 26.20800
C  28.78400 49.20400 25.63200
C  31.08600 48.13900 28.55800
C  31.03800 47.94900 25.26800
O  30.90400 47.75300 24.05600
C  32.38200 47.64300 25.80800
N  26.25900 50.75800 24.64000
C  27.18100 50.11300 23.90400
C  26.76300 50.26900 22.43400
C  25.36100 51.00600 22.43100
C  25.27500 51.35600 23.89700
C  27.81400 51.03700 21.57200
C  24.21300 50.03100 22.06600
C  24.04400 49.46100 20.65100
N  24.60600 51.82900 26.82600
C  23.91700 52.44600 25.75200
C  22.71100 52.95700 26.21900
C  22.76500 52.83100 27.61800
C  23.95800 52.14000 27.88900
C  21.64600 53.56100 25.38100
C  22.03900 53.06800 28.82100
O  21.08100 53.75800 29.08700
C  22.91500 52.42900 30.01500
C  23.25600 53.45400 30.98500
O  24.13600 54.29500 30.88400
O  22.48500 53.29000 32.12700
C  22.79900 54.21200 33.25900
H  29.13700 49.46600 30.01700
H  29.02600 49.01900 23.51200
H  23.71300 52.48900 23.52000
H  25.42800 52.02900 31.85700
H  27.18700 49.58800 31.62200
H  27.55700 52.37300 32.29600
H  28.76700 51.79200 31.06500
H  28.60100 50.92700 32.59400
H  24.79000 49.10100 31.38800
H  23.57600 50.31900 31.67100
H  24.99200 48.55500 33.48900
H  23.63200 49.71200 33.86600
H  31.95400 48.79100 28.65600
H  31.45200 47.13600 28.33900
H  30.81600 48.03300 29.60800
H  32.86700 48.46900 26.33000
H  32.86800 47.67300 24.83200
H  32.35500 46.68400 26.32400
H  26.82300 49.28300 21.97400
H  25.33600 51.93800 21.86700
H  28.73800 50.82400 22.10900
H  27.61500 52.10800 21.61400
H  27.80400 50.75500 20.51900
H  23.21000 50.45000 22.14300
H  24.36800 49.11800 22.64100
H  23.16900 49.86900 20.14400
H  23.90100 48.39300 20.81700
H  24.97600 49.51300 20.08700
H  22.03200 53.62600 24.36400
H  21.40000 54.50300 25.87100
H  20.78400 52.89600 25.44100
H  22.35800 51.62100 30.48900
H  22.14400 53.76500 34.00700
H  22.33000 55.13800 32.92600
H  23.84100 54.40900 33.51000

