158

Mg 9.00800 3.02100 27.51000
C  10.19600 1.27600 30.26100
C  7.17700 5.03800 29.54900
C  7.55400 4.48500 24.76300
C  10.13100 0.45400 25.45900
N  8.74200 3.08100 29.66900
C  9.40500 2.35800 30.64200
C  9.04700 2.82700 32.07900
C  7.92300 3.85900 31.77200
C  7.93300 4.02400 30.21200
C  6.41500 3.61100 32.31000
C  10.34200 3.24400 32.81100
C  10.19800 4.25000 34.00200
H  11.08900 4.15500 35.22100
N  7.59900 4.64500 27.22500
C  6.90000 5.36600 28.20900
C  6.09100 6.44600 27.62300
C  6.22100 6.25200 26.19900
C  7.19400 5.09700 25.97100
C  5.35400 7.57100 28.35600
C  5.56400 7.05700 25.08000
O  5.66900 6.73500 23.86200
C  4.71400 8.23700 25.43000
N  8.78000 2.53400 25.43200
C  8.21200 3.27600 24.53200
C  8.36000 2.65800 23.12800
C  9.19400 1.41100 23.44300
C  9.36400 1.45000 24.86100
C  7.01500 2.24000 22.44100
C  10.55400 1.29700 22.70500
C  10.94800 -0.09400 22.14000
N  10.03300 1.30000 27.75800
C  10.37600 0.34200 26.85300
C  11.02200 -0.71400 27.47800
C  11.09900 -0.31700 28.80500
C  10.37900 0.86200 28.94500
C  11.68500 -1.89800 26.80800
C  11.59900 -0.69500 30.08200
O  12.39100 -1.59100 30.42900
C  11.02500 0.34900 31.10700
C  10.15200 -0.17800 32.11700
O  8.97300 -0.54200 31.89900
O  10.75600 -0.09900 33.33200
C  9.87700 -0.29000 34.45600
H  6.63800 5.61600 30.30300
H  7.24500 4.92700 23.81300
H  10.47200 -0.37100 24.83000
H  8.53800 2.06700 32.67300
H  8.24000 4.84600 32.11000
H  5.74100 3.49900 31.46100
H  5.96400 4.47200 32.80400
H  6.38300 2.60200 32.72100
H  11.13900 3.62600 32.17200
H  10.75900 2.38200 33.33100
H  9.17600 4.21400 34.37800
H  10.31900 5.21200 33.50300
H  5.78000 8.51900 28.02900
H  5.39200 7.34700 29.42200
H  4.31700 7.64800 28.02800
H  3.86600 7.77200 25.93400
H  4.37600 8.78000 24.54800
H  5.28300 9.02400 25.92400
H  8.99800 3.33800 22.56300
H  8.59100 0.50400 23.39400
H  6.12600 2.39700 23.05100
H  6.95700 1.18800 22.16300
H  6.77100 2.73200 21.49900
H  11.37800 1.49400 23.39000
H  10.62000 1.93700 21.82500
H  11.80600 -0.40400 22.73600
H  11.33100 -0.16900 21.12200
H  10.09700 -0.77600 22.14600
H  11.17300 -2.18600 25.89000
H  11.60100 -2.68700 27.55600
H  12.67000 -1.54700 26.50100
H  11.76600 0.85800 31.72300
H  8.96800 -0.88600 34.37600
H  9.56000 0.72500 34.69700
H  10.46500 -0.58000 35.32700
Mg 26.11800 50.56300 26.04600
C  23.95800 51.66800 28.50000
C  28.42900 49.94100 28.57100
C  28.37300 49.84300 23.66800
C  23.91700 51.76900 23.60900
N  26.20900 50.89800 28.28000
C  25.13500 51.23900 29.04500
C  25.43300 51.19700 30.59000
C  26.99900 50.87600 30.57100
C  27.24100 50.54300 29.04800
C  27.93600 51.96900 31.19300
C  24.58800 50.20100 31.35100
C  24.10500 50.63400 32.77800
H  24.23300 49.44500 33.78700
N  28.10300 49.85100 26.10500
C  28.87000 49.65600 27.25200
C  30.15100 49.03300 26.80300
C  30.14400 48.98200 25.39800
C  28.85600 49.56200 24.94200
C  31.30300 48.73100 27.73100
C  31.20600 48.65000 24.41400
O  31.05600 48.82800 23.21200
C  32.42900 47.97800 24.88000
N  26.06100 50.74900 23.97600
C  27.17100 50.35900 23.16000
C  26.76600 50.35900 21.66500
C  25.35200 51.00700 21.70800
C  25.04700 51.14200 23.20900
C  27.71100 51.16700 20.83800
C  24.31700 50.11000 20.84600
C  23.86500 48.84200 21.49600
N  24.29100 51.55100 26.03800
C  23.45800 51.90700 24.98100
C  22.26600 52.44500 25.42900
C  22.42800 52.42800 26.84400
C  23.64400 51.82200 27.12100
C  21.25500 53.04200 24.51700
C  21.69800 52.73400 28.13400
O  20.59000 53.23600 28.37700
C  22.71800 52.12700 29.22500
C  23.07900 53.29200 30.11500
O  23.84200 54.18800 29.83100
O  22.38300 53.22300 31.28300
C  22.46500 54.26500 32.33200
H  29.20900 49.69300 29.29400
H  28.95700 49.55400 22.79200
H  23.16700 52.05900 22.87100
H  25.43200 52.19700 31.02300
H  27.13500 49.98000 31.17600
H  27.69600 52.99300 30.90800
H  28.96000 51.74600 30.89300
H  27.75600 51.80500 32.25500
H  25.16500 49.28700 31.49200
H  23.81500 49.85200 30.66700
H  23.02900 50.79800 32.72000
H  24.65600 51.51000 33.12000
H  31.66600 47.70400 27.69100
H  30.99800 48.72900 28.77800
H  32.13900 49.43100 27.73700
H  33.12900 47.73200 24.08200
H  32.40300 47.13800 25.57500
H  32.90900 48.82900 25.36300
H  26.69900 49.30600 21.39000
H  25.41100 52.02600 21.32600
H  28.51300 51.64500 21.40000
H  27.24200 51.91600 20.20000
H  28.32100 50.46800 20.26600
H  24.80700 49.87400 19.90200
H  23.39300 50.62100 20.57500
H  24.39000 48.03000 20.99400
H  22.78300 48.75200 21.39700
H  24.04000 48.79300 22.57100
H  20.92600 53.90500 25.09600
H  20.53500 52.23200 24.40500
H  21.68600 53.30700 23.55100
H  22.40000 51.36500 29.93700
H  21.42500 54.48000 32.57900
H  22.84000 55.23800 32.01200
H  22.88700 54.01100 33.30400

