158

Mg 46.14900 25.05200 29.44100
C  46.96700 27.36700 31.94500
C  45.05700 22.87700 31.75000
C  45.77600 22.90000 26.98800
C  47.84400 27.26700 27.18500
N  45.89800 25.17000 31.52200
C  46.34300 26.21600 32.40300
C  46.04900 25.91100 33.86000
C  45.49000 24.44100 33.79300
C  45.44900 24.11100 32.24100
C  46.10500 23.33300 34.72500
C  44.97900 26.94000 34.48100
C  45.26000 27.54200 35.82500
H  45.74100 26.67200 36.99100
N  45.29100 23.19500 29.33500
C  44.89200 22.44000 30.39700
C  44.30500 21.25800 29.88500
C  44.35400 21.22500 28.50000
C  45.16700 22.45700 28.18500
C  43.64400 20.27400 30.83500
C  43.80300 20.16300 27.48100
O  43.98100 20.24500 26.25800
C  42.94200 18.99900 28.01600
N  46.75800 25.13900 27.38800
C  46.44600 24.05600 26.63400
C  46.93700 24.30100 25.18100
C  47.53400 25.70000 25.20500
C  47.37100 26.12600 26.66200
C  47.85800 23.20600 24.51600
C  46.81600 26.68300 24.29100
C  47.04100 26.49300 22.79600
N  47.10300 26.92600 29.44600
C  47.76400 27.63200 28.47800
C  48.32400 28.84500 28.96400
C  48.00500 28.84300 30.34900
C  47.24200 27.63200 30.60000
C  49.00400 29.86600 28.08500
C  48.23600 29.53500 31.59900
O  48.78900 30.62400 31.81600
C  47.54600 28.59100 32.64000
C  48.65100 28.41100 33.61400
O  49.73300 28.00300 33.42100
O  48.27700 28.87400 34.82400
C  49.17000 28.71000 35.97400
H  44.65100 22.23500 32.53500
H  45.61700 22.31000 26.08200
H  48.56900 27.69900 26.49200
H  47.01600 25.88200 34.36300
H  44.42100 24.51100 33.99500
H  45.34400 22.64500 35.09300
H  46.59600 23.90400 35.51400
H  46.97400 23.03300 34.14000
H  44.09000 26.31000 34.46900
H  44.72600 27.69000 33.73100
H  44.28000 27.88100 36.16100
H  45.95800 28.34900 35.60300
H  42.55400 20.29700 30.83400
H  43.97000 20.49100 31.85200
H  43.97500 19.27000 30.57200
H  43.45300 18.40900 28.77700
H  42.64200 18.34900 27.19400
H  42.01900 19.15400 28.57500
H  46.02800 24.35900 24.58200
H  48.55600 25.63700 24.82900
H  48.31300 22.52900 25.23900
H  48.69300 23.62300 23.95300
H  47.21000 22.67200 23.82100
H  47.09700 27.71300 24.50900
H  45.74800 26.52700 24.44300
H  47.77600 25.69700 22.67900
H  47.51600 27.37400 22.36400
H  46.12700 26.15300 22.30900
H  48.25600 30.28600 27.41200
H  49.91900 29.52300 27.60200
H  49.32000 30.71200 28.69500
H  46.67700 29.14300 32.99800
H  49.63600 27.73600 35.82200
H  48.56300 28.58100 36.87100
H  49.99600 29.41500 36.06200
Mg 17.61500 52.41100 26.48200
C  19.31900 50.98700 29.12800
C  15.15300 53.29300 28.75900
C  15.66900 53.39300 23.91800
C  19.88200 51.04000 24.17500
N  17.25200 52.04900 28.66200
C  18.17600 51.57400 29.56700
C  17.73800 51.79100 31.04600
C  16.24900 52.20600 30.88700
C  16.16900 52.59500 29.37200
C  15.27800 51.01400 31.32900
C  18.63500 52.70500 31.89000
C  18.95900 52.27400 33.25500
H  17.81200 51.59800 34.11700
N  15.69900 53.31000 26.32400
C  14.87000 53.54500 27.39000
C  13.61800 54.19200 26.87300
C  13.74700 54.32500 25.42800
C  15.12900 53.72100 25.13700
C  12.47100 54.57200 27.75400
C  12.75600 54.82000 24.32100
O  12.94000 54.75900 23.04600
C  11.52700 55.56300 24.68000
N  17.72700 52.18300 24.32000
C  16.85400 52.77300 23.54000
C  17.25000 52.57000 22.02300
C  18.59600 51.85400 22.07800
C  18.81100 51.74800 23.59700
C  16.20000 51.96100 21.04000
C  19.70400 52.72800 21.41600
C  20.76100 51.86200 20.66000
N  19.26800 51.26900 26.58100
C  20.09200 50.79700 25.60400
C  21.15400 49.96700 26.17000
C  20.94800 50.07400 27.57600
C  19.67900 50.80400 27.80100
C  22.17900 49.17300 25.40900
C  21.46700 49.58800 28.91000
O  22.43600 48.90600 29.23200
C  20.43300 50.28000 29.97600
C  19.88000 49.22100 30.83300
O  18.97600 48.44600 30.54500
O  20.35100 49.29200 32.12100
C  20.02300 48.20200 32.97800
H  14.40300 53.64500 29.47100
H  15.13200 53.84600 23.08200
H  20.50100 50.63900 23.36900
H  17.87300 50.78400 31.44200
H  16.12100 53.10200 31.49300
H  15.87100 50.28500 31.88200
H  14.76900 50.49400 30.51800
H  14.53700 51.38300 32.03700
H  18.17500 53.69300 31.86700
H  19.59800 52.95400 31.44500
H  19.42400 53.08700 33.81300
H  19.70700 51.48100 33.23300
H  12.69300 54.33600 28.79400
H  11.54500 54.07200 27.47000
H  12.29200 55.64700 27.79300
H  11.75400 56.22500 25.51600
H  10.81700 54.83300 25.06800
H  11.04300 56.01500 23.81500
H  17.37000 53.59300 21.66800
H  18.60400 50.86200 21.62800
H  15.64800 52.73800 20.51000
H  15.35700 51.48900 21.54500
H  16.62700 51.21100 20.37400
H  20.11300 53.38000 22.18800
H  19.21400 53.34700 20.66500
H  20.78800 50.86500 21.09900
H  21.78200 52.23900 20.72100
H  20.43300 51.81600 19.62100
H  22.54500 49.81600 24.60900
H  21.80500 48.20700 25.07200
H  22.89700 48.86300 26.16800
H  20.94300 51.14400 30.40200
H  19.16000 48.50400 33.57200
H  20.71600 47.87600 33.75400
H  19.65300 47.27100 32.54800

