158

Mg 47.00400 34.64300 28.35400
C  45.35600 32.62200 30.57300
C  46.75900 37.24100 30.56900
C  48.08100 36.63900 25.93900
C  46.56200 32.17200 25.94100
N  46.15300 34.86900 30.30700
C  45.54600 33.94800 31.05200
C  45.29700 34.45300 32.55100
C  45.40900 36.02400 32.31200
C  46.18700 36.07400 30.98500
C  44.04500 36.78500 32.22000
C  46.32700 33.76700 33.57500
C  47.46300 34.57700 34.35800
H  47.19600 34.81800 35.86000
N  47.55600 36.62400 28.29200
C  47.45000 37.53100 29.33500
C  48.10200 38.77600 28.93800
C  48.43100 38.62600 27.58100
C  48.01200 37.26600 27.22100
C  48.30500 39.94600 29.88000
C  49.06900 39.61100 26.63000
O  49.40600 39.42300 25.48100
C  49.34400 41.01400 27.18000
N  47.18300 34.47000 26.21000
C  47.64200 35.41000 25.45400
C  47.90200 35.01900 23.98200
C  47.38300 33.55200 23.93600
C  46.87200 33.38000 25.44200
C  47.17700 35.90500 22.96100
C  48.35200 32.42800 23.37900
C  47.77600 31.51300 22.24500
N  46.26600 32.71900 28.27000
C  46.27300 31.77500 27.30900
C  45.77000 30.50800 27.83400
C  45.37600 30.78700 29.10600
C  45.67000 32.16200 29.28400
C  45.82000 29.23800 27.07400
C  44.65500 30.26000 30.29100
O  44.14600 29.20700 30.53600
C  44.60300 31.45000 31.25100
C  45.21000 31.03000 32.53900
O  46.33400 30.46100 32.53000
O  44.43100 31.21500 33.61600
C  45.14300 30.75800 34.82200
H  46.76400 38.11000 31.23000
H  48.40300 37.23100 25.07900
H  46.51700 31.39000 25.18100
H  44.29400 34.17800 32.87700
H  45.97200 36.58700 33.05600
H  44.19300 37.77200 31.78300
H  43.61200 36.90200 33.21300
H  43.45600 36.18600 31.52500
H  46.88400 32.94100 33.13300
H  45.63600 33.53600 34.38700
H  47.85400 35.48600 33.90000
H  48.33600 33.92500 34.32400
H  49.38900 39.95900 29.99000
H  47.83400 39.80800 30.85300
H  48.00900 40.94900 29.57200
H  50.13600 41.01500 27.92900
H  48.41700 41.43400 27.56900
H  49.59800 41.68700 26.36100
H  48.97700 35.08200 23.81400
H  46.44100 33.56000 23.38700
H  46.49500 36.48000 23.58800
H  46.58700 35.40800 22.19000
H  47.75700 36.64200 22.40600
H  48.66800 31.81200 24.22100
H  49.19000 32.94000 22.90500
H  46.85900 31.92600 21.82500
H  47.69800 30.48400 22.59800
H  48.41700 31.44100 21.36700
H  46.73600 29.27900 26.48500
H  44.96000 29.17000 26.40800
H  45.79600 28.31200 27.64700
H  43.62300 31.79900 31.57700
H  44.77200 31.40100 35.62000
H  46.21000 30.97700 34.85900
H  44.97200 29.69700 35.00500
Mg 41.25700 41.38400 27.00000
C  40.18900 43.66700 29.56900
C  42.18800 39.24800 29.52000
C  42.61500 39.61600 24.65300
C  40.70100 43.99800 24.70200
N  41.42500 41.58400 29.29800
C  40.74200 42.51800 30.11300
C  40.84300 42.08200 31.64300
C  41.60300 40.65500 31.56600
C  41.77900 40.49000 30.03700
C  42.94000 40.33800 32.26200
C  39.45700 41.99800 32.41900
C  39.43800 41.68300 33.87300
H  38.84900 42.75700 34.83000
N  42.17000 39.70200 27.06200
C  42.37500 38.85600 28.10200
C  42.98300 37.64300 27.61800
C  43.02100 37.69700 26.26700
C  42.65300 39.06500 25.92700
C  43.30900 36.46700 28.59900
C  43.32100 36.59500 25.25600
O  43.40900 36.78300 24.04900
C  43.62700 35.21200 25.70700
N  41.55500 41.69300 24.90200
C  42.22700 40.83200 24.10800
C  42.27900 41.27500 22.62000
C  41.55400 42.67300 22.76800
C  41.22900 42.78100 24.18000
C  43.71900 41.28500 22.11000
C  40.45100 43.00100 21.73000
C  38.91300 42.66300 22.02100
N  40.42200 43.34400 27.02300
C  40.32500 44.31000 26.03100
C  39.75900 45.55500 26.56100
C  39.74500 45.32200 27.94300
C  40.23600 43.99000 28.16900
C  39.37500 46.76600 25.88000
C  39.39200 45.97400 29.15800
O  38.97000 47.10700 29.37900
C  39.67300 44.96100 30.21200
C  40.50400 45.50200 31.32500
O  41.68700 45.84600 31.28200
O  39.63200 45.65600 32.46200
C  40.13400 46.44900 33.59200
H  42.53200 38.57100 30.30400
H  43.07500 39.00000 23.87800
H  40.55700 44.69200 23.87100
H  41.38200 42.71900 32.34400
H  40.84100 39.92900 31.85000
H  42.62400 39.49000 32.87000
H  43.16100 41.17700 32.92200
H  43.72100 39.98600 31.58800
H  38.92100 41.13300 32.02700
H  39.08200 42.99700 32.19900
H  40.47000 41.43400 34.12100
H  38.75500 40.84700 34.02000
H  42.98900 36.59500 29.63400
H  44.39100 36.33600 28.60600
H  42.84900 35.52600 28.29900
H  43.75900 34.55400 24.84800
H  42.82900 34.84500 26.35300
H  44.52100 35.25200 26.32900
H  41.62600 40.65100 22.00900
H  42.28600 43.47600 22.68500
H  43.81500 40.57600 21.28700
H  44.48500 41.01800 22.83700
H  44.12100 42.27500 21.89700
H  40.65400 42.41500 20.83300
H  40.63500 44.04700 21.48300
H  38.58500 42.05900 21.17500
H  38.29200 43.54900 21.88600
H  38.88400 42.15200 22.98300
H  38.46000 47.05400 26.39700
H  38.96000 46.47500 24.91500
H  40.08900 47.58300 25.77500
H  38.70700 44.77700 30.68200
H  40.57400 45.80900 34.35700
H  39.32300 47.09700 33.92200
H  40.96600 47.11700 33.36900

