158

Mg 0.06700 7.13700 25.36200
C  0.76200 9.04500 28.22600
C  0.22800 4.31600 27.25100
C  -0.18900 5.41500 22.59200
C  0.80500 10.03300 23.43500
N  0.33700 6.80800 27.49300
C  0.50700 7.67600 28.53000
C  0.51800 6.97600 29.87000
C  0.54500 5.45400 29.56300
C  0.43600 5.51500 27.99700
C  1.77300 4.70300 30.05500
C  -0.58700 7.46500 30.90600
C  -0.40400 7.12800 32.33200
H  0.84300 6.46100 32.92200
N  -0.25500 5.12800 25.04000
C  -0.00300 4.15100 25.87900
C  -0.13500 2.89300 25.29400
C  -0.37200 3.13300 23.87600
C  -0.32700 4.64100 23.72800
C  -0.02000 1.52500 26.11100
C  -0.59200 2.26300 22.66100
O  -0.92800 2.72800 21.60200
C  -0.44700 0.83900 22.77900
N  0.47700 7.59700 23.25900
C  0.09200 6.75400 22.34400
C  -0.02300 7.42200 20.92500
C  0.21600 8.96700 21.27300
C  0.49800 8.85100 22.75400
C  0.98500 6.91400 19.84500
C  -0.92500 9.91200 20.73200
C  -2.17100 10.10500 21.63000
N  0.85300 9.12000 25.70000
C  1.02900 10.17900 24.83500
C  1.29800 11.40200 25.65300
C  1.21200 10.99500 26.94300
C  0.98300 9.63800 26.94300
C  1.57900 12.78500 25.18600
C  1.41000 11.46500 28.29000
O  1.69000 12.56700 28.72600
C  1.07800 10.20700 29.21100
C  2.22300 9.98800 30.07800
O  3.17400 9.34000 29.79000
O  2.01600 10.69700 31.20800
C  2.87900 10.30800 32.33200
H  0.28000 3.43900 27.89900
H  -0.51100 4.90300 21.68300
H  0.87300 10.95800 22.85700
H  1.48700 7.22500 30.30400
H  -0.35000 4.90300 29.85500
H  1.52200 4.00000 30.84900
H  2.45100 5.39300 30.55700
H  2.33500 4.17700 29.28400
H  -1.56800 7.15200 30.54900
H  -0.77500 8.53400 30.80100
H  -1.32600 6.62300 32.62000
H  -0.49700 8.08500 32.84500
H  0.97500 1.54400 26.55800
H  0.22800 0.62400 25.55000
H  -0.67100 1.28800 26.95300
H  -0.93800 0.29600 21.97200
H  -0.85400 0.56700 23.75300
H  0.63400 0.73100 22.68200
H  -0.99100 7.25000 20.45500
H  1.11600 9.42100 20.86000
H  1.75300 6.24700 20.23700
H  1.56600 7.73800 19.43300
H  0.42400 6.44500 19.03700
H  -1.29100 9.40000 19.84200
H  -0.52000 10.87700 20.42700
H  -2.18300 9.41900 22.47600
H  -2.99800 9.83300 20.97300
H  -2.24300 11.13400 21.98100
H  1.77400 12.99500 24.13500
H  2.35000 13.25600 25.79500
H  0.69800 13.34800 25.49600
H  0.19800 10.40600 29.82400
H  3.92300 10.16900 32.04900
H  2.47100 9.33500 32.60500
H  2.75800 11.05800 33.11300
Mg 25.71000 -8.25000 48.72800
C  27.33000 -5.72900 47.00600
C  23.11200 -8.07200 46.59100
C  24.58900 -11.32100 49.97300
C  28.83300 -8.95100 50.24900
N  25.42400 -7.23400 46.80700
C  26.11900 -6.13400 46.41200
C  25.34700 -5.42000 45.30200
C  23.89300 -5.99900 45.33600
C  24.14100 -7.09200 46.41300
C  22.74900 -5.05800 45.81300
C  26.07700 -5.45200 43.89800
C  26.44700 -4.11200 43.31400
H  25.59800 -3.76000 42.01000
N  23.99900 -9.40000 48.48800
C  22.99900 -9.08700 47.55700
C  21.86300 -9.92600 47.82100
C  22.23700 -10.65000 49.02100
C  23.68500 -10.51000 49.19600
C  20.64400 -9.92100 47.01200
C  21.30500 -11.52600 49.75700
O  20.10900 -11.60800 49.46600
C  21.78400 -12.29600 50.92300
N  26.60800 -9.83900 50.02000
C  25.95600 -11.03500 50.29800
C  26.94300 -12.07800 51.00900
C  28.13600 -11.09500 51.31600
C  27.88500 -9.94800 50.41800
C  26.27600 -12.65300 52.33400
C  29.51100 -11.66700 51.07500
C  30.40500 -11.67800 52.24400
N  27.64100 -7.42600 48.78600
C  28.81000 -7.76900 49.46200
C  29.92600 -6.86100 49.15200
C  29.30200 -5.89900 48.33900
C  27.96800 -6.35600 48.08700
C  31.36300 -6.95700 49.76400
C  29.43300 -4.64200 47.61000
O  30.39000 -3.84400 47.51900
C  28.13900 -4.53300 46.78700
C  27.50400 -3.21100 46.99800
O  26.74800 -2.88000 47.90200
O  27.92600 -2.37400 45.99400
C  27.56900 -1.00500 46.07300
H  22.24300 -7.91100 45.95000
H  24.24800 -12.32500 50.23800
H  29.76100 -9.04200 50.81700
H  25.24400 -4.38000 45.61300
H  23.62500 -6.48300 44.39800
H  22.05700 -4.95600 44.97700
H  23.22200 -4.12800 46.12700
H  22.22000 -5.58600 46.60700
H  25.40100 -5.90500 43.17300
H  26.95200 -6.09200 44.01300
H  27.49600 -4.25400 43.05300
H  26.34500 -3.31800 44.05300
H  20.24500 -10.90100 46.75000
H  20.94100 -9.53900 46.03500
H  19.80000 -9.32500 47.36000
H  22.33300 -13.20300 50.66900
H  21.04100 -12.73100 51.59200
H  22.42900 -11.65100 51.51800
H  27.13900 -12.92800 50.35500
H  27.96100 -10.66700 52.30300
H  25.90200 -13.64800 52.09200
H  25.52000 -11.99700 52.76500
H  27.13200 -12.79700 52.99300
H  30.04300 -11.13200 50.28800
H  29.39200 -12.69600 50.73500
H  31.31700 -11.19700 51.89000
H  30.54700 -12.65500 52.70500
H  29.93100 -11.11000 53.04400
H  31.27200 -7.11400 50.83900
H  31.76200 -5.95600 49.60100
H  32.01900 -7.70300 49.31400
H  28.58300 -4.58200 45.79200
H  28.05800 -0.43200 45.28500
H  27.80600 -0.50300 47.01100
H  26.51800 -0.78900 45.88100

