158

Mg 39.42100 9.38500 29.51700
C  41.58200 10.93200 32.03500
C  37.58000 8.13400 31.93700
C  37.81100 7.67700 27.12800
C  42.05000 10.05300 27.26100
N  39.59100 9.67100 31.65300
C  40.40600 10.38300 32.53100
C  39.91200 10.29000 33.97200
C  38.84900 9.18300 33.89700
C  38.62500 8.98300 32.40400
C  39.16600 7.90700 34.69800
C  39.38500 11.62700 34.49000
C  39.12700 11.56400 36.00700
H  40.08100 12.29000 37.03600
N  37.82200 8.19800 29.49600
C  37.14000 7.82300 30.61600
C  35.93900 7.10800 30.23500
C  35.96200 7.06700 28.82800
C  37.25500 7.61900 28.43700
C  34.94400 6.50900 31.17900
C  34.92200 6.52400 27.85400
O  34.89500 6.78700 26.68800
C  33.80400 5.69000 28.38800
N  39.85600 8.93400 27.47300
C  39.04900 8.17800 26.66600
C  39.51400 8.13300 25.18000
C  40.91500 8.94800 25.31100
C  40.93800 9.35800 26.79800
C  39.56800 6.77600 24.54300
C  40.95100 10.15900 24.30600
C  40.34700 11.57200 24.75800
N  41.47300 10.30000 29.58000
C  42.37000 10.50400 28.58300
C  43.46600 11.27400 29.03000
C  43.23300 11.50200 30.43300
C  41.99500 10.86700 30.68200
C  44.60600 11.81100 28.22100
C  43.71400 12.08100 31.71800
O  44.73100 12.73000 31.93100
C  42.62000 11.74300 32.77600
C  43.35800 11.05500 33.92000
O  43.70400 9.89100 34.01000
O  43.59200 11.96100 34.91200
C  44.00900 11.50700 36.22500
H  36.91100 7.82500 32.74200
H  37.50800 6.98300 26.34100
H  42.80700 10.23500 26.49600
H  40.68900 9.96200 34.66200
H  37.89500 9.47800 34.33300
H  39.30100 7.03800 34.05400
H  38.32600 7.70400 35.36200
H  40.08000 8.05100 35.27400
H  38.45600 11.89700 33.98800
H  40.11700 12.39000 34.22700
H  39.07900 10.52700 36.33700
H  38.16700 12.05800 36.15400
H  33.97100 7.00000 31.15200
H  35.29700 6.67400 32.19600
H  34.84600 5.42600 31.10500
H  34.22100 4.98900 29.11200
H  33.43300 5.12400 27.53400
H  33.03000 6.33000 28.81100
H  38.77400 8.73000 24.64700
H  41.77600 8.30000 25.14800
H  39.62500 6.03900 25.34400
H  40.49800 6.68300 23.98000
H  38.66100 6.72200 23.94100
H  40.38600 9.80200 23.44500
H  41.94100 10.06400 23.86100
H  39.61200 11.24000 25.49100
H  39.91100 12.02800 23.86900
H  40.98400 12.33100 25.21400
H  44.31200 12.04400 27.19800
H  45.36000 11.06100 27.98000
H  44.91700 12.74000 28.69800
H  42.26900 12.71200 33.13000
H  43.57200 10.55200 36.51500
H  43.82500 12.23100 37.01900
H  45.09200 11.39800 36.28800
Mg 6.41700 55.52700 40.85100
C  5.06500 52.19800 40.48800
C  9.27400 54.45800 39.43500
C  7.52900 58.74200 40.82200
C  3.29100 56.58200 41.76200
N  6.91200 53.66800 39.79000
C  6.32000 52.41500 39.87800
C  7.10900 51.46400 39.01900
C  8.56100 51.98400 39.22900
C  8.25100 53.44600 39.55400
C  9.53900 51.40900 40.28700
C  6.55800 51.75500 37.57300
C  6.52500 50.45700 36.71700
H  6.09200 50.77800 35.28600
N  8.21100 56.50100 40.28900
C  9.25200 55.83800 39.71100
C  10.31700 56.82300 39.45100
C  9.91800 58.09300 39.98300
C  8.51200 57.84700 40.35000
C  11.69000 56.45500 38.91700
C  10.68700 59.39100 40.17100
O  11.80600 59.45200 39.69800
C  10.17700 60.60600 40.90000
N  5.54900 57.47600 41.12200
C  6.20700 58.61400 41.26000
C  5.23800 59.79900 41.60200
C  3.84300 59.09500 41.81500
C  4.24600 57.63600 41.58300
C  5.68400 60.51600 42.82300
C  2.67400 59.61200 40.91800
C  1.49900 60.35200 41.66700
N  4.42300 54.62100 41.09400
C  3.32000 55.16900 41.54500
C  2.34400 54.13300 41.67500
C  2.87300 52.92000 41.31100
C  4.21300 53.24100 40.99400
C  0.85400 54.41800 42.03400
C  2.79900 51.45200 41.16700
O  1.92700 50.66000 41.48900
C  4.26500 50.96200 40.66900
C  4.26200 50.04600 39.54000
O  3.60700 50.24500 38.53700
O  4.91900 48.91800 39.77400
C  4.76000 47.84600 38.80500
H  10.26200 54.12600 39.10900
H  7.84900 59.78600 40.81700
H  2.35400 57.05600 42.06200
H  6.92800 50.42800 39.30400
H  9.00500 51.90800 38.23600
H  9.14500 50.55200 40.83200
H  9.76400 52.20200 41.00100
H  10.48700 51.26900 39.76700
H  7.15500 52.53400 37.09900
H  5.54900 52.16400 37.63200
H  5.92700 49.62800 37.09700
H  7.55500 50.10300 36.76600
H  12.07600 57.33400 38.40100
H  11.46100 55.73800 38.12900
H  12.41300 56.06500 39.63400
H  10.95900 61.30500 41.19600
H  9.77800 60.24200 41.84700
H  9.37200 61.05900 40.32000
H  5.18800 60.51500 40.78200
H  3.50200 59.18900 42.84600
H  4.89400 60.93800 43.44300
H  6.22100 61.41300 42.51500
H  6.29000 59.90600 43.49300
H  2.27100 58.77300 40.35100
H  3.00000 60.26300 40.10700
H  1.11800 61.17200 41.05800
H  1.89700 60.73200 42.60800
H  0.66000 59.69100 41.88900
H  0.74100 55.13300 42.84800
H  0.44900 53.50900 42.47900
H  0.19500 54.63500 41.19400
H  4.53300 50.44100 41.58800
H  5.77100 47.55100 38.52500
H  4.37200 48.24900 37.86900
H  4.06000 47.17100 39.29700

