158

Mg 16.77500 51.84300 25.77800
C  18.72600 50.55600 28.36000
C  14.36500 52.47000 28.04600
C  14.97300 53.00800 23.14900
C  19.23400 50.64300 23.45300
N  16.47200 51.42200 27.93300
C  17.50600 51.11900 28.75300
C  17.07000 51.29400 30.21000
C  15.54100 51.56100 30.13200
C  15.42200 51.78700 28.63500
C  14.53200 50.50400 30.53200
C  17.94600 52.35600 30.92300
C  18.27500 52.22900 32.37500
H  17.24800 51.43600 33.22400
N  14.99800 52.76000 25.64400
C  14.09800 52.86700 26.67700
C  12.87500 53.60000 26.13100
C  13.04900 53.79200 24.66700
C  14.40600 53.20200 24.41700
C  11.70500 53.95700 26.96400
C  12.17900 54.45900 23.68700
O  12.50100 54.68500 22.52000
C  10.86900 55.11600 24.10000
N  17.05100 51.76900 23.65500
C  16.15100 52.36100 22.75500
C  16.61400 52.30200 21.31000
C  18.02900 51.69100 21.49800
C  18.15000 51.36300 22.94500
C  15.75300 51.28200 20.41300
C  19.12100 52.51900 20.79500
C  19.86800 51.90000 19.57600
N  18.61100 50.72300 25.86800
C  19.42600 50.29500 24.86900
C  20.57800 49.67300 25.49300
C  20.32400 49.61000 26.86100
C  19.10500 50.40400 27.01600
C  21.94500 49.31000 24.78100
C  20.78500 49.17600 28.19000
O  21.74000 48.51700 28.51600
C  19.81200 49.78700 29.18500
C  19.26300 48.75800 30.02900
O  18.34200 48.02100 29.76600
O  19.96800 48.71800 31.20700
C  19.31800 47.85800 32.18000
H  13.61600 52.88800 28.72200
H  14.49300 53.42600 22.26100
H  19.88500 50.32500 22.63700
H  17.33200 50.35600 30.69800
H  15.35100 52.53400 30.58400
H  13.82200 51.06200 31.14300
H  14.97300 49.79300 31.23100
H  14.06400 50.01500 29.67700
H  17.59400 53.38800 30.91600
H  18.89200 52.34500 30.38200
H  18.40600 53.19800 32.85700
H  19.20500 51.66100 32.40200
H  10.89200 53.27100 26.72600
H  11.48100 55.00300 26.75800
H  11.94300 53.95200 28.02800
H  10.98000 56.05000 24.65000
H  10.12800 54.43800 24.52200
H  10.37800 55.33800 23.15300
H  16.59900 53.34400 20.99000
H  18.15800 50.76100 20.94400
H  14.84800 50.87200 20.86300
H  16.35000 50.40300 20.17200
H  15.54500 51.86200 19.51400
H  19.66000 52.95800 21.63400
H  18.68600 53.40600 20.33500
H  19.24000 51.14700 19.10000
H  20.81500 51.43300 19.84600
H  20.15200 52.67400 18.86300
H  22.12700 49.72200 23.78800
H  22.11200 48.24200 24.91700
H  22.66700 49.88600 25.36000
H  20.38300 50.50000 29.78000
H  19.28200 46.79700 31.92900
H  18.28900 48.11700 32.43000
H  19.90400 47.80900 33.09800
Mg -13.24600 16.33800 41.74300
C  -10.22000 14.63900 41.08800
C  -11.81900 19.16500 40.30200
C  -16.19900 17.63500 42.00700
C  -14.50900 13.22600 42.85200
N  -11.24700 16.83900 40.76400
C  -10.22400 15.99000 40.63500
C  -9.01300 16.68000 39.88600
C  -9.49300 18.19500 39.77900
C  -10.87600 18.08400 40.34500
C  -8.56800 19.19000 40.54900
C  -8.58700 15.95700 38.55700
C  -7.12600 15.55900 38.44800
H  -6.45600 16.02800 37.18900
N  -13.92800 18.12800 41.18800
C  -13.20500 19.16800 40.65300
C  -14.10700 20.38100 40.58500
C  -15.40800 20.00800 41.14900
C  -15.21500 18.50600 41.51300
C  -13.71700 21.77900 40.02900
C  -16.55300 20.99300 41.40200
O  -16.45300 22.17300 41.06000
C  -17.74800 20.53800 42.22300
N  -15.20000 15.34800 42.10600
C  -16.23400 16.26800 42.36600
C  -17.55300 15.40100 42.61600
C  -16.83900 14.17800 43.23600
C  -15.44200 14.19600 42.69400
C  -18.54800 16.05800 43.62000
C  -17.60400 12.84600 42.92100
C  -17.61300 11.74500 43.98100
N  -12.54000 14.29800 41.99000
C  -13.16100 13.16600 42.46700
C  -12.15800 12.11500 42.55400
C  -11.01900 12.62700 42.05000
C  -11.26100 13.95200 41.66000
C  -12.45100 10.80700 43.08000
C  -9.62200 12.25600 41.72100
O  -8.96800 11.22100 41.90200
C  -9.06400 13.59200 41.01900
C  -7.79900 14.03700 41.79100
O  -7.75400 14.93800 42.62100
O  -6.71600 13.37000 41.28000
C  -5.47200 13.70000 41.91900
H  -11.40700 20.09600 39.90600
H  -17.23200 17.98600 42.04100
H  -14.80300 12.28300 43.31900
H  -8.17200 16.62700 40.57700
H  -9.56200 18.41700 38.71500
H  -8.16200 19.91700 39.84600
H  -7.73700 18.66500 41.02000
H  -9.15800 19.71800 41.29800
H  -8.75900 16.60900 37.70100
H  -9.20200 15.08100 38.35400
H  -6.98800 14.49100 38.62100
H  -6.51900 15.88700 39.29200
H  -14.35400 21.96200 39.16300
H  -12.70400 21.75700 39.62600
H  -13.67100 22.55700 40.79100
H  -18.43600 19.88100 41.69200
H  -18.46300 21.35000 42.35800
H  -17.48400 19.85200 43.02800
H  -18.04800 15.11900 41.68700
H  -16.80800 14.30500 44.31900
H  -18.26800 17.08800 43.84200
H  -18.70100 15.56100 44.57700
H  -19.49300 16.09300 43.07800
H  -17.20400 12.54400 41.95300
H  -18.65900 13.04400 42.72700
H  -18.68300 11.62700 44.15600
H  -17.09700 12.03600 44.89600
H  -17.15700 10.90900 43.45200
H  -13.12100 10.25900 42.41800
H  -13.03000 10.98000 43.98700
H  -11.61600 10.22600 43.47200
H  -8.73900 13.22300 40.04600
H  -5.28900 14.76600 41.78500
H  -4.66300 13.33300 41.28700
H  -5.50800 13.38400 42.96200

