158

Mg 25.33700 1.32600 29.17800
C  27.41100 1.34500 32.13500
C  22.60000 1.35100 31.27400
C  23.52000 1.35300 26.43600
C  28.29500 0.73900 27.28400
N  25.08100 1.37200 31.47200
C  26.06200 1.55000 32.45800
C  25.40000 1.77700 33.79800
C  23.83800 1.61300 33.47800
C  23.83500 1.36300 31.99400
C  23.13800 0.37900 34.19200
C  25.72800 3.12700 34.48500
C  26.66100 3.10300 35.68300
H  26.20800 3.89200 36.87600
N  23.39200 1.26000 28.86500
C  22.39500 1.31600 29.82800
C  21.10500 1.36200 29.15500
C  21.28200 1.29000 27.77100
C  22.80700 1.36100 27.63300
C  19.81500 1.44400 29.99700
C  20.23900 1.37200 26.64200
O  20.54300 1.34000 25.42800
C  18.81500 1.45200 26.86700
N  25.85700 1.14200 27.16700
C  24.88000 1.32400 26.20100
C  25.54400 1.35000 24.75300
C  27.07900 1.09200 25.05200
C  27.13900 1.01800 26.56900
C  25.10700 0.36200 23.66800
C  27.93100 2.18100 24.31900
C  27.86100 3.60200 24.97300
N  27.39400 1.09100 29.60500
C  28.45200 0.84900 28.71800
C  29.69100 0.67200 29.48600
C  29.37700 0.85400 30.90900
C  27.98000 1.11700 30.83800
C  31.09800 0.44600 28.89800
C  29.81800 0.94800 32.23000
O  30.91800 0.76500 32.66200
C  28.60300 1.26900 33.14500
C  28.47300 0.20200 34.17200
O  27.93500 -0.89900 34.03900
O  29.02700 0.66300 35.31200
C  28.92000 -0.18600 36.46600
H  21.74700 1.44600 31.94900
H  22.88600 1.30600 25.54800
H  29.18800 0.44300 26.72900
H  25.64200 0.99300 34.51500
H  23.29000 2.54100 33.64400
H  22.09200 0.62100 34.37600
H  23.69700 0.36100 35.12700
H  23.06800 -0.54500 33.61800
H  24.80200 3.60500 34.80700
H  26.25900 3.63700 33.68200
H  27.54700 3.62500 35.32200
H  26.95800 2.11400 36.03200
H  18.86500 1.19600 29.52400
H  19.74800 2.42800 30.46100
H  19.87900 0.79700 30.87100
H  18.75000 2.42700 27.34800
H  18.50500 0.64200 27.52700
H  18.25200 1.49100 25.93400
H  25.34300 2.33700 24.33700
H  27.33300 0.09500 24.69100
H  24.44600 -0.37800 24.11900
H  25.98000 -0.14600 23.26000
H  24.49600 0.76000 22.85800
H  27.58600 2.21300 23.28600
H  28.95300 1.80200 24.33100
H  28.80600 3.90300 25.42300
H  27.03500 3.52100 25.68000
H  27.53100 4.44200 24.36200
H  31.26400 0.94200 27.94200
H  31.29500 -0.62300 28.81300
H  31.89700 0.79300 29.55400
H  28.74000 2.26300 33.57100
H  28.03300 0.18700 36.97800
H  29.74600 -0.17800 37.17700
H  28.76300 -1.26000 36.36900
Mg 40.39600 9.24500 29.76400
C  41.96700 10.85400 32.21000
C  38.17700 7.89900 31.93500
C  38.78200 7.99600 27.10800
C  42.94000 10.22400 27.49100
N  40.22700 9.29900 31.90400
C  40.87700 10.15700 32.70800
C  40.39700 9.98600 34.13300
C  39.26700 8.91600 34.05400
C  39.19000 8.65300 32.54300
C  39.43400 7.58200 34.74600
C  40.04200 11.39500 34.71200
C  39.23200 11.50800 35.96400
H  39.67800 12.41900 37.06100
N  38.66500 8.15300 29.51800
C  37.86700 7.66300 30.61100
C  36.72000 6.96700 30.02000
C  36.84900 7.06200 28.58900
C  38.14400 7.71400 28.38300
C  35.50200 6.46500 30.88300
C  35.82600 6.71600 27.46900
O  36.07700 6.63000 26.27800
C  34.41100 6.41700 27.91600
N  40.91200 9.00500 27.66200
C  40.00700 8.47900 26.78900
C  40.49100 8.52100 25.29000
C  41.97200 9.12300 25.42500
C  41.90800 9.49800 26.92800
C  40.37900 7.27300 24.41100
C  42.28200 10.29000 24.40600
C  41.85200 11.74900 24.62800
N  42.13000 10.25900 29.74000
C  43.05800 10.67300 28.81200
C  44.07500 11.44000 29.42200
C  43.74500 11.50200 30.74400
C  42.51800 10.85200 30.86000
C  45.39200 11.92700 28.73800
C  44.12500 12.05900 32.02800
O  45.10700 12.68300 32.39000
C  42.92600 11.69400 33.09600
C  43.58400 10.95300 34.19300
O  43.99000 9.82100 34.17200
O  43.65500 11.79800 35.24900
C  44.03400 11.14500 36.54400
H  37.58800 7.49800 32.76200
H  38.21200 7.70300 26.22400
H  43.65200 10.64900 26.78100
H  41.24400 9.61100 34.70700
H  38.31600 9.40700 34.26100
H  38.45700 7.39700 35.19100
H  40.24600 7.63300 35.47100
H  39.76800 6.74800 34.12800
H  39.50100 11.90900 33.91700
H  40.95200 11.99300 34.75700
H  39.16000 10.55300 36.48500
H  38.25000 11.89100 35.68800
H  35.69600 6.51100 31.95500
H  35.31000 5.47600 30.46800
H  34.67500 7.13400 30.64700
H  33.96600 7.15900 28.58000
H  34.24300 5.47400 28.43700
H  33.82500 6.44300 26.99700
H  39.84100 9.22500 24.77000
H  42.67000 8.28900 25.49000
H  41.34500 6.77400 24.48600
H  40.18100 7.58500 23.38500
H  39.55600 6.60400 24.66000
H  41.72800 10.08000 23.49100
H  43.35300 10.40000 24.23300
H  41.24700 12.07700 23.78300
H  42.73200 12.39100 24.65200
H  41.22600 11.76900 25.52100
H  46.24000 11.92300 29.42300
H  45.37800 12.94900 28.35900
H  45.64300 11.31700 27.87000
H  42.59200 12.70400 33.33300
H  43.24000 11.34900 37.26300
H  44.98600 11.54100 36.89700
H  44.16400 10.06400 36.58400

