158

Mg 1.36900 -1.69200 43.27400
C  4.72200 -0.83400 42.73500
C  0.36800 1.12900 41.62800
C  -1.78100 -2.90200 43.34600
C  2.37400 -4.79800 44.57600
N  2.43200 -0.13400 42.21500
C  3.82000 0.05800 42.07400
C  4.13900 1.35200 41.40600
C  2.68300 1.96400 41.24100
C  1.77100 0.89900 41.82000
C  2.36400 3.39100 41.77100
C  4.94800 1.31200 40.12900
C  4.21000 0.75600 38.88200
H  4.91000 0.04400 37.80500
N  -0.47300 -0.93600 42.64100
C  -0.71900 0.29600 42.07400
C  -2.08400 0.49500 41.83800
C  -2.67600 -0.78500 42.21600
C  -1.66000 -1.61500 42.81200
C  -2.62000 1.71100 41.14500
C  -4.08100 -1.04700 41.95200
O  -4.86300 -0.17400 41.55500
C  -4.76700 -2.31100 42.32700
N  0.39800 -3.67600 43.81000
C  -0.92100 -3.77000 43.96700
C  -1.34400 -5.17600 44.45700
C  -0.02500 -5.67700 45.02900
C  1.03200 -4.69200 44.39400
C  -2.56600 -5.38800 45.37400
C  0.20100 -7.21800 44.83100
C  0.79200 -8.00900 45.97700
N  3.07100 -2.65200 43.59900
C  3.37800 -3.87500 44.26600
C  4.81100 -4.02900 44.52500
C  5.29100 -2.87000 43.88200
C  4.24500 -2.04800 43.42300
C  5.55400 -5.06400 45.22900
C  6.56200 -2.24500 43.60600
O  7.67600 -2.64300 43.98600
C  6.27300 -0.91800 42.75800
C  7.12800 0.24400 43.34400
O  7.78900 1.03900 42.71000
O  6.94000 0.30900 44.75700
C  7.80500 1.34200 45.38200
H  0.10800 2.08100 41.15900
H  -2.82100 -3.17800 43.53400
H  2.58300 -5.77000 45.03000
H  4.56200 2.02000 42.15700
H  2.46400 1.92500 40.17400
H  1.60800 3.42600 42.55500
H  2.07600 4.00500 40.91700
H  3.28200 3.85300 42.13500
H  5.82600 0.70800 40.35700
H  5.28000 2.34400 40.01400
H  3.78200 1.66800 38.46700
H  3.42300 0.03300 39.09800
H  -3.61900 2.11400 41.31500
H  -2.57200 1.55300 40.06700
H  -1.95700 2.57200 41.23500
H  -5.84300 -2.36100 42.16100
H  -4.70500 -2.42900 43.40900
H  -4.28400 -3.16600 41.85400
H  -1.63900 -5.78400 43.60200
H  0.06800 -5.48600 46.09800
H  -2.91200 -6.39000 45.12000
H  -3.31600 -4.60200 45.28400
H  -2.31600 -5.42100 46.43400
H  0.72100 -7.45100 43.90200
H  -0.76900 -7.63500 44.55800
H  1.65700 -8.53300 45.56900
H  0.06600 -8.72200 46.36800
H  1.07200 -7.38100 46.82300
H  6.24500 -4.66200 45.97000
H  6.05300 -5.73000 44.52500
H  4.75200 -5.61400 45.72000
H  6.71600 -1.08300 41.77600
H  7.91100 1.11000 46.44200
H  7.22900 2.25600 45.23300
H  8.82900 1.37300 45.01000
Mg 17.34100 52.57500 26.83300
C  19.63700 51.04600 28.94700
C  15.45200 53.30900 29.67500
C  15.07100 53.87700 24.88500
C  19.11500 51.46200 24.04800
N  17.53100 52.09700 29.05600
C  18.53100 51.50900 29.69300
C  18.33500 51.58100 31.23400
C  16.84400 51.97300 31.35200
C  16.60500 52.54500 29.97100
C  15.79500 50.87100 31.78700
C  19.29900 52.62200 31.85100
C  19.31300 52.69000 33.46400
H  18.24200 51.96900 34.27400
N  15.56200 53.57400 27.26300
C  14.95400 53.81300 28.48200
C  13.76600 54.62200 28.28100
C  13.67700 54.75500 26.81500
C  14.83000 54.02700 26.24300
C  12.77500 55.12800 29.34800
C  12.70100 55.51400 25.96300
O  12.66100 55.57100 24.73700
C  11.70200 56.31100 26.64900
N  17.05600 52.42300 24.79900
C  16.08100 53.18000 24.22500
C  16.16200 53.10100 22.64400
C  17.55800 52.39700 22.41500
C  17.92000 52.08700 23.81200
C  14.98600 52.32600 22.02200
C  18.64900 53.33400 21.88200
C  19.75400 52.80100 21.02400
N  19.00600 51.44500 26.50800
C  19.64100 51.09700 25.32500
C  20.79900 50.29600 25.72900
C  20.82600 50.22800 27.13200
C  19.73900 51.08000 27.52900
C  21.78800 49.64400 24.84100
C  21.58200 49.73700 28.30100
O  22.57900 48.95600 28.43200
C  20.71000 50.12900 29.42800
C  20.26100 48.96100 30.22200
O  19.75800 47.96000 29.73100
O  20.44500 49.25700 31.54300
C  20.19700 48.13500 32.36700
H  14.88700 53.50600 30.58800
H  14.61700 54.51800 24.12700
H  19.79300 51.14000 23.25400
H  18.52500 50.60600 31.68300
H  16.70800 52.84800 31.98700
H  14.97800 51.32200 32.34900
H  16.35000 50.14200 32.37800
H  15.44400 50.41100 30.86300
H  19.04200 53.56000 31.35800
H  20.26800 52.25700 31.51300
H  19.22100 53.76700 33.60700
H  20.33000 52.47100 33.78900
H  12.50900 56.18400 29.30200
H  13.27100 54.95500 30.30400
H  11.87600 54.52200 29.23800
H  10.97600 55.75200 27.23900
H  11.15200 56.97100 25.97600
H  12.26300 57.01200 27.26700
H  16.27400 54.04600 22.11200
H  17.40700 51.50200 21.81200
H  14.75500 51.45200 22.63100
H  15.42600 52.03800 21.06700
H  14.06700 52.89900 21.90000
H  19.17500 53.88500 22.66100
H  18.25000 54.11100 21.22900
H  19.80000 53.38400 20.10500
H  19.58200 51.76600 20.72900
H  20.72000 52.82000 21.52800
H  22.54400 49.12100 25.42600
H  22.24800 50.47400 24.30400
H  21.39700 48.85900 24.19400
H  21.41200 50.69700 30.03800
H  19.19700 48.20100 32.79400
H  20.85100 48.17400 33.23900
H  20.39400 47.14200 31.96300

