158

Mg 49.01200 35.94200 27.24200
C  46.85100 34.44300 29.66300
C  49.43100 38.60100 29.35900
C  50.56000 37.57600 24.71100
C  47.88600 33.56200 25.02900
N  48.29700 36.45200 29.29700
C  47.52100 35.65000 30.10600
C  47.37200 36.32400 31.49600
C  48.04500 37.74900 31.32800
C  48.64300 37.61000 29.90600
C  47.02500 38.90600 31.41700
C  47.98600 35.54700 32.63700
C  47.28900 35.80200 33.98000
H  47.74700 36.96500 34.85200
N  50.01400 37.79400 27.18900
C  50.11200 38.74600 28.14300
C  50.90100 39.85800 27.67700
C  51.15100 39.58100 26.29900
C  50.55600 38.27700 25.95200
C  51.35000 40.95900 28.48600
C  52.00500 40.46700 25.34200
O  52.09300 40.21100 24.17100
C  52.63700 41.66500 25.84500
N  49.18200 35.51700 25.21000
C  50.01700 36.30600 24.39300
C  50.11900 35.70900 22.96300
C  49.40800 34.32300 23.14200
C  48.82600 34.42400 24.55000
C  49.40200 36.52600 21.84400
C  50.20900 33.00100 22.89200
C  49.77500 32.05900 21.76000
N  47.73400 34.21900 27.31400
C  47.32200 33.44800 26.28700
C  46.35200 32.45700 26.78300
C  46.18700 32.84900 28.10800
C  47.05600 33.89200 28.37600
C  45.72500 31.33000 26.06000
C  45.50700 32.44500 29.32200
O  44.77400 31.47200 29.51300
C  45.88500 33.49800 30.38100
C  46.41800 32.84300 31.61600
O  47.44100 32.13500 31.63300
O  45.56400 33.11000 32.63400
C  45.90000 32.46900 33.93700
H  49.82700 39.42100 29.96200
H  51.17500 38.00800 23.91900
H  47.69400 32.71600 24.36500
H  46.30600 36.24700 31.71300
H  48.93700 37.95800 31.91900
H  46.93800 39.49000 30.50100
H  47.32100 39.64000 32.16600
H  46.03000 38.57000 31.70900
H  48.97600 36.00200 32.60300
H  48.09700 34.49600 32.37200
H  47.30800 34.88500 34.56900
H  46.22600 35.99900 33.83600
H  52.43900 40.98700 28.47500
H  51.23700 40.89400 29.56800
H  51.01500 41.93000 28.12100
H  53.08000 42.10200 24.95000
H  53.42800 41.32600 26.51500
H  52.00000 42.38000 26.36500
H  51.08600 35.42900 22.54400
H  48.51600 34.28300 22.51700
H  48.39100 36.13300 21.73800
H  49.94400 36.34800 20.91500
H  49.38400 37.60400 22.00100
H  50.31800 32.45800 23.83100
H  51.26200 33.24300 22.75000
H  48.78600 32.29400 21.36600
H  49.77600 31.03000 22.11900
H  50.48700 32.10000 20.93500
H  46.11400 31.32800 25.04100
H  44.65300 31.52600 26.06200
H  45.91800 30.32900 26.44600
H  44.99300 34.03500 30.70400
H  45.18300 32.87500 34.65000
H  46.95900 32.66500 34.10800
H  45.85400 31.38000 33.94400
Mg -11.06800 16.87400 41.27700
C  -7.58600 16.17600 41.86900
C  -10.14200 20.18000 41.10800
C  -14.16400 17.58300 40.27700
C  -11.66100 13.43900 41.06900
N  -8.99100 17.97000 41.28800
C  -7.77000 17.48800 41.48500
C  -6.74100 18.54600 41.34400
C  -7.63300 19.83600 41.67200
C  -9.03000 19.33500 41.30400
C  -7.52400 20.31000 43.13000
C  -6.25100 18.54000 39.82900
C  -5.00900 17.77300 39.47700
H  -5.05800 16.36900 38.82100
N  -12.05100 18.64200 40.73100
C  -11.43600 19.86800 40.63100
C  -12.44000 20.80300 40.07800
C  -13.66400 20.08300 39.93000
C  -13.36500 18.69500 40.34200
C  -12.03600 22.21400 39.75900
C  -14.92700 20.71700 39.33100
O  -15.01000 21.89900 39.07500
C  -16.23900 19.96500 39.18300
N  -12.64900 15.69800 40.77600
C  -13.84800 16.24100 40.54800
C  -14.98300 15.17700 40.73300
C  -14.21000 13.77700 40.73800
C  -12.70800 14.34600 40.84500
C  -15.75600 15.45300 42.01300
C  -14.41700 12.89400 39.46200
C  -14.76600 11.42700 39.66000
N  -9.86400 15.09600 41.55600
C  -10.27700 13.77000 41.46700
C  -9.14300 12.94600 41.74800
C  -8.10000 13.85500 42.07000
C  -8.56900 15.14400 41.78100
C  -9.17300 11.46100 41.85700
C  -6.78600 13.97200 42.50500
O  -6.03400 13.05100 42.79100
C  -6.38600 15.55900 42.51400
C  -6.34300 16.01500 43.96400
O  -7.24800 16.59600 44.52800
O  -5.15400 15.72800 44.54600
C  -4.94200 16.18400 45.90400
H  -9.94100 21.25000 41.19000
H  -15.22100 17.63500 40.00700
H  -11.81900 12.36100 41.00500
H  -5.83200 18.41700 41.93200
H  -7.61800 20.59500 40.89000
H  -6.69500 19.83000 43.64900
H  -8.43300 20.27500 43.73000
H  -7.32700 21.36900 42.96700
H  -6.08300 19.52600 39.39400
H  -6.95400 17.99300 39.20100
H  -4.51800 17.66700 40.44500
H  -4.31900 18.38700 38.89900
H  -11.56600 22.20300 38.77500
H  -11.39400 22.65400 40.52100
H  -12.82800 22.96300 39.75600
H  -16.11700 19.01500 38.66400
H  -16.72300 20.64300 38.48000
H  -16.67500 19.79300 40.16700
H  -15.62200 15.30300 39.85800
H  -14.44200 13.28800 41.68400
H  -16.29800 14.59200 42.40500
H  -16.60800 16.05600 41.70100
H  -15.22100 15.97400 42.80700
H  -13.49200 13.01900 38.89900
H  -15.22800 13.27800 38.84400
H  -13.93000 10.78200 39.39100
H  -15.59100 11.11500 39.01900
H  -15.13900 11.11800 40.63700
H  -8.37100 11.25600 42.56500
H  -9.00500 10.85500 40.96600
H  -10.11100 11.24900 42.37100
H  -5.37000 15.78600 42.19200
H  -4.43000 17.14600 45.94600
H  -4.21100 15.48100 46.30100
H  -5.82000 16.23000 46.54800

