158

Mg 1.18200 8.27200 25.71100
C  1.90000 10.29400 28.46800
C  1.57200 5.53500 27.66700
C  0.96400 6.41300 22.88500
C  1.42800 11.20500 23.74600
N  2.01000 7.96500 27.77300
C  1.93100 8.92400 28.76200
C  1.95200 8.28600 30.17400
C  2.07700 6.76600 29.83100
C  1.91500 6.75600 28.35100
C  3.38800 6.02400 30.27900
C  0.67600 8.57000 31.02400
C  1.04100 9.16200 32.39700
H  2.25400 8.82900 33.21200
N  1.10800 6.29400 25.29500
C  1.29900 5.31400 26.24600
C  1.14500 4.03300 25.66800
C  0.79700 4.26000 24.26100
C  0.91700 5.75300 24.07800
C  1.28400 2.78200 26.50000
C  0.46500 3.30500 23.15800
O  0.42300 3.54800 21.93500
C  0.25000 1.87200 23.58900
N  1.12400 8.75200 23.59500
C  0.97800 7.73700 22.62500
C  0.92000 8.35500 21.25800
C  0.83700 9.91400 21.53100
C  1.17600 9.98500 23.05600
C  2.16900 7.89500 20.42300
C  -0.50700 10.55600 21.24300
C  -0.48100 12.00300 20.66700
N  1.53300 10.34400 26.02400
C  1.62100 11.40100 25.13900
C  1.91200 12.61700 25.78300
C  1.96800 12.23200 27.14300
C  1.77200 10.82300 27.23500
C  2.01200 13.92300 25.11900
C  2.07100 12.73600 28.46300
O  2.15100 13.93900 28.73700
C  1.95200 11.53300 29.39100
C  3.13600 11.72700 30.27000
O  4.16900 11.11300 30.10900
O  2.96100 12.64300 31.27400
C  4.22100 12.75900 32.07700
H  1.51000 4.69500 28.36100
H  0.97400 5.86200 21.94200
H  1.54400 12.06200 23.08000
H  2.84800 8.71400 30.62300
H  1.24500 6.21400 30.26800
H  3.88700 6.61400 31.04800
H  4.10600 6.06200 29.46000
H  3.10600 5.00700 30.55100
H  0.16800 7.64200 31.28500
H  -0.00500 9.13100 30.38500
H  0.19900 8.97200 33.06200
H  1.02900 10.21300 32.10900
H  2.24200 2.70200 27.01400
H  1.04100 1.81200 26.06600
H  0.55500 2.98000 27.28600
H  1.23200 1.42000 23.73200
H  -0.22100 1.32400 22.77300
H  -0.44800 1.90000 24.42600
H  0.01500 8.03200 20.74300
H  1.55400 10.36800 20.84700
H  2.89100 7.35000 21.03000
H  2.51900 8.75000 19.84300
H  1.76000 7.13000 19.76300
H  -0.99500 10.72400 22.20300
H  -1.19400 9.90600 20.70100
H  -1.07300 11.98500 19.75200
H  0.52600 12.25300 20.33200
H  -0.82900 12.78400 21.34300
H  2.34300 13.80400 24.08700
H  2.68000 14.57600 25.68000
H  1.02700 14.38600 25.06700
H  1.02200 11.72200 29.92700
H  4.01700 13.51600 32.83300
H  5.14400 13.02500 31.56200
H  4.38000 11.82400 32.61500
Mg 9.26200 4.20700 27.67600
C  10.66300 2.69100 30.64700
C  7.74000 6.51700 29.77600
C  7.93200 5.42600 24.94400
C  10.90800 1.72700 25.81000
N  9.25600 4.53300 29.92600
C  9.92500 3.85600 30.86800
C  9.61700 4.46300 32.24400
C  8.73200 5.62800 31.99000
C  8.54800 5.56100 30.46100
C  7.37400 5.79500 32.73000
C  10.83200 4.94500 33.21600
C  10.79700 4.35900 34.65900
H  11.41000 5.17800 35.85300
N  7.98500 5.74600 27.36700
C  7.45400 6.60700 28.35800
C  6.62500 7.58200 27.71800
C  6.70500 7.25100 26.32000
C  7.61000 6.13300 26.12100
C  5.84300 8.63600 28.50200
C  5.87800 7.95000 25.22000
O  5.90300 7.63100 24.04300
C  4.94000 8.96900 25.62200
N  9.42300 3.59600 25.70700
C  8.74800 4.31800 24.73200
C  9.03500 3.82200 23.34600
C  10.18400 2.81300 23.62800
C  10.12600 2.66300 25.14700
C  7.85100 3.02700 22.69700
C  11.58700 3.47100 23.37700
C  12.10100 3.20700 21.92700
N  10.35900 2.44600 28.15600
C  10.99900 1.65400 27.25800
C  11.71500 0.62100 28.01100
C  11.64900 1.04000 29.37500
C  10.83500 2.16400 29.36500
C  12.47600 -0.58500 27.40500
C  12.03700 0.71000 30.68700
O  12.57900 -0.27400 31.14000
C  11.45000 1.80000 31.59900
C  10.74200 1.17700 32.69100
O  9.52300 0.94500 32.58500
O  11.46100 0.99200 33.83400
C  10.71400 0.38900 34.94700
H  7.22700 7.20200 30.45500
H  7.60800 5.91800 24.02400
H  11.47000 0.98400 25.23900
H  9.11100 3.74400 32.88800
H  9.39900 6.48300 32.10400
H  7.21100 5.01100 33.47000
H  6.51900 5.93700 32.06900
H  7.42100 6.67500 33.37100
H  10.82400 6.02700 33.34800
H  11.72300 4.52800 32.74800
H  11.36800 3.43100 34.66700
H  9.80500 4.12200 35.04500
H  6.02700 9.60600 28.04100
H  6.25700 8.74800 29.50400
H  4.77600 8.42600 28.42500
H  5.48200 9.82600 26.02000
H  4.24900 8.41300 26.25600
H  4.33300 9.28100 24.77200
H  9.31400 4.62000 22.65600
H  10.13000 1.86800 23.08800
H  7.40200 3.64700 21.92100
H  7.06800 2.99800 23.45500
H  8.05600 2.02100 22.33000
H  12.32400 2.99900 24.02600
H  11.71200 4.52300 23.63300
H  12.98000 2.56500 21.96900
H  12.46900 4.10000 21.42200
H  11.35000 2.71200 21.31100
H  12.48200 -1.42900 28.09400
H  13.52600 -0.30700 27.32200
H  12.09300 -0.78200 26.40300
H  12.32900 2.38200 31.87400
H  10.22100 -0.54100 34.66400
H  10.06800 1.14800 35.39000
H  11.38700 0.16400 35.77400

