158

Mg 26.02900 0.89100 28.80800
C  27.77100 0.85600 31.85400
C  23.03900 1.11300 30.68000
C  24.32200 0.80900 25.90100
C  28.96300 0.00100 27.19900
N  25.50400 1.15600 31.03900
C  26.38700 1.09500 32.06400
C  25.61000 1.19000 33.40900
C  24.09000 1.26600 33.02900
C  24.21500 1.27700 31.48600
C  23.27600 0.02400 33.61000
C  26.06200 2.55000 34.25100
C  26.86500 2.25700 35.55800
H  26.72900 3.21300 36.73400
N  24.02200 0.99000 28.33800
C  22.96900 1.08000 29.25300
C  21.75300 0.98000 28.54100
C  22.05000 0.94800 27.18800
C  23.51600 0.89700 27.07300
C  20.40900 1.00300 29.25400
C  21.01300 0.72900 26.06100
O  21.36900 0.67900 24.92000
C  19.54300 0.61600 26.28900
N  26.61700 0.50700 26.84900
C  25.73200 0.74000 25.82000
C  26.51800 0.77500 24.50100
C  28.01600 0.69800 24.96800
C  27.85500 0.35900 26.43200
C  26.11200 -0.42700 23.62600
C  28.75300 2.06300 24.68800
C  30.21400 1.86200 24.33600
N  28.00800 0.46000 29.33700
C  29.03700 -0.00700 28.60900
C  30.20100 -0.20400 29.45100
C  29.73500 0.02400 30.73000
C  28.36800 0.50900 30.60300
C  31.58900 -0.72100 28.94700
C  30.14700 0.17200 32.11100
O  31.23600 -0.08800 32.57600
C  28.93300 0.63400 32.90000
C  28.58300 -0.22900 34.06900
O  27.84100 -1.20000 34.06300
O  29.34400 0.07900 35.15900
C  29.11800 -0.83200 36.29900
H  22.12800 1.08700 31.28200
H  23.77800 0.91100 24.96000
H  29.90000 -0.25500 26.70100
H  25.78300 0.29000 33.99900
H  23.74900 2.23300 33.39900
H  23.83200 -0.59900 34.31100
H  22.90700 -0.65300 32.83900
H  22.43300 0.41600 34.17800
H  25.26400 3.26000 34.46700
H  26.66300 2.96100 33.43900
H  27.93600 2.38100 35.39900
H  26.69300 1.23800 35.90300
H  19.84200 1.84600 28.85800
H  20.36700 1.12600 30.33600
H  19.86700 0.07600 29.06600
H  19.26200 -0.28300 26.83800
H  19.11100 0.33300 25.32900
H  19.19400 1.61800 26.53900
H  26.34600 1.73300 24.01200
H  28.56000 -0.11900 24.49400
H  25.56900 -0.01500 22.77500
H  25.57000 -1.25600 24.08000
H  26.99200 -0.96000 23.26700
H  28.64400 2.75100 25.52600
H  28.35400 2.56700 23.80700
H  30.83300 2.29900 25.12000
H  30.42100 2.28800 23.35400
H  30.42100 0.80100 24.19600
H  32.16900 0.12600 28.58300
H  31.42600 -1.36300 28.08100
H  32.06800 -1.29000 29.74400
H  29.34900 1.56700 33.28000
H  28.22100 -0.67000 36.89700
H  29.87800 -0.68900 37.06700
H  29.19400 -1.87700 35.99800
Mg 42.16500 41.13300 26.09600
C  41.18100 43.59300 28.56100
C  43.05300 39.01300 28.77000
C  43.34600 38.86900 23.93500
C  41.83000 43.45000 23.78600
N  42.20400 41.30200 28.37600
C  41.61800 42.34600 29.14500
C  41.54400 41.97600 30.62700
C  42.43300 40.62500 30.67200
C  42.62500 40.28200 29.21100
C  43.77300 40.64200 31.37500
C  40.06700 41.83800 31.33600
C  40.00800 41.23300 32.75400
H  39.50100 42.07700 33.93600
N  43.03600 39.17600 26.36900
C  43.31200 38.46600 27.50600
C  43.85900 37.16800 27.19400
C  43.95400 37.11000 25.77600
C  43.45700 38.39100 25.30900
C  44.07200 36.06800 28.25200
C  44.44100 36.03800 24.87600
O  44.59800 36.17300 23.64400
C  44.75500 34.60200 25.48000
N  42.65400 41.15600 24.19000
C  42.94300 40.09500 23.46500
C  42.98900 40.50000 21.97100
C  42.45000 41.95900 21.90100
C  42.31600 42.22600 23.41700
C  44.33400 40.34600 21.21900
C  41.08600 42.07200 21.22100
C  39.88700 41.22700 21.76000
N  41.67800 43.06400 26.06100
C  41.61300 43.93900 25.02200
C  41.15400 45.26700 25.42600
C  40.91400 45.11100 26.78700
C  41.24900 43.78700 27.16300
C  40.98000 46.46400 24.51700
C  40.46300 45.79900 27.98600
O  40.02400 46.89100 28.12800
C  40.63500 44.78200 29.19700
C  41.49000 45.33200 30.30400
O  42.55700 45.78400 30.13600
O  40.85400 45.16400 31.49600
C  41.63500 45.51600 32.69800
H  43.25600 38.33800 29.60400
H  43.69900 38.27600 23.08900
H  41.64100 44.22300 23.03800
H  42.03200 42.81600 31.12200
H  41.83000 39.87700 31.18800
H  43.79100 39.92700 32.19700
H  43.97300 41.58300 31.88700
H  44.61800 40.49900 30.70100
H  39.40400 41.36600 30.61100
H  39.50700 42.74500 31.56000
H  41.04800 40.93400 32.88600
H  39.36700 40.35500 32.67900
H  43.95500 36.35400 29.29700
H  45.09700 35.75300 28.05700
H  43.36500 35.27900 27.99800
H  45.45400 34.76900 26.29900
H  45.19400 33.98600 24.69500
H  43.86900 34.13500 25.91000
H  42.30600 39.76200 21.54800
H  43.17900 42.67800 21.52900
H  45.04100 40.09000 22.00800
H  44.64800 41.27100 20.73500
H  44.18200 39.44700 20.62100
H  41.25500 41.76900 20.18700
H  40.84900 43.13600 21.20000
H  39.72000 40.43600 21.02900
H  39.01600 41.87600 21.85800
H  40.06500 40.91000 22.78800
H  40.95500 46.16900 23.46800
H  41.82000 47.11100 24.76800
H  40.02800 46.96200 24.70200
H  39.65500 44.50900 29.59000
H  41.26700 44.95800 33.56000
H  41.61300 46.58100 32.92800
H  42.65600 45.13800 32.65400

