158

Mg 47.62800 34.84100 28.33100
C  46.15000 33.02500 30.85900
C  47.70500 37.64900 30.60700
C  48.54600 36.87800 25.79000
C  46.80100 32.37400 26.01300
N  46.86100 35.30200 30.51000
C  46.51600 34.31600 31.36400
C  46.40500 34.87200 32.77100
C  46.61800 36.38700 32.62400
C  47.14200 36.49200 31.16800
C  45.28200 37.19800 32.79100
C  47.51000 34.25100 33.72800
C  47.11300 34.05900 35.25400
H  48.00400 34.83800 36.18100
N  48.17200 36.86100 28.28400
C  48.21600 37.82900 29.32600
C  48.76000 39.07700 28.79700
C  49.07800 38.77800 27.41400
C  48.56000 37.41200 27.10300
C  48.85500 40.33600 29.67700
C  49.67300 39.71300 26.36300
O  49.97700 39.39800 25.25300
C  50.06000 41.19800 26.73800
N  47.69100 34.64700 26.17800
C  48.10900 35.62300 25.37300
C  48.10200 35.18000 23.86900
C  47.54600 33.71500 23.94300
C  47.41200 33.49100 25.51400
C  47.12600 36.12800 23.00400
C  48.39800 32.59100 23.18700
C  49.64300 32.04500 23.91000
N  46.85600 32.98200 28.43200
C  46.49800 32.14800 27.39600
C  45.77100 30.97500 27.94500
C  45.70900 31.28400 29.35300
C  46.28500 32.55600 29.51600
C  45.24400 29.77300 27.19800
C  45.12800 30.79400 30.54700
O  44.60500 29.71000 30.81200
C  45.23300 32.04100 31.56300
C  45.77500 31.62800 32.87200
O  46.82700 31.03500 33.05300
O  44.68700 31.77100 33.76400
C  44.97800 31.25600 35.16300
H  47.82400 38.46100 31.32700
H  48.86000 37.44600 24.91200
H  46.42800 31.62100 25.31600
H  45.38500 34.66900 33.09600
H  47.23100 36.64700 33.48600
H  45.01300 37.34000 33.83800
H  44.43400 36.66100 32.36600
H  45.42300 38.20500 32.39800
H  48.40600 34.87100 33.70600
H  47.85700 33.34200 33.23700
H  47.12900 32.99200 35.47700
H  46.09100 34.27100 35.56900
H  49.59200 40.33100 30.47900
H  47.89500 40.44200 30.18100
H  49.09900 41.30000 29.23000
H  50.56000 41.69600 25.90700
H  50.90200 41.08300 27.42000
H  49.25300 41.77700 27.18700
H  49.10800 35.33300 23.47900
H  46.58700 33.61500 23.43500
H  47.10900 37.00200 23.65600
H  46.14900 35.67100 22.84600
H  47.70800 36.23400 22.08900
H  48.72900 33.00200 22.23300
H  47.76200 31.71000 23.09700
H  49.58000 31.08400 24.42000
H  49.81800 32.76600 24.70800
H  50.53800 31.98700 23.29000
H  44.80700 30.06200 26.24200
H  44.46500 29.42200 27.87600
H  45.97700 28.97100 27.10700
H  44.20000 32.37700 31.65500
H  44.70600 30.21100 35.31400
H  44.56400 31.98200 35.86300
H  46.03600 31.24000 35.42700
Mg 26.11800 50.56300 26.04600
C  23.95800 51.66800 28.50000
C  28.42900 49.94100 28.57100
C  28.37300 49.84300 23.66800
C  23.91700 51.76900 23.60900
N  26.20900 50.89800 28.28000
C  25.13500 51.23900 29.04500
C  25.43300 51.19700 30.59000
C  26.99900 50.87600 30.57100
C  27.24100 50.54300 29.04800
C  27.93600 51.96900 31.19300
C  24.58800 50.20100 31.35100
C  24.10500 50.63400 32.77800
H  24.23300 49.44500 33.78700
N  28.10300 49.85100 26.10500
C  28.87000 49.65600 27.25200
C  30.15100 49.03300 26.80300
C  30.14400 48.98200 25.39800
C  28.85600 49.56200 24.94200
C  31.30300 48.73100 27.73100
C  31.20600 48.65000 24.41400
O  31.05600 48.82800 23.21200
C  32.42900 47.97800 24.88000
N  26.06100 50.74900 23.97600
C  27.17100 50.35900 23.16000
C  26.76600 50.35900 21.66500
C  25.35200 51.00700 21.70800
C  25.04700 51.14200 23.20900
C  27.71100 51.16700 20.83800
C  24.31700 50.11000 20.84600
C  23.86500 48.84200 21.49600
N  24.29100 51.55100 26.03800
C  23.45800 51.90700 24.98100
C  22.26600 52.44500 25.42900
C  22.42800 52.42800 26.84400
C  23.64400 51.82200 27.12100
C  21.25500 53.04200 24.51700
C  21.69800 52.73400 28.13400
O  20.59000 53.23600 28.37700
C  22.71800 52.12700 29.22500
C  23.07900 53.29200 30.11500
O  23.84200 54.18800 29.83100
O  22.38300 53.22300 31.28300
C  22.46500 54.26500 32.33200
H  29.20900 49.69300 29.29400
H  28.95700 49.55400 22.79200
H  23.16700 52.05900 22.87100
H  25.43200 52.19700 31.02300
H  27.13500 49.98000 31.17600
H  27.69600 52.99300 30.90800
H  28.96000 51.74600 30.89300
H  27.75600 51.80500 32.25500
H  25.16500 49.28700 31.49200
H  23.81500 49.85200 30.66700
H  23.02900 50.79800 32.72000
H  24.65600 51.51000 33.12000
H  31.66600 47.70400 27.69100
H  30.99800 48.72900 28.77800
H  32.13900 49.43100 27.73700
H  33.12900 47.73200 24.08200
H  32.40300 47.13800 25.57500
H  32.90900 48.82900 25.36300
H  26.69900 49.30600 21.39000
H  25.41100 52.02600 21.32600
H  28.51300 51.64500 21.40000
H  27.24200 51.91600 20.20000
H  28.32100 50.46800 20.26600
H  24.80700 49.87400 19.90200
H  23.39300 50.62100 20.57500
H  24.39000 48.03000 20.99400
H  22.78300 48.75200 21.39700
H  24.04000 48.79300 22.57100
H  20.92600 53.90500 25.09600
H  20.53500 52.23200 24.40500
H  21.68600 53.30700 23.55100
H  22.40000 51.36500 29.93700
H  21.42500 54.48000 32.57900
H  22.84000 55.23800 32.01200
H  22.88700 54.01100 33.30400

