158

Mg 46.48600 25.20000 28.31500
C  46.92200 27.35800 31.08100
C  45.46700 22.88000 30.65100
C  47.15400 22.87300 26.11500
C  48.01300 27.56900 26.25300
N  46.38000 25.09600 30.67300
C  46.47800 26.12800 31.52500
C  46.15000 25.71300 33.02400
C  46.00600 24.21200 32.80700
C  45.82600 24.06100 31.24700
C  47.02300 23.23900 33.41600
C  44.97500 26.54000 33.65400
C  45.16300 27.05000 35.04000
H  44.09300 27.00800 36.12800
N  46.13600 23.22600 28.23700
C  45.66000 22.46600 29.26900
C  45.34600 21.15300 28.69300
C  45.92900 21.07600 27.39500
C  46.37600 22.40800 27.17400
C  44.71300 20.04900 29.51600
C  46.08800 19.89400 26.35400
O  46.59300 20.01000 25.30100
C  45.63500 18.54200 26.76800
N  47.63200 25.19600 26.53100
C  47.85300 24.04200 25.84700
C  48.66700 24.23600 24.49200
C  48.63100 25.77400 24.47000
C  48.00200 26.25700 25.81000
C  50.11400 23.47200 24.48100
C  48.14400 26.49900 23.19100
C  46.64100 26.81100 23.24700
N  47.29000 27.12300 28.57200
C  47.82300 28.02500 27.60200
C  48.11000 29.25100 28.30500
C  47.80400 28.99000 29.64400
C  47.27400 27.67500 29.75700
C  48.76300 30.40000 27.63800
C  47.82800 29.61900 30.92100
O  48.16400 30.73800 31.34800
C  47.34800 28.52200 31.92600
C  48.47800 28.22400 32.87000
O  49.43400 27.50300 32.50200
O  48.38700 28.81400 34.07000
C  49.39000 28.31000 35.04300
H  45.15100 22.12300 31.37100
H  47.30400 22.09900 25.36000
H  48.38600 28.36900 25.61000
H  47.09600 25.92300 33.52200
H  45.03000 23.93800 33.20700
H  47.87200 23.65700 33.95600
H  47.40600 22.58000 32.63600
H  46.52500 22.53100 34.07800
H  44.11900 25.86700 33.61000
H  44.67300 27.39600 33.04900
H  45.26400 28.11900 34.85500
H  46.05500 26.60200 35.47900
H  45.39400 19.19900 29.47900
H  43.76100 19.70100 29.11300
H  44.51500 20.40700 30.52600
H  45.79900 17.88400 25.91400
H  44.57200 18.55400 27.00600
H  46.22700 18.04300 27.53500
H  48.02600 23.86300 23.69400
H  49.69700 25.99700 24.51700
H  49.96100 22.61100 23.83000
H  50.48100 23.20500 25.47200
H  50.87500 24.15300 24.09900
H  48.37300 25.89100 22.31500
H  48.72500 27.41200 23.06300
H  46.10400 26.10500 23.88000
H  46.22200 26.76300 22.24200
H  46.38000 27.81800 23.57300
H  49.73300 30.17300 27.19700
H  49.10700 31.11600 28.38500
H  48.11100 30.90900 26.92700
H  46.45400 28.85200 32.45500
H  48.96400 27.74900 35.87400
H  50.01300 29.12900 35.40200
H  50.13500 27.68900 34.54500
Mg 41.25600 41.84200 27.03500
C  40.45000 44.10700 29.47800
C  42.30800 39.60400 29.32700
C  42.66000 39.90100 24.52900
C  40.85700 44.42900 24.63100
N  41.22700 41.83500 29.15200
C  40.73200 42.83500 29.98600
C  40.92700 42.45900 31.44500
C  41.57000 41.03700 31.37000
C  41.77300 40.83400 29.86000
C  42.85000 40.84600 32.28300
C  39.54900 42.44300 32.21600
C  39.51200 41.51700 33.43800
H  38.91900 41.96900 34.71800
N  42.04600 39.88200 26.94500
C  42.38800 39.11500 28.01200
C  42.75600 37.79800 27.55000
C  42.85300 37.89500 26.16000
C  42.53600 39.29100 25.78400
C  43.12900 36.72000 28.63900
C  43.41600 36.86000 25.17100
O  43.66400 37.16000 24.02600
C  43.69700 35.41000 25.67700
N  41.69800 42.14400 24.98200
C  42.20300 41.17900 24.06900
C  42.18000 41.65100 22.62500
C  41.24900 42.94300 22.75900
C  41.32500 43.24400 24.22100
C  43.63100 42.17500 22.25600
C  39.72900 42.76400 22.31600
C  38.81700 41.55600 22.76300
N  40.87100 43.94800 27.03000
C  40.70700 44.83900 25.96500
C  40.41400 46.13300 26.49700
C  40.37200 45.93400 27.91100
C  40.58700 44.53600 28.14000
C  40.33800 47.34900 25.71900
C  40.14800 46.56500 29.18300
O  39.99000 47.74900 29.44400
C  40.20300 45.40100 30.23400
C  41.19200 45.66200 31.34600
O  42.31100 45.99500 31.13600
O  40.54900 45.56100 32.53800
C  41.25500 45.80600 33.77100
H  42.74900 38.99300 30.11800
H  42.89100 39.26800 23.67100
H  40.45400 45.10300 23.87200
H  41.64600 43.16300 31.86300
H  40.81400 40.27100 31.54200
H  43.69200 40.63800 31.62300
H  42.80900 39.88700 32.79900
H  43.02400 41.57200 33.07700
H  38.66900 42.25900 31.60000
H  39.44800 43.42300 32.68400
H  40.47400 41.05100 33.65300
H  38.85200 40.72500 33.08400
H  43.35900 35.68400 28.39100
H  42.29600 36.60900 29.33200
H  43.92500 37.17300 29.23000
H  42.72400 34.98700 25.92900
H  44.23100 35.37900 26.62700
H  44.16200 34.81400 24.89100
H  41.73500 40.94500 21.92400
H  41.72500 43.79200 22.26900
H  43.79500 42.03700 21.18700
H  44.42200 41.63300 22.77500
H  43.77200 43.24400 22.41700
H  39.62100 42.79600 21.23100
H  39.33900 43.73100 22.63600
H  39.32800 40.77700 23.32800
H  38.48300 41.08600 21.83800
H  37.84100 41.83300 23.16300
H  39.92600 48.20100 26.26100
H  39.56400 47.03200 25.01900
H  41.20000 47.58800 25.09600
H  39.25000 45.54100 30.74400
H  41.57600 46.84100 33.65100
H  42.06900 45.12800 34.02700
H  40.62200 45.85300 34.65700

