158

Mg 35.91200 2.50900 30.52600
C  33.72200 3.60100 32.90200
C  38.40000 2.47400 32.96700
C  38.19300 1.65200 28.05100
C  33.49700 2.78100 28.05000
N  36.03500 3.08600 32.67800
C  34.99500 3.35000 33.44400
C  35.37100 3.42800 34.95800
C  36.86600 3.21400 34.92700
C  37.13400 2.89200 33.45500
C  37.72200 4.32400 35.50100
C  34.60400 2.30500 35.69100
C  34.07700 2.79700 37.08900
H  34.97400 3.65500 38.00700
N  37.94500 2.17900 30.50400
C  38.77400 2.18200 31.61400
C  40.10500 1.72000 31.12600
C  40.03500 1.29700 29.79500
C  38.68600 1.69100 29.39000
C  41.34800 1.48200 32.06700
C  41.13000 0.61300 28.82100
O  40.90600 0.07300 27.75700
C  42.50600 0.49700 29.30700
N  35.82500 2.14800 28.40200
C  36.86100 1.91500 27.60100
C  36.63300 1.83000 26.09600
C  35.01000 2.09200 26.11900
C  34.72400 2.28300 27.65800
C  37.40100 2.97900 25.41700
C  34.20300 0.86300 25.59800
C  33.00600 1.25700 24.64900
N  34.00600 3.00300 30.43300
C  33.13100 3.14600 29.38500
C  31.85600 3.64700 29.87700
C  32.05100 3.85000 31.23000
C  33.34400 3.47200 31.50700
C  30.74100 4.13700 28.98600
C  31.40100 4.24200 32.45200
O  30.21600 4.59900 32.59600
C  32.47400 4.16900 33.57600
C  32.64500 5.60900 34.07000
O  33.27800 6.51400 33.51600
O  32.01500 5.77500 35.27700
C  32.17700 7.11900 35.90400
H  39.09000 2.35500 33.80600
H  38.85800 1.24000 27.28900
H  32.76000 2.93700 27.25900
H  35.09100 4.42000 35.31300
H  37.13400 2.25700 35.37500
H  38.26900 3.82700 36.30300
H  37.16800 5.13800 35.96800
H  38.50000 4.58300 34.78400
H  35.20200 1.40000 35.80000
H  33.69900 2.04400 35.14200
H  33.67000 1.98300 37.68800
H  33.22900 3.45800 36.90900
H  41.47700 0.40300 32.15100
H  41.10800 1.69800 33.10800
H  42.08600 2.18400 31.68100
H  43.11500 0.25200 28.43700
H  42.41000 -0.26700 30.07800
H  42.85500 1.40400 29.80000
H  36.87200 0.84600 25.69200
H  34.81200 2.99100 25.53500
H  37.29700 2.85100 24.33900
H  38.43500 2.92400 25.75700
H  36.92700 3.93900 25.62000
H  33.88700 0.28300 26.46500
H  34.91600 0.28500 25.01100
H  33.25900 0.92100 23.64400
H  33.07000 2.34200 24.56900
H  32.03800 0.95500 25.04800
H  30.74900 3.51700 28.08900
H  31.00100 5.17000 28.75700
H  29.72300 4.01100 29.35300
H  31.97300 3.54400 34.31500
H  32.80200 7.02500 36.79200
H  31.22000 7.54100 36.21400
H  32.66700 7.91000 35.33600
Mg 9.35500 48.13200 25.88000
C  7.26000 48.73300 28.60100
C  12.02200 49.11200 27.85600
C  11.31800 47.58700 23.30300
C  6.53400 47.82900 23.90000
N  9.58900 48.98700 27.98500
C  8.61000 48.95600 28.91700
C  9.16700 49.29100 30.34600
C  10.63700 49.66900 29.95100
C  10.76400 49.16800 28.50800
C  11.16400 51.10000 30.14300
C  9.15900 48.17000 31.53600
C  9.78900 48.53800 32.89400
H  9.14800 48.00700 34.22300
N  11.45100 48.35200 25.58900
C  12.37000 48.74700 26.54400
C  13.72000 48.59100 25.97700
C  13.46800 48.06600 24.60800
C  12.05000 48.07300 24.43300
C  15.00400 48.77200 26.77000
C  14.45700 47.58500 23.58600
O  14.16800 47.19600 22.44000
C  15.92200 47.46300 24.01000
N  8.96400 47.75100 23.80600
C  10.00300 47.52500 22.95600
C  9.41500 46.96900 21.60500
C  7.86300 47.05100 21.81700
C  7.73900 47.47800 23.24200
C  9.98200 47.75200 20.40300
C  7.02300 45.74400 21.52200
C  5.80700 45.97500 20.55500
N  7.35100 48.19400 26.15900
C  6.31800 48.04000 25.25900
C  5.01700 48.12300 25.89700
C  5.38700 48.42100 27.26000
C  6.77500 48.42900 27.33900
C  3.57800 47.98900 25.31700
C  4.82100 48.72700 28.55700
O  3.64800 48.82200 28.82700
C  6.04000 48.90100 29.49000
C  5.81400 47.79700 30.47200
O  5.62400 46.63000 30.23100
O  5.68000 48.30700 31.74500
C  5.19300 47.43200 32.76500
H  12.78900 49.27400 28.61600
H  12.01000 47.46400 22.46700
H  5.67600 47.69800 23.23700
H  8.70600 50.21300 30.70200
H  11.31900 49.06200 30.54600
H  10.42300 51.58900 30.77500
H  11.32500 51.67200 29.22900
H  12.09000 51.13700 30.71700
H  9.68600 47.32100 31.10100
H  8.12000 47.91600 31.74800
H  9.81100 49.62300 32.99500
H  10.82800 48.21800 32.97200
H  15.61900 49.53300 26.29000
H  15.52900 47.81900 26.70900
H  14.95200 49.14800 27.79200
H  16.55600 47.19100 23.16500
H  15.93300 46.75300 24.83600
H  16.14100 48.51200 24.21200
H  9.63400 45.90200 21.55600
H  7.53300 47.85400 21.15700
H  10.55500 48.64900 20.63600
H  9.16500 47.98500 19.72000
H  10.77700 47.12100 20.00600
H  6.79600 45.14600 22.40500
H  7.71700 45.17000 20.90800
H  5.59000 46.96100 20.14400
H  4.93900 45.54900 21.05800
H  6.05100 45.40800 19.65700
H  3.52300 47.50500 24.34200
H  3.04800 48.93600 25.21600
H  3.09600 47.30800 26.01800
H  5.98200 49.89900 29.92400
H  4.12500 47.30600 32.58900
H  5.39600 47.94300 33.70700
H  5.71500 46.47800 32.69800

