158

Mg 24.97900 0.90300 29.66700
C  27.17400 0.54700 32.35000
C  22.38200 1.13400 31.87400
C  22.91800 1.08300 26.89100
C  27.68700 0.31400 27.48600
N  24.89300 0.88300 31.84000
C  25.86100 0.82600 32.76800
C  25.34700 1.09200 34.21600
C  23.78300 0.83900 34.01700
C  23.62800 0.96700 32.45800
C  23.22400 -0.47300 34.65100
C  25.73500 2.47900 34.80700
C  25.05900 2.73800 36.16800
H  25.92300 2.83300 37.47500
N  23.00700 1.04800 29.47000
C  22.07000 1.13500 30.48700
C  20.77700 1.19800 29.86200
C  20.93300 1.13900 28.44200
C  22.34800 1.11900 28.20200
C  19.53700 1.13000 30.74800
C  19.78700 0.97900 27.36600
O  19.99300 0.88000 26.13900
C  18.38300 1.14000 27.80400
N  25.26400 1.00100 27.53600
C  24.26100 1.11900 26.54800
C  24.90600 1.19700 25.13000
C  26.35800 0.77700 25.41200
C  26.48900 0.67400 26.90100
C  24.13800 0.20000 24.13600
C  27.38800 1.79900 24.82500
C  28.31300 1.27000 23.75000
N  26.93900 0.40900 29.83100
C  27.93600 0.20800 28.88000
C  29.21600 -0.13500 29.54700
C  28.96100 0.02300 30.94900
C  27.55000 0.42300 31.00800
C  30.53100 -0.41400 28.81500
C  29.52500 0.00800 32.30000
O  30.67000 -0.17100 32.67800
C  28.40400 0.42200 33.22300
C  28.41000 -0.55300 34.44400
O  27.78800 -1.61800 34.46400
O  29.26600 -0.05100 35.38100
C  29.49200 -0.99500 36.44700
H  21.55200 1.16300 32.58300
H  22.23600 1.28700 26.06300
H  28.39300 0.03900 26.70000
H  25.76100 0.23400 34.74500
H  23.16000 1.67200 34.34100
H  23.27000 -1.24900 33.88700
H  22.16900 -0.32300 34.87800
H  23.82800 -0.74500 35.51700
H  25.68600 3.31000 34.10300
H  26.79300 2.38500 35.05000
H  24.44200 1.85700 36.34500
H  24.47100 3.63300 35.96600
H  19.79800 0.33000 31.44000
H  18.60700 0.71100 30.36200
H  19.32900 2.00500 31.36400
H  18.10600 0.16800 28.21300
H  17.78900 1.31800 26.90800
H  18.24500 1.97700 28.48700
H  24.89600 2.26100 24.89400
H  26.62700 -0.21100 25.03800
H  24.83000 -0.26000 23.43100
H  23.46200 0.78000 23.50700
H  23.58500 -0.61100 24.61000
H  28.00000 2.11400 25.67000
H  27.05800 2.76200 24.43600
H  29.29400 1.26400 24.22600
H  28.30800 1.92400 22.87800
H  28.07600 0.25400 23.43400
H  31.14600 0.43900 29.10200
H  30.34100 -0.41300 27.74100
H  30.94100 -1.32300 29.25400
H  28.66600 1.36400 33.70300
H  29.21000 -2.02600 36.23300
H  28.90700 -0.74600 37.33200
H  30.53500 -0.80800 36.70600
Mg 7.24100 53.39800 41.70400
C  6.55900 49.93800 40.86800
C  10.44000 52.88500 40.27200
C  7.73000 56.61000 41.71000
C  3.86100 53.69500 42.63500
N  8.27300 51.63500 40.45000
C  7.82300 50.34200 40.38500
C  8.88600 49.53600 39.69400
C  10.18800 50.32000 39.90300
C  9.61600 51.71300 40.16200
C  11.11900 49.89000 41.08700
C  8.46000 49.46800 38.14100
C  8.76100 48.13100 37.35800
H  7.78200 47.78200 36.27300
N  8.90800 54.59800 41.15400
C  10.09400 54.20800 40.67700
C  10.98400 55.31700 40.61500
C  10.25700 56.38300 41.18100
C  8.93200 55.88100 41.41000
C  12.38100 55.25000 40.08200
C  10.67700 57.86700 41.43400
O  11.76200 58.23500 40.92000
C  9.93500 58.67700 42.32400
N  5.97300 54.88500 42.02600
C  6.39400 56.20000 41.91500
C  5.24900 57.17300 42.20200
C  4.14100 56.23300 42.78000
C  4.63000 54.83300 42.38300
C  5.52700 58.48700 43.06000
C  2.69800 56.54300 42.38300
C  2.11000 56.14500 41.06900
N  5.59600 52.08800 41.88400
C  4.26600 52.36400 42.27100
C  3.53500 51.07500 42.36900
C  4.46200 50.14500 41.84800
C  5.60400 50.75300 41.54000
C  2.11600 50.78900 42.82600
C  4.60000 48.77400 41.36300
O  3.79600 47.83200 41.39400
C  6.02100 48.54000 40.91700
C  5.99200 47.75600 39.64200
O  5.59100 48.08800 38.54100
O  6.28800 46.46500 40.01000
C  6.18700 45.38100 39.05500
H  11.49300 52.66000 40.08900
H  7.84700 57.69300 41.78500
H  2.84900 53.86100 43.01100
H  8.90300 48.49500 40.01600
H  10.74300 50.39600 38.96900
H  10.97800 50.63700 41.86700
H  12.17300 49.80800 40.82100
H  10.79200 48.94000 41.50900
H  8.92700 50.26600 37.56300
H  7.39200 49.68100 38.17700
H  8.86600 47.41400 38.17200
H  9.66800 48.29400 36.77600
H  12.96600 55.42300 40.98500
H  12.65600 55.98700 39.32700
H  12.71500 54.24100 39.84000
H  9.49100 58.12800 43.15500
H  9.15400 59.21700 41.78800
H  10.56700 59.43700 42.78200
H  4.90700 57.46800 41.21000
H  4.08300 56.21900 43.86800
H  5.30100 59.41800 42.54100
H  6.56300 58.52100 43.39600
H  4.85500 58.51300 43.91900
H  2.80400 57.62500 42.45600
H  2.02400 56.28800 43.20200
H  2.06400 56.90600 40.29000
H  1.07700 55.80300 41.14100
H  2.57500 55.28400 40.59000
H  2.04900 50.81700 43.91400
H  1.88000 49.77600 42.49800
H  1.40900 51.52300 42.43900
H  6.42700 47.89200 41.69400
H  5.61700 44.56800 39.50300
H  7.09800 45.09400 38.52900
H  5.59000 45.53000 38.15500

