158

Mg 25.05400 1.96600 30.72900
C  27.29400 1.70100 33.33800
C  22.36900 2.19600 32.92200
C  22.92000 1.93000 28.02700
C  27.67700 1.24000 28.48900
N  24.90900 1.79700 32.93400
C  26.00100 1.98000 33.73700
C  25.58200 2.53000 35.19300
C  23.95400 2.53000 35.03800
C  23.70500 2.09300 33.54100
C  23.16200 1.64500 36.07100
C  26.23000 3.90100 35.53700
C  27.28600 3.93100 36.75400
H  26.86400 4.79800 37.95000
N  22.97300 2.02500 30.55500
C  22.03100 2.11300 31.55600
C  20.70400 2.15700 30.94500
C  20.85300 1.96900 29.55300
C  22.28000 1.97400 29.35900
C  19.41600 2.10400 31.85000
C  19.75000 1.98800 28.47400
O  19.99900 2.00300 27.22300
C  18.31600 1.97100 28.85600
N  25.31300 1.70400 28.61000
C  24.25400 1.74900 27.73600
C  24.67400 1.64000 26.31300
C  26.21600 1.31400 26.41300
C  26.44500 1.41700 27.90800
C  23.91200 0.55900 25.48000
C  27.08200 2.24400 25.45500
C  27.20600 3.71100 25.89600
N  27.09600 1.50800 30.85000
C  27.99700 1.25400 29.85300
C  29.30200 1.03700 30.48700
C  29.07300 1.20700 31.86100
C  27.71200 1.44000 32.06200
C  30.53900 0.71500 29.84800
C  29.68200 1.18500 33.17300
O  30.83600 0.82900 33.50300
C  28.60900 1.68700 34.19500
C  28.57300 0.80800 35.32300
O  27.83400 -0.14500 35.54000
O  29.38900 1.29000 36.26700
C  29.29800 0.72800 37.56100
H  21.53900 2.40000 33.60100
H  22.19400 2.13700 27.23800
H  28.51500 0.99800 27.83200
H  25.92000 1.83400 35.96100
H  23.50900 3.52400 35.08500
H  22.69500 0.80800 35.55200
H  22.39000 2.36000 36.35500
H  23.85000 1.35900 36.86600
H  25.40500 4.56700 35.79200
H  26.78000 4.23500 34.65800
H  28.27300 4.30200 36.47700
H  27.18300 2.93000 37.17400
H  18.86700 1.16300 31.90400
H  18.74000 2.84800 31.42800
H  19.63000 2.45400 32.86000
H  18.11600 1.00300 29.31500
H  17.78100 2.05500 27.91000
H  18.07000 2.81400 29.50200
H  24.63800 2.64100 25.88300
H  26.44600 0.28200 26.14700
H  23.32000 0.04400 26.23700
H  24.59400 -0.13200 24.98500
H  23.27800 1.07900 24.76300
H  26.77400 2.18900 24.41100
H  28.10400 1.86700 25.49900
H  28.23700 3.98000 26.12500
H  26.48200 3.96300 26.67000
H  26.78100 4.31800 25.09700
H  30.24600 -0.18400 29.30600
H  31.30500 0.53900 30.60300
H  30.73400 1.45700 29.07300
H  28.96100 2.65500 34.55200
H  28.27300 0.92700 37.87200
H  30.12600 1.14500 38.13400
H  29.44300 -0.34700 37.44700
Mg 40.01200 9.71700 30.22200
C  41.69100 11.16000 33.04300
C  37.62600 8.50500 32.27900
C  38.47900 8.50300 27.53700
C  42.75900 10.63600 28.28400
N  39.73800 9.85300 32.44400
C  40.36000 10.61900 33.34000
C  39.89500 10.40100 34.81000
C  38.72200 9.36300 34.53300
C  38.65300 9.15600 33.02500
C  38.77600 8.03000 35.35200
C  39.53000 11.75300 35.63400
C  40.51100 12.19100 36.68800
H  40.02500 12.58500 38.07500
N  38.26900 8.68400 29.93100
C  37.43400 8.25600 30.93700
C  36.26300 7.63800 30.36700
C  36.48500 7.60000 28.98300
C  37.79300 8.22200 28.72700
C  35.20100 7.00200 31.26600
C  35.65500 7.07300 27.86700
O  36.03700 7.20300 26.67600
C  34.34700 6.33500 28.11200
N  40.57200 9.50700 28.21200
C  39.66400 9.09900 27.29500
C  40.10200 9.39000 25.89500
C  41.55400 10.01200 26.12200
C  41.68800 10.05500 27.64800
C  40.11100 8.07700 25.02500
C  41.90900 11.41800 25.47400
C  41.25300 12.69200 26.07900
N  41.88700 10.64200 30.50900
C  42.87900 10.90600 29.66700
C  43.97400 11.54800 30.32600
C  43.53100 11.64600 31.66200
C  42.26800 11.07700 31.71900
C  45.16800 12.30000 29.62000
C  43.93000 12.19200 32.94600
O  44.91000 12.82500 33.27200
C  42.80000 11.70800 33.93400
C  43.39600 10.69300 34.80000
O  43.75800 9.57900 34.47900
O  43.86000 11.47700 35.92000
C  44.96800 10.92200 36.63100
H  36.94600 8.01500 32.97900
H  38.01600 8.22400 26.58800
H  43.52000 10.98800 27.58500
H  40.66400 9.88000 35.38200
H  37.77000 9.80800 34.82400
H  39.75800 7.95500 35.81800
H  38.73300 7.17100 34.68200
H  38.04600 7.77500 36.12000
H  38.52600 11.69800 36.05500
H  39.38000 12.39600 34.76700
H  41.02900 13.04200 36.24600
H  41.24200 11.39500 36.83500
H  35.05100 5.97600 30.93200
H  34.29800 7.60500 31.16200
H  35.42500 6.74200 32.30000
H  34.08200 5.83800 27.17800
H  33.58100 7.05800 28.38900
H  34.71900 5.57400 28.79800
H  39.37800 10.06300 25.43600
H  42.31400 9.34600 25.71400
H  39.91300 7.30200 25.76600
H  41.09300 7.90500 24.58400
H  39.25300 7.95300 24.36500
H  41.52300 11.21100 24.47600
H  42.98400 11.57200 25.38800
H  40.47600 13.13400 25.45500
H  42.04000 13.43500 26.21800
H  40.83400 12.37900 27.03500
H  44.94200 12.88600 28.72900
H  45.95300 11.72500 29.12900
H  45.61400 12.98800 30.33900
H  42.50000 12.66600 34.35600
H  45.54600 10.20200 36.05200
H  44.54300 10.46300 37.52300
H  45.59700 11.70200 37.05900

