158

Mg 40.72800 8.28100 29.34000
C  42.53700 9.85600 32.25100
C  38.88700 6.76700 31.76400
C  39.37500 6.77100 26.94200
C  43.50700 9.38300 27.46800
N  40.83900 8.12800 31.78500
C  41.48500 8.97000 32.75800
C  40.93800 8.81600 34.21700
C  39.88200 7.69400 33.97100
C  39.88800 7.46800 32.42200
C  40.11300 6.47700 34.84700
C  40.31500 10.12600 34.57900
C  40.90000 10.97800 35.78600
H  41.39300 10.29300 37.10800
N  39.25900 7.00100 29.34700
C  38.57400 6.54200 30.39000
C  37.39700 5.89700 29.91500
C  37.46800 5.87100 28.50300
C  38.79500 6.54000 28.21600
C  36.39900 5.18100 30.82600
C  36.39300 5.40000 27.47700
O  36.73700 5.21700 26.31600
C  34.96800 5.13300 27.93500
N  41.57700 7.91600 27.52300
C  40.67300 7.29200 26.63500
C  41.22100 7.29200 25.14700
C  42.39600 8.28200 25.26600
C  42.55000 8.53800 26.84900
C  41.68400 5.88800 24.67600
C  42.19000 9.63000 24.47500
C  40.99100 10.46200 24.97000
N  42.63300 9.38300 29.72200
C  43.57500 9.77400 28.82700
C  44.54800 10.59200 29.43800
C  44.12100 10.71700 30.77000
C  42.96900 9.94100 30.90200
C  45.72400 11.26100 28.66300
C  44.59300 11.16900 32.08800
O  45.55200 11.81900 32.54900
C  43.55400 10.66900 33.02800
C  44.27000 9.82000 34.06000
O  44.34500 8.60200 33.97000
O  44.78400 10.59100 35.13500
C  45.41400 9.94300 36.28000
H  38.19000 6.43500 32.53700
H  38.84300 6.36900 26.07700
H  44.19300 9.91600 26.80600
H  41.73000 8.61800 34.93900
H  38.86100 7.97600 34.22600
H  39.19400 6.00700 35.19800
H  40.54800 6.80300 35.79200
H  40.77800 5.74800 34.38400
H  39.27400 9.93600 34.84000
H  40.39000 10.88200 33.79700
H  40.12700 11.65800 36.14200
H  41.71100 11.56600 35.35600
H  36.67200 5.40100 31.85800
H  36.47900 4.10800 30.65500
H  35.37600 5.55200 30.76500
H  34.50300 6.04900 28.29700
H  35.09400 4.43900 28.76600
H  34.42100 4.76300 27.06900
H  40.37200 7.61300 24.54400
H  43.31100 7.83900 24.87300
H  41.25000 5.67900 23.69800
H  41.11600 5.26300 25.36400
H  42.73400 5.62100 24.56100
H  41.83400 9.27400 23.50800
H  43.07800 10.26100 24.42600
H  41.28400 11.40200 25.43900
H  40.49200 10.00600 25.82400
H  40.27200 10.70300 24.18700
H  46.10200 12.16600 29.13900
H  45.26500 11.62300 27.74300
H  46.48800 10.51900 28.43000
H  43.01300 11.45600 33.55400
H  44.83300 9.76900 37.18500
H  46.26500 10.57300 36.53900
H  45.84300 8.97100 36.03700
Mg 25.37400 50.36500 26.73400
C  23.19800 51.49700 29.23100
C  27.66000 49.65400 29.23400
C  27.61600 49.88900 24.27000
C  23.30400 52.00900 24.44300
N  25.36000 50.47600 28.97300
C  24.33100 50.93200 29.80200
C  24.68100 50.73100 31.28800
C  26.15700 50.43300 31.21900
C  26.47200 50.24000 29.72900
C  27.12700 51.48500 31.89900
C  23.74600 49.64200 31.95200
C  23.06500 50.03200 33.24900
H  23.83800 50.95900 34.18700
N  27.31700 49.87800 26.78900
C  28.07600 49.48300 27.90100
C  29.26600 48.81900 27.44700
C  29.30000 48.87700 26.01700
C  28.04700 49.57000 25.61300
C  30.30200 48.14800 28.29700
C  30.30400 48.31700 25.05100
O  30.11900 48.44400 23.80800
C  31.55900 47.64500 25.56900
N  25.54800 50.99400 24.58400
C  26.56800 50.55500 23.78200
C  26.25800 50.94400 22.33300
C  24.83300 51.56800 22.43500
C  24.50300 51.48300 23.89700
C  27.25400 51.99900 21.68700
C  23.78300 50.96400 21.43900
C  23.26800 49.53400 21.70500
N  23.54600 51.33100 26.73700
C  22.80500 51.89700 25.73000
C  21.53900 52.41500 26.22400
C  21.70200 52.28800 27.60300
C  22.95400 51.64200 27.88700
C  20.44900 53.02400 25.36100
C  21.06800 52.58700 28.87100
O  19.94800 53.00800 29.11600
C  22.06800 52.10800 30.00200
C  22.40800 53.25400 30.84100
O  23.42900 53.94100 30.76500
O  21.35000 53.35700 31.74500
C  21.38000 54.49200 32.62900
H  28.39400 49.42200 30.00800
H  28.31100 49.58300 23.48600
H  22.76000 52.58500 23.69100
H  24.59300 51.70200 31.77500
H  26.26500 49.42800 31.62700
H  27.28200 51.10700 32.90900
H  26.65900 52.46600 31.98700
H  28.04600 51.54400 31.31600
H  24.15400 48.63400 32.01700
H  22.96000 49.52300 31.20600
H  22.79800 49.05000 33.64200
H  22.09000 50.42100 32.95700
H  29.99800 48.25300 29.33900
H  31.22200 48.73000 28.25600
H  30.33600 47.06600 28.16900
H  32.22000 47.27200 24.78700
H  31.25200 46.76200 26.12900
H  32.06300 48.38900 26.18600
H  26.38700 50.02700 21.75700
H  24.81900 52.64600 22.27800
H  26.86200 53.00700 21.82400
H  27.42500 51.73500 20.64300
H  28.23300 51.94900 22.16300
H  24.26400 51.12300 20.47400
H  22.90900 51.61100 21.51900
H  23.26000 48.88300 20.83100
H  22.30700 49.55500 22.21800
H  23.94800 49.07700 22.42500
H  20.68100 52.81800 24.31600
H  20.27000 54.08200 25.54900
H  19.52700 52.47900 25.56300
H  21.61300 51.34900 30.63900
H  21.63200 55.26100 31.89800
H  22.03700 54.34800 33.48700
H  20.39000 54.75100 33.00300

