158

Mg 54.91200 23.60300 44.85100
C  53.05900 26.44800 44.39900
C  52.33900 21.68400 43.75500
C  57.13000 21.00500 44.55000
C  57.70500 25.67900 45.96100
N  52.92100 24.03400 44.23400
C  52.37100 25.27500 44.02900
C  50.90800 25.12000 43.54000
C  50.67100 23.60700 43.77000
C  52.01300 23.04600 43.91600
C  49.86000 23.37000 45.10000
C  50.59800 25.55600 42.07000
C  49.12500 25.73600 41.61000
H  48.61000 24.76400 40.54900
N  54.80800 21.59400 44.13300
C  53.61100 21.02000 43.82200
C  53.85300 19.67100 43.53400
C  55.26500 19.39700 43.73200
C  55.84300 20.68200 44.10800
C  52.65800 18.86700 42.98000
C  55.97600 18.06100 43.40400
O  55.35000 17.14500 42.89200
C  57.38300 17.70900 43.67100
N  57.15800 23.41400 45.01600
C  57.74100 22.21800 44.94700
C  59.18800 22.31600 45.50900
C  59.41900 23.83500 45.89500
C  58.01400 24.33300 45.61100
C  59.48900 21.31500 46.64000
C  60.44100 24.59100 44.95000
C  61.86700 24.53100 45.50900
N  55.29300 25.61400 45.26900
C  56.42700 26.27600 45.70900
C  56.14000 27.69600 45.87200
C  54.83000 27.83500 45.37500
C  54.41000 26.52100 44.96900
C  57.08700 28.78100 46.31300
C  53.73900 28.73900 45.04300
O  53.53400 29.93100 45.20500
C  52.61000 27.87600 44.30800
C  52.24700 28.46900 42.97200
O  52.87500 28.42200 41.91600
O  51.03300 29.05600 43.03900
C  50.35000 29.38800 41.78100
H  51.40300 21.14100 43.60800
H  57.86500 20.20000 44.48900
H  58.53500 26.33800 46.22300
H  50.26900 25.73000 44.17800
H  50.08000 23.27200 42.91800
H  49.05000 24.07200 45.29700
H  50.48300 23.21800 45.98100
H  49.36700 22.44400 44.80200
H  50.99400 24.72500 41.48600
H  51.27400 26.32500 41.69400
H  49.01400 26.71500 41.14200
H  48.46300 25.63600 42.47000
H  53.03800 18.07400 42.33500
H  51.91700 19.34800 42.34200
H  52.08800 18.50800 43.83700
H  57.99600 18.45700 43.16800
H  57.57100 16.75500 43.17800
H  57.52500 17.68200 44.75100
H  60.03300 22.16900 44.83500
H  59.73000 23.93200 46.93500
H  59.65600 21.68800 47.65000
H  60.46200 20.86600 46.44200
H  58.68300 20.58300 46.70300
H  60.11100 25.62700 44.88800
H  60.34900 24.29200 43.90600
H  62.45300 24.49400 44.59100
H  62.08100 23.62000 46.06700
H  61.96900 25.40400 46.15200
H  56.78600 29.22000 47.26400
H  57.12000 29.57200 45.56500
H  58.09700 28.42000 46.50900
H  51.72600 27.93000 44.94300
H  50.53200 28.69700 40.95700
H  50.70600 30.38900 41.53700
H  49.26500 29.39400 41.89000
Mg 6.19900 53.55200 39.35000
C  5.91600 50.06800 38.98800
C  9.55700 53.28100 38.57300
C  6.38100 56.98100 39.32100
C  2.76900 53.64900 39.85000
N  7.58000 51.81900 38.66100
C  7.21600 50.52500 38.58100
C  8.46000 49.73200 38.23900
C  9.62800 50.73700 38.41900
C  8.89400 52.03100 38.57600
C  10.47000 50.50500 39.71200
C  8.47500 49.07900 36.79800
C  8.39000 50.09100 35.65100
H  7.01800 50.16400 34.95700
N  7.71400 54.92500 38.98000
C  9.02500 54.56600 38.71700
C  9.84400 55.77400 38.54000
C  8.96400 56.86000 38.79400
C  7.62100 56.30200 39.07600
C  11.32800 55.78500 38.04900
C  9.32500 58.27000 38.81100
O  10.52000 58.60100 38.68300
C  8.46500 59.46600 39.05600
N  4.74200 55.14300 39.47400
C  5.07300 56.45400 39.54300
C  3.79500 57.33200 39.62300
C  2.65300 56.26000 39.57700
C  3.42600 54.91800 39.73200
C  3.83900 58.28200 40.83600
C  1.78000 56.20000 38.25700
C  0.22300 55.84600 38.46400
N  4.62300 52.16200 39.50200
C  3.31800 52.38900 39.82700
C  2.66300 51.12400 40.03400
C  3.63600 50.16200 39.74700
C  4.75800 50.86600 39.44200
C  1.15900 50.90500 40.37800
C  3.91800 48.75800 39.57400
O  3.13900 47.81400 39.78300
C  5.43200 48.60000 39.13500
C  5.41400 47.87100 37.82700
O  5.11400 48.42700 36.74200
O  5.78300 46.51800 37.86400
C  5.47500 45.73400 36.66100
H  10.61200 53.13900 38.32900
H  6.34800 58.07000 39.25600
H  1.69100 53.65900 40.02200
H  8.52800 48.88000 38.91600
H  10.36000 50.86900 37.62300
H  11.47600 50.17800 39.44700
H  9.92000 49.77200 40.30100
H  10.53600 51.46800 40.21800
H  7.70900 48.30400 36.78600
H  9.45100 48.59600 36.76600
H  9.07700 49.74300 34.88000
H  8.64400 51.11000 35.94400
H  11.35200 56.45100 37.18600
H  11.65700 54.78300 37.77400
H  12.06400 56.08100 38.79600
H  9.11700 60.33600 38.98000
H  8.19700 59.54900 40.10900
H  7.55700 59.46800 38.45200
H  3.75600 57.91600 38.70400
H  1.92400 56.33900 40.38400
H  3.01300 58.26400 41.54700
H  3.76000 59.29300 40.43600
H  4.78300 58.26900 41.38100
H  2.24800 55.49200 37.57300
H  1.71100 57.16600 37.75500
H  0.13100 54.96600 37.82600
H  -0.50700 56.47700 37.95700
H  -0.15900 55.65300 39.46700
H  0.64200 50.85000 39.42000
H  0.76700 51.64400 41.07700
H  0.98700 49.90100 40.76800
H  5.97200 47.92900 39.80300
H  6.08100 46.07300 35.82100
H  4.43500 45.94300 36.40900
H  5.60600 44.68900 36.93900

