158

Mg 7.81400 3.44400 27.71800
C  9.20100 1.99000 30.60600
C  5.76500 5.32300 29.76300
C  5.97800 4.46700 25.05700
C  9.12900 0.76700 25.90100
N  7.46100 3.55300 29.89100
C  8.23300 2.95400 30.87400
C  7.94600 3.49200 32.26800
C  6.69500 4.34100 31.99000
C  6.57200 4.41300 30.43600
C  5.33800 3.84500 32.48200
C  9.17000 4.23900 32.91400
C  9.87600 3.87200 34.20000
H  9.98900 4.82700 35.37300
N  6.20000 4.85100 27.45900
C  5.61000 5.54100 28.40300
C  4.75300 6.58200 27.81800
C  4.75500 6.38200 26.43100
C  5.65700 5.14300 26.28900
C  3.99200 7.62500 28.63000
C  4.10500 7.11200 25.35100
O  4.31700 6.88700 24.15600
C  3.10800 8.19100 25.73100
N  7.47100 2.61500 25.80100
C  6.74900 3.31700 24.76700
C  6.96700 2.65200 23.39600
C  8.16100 1.66600 23.67400
C  8.14700 1.61500 25.25300
C  5.66200 2.00000 22.77300
C  9.61900 2.15100 23.13300
C  10.42800 1.01600 22.56000
N  9.14500 1.81900 28.04500
C  9.64200 0.89200 27.20300
C  10.55000 0.07400 27.91700
C  10.47200 0.52400 29.26100
C  9.56100 1.57700 29.28900
C  11.25300 -1.07800 27.39200
C  10.91400 0.24000 30.55900
O  11.65300 -0.63700 30.98400
C  10.02500 1.20600 31.61100
C  9.20100 0.25000 32.37900
O  8.22200 -0.38000 31.88500
O  9.68400 0.28800 33.67700
C  8.72400 -0.21500 34.66400
H  5.39100 6.04200 30.49400
H  5.47500 4.82900 24.15700
H  9.55500 0.02300 25.22600
H  7.60200 2.59300 32.78000
H  6.71100 5.37900 32.31900
H  4.72200 4.64500 32.89400
H  5.53000 3.12900 33.28100
H  4.77100 3.20300 31.80800
H  8.81600 5.26900 32.94300
H  9.93600 4.34400 32.14600
H  10.89100 3.55700 33.96000
H  9.28200 3.01700 34.52200
H  4.23500 8.66000 28.38900
H  4.14500 7.47400 29.69900
H  2.92600 7.54000 28.42200
H  2.23900 7.76400 26.23300
H  2.70100 8.65400 24.83200
H  3.53900 9.03400 26.27100
H  7.22100 3.52200 22.79000
H  7.91900 0.64300 23.38400
H  4.78500 2.04200 23.41900
H  5.80600 0.97500 22.43000
H  5.46700 2.62600 21.90300
H  10.07700 2.50200 24.05800
H  9.55300 2.97400 22.42100
H  9.77300 0.19500 22.26600
H  11.21500 0.73200 23.25800
H  10.82400 1.40900 21.62400
H  12.18700 -0.74300 26.94100
H  10.63100 -1.50000 26.60200
H  11.53100 -1.83200 28.12800
H  10.66600 1.79300 32.26800
H  9.32000 -0.78300 35.37900
H  7.87800 -0.77400 34.26500
H  8.31400 0.64800 35.18800
Mg -12.27900 16.00600 41.69000
C  -9.46000 14.04700 40.96000
C  -10.48200 18.74600 40.39900
C  -15.12600 17.55200 41.20500
C  -13.93000 13.07900 42.69300
N  -10.19000 16.30000 40.69900
C  -9.20100 15.39000 40.57200
C  -7.89900 15.99300 39.89000
C  -8.24500 17.45900 39.82600
C  -9.71800 17.53100 40.33400
C  -7.29900 18.38500 40.69000
C  -7.66100 15.34700 38.51000
C  -6.23000 14.93300 38.13900
H  -5.51800 15.67100 37.04900
N  -12.77000 17.95000 41.10600
C  -11.88800 18.86400 40.59100
C  -12.66300 20.05500 40.38200
C  -14.00900 19.70300 40.45900
C  -14.05300 18.35700 40.93800
C  -12.00300 21.33100 40.03200
C  -15.26500 20.62700 40.12400
O  -15.05800 21.77900 39.72300
C  -16.74600 20.08200 40.16300
N  -14.19500 15.43300 42.04500
C  -15.23500 16.24800 41.74400
C  -16.59800 15.53100 41.80600
C  -16.25400 14.07300 42.39400
C  -14.71500 14.18500 42.41600
C  -17.84700 16.26800 42.61000
C  -16.87600 12.99600 41.59600
C  -17.57500 11.91500 42.54800
N  -11.80500 13.97600 41.92700
C  -12.59000 12.93800 42.43300
C  -11.75800 11.73200 42.52900
C  -10.55400 12.10500 41.88900
C  -10.65100 13.48100 41.47100
C  -12.11000 10.35300 43.00200
C  -9.28500 11.61700 41.51600
O  -8.87500 10.50600 41.61100
C  -8.55700 12.83100 40.84100
C  -7.27900 13.05800 41.50200
O  -7.11300 13.13600 42.72100
O  -6.25500 13.05800 40.64000
C  -4.86300 13.33300 41.06500
H  -9.99500 19.66900 40.07700
H  -16.14400 17.94000 41.13200
H  -14.52500 12.27800 43.13600
H  -7.05300 15.90800 40.57200
H  -8.05600 17.81600 38.81400
H  -6.69600 18.89700 39.94000
H  -6.75000 17.91700 41.50700
H  -7.96200 19.15200 41.09100
H  -7.96500 16.00300 37.69500
H  -8.22200 14.42300 38.37100
H  -6.27900 13.87300 37.89000
H  -5.61100 15.10500 39.01900
H  -11.71000 21.38000 38.98300
H  -11.11000 21.43700 40.64800
H  -12.62300 22.20000 40.24900
H  -17.53700 20.66300 39.68800
H  -16.96600 19.98700 41.22600
H  -16.75900 19.13000 39.63400
H  -17.01900 15.41700 40.80700
H  -16.43600 13.96500 43.46400
H  -17.83000 15.87100 43.62500
H  -18.70100 15.94900 42.01300
H  -17.70800 17.34600 42.52600
H  -16.04200 12.57900 41.03300
H  -17.54300 13.33000 40.80100
H  -16.90400 11.45500 43.27300
H  -17.96300 11.15700 41.86700
H  -18.42800 12.37900 43.04400
H  -12.74100 10.44200 43.88600
H  -11.24400 9.77300 43.32300
H  -12.69400 9.99200 42.15500
H  -8.44100 12.66500 39.77100
H  -4.52600 12.52000 41.70800
H  -4.81000 14.25700 41.64100
H  -4.24600 13.50300 40.18200

