158

Mg 26.70700 50.11500 26.14500
C  24.80400 51.40700 28.62200
C  29.36400 49.48800 28.27800
C  28.40400 49.02500 23.64700
C  24.19500 51.19300 23.79800
N  26.99000 50.17000 28.20900
C  26.07300 50.82900 29.01500
C  26.59000 50.73300 30.44700
C  28.03100 50.19300 30.42400
C  28.18000 50.01900 28.83400
C  29.05300 51.20700 31.07700
C  25.60500 49.89000 31.32600
C  25.08500 50.43900 32.65800
H  26.08600 50.86500 33.79100
N  28.65600 49.38300 25.95300
C  29.59000 49.14400 26.93900
C  30.74400 48.41000 26.37900
C  30.42500 48.28900 24.99700
C  29.11500 48.90000 24.79700
C  31.80400 47.88000 27.31600
C  31.34000 47.63600 23.96100
O  30.94800 47.51500 22.81300
C  32.68200 47.01600 24.33400
N  26.42900 50.41100 23.89800
C  27.20800 49.59000 23.19900
C  26.76600 49.51500 21.80500
C  25.34300 50.02000 21.85700
C  25.28900 50.51900 23.25600
C  27.52400 50.37000 20.78900
C  24.21800 48.96000 21.46600
C  24.23200 47.67400 22.23900
N  24.87400 51.08600 26.16000
C  23.99800 51.44700 25.19200
C  22.91000 52.18200 25.70800
C  23.17000 52.24300 27.07500
C  24.37300 51.53400 27.30000
C  21.83700 52.92100 24.94000
C  22.69900 52.65600 28.33100
O  21.74000 53.34500 28.58200
C  23.71100 52.06400 29.41100
C  24.18500 53.17900 30.28600
O  25.23600 53.76200 30.15200
O  23.29300 53.34800 31.35100
C  23.86800 54.06300 32.52600
H  30.14300 49.24300 29.00300
H  28.96000 48.70200 22.76400
H  23.32800 51.43000 23.17800
H  26.61800 51.77500 30.76700
H  28.13700 49.21500 30.89400
H  29.72500 50.68800 31.76100
H  28.51100 52.00900 31.57600
H  29.80100 51.61000 30.39400
H  26.06000 48.92000 31.52700
H  24.74600 49.71400 30.67800
H  24.61600 49.53500 33.04800
H  24.24600 51.09400 32.42100
H  32.34200 47.02000 26.91800
H  31.30700 47.63500 28.25500
H  32.50800 48.69600 27.48100
H  32.50000 46.08800 24.87700
H  33.17100 47.77600 24.94400
H  33.14500 46.79800 23.37200
H  26.80900 48.47400 21.48500
H  25.15800 50.97200 21.36000
H  28.39000 50.75700 21.32600
H  27.05800 51.15600 20.19400
H  27.92300 49.64000 20.08400
H  24.14200 48.77000 20.39600
H  23.27700 49.47800 21.65600
H  24.09600 47.74000 23.31800
H  25.13200 47.06900 22.12600
H  23.28100 47.22000 21.96200
H  21.43700 53.62200 25.67300
H  21.04100 52.27600 24.56800
H  22.24400 53.59700 24.18900
H  23.24300 51.37600 30.11500
H  24.08900 55.10900 32.31400
H  24.82500 53.57900 32.72100
H  23.34200 53.85300 33.45700
Mg 0.07400 43.46200 26.34600
C  1.87900 43.41800 29.23800
C  -2.74500 42.86600 28.16400
C  -1.44600 42.65400 23.44500
C  3.04600 43.91400 24.47600
N  -0.33700 43.06100 28.48800
C  0.50800 43.22100 29.47900
C  -0.19600 43.03600 30.80200
C  -1.62700 42.50600 30.44600
C  -1.59700 42.91800 28.97300
C  -2.01300 41.06000 30.73300
C  -0.27100 44.41600 31.50900
C  0.33100 44.52800 32.88400
H  -0.02100 43.43400 33.97300
N  -1.80600 42.92300 25.88400
C  -2.87700 42.81600 26.75500
C  -4.07300 42.51200 25.98600
C  -3.76500 42.50800 24.55800
C  -2.27600 42.66900 24.57400
C  -5.42900 42.46300 26.75600
C  -4.60400 42.33500 23.33700
O  -4.15100 42.28400 22.20100
C  -6.07500 42.49700 23.59300
N  0.68500 43.37700 24.16900
C  -0.11200 42.96900 23.22500
C  0.57800 42.86600 21.93900
C  2.01000 43.52600 22.20800
C  1.95700 43.60700 23.76600
C  0.68800 41.40700 21.38900
C  2.08300 44.96100 21.52100
C  3.47500 45.30300 21.06600
N  2.05500 43.62500 26.72300
C  3.19800 43.82900 25.92400
C  4.36500 43.99500 26.73600
C  3.93600 43.83500 28.03300
C  2.50400 43.64300 27.97200
C  5.78100 44.20800 26.25200
C  4.28300 43.77400 29.40300
O  5.45000 43.88200 29.86900
C  2.95400 43.58400 30.26800
C  3.31300 42.45100 31.07300
O  3.42300 41.32200 30.68400
O  3.65900 42.89100 32.34100
C  3.98900 41.86100 33.30100
H  -3.58900 42.77400 28.85000
H  -1.82700 42.43000 22.44600
H  3.93300 43.97600 23.84200
H  0.32300 42.33400 31.45500
H  -2.37500 43.05800 31.01400
H  -1.16700 40.56800 31.21400
H  -2.29400 40.54800 29.81300
H  -2.77100 41.13900 31.51300
H  -1.29600 44.77300 31.60900
H  0.30100 45.05900 30.83900
H  -0.07800 45.44000 33.31900
H  1.41200 44.63500 32.79400
H  -6.03800 43.32000 26.46900
H  -5.35500 42.64000 27.82900
H  -5.90700 41.50000 26.57800
H  -6.63200 42.45400 22.65700
H  -6.11300 43.44400 24.13100
H  -6.45000 41.79100 24.33400
H  0.04100 43.47200 21.21000
H  2.81700 42.84900 21.93100
H  0.80300 40.66700 22.18100
H  1.67700 41.37900 20.93100
H  -0.23100 41.22800 20.83200
H  1.76500 45.69700 22.26000
H  1.44800 45.07800 20.64300
H  3.60600 44.74600 20.13900
H  4.23600 44.86300 21.71100
H  3.76200 46.35400 21.02600
H  6.36500 43.29100 26.17200
H  6.29200 44.80400 27.00900
H  5.85900 44.71300 25.28900
H  2.75500 44.47500 30.86400
H  4.63700 41.11400 32.84100
H  3.06400 41.37700 33.61300
H  4.39700 42.26700 34.22600

