158

Mg -0.62800 6.76000 25.10600
C  0.09400 7.89600 28.27000
C  -0.97600 3.48700 26.37900
C  -0.83700 5.49600 21.95400
C  0.20800 9.92100 23.79900
N  -0.38900 5.75900 27.06400
C  -0.26000 6.55100 28.24400
C  -0.62100 5.63000 29.46500
C  -0.75200 4.20600 28.88300
C  -0.77400 4.45800 27.36900
C  0.43200 3.19000 29.18900
C  -1.83800 6.20500 30.27300
C  -1.80200 6.07700 31.81800
H  -1.08200 4.83100 32.48600
N  -0.99000 4.85100 24.28700
C  -1.14600 3.65100 24.98500
C  -1.59400 2.61000 24.09100
C  -1.45300 3.15600 22.78100
C  -1.09200 4.57200 22.92700
C  -1.95400 1.19100 24.52400
C  -1.43700 2.40600 21.40900
O  -1.25700 2.85400 20.29900
C  -1.84800 0.94500 21.37800
N  -0.19800 7.60900 23.07300
C  -0.49400 6.88600 21.97900
C  -0.41200 7.74200 20.74800
C  -0.41400 9.20700 21.36100
C  -0.18300 8.95000 22.88500
C  0.83100 7.38200 19.89900
C  -1.77000 9.99200 21.17000
C  -1.82000 10.99200 19.99400
N  0.16700 8.52300 25.87700
C  0.36100 9.80600 25.21400
C  0.72600 10.80100 26.21400
C  0.56600 10.11600 27.47900
C  0.23800 8.80100 27.18800
C  0.92200 12.26600 26.03300
C  0.56200 10.34700 28.89400
O  0.87700 11.27000 29.65300
C  0.28200 8.88100 29.42800
C  1.45000 8.43000 30.27300
O  2.52700 8.12300 29.79800
O  1.07700 8.45300 31.59400
C  2.18100 8.22500 32.61500
H  -1.07200 2.47900 26.78700
H  -0.93900 5.03300 20.97000
H  0.49300 10.84100 23.28400
H  0.25600 5.72200 30.10600
H  -1.67100 3.71000 29.19800
H  -0.03700 2.22300 29.37200
H  0.94800 3.41000 30.12400
H  1.15600 3.12500 28.37700
H  -2.72300 5.68600 29.90400
H  -2.05300 7.25900 30.09700
H  -2.79400 6.13900 32.26500
H  -1.27200 6.98400 32.11100
H  -1.06800 0.58100 24.34800
H  -2.75200 0.74700 23.92800
H  -2.21000 1.11000 25.58000
H  -1.93200 0.55100 20.36500
H  -2.87700 0.99100 21.73400
H  -1.15400 0.31900 21.93800
H  -1.27200 7.50800 20.12100
H  0.39500 9.75700 20.87900
H  0.77100 8.03600 19.02900
H  0.68600 6.33700 19.62300
H  1.78500 7.49200 20.41500
H  -1.83600 10.49400 22.13500
H  -2.68200 9.39500 21.16900
H  -1.78700 11.98400 20.44500
H  -2.71300 10.85800 19.38300
H  -0.96800 10.88500 19.32200
H  0.13400 12.72300 25.43400
H  1.89900 12.39700 25.56800
H  0.76500 12.74900 26.99800
H  -0.54100 8.99200 30.13400
H  3.12200 7.89600 32.17400
H  1.82500 7.58400 33.42200
H  2.43400 9.16400 33.10700
Mg 48.95500 35.48000 27.25200
C  47.09700 33.97000 29.73600
C  49.38200 38.25700 29.39100
C  50.34800 37.20600 24.72200
C  47.94400 33.04300 24.86700
N  48.27400 36.09000 29.27700
C  47.69800 35.17100 30.14200
C  47.84200 35.59800 31.62300
C  48.22900 37.13700 31.44100
C  48.68900 37.24800 29.96900
C  46.96600 38.02800 31.68000
C  49.01600 34.90400 32.37600
C  48.91300 34.89500 33.93000
H  48.03900 36.03000 34.47900
N  49.85000 37.39400 27.10600
C  49.90500 38.37900 28.10700
C  50.73400 39.48900 27.66000
C  51.15700 39.18600 26.30300
C  50.47000 37.86200 26.00800
C  50.98400 40.75600 28.43500
C  52.12500 39.95800 25.38600
O  52.46300 39.50400 24.29100
C  52.67600 41.32400 25.73600
N  49.08200 35.19700 25.08500
C  49.74900 36.05300 24.24200
C  49.67000 35.69900 22.80500
C  49.14700 34.23800 22.92100
C  48.59800 34.13100 24.36900
C  48.85300 36.59400 21.93600
C  50.24100 33.21900 22.52700
C  50.08200 32.25200 21.40100
N  47.83900 33.83400 27.25100
C  47.59900 32.85500 26.21500
C  46.75100 31.83300 26.80400
C  46.50300 32.23800 28.18300
C  47.19600 33.49400 28.37100
C  46.36100 30.50700 26.13700
C  45.84100 31.86800 29.40100
O  45.20100 30.82300 29.62900
C  45.97100 33.11900 30.31700
C  46.16000 32.71400 31.74800
O  47.22400 32.30200 32.24500
O  45.01000 32.93000 32.46200
C  45.09200 33.01800 33.96200
H  49.60800 39.07000 30.08500
H  50.73800 37.67600 23.81700
H  47.68100 32.30400 24.10700
H  46.86600 35.54800 32.10400
H  49.06600 37.46800 32.05600
H  46.77200 38.43900 32.67100
H  46.12900 37.44800 31.29000
H  47.01400 38.86600 30.98500
H  49.98000 35.39100 32.22300
H  49.12100 33.89500 31.97800
H  49.94700 34.97100 34.26700
H  48.54100 33.92900 34.26900
H  51.07900 41.63300 27.79500
H  51.88500 40.87500 29.03600
H  50.11100 40.91900 29.06800
H  51.88000 42.01600 25.46100
H  53.60400 41.53700 25.20500
H  52.88500 41.32500 26.80600
H  50.65900 35.79200 22.35800
H  48.26300 34.08200 22.30200
H  48.03300 36.10000 21.41300
H  49.53300 36.91800 21.14800
H  48.38400 37.43500 22.44500
H  50.45500 32.67400 23.44600
H  51.11800 33.77900 22.20300
H  50.85800 32.26100 20.63600
H  49.14000 32.43500 20.88400
H  50.02500 31.25100 21.82900
H  45.35600 30.53900 25.71600
H  46.48900 29.65400 26.80400
H  47.01000 30.30500 25.28400
H  45.09500 33.75500 30.19300
H  46.04400 33.45700 34.25900
H  45.14700 32.02200 34.40000
H  44.20900 33.48200 34.40300

