158

Mg -0.21900 6.95100 26.66400
C  1.13200 9.66100 28.67900
C  0.06800 4.98100 29.50000
C  -2.01100 4.66200 25.13800
C  0.31500 8.87100 23.89800
N  0.41100 7.34100 28.82500
C  0.87000 8.48500 29.39600
C  0.97400 8.28500 30.90200
C  1.15300 6.82300 31.03700
C  0.60600 6.31200 29.66100
C  2.57700 6.32300 31.45500
C  -0.30900 8.84700 31.62000
C  -0.21100 9.25100 33.12400
H  0.94600 8.81300 33.93700
N  -0.80700 5.11900 27.19900
C  -0.62000 4.48000 28.33200
C  -1.27800 3.23400 28.35800
C  -1.97700 3.10000 27.17000
C  -1.60300 4.28000 26.44600
C  -1.25800 2.32500 29.54300
C  -2.92900 2.08800 26.70400
O  -3.42700 2.11400 25.57700
C  -3.17000 0.84200 27.46400
N  -0.57200 6.62900 24.76300
C  -1.44800 5.67900 24.28500
C  -1.77800 5.74500 22.74300
C  -1.19600 7.18200 22.46700
C  -0.29700 7.57100 23.75300
C  -1.09700 4.60000 21.90000
C  -2.35100 8.13500 22.16900
C  -2.25700 8.96400 20.81500
N  0.44100 8.90400 26.31100
C  0.60700 9.52400 25.11000
C  1.14100 10.85700 25.29600
C  1.30800 10.99800 26.73900
C  0.95500 9.75500 27.28300
C  1.60700 11.81100 24.18800
C  1.68600 11.90900 27.80400
O  2.07700 13.13000 27.74100
C  1.41500 11.09800 29.13600
C  2.67100 11.13800 29.90100
O  3.73000 10.62200 29.54500
O  2.59000 11.88300 31.04800
C  3.80800 11.88200 31.91500
H  0.24500 4.39400 30.40400
H  -2.53500 3.88500 24.57800
H  0.44300 9.53800 23.04300
H  1.84500 8.82100 31.27900
H  0.48700 6.51500 31.84300
H  2.74600 5.99300 32.48000
H  3.28000 7.13900 31.28900
H  2.95700 5.53900 30.80000
H  -1.20300 8.25600 31.42200
H  -0.38500 9.78900 31.07800
H  -1.03600 8.77300 33.65300
H  -0.32800 10.32600 33.25700
H  -2.25500 2.15700 29.95000
H  -0.52300 2.55700 30.31400
H  -0.98800 1.34600 29.14900
H  -3.72900 0.16000 26.82300
H  -3.81100 1.00400 28.33100
H  -2.23500 0.34400 27.71900
H  -2.84800 5.53700 22.73200
H  -0.54100 7.16500 21.59600
H  -0.34000 4.11700 22.51900
H  -0.66300 5.01200 20.99000
H  -1.89200 3.88200 21.69800
H  -2.47400 8.95200 22.88000
H  -3.28800 7.58000 22.12200
H  -2.53200 9.99700 21.02600
H  -3.09500 8.59600 20.22300
H  -1.27300 9.05900 20.35500
H  0.84800 11.58300 23.43900
H  2.59600 11.63300 23.76600
H  1.57500 12.89100 24.33600
H  0.56300 11.44500 29.72100
H  3.87500 12.90600 32.28100
H  4.76200 11.92000 31.39000
H  3.82800 11.12200 32.69700
Mg -12.38900 37.92400 41.27900
C  -10.54500 35.04000 40.27800
C  -9.81800 39.80000 39.91700
C  -14.32600 40.59300 41.47100
C  -14.87200 35.91900 42.26600
N  -10.35000 37.41300 40.32600
C  -9.84700 36.24100 39.97700
C  -8.41900 36.37000 39.45600
C  -8.18400 37.91900 39.44700
C  -9.55000 38.45000 39.89500
C  -7.01700 38.45500 40.33000
C  -8.30200 35.74500 38.07900
C  -6.99100 35.00900 37.80900
H  -6.11500 35.65700 36.78000
N  -12.14100 39.89500 40.75500
C  -11.01100 40.49800 40.28300
C  -11.24800 41.92400 40.13800
C  -12.57000 42.17600 40.53600
C  -13.11900 40.86600 40.88400
C  -10.17900 42.93100 39.63100
C  -13.19500 43.54200 40.45500
O  -12.61000 44.61500 40.36800
C  -14.73200 43.57900 40.36800
N  -14.36500 38.15300 41.56500
C  -14.92400 39.37800 41.76000
C  -16.37000 39.32700 42.16700
C  -16.59300 37.84500 42.37500
C  -15.19700 37.21300 42.02000
C  -16.72300 40.16100 43.39200
C  -17.64800 37.11800 41.54000
C  -18.56100 36.10000 42.28700
N  -12.71200 35.90700 41.25800
C  -13.67800 35.27000 41.94000
C  -13.37300 33.84100 41.97600
C  -12.20100 33.65700 41.20900
C  -11.78000 34.97700 40.86700
C  -14.15400 32.76000 42.73800
C  -11.26200 32.68100 40.70400
O  -11.28900 31.45100 40.68400
C  -10.11700 33.53900 40.01900
C  -8.81700 33.15600 40.65100
O  -8.07300 32.40600 40.08300
O  -8.61500 33.75800 41.88300
C  -7.42700 33.22800 42.64200
H  -9.01300 40.42100 39.52000
H  -14.91600 41.49300 41.65700
H  -15.59800 35.20200 42.65300
H  -7.70300 35.86900 40.10800
H  -7.93800 38.26200 38.44200
H  -6.17900 38.88800 39.78300
H  -6.54300 37.67600 40.92700
H  -7.41000 39.25800 40.95300
H  -8.53000 36.41800 37.25200
H  -9.09700 35.02700 37.88100
H  -7.20400 33.98800 37.49400
H  -6.33900 34.93500 38.68000
H  -10.13600 43.67500 40.42600
H  -10.75700 43.34900 38.80600
H  -9.24600 42.43000 39.37400
H  -15.27300 43.64800 41.31100
H  -15.03000 42.67200 39.84200
H  -14.92400 44.42000 39.70000
H  -17.01300 39.68500 41.36300
H  -16.74900 37.67000 43.44000
H  -17.32400 39.62500 44.12600
H  -17.36100 40.95800 43.01000
H  -15.83700 40.51000 43.92200
H  -17.24300 36.49000 40.74700
H  -18.24800 37.92700 41.12500
H  -19.54700 36.56500 42.28500
H  -18.28400 35.83200 43.30700
H  -18.60500 35.25300 41.60300
H  -14.03800 31.82400 42.19100
H  -15.21400 32.92800 42.92800
H  -13.64900 32.48700 43.66400
H  -9.92000 33.24800 38.98800
H  -7.18400 33.88500 43.47600
H  -6.54500 33.21400 42.00100
H  -7.72500 32.23900 42.99100

