158

Mg 23.95800 -5.26100 44.98000
C  25.69300 -2.69700 43.17900
C  21.19400 -4.55400 43.15000
C  22.74000 -8.24700 45.88800
C  27.10900 -6.24000 46.35400
N  23.52700 -3.78900 43.45700
C  24.35300 -2.84400 42.85800
C  23.59400 -2.06200 41.77900
C  22.08000 -2.42700 42.07500
C  22.23200 -3.69300 42.98600
C  21.24400 -1.25800 42.71900
C  24.05800 -2.42500 40.30200
C  24.21900 -1.26300 39.37600
H  24.43800 -1.38100 37.82800
N  22.12100 -6.19900 44.73900
C  21.10600 -5.76500 43.96200
C  19.96200 -6.73300 44.07300
C  20.34300 -7.73600 44.98600
C  21.78700 -7.47000 45.24800
C  18.59300 -6.57200 43.38100
C  19.41400 -8.75000 45.55000
O  18.25600 -8.83400 45.14700
C  19.95600 -9.70600 46.52300
N  24.80200 -6.97100 46.08300
C  24.01700 -8.03500 46.30300
C  24.90100 -9.12500 46.93800
C  26.21400 -8.43100 47.31700
C  26.06100 -7.15500 46.50800
C  24.35500 -9.81900 48.22300
C  27.43900 -9.33200 47.17100
C  28.37900 -9.15900 48.32400
N  25.95700 -4.57000 44.97800
C  27.11500 -5.07200 45.58200
C  28.23900 -4.15900 45.26100
C  27.73100 -3.27100 44.33100
C  26.33700 -3.52900 44.18600
C  29.65600 -4.23000 45.80400
C  28.17100 -2.23400 43.37000
O  29.24500 -1.92700 42.94000
C  26.78800 -1.69200 42.66800
C  26.50800 -0.33000 43.17100
O  26.57600 0.01700 44.34600
O  26.21500 0.49300 42.11000
C  25.91000 1.86300 42.51600
H  20.30400 -4.36600 42.54500
H  22.26800 -9.21300 46.07900
H  28.07500 -6.38400 46.84200
H  23.78200 -0.99600 41.90600
H  21.56800 -2.82900 41.20200
H  20.29800 -1.19000 42.18000
H  21.74800 -0.29300 42.65700
H  20.90600 -1.39200 43.74600
H  23.37800 -3.18000 39.90900
H  25.02500 -2.92500 40.34800
H  25.01600 -0.65700 39.80600
H  23.29600 -0.69100 39.47400
H  18.54900 -5.63000 42.83300
H  17.76100 -6.48800 44.08000
H  18.36100 -7.38500 42.69300
H  19.05200 -10.05000 47.02600
H  20.55100 -9.11000 47.21600
H  20.48700 -10.48800 45.98000
H  24.94600 -9.83300 46.11000
H  26.12600 -8.16200 48.37000
H  25.06400 -9.87000 49.04900
H  24.05500 -10.83000 47.94500
H  23.55500 -9.22900 48.67000
H  27.93400 -9.04000 46.24500
H  27.09200 -10.36600 47.17700
H  29.15100 -9.92900 48.31200
H  27.93500 -9.26100 49.31400
H  28.94600 -8.23400 48.22400
H  30.06700 -5.22300 45.62400
H  29.61400 -3.95900 46.85900
H  30.17800 -3.44200 45.26200
H  26.75400 -1.70700 41.57900
H  24.94000 1.84200 43.01100
H  25.77000 2.46900 41.62100
H  26.60800 2.32800 43.21200
Mg 40.11100 10.50000 30.02800
C  42.02100 11.39100 32.90700
C  37.89900 8.99800 32.26500
C  38.65000 9.08100 27.39800
C  42.79400 11.72300 28.07100
N  40.06600 10.10400 32.31200
C  40.87600 10.70700 33.27400
C  40.28000 10.59900 34.68400
C  38.99400 9.70100 34.40400
C  38.96600 9.62600 32.86900
C  38.81800 8.35600 35.22200
C  39.92400 12.02600 35.28300
C  39.45700 12.14200 36.74700
H  40.24700 12.99900 37.75700
N  38.56400 9.10900 29.90300
C  37.69800 8.74800 30.92500
C  36.66000 7.94300 30.34800
C  36.90000 7.87900 28.93300
C  38.07000 8.73900 28.66600
C  35.73900 7.03500 31.15000
C  36.06100 7.25700 27.80300
O  36.35600 7.32000 26.63700
C  34.91200 6.35300 28.23500
N  40.61800 10.46000 28.02300
C  39.70500 9.94600 27.11200
C  40.12200 10.25400 25.68500
C  41.41300 11.17100 25.89600
C  41.67700 11.12700 27.40100
C  40.23800 8.91300 24.77400
C  41.23000 12.53000 25.30500
C  40.10000 13.40900 25.91000
N  41.97300 11.40100 30.37900
C  42.89700 11.87700 29.47000
C  44.03600 12.47600 30.15300
C  43.60900 12.34600 31.49200
C  42.42600 11.65400 31.60300
C  45.31800 13.00400 29.52200
C  44.13300 12.57700 32.82400
O  45.16900 13.03200 33.20600
C  43.13800 11.99500 33.78800
C  43.75300 10.99800 34.65400
O  43.78900 9.78600 34.46800
O  44.26800 11.59200 35.75200
C  44.90100 10.79500 36.73700
H  37.12300 8.54200 32.88200
H  38.11400 8.90700 26.46300
H  43.52500 12.25900 27.46200
H  40.98700 10.22800 35.42500
H  38.10300 10.27600 34.65700
H  37.79000 8.15700 35.52500
H  39.40300 8.41500 36.13900
H  39.24900 7.53900 34.64500
H  39.28100 12.56900 34.59000
H  40.86400 12.57300 35.20100
H  39.31400 11.17500 37.22900
H  38.43900 12.46600 36.53100
H  35.76000 6.01800 30.75700
H  34.71100 7.35000 30.97400
H  36.00600 6.89300 32.19700
H  34.29300 6.15000 27.36100
H  34.29100 6.79000 29.01700
H  35.28900 5.38300 28.55900
H  39.37400 10.88000 25.19700
H  42.21800 10.73300 25.30600
H  39.97000 7.99900 25.30500
H  41.24800 8.73000 24.40700
H  39.52300 9.01800 23.95800
H  41.03500 12.41000 24.23900
H  42.14100 13.07200 25.55400
H  40.52300 14.35900 26.23600
H  39.46900 12.98100 26.68900
H  39.47100 13.71000 25.07200
H  45.10300 13.17100 28.46600
H  46.14100 12.31100 29.69700
H  45.60600 13.94100 29.99900
H  42.88100 12.82200 34.45000
H  45.20000 11.40900 37.58700
H  45.87000 10.46900 36.35800
H  44.28100 9.93500 36.98900

