158

Mg 7.62200 53.61700 41.60900
C  7.15000 50.01700 41.25400
C  10.70000 53.31500 40.45300
C  7.44000 56.87000 41.31500
C  3.88300 53.61500 42.07100
N  8.72000 51.86900 41.11100
C  8.40700 50.55000 40.84900
C  9.43500 49.83700 39.93700
C  10.66800 50.69200 40.23000
C  9.99400 52.08400 40.62700
C  11.49700 50.13400 41.46000
C  8.95700 49.79000 38.41200
C  9.45800 48.53800 37.66100
H  8.61700 47.88800 36.63700
N  8.92500 54.90500 41.00300
C  10.19900 54.62200 40.63500
C  10.90300 55.81400 40.38900
C  9.98300 56.81900 40.58100
C  8.69800 56.25800 40.99100
C  12.36600 55.91700 40.01200
C  10.35000 58.30300 40.55200
O  11.44900 58.59000 40.03400
C  9.51200 59.49000 40.96600
N  5.88300 54.96100 41.54100
C  6.14000 56.29200 41.54200
C  4.76500 57.11300 41.61800
C  3.70200 56.07800 41.74400
C  4.51400 54.81400 41.77200
C  4.60700 58.32700 42.61900
C  2.56800 56.11600 40.56700
C  2.77600 55.21400 39.37800
N  5.90800 52.22600 41.87000
C  4.51900 52.38500 42.06700
C  3.86800 51.10000 42.16800
C  4.93600 50.16700 41.94000
C  6.09700 50.90000 41.66700
C  2.45600 50.83800 42.40800
C  5.26200 48.78100 42.00800
O  4.52100 47.81200 42.32600
C  6.73300 48.59900 41.49600
C  6.82700 47.77200 40.25800
O  6.24400 47.94600 39.23300
O  7.61700 46.66400 40.48400
C  7.39300 45.54600 39.51400
H  11.72700 53.30600 40.08200
H  7.33400 57.95700 41.31600
H  2.80000 53.71100 42.17900
H  9.52000 48.81900 40.31800
H  11.27700 50.80300 39.33300
H  12.50300 50.52800 41.31900
H  11.53800 49.04700 41.38600
H  11.08100 50.58200 42.36200
H  9.42100 50.67900 37.98500
H  7.90100 49.84100 38.14800
H  9.71700 47.79600 38.41600
H  10.37000 48.84300 37.14800
H  12.77900 54.91800 39.86800
H  12.93700 56.34700 40.83400
H  12.49500 56.30000 38.99900
H  9.20900 59.39000 42.00800
H  8.62100 59.62900 40.35300
H  10.11700 60.38300 40.80800
H  4.76900 57.48600 40.59400
H  3.33000 56.33000 42.73700
H  5.32000 58.35000 43.44300
H  3.63400 58.37600 43.10800
H  4.79400 59.24500 42.06300
H  2.44700 57.13400 40.19600
H  1.64700 55.85000 41.08600
H  3.77400 54.77800 39.40100
H  2.79500 55.89000 38.52300
H  2.03400 54.44700 39.15600
H  1.89700 51.09300 41.50800
H  2.13400 51.56700 43.15200
H  2.17900 49.88000 42.84800
H  7.35700 48.09900 42.23700
H  8.25600 45.52300 38.84800
H  6.54600 45.54700 38.82800
H  7.42300 44.54200 39.93700
Mg 16.93300 51.92700 26.49600
C  19.04800 50.49700 28.96800
C  14.73200 52.80300 28.76300
C  15.02900 52.85300 23.96100
C  19.35400 50.67900 24.09200
N  16.89000 51.61200 28.63300
C  17.87000 51.05700 29.47000
C  17.41700 51.18800 30.90100
C  15.93700 51.71600 30.77400
C  15.82000 52.04300 29.28400
C  14.98600 50.56400 31.16600
C  18.37600 52.14300 31.69400
C  18.53400 51.80100 33.24100
H  17.70000 52.48600 34.28000
N  15.05000 52.64500 26.43200
C  14.28000 53.02100 27.45600
C  13.15000 53.81000 26.94200
C  13.09600 53.53600 25.51000
C  14.48600 52.97700 25.25500
C  12.24400 54.45600 27.99100
C  12.07400 53.77100 24.35900
O  12.17500 53.31000 23.21800
C  10.80300 54.43900 24.62200
N  17.22800 51.85100 24.30100
C  16.18500 52.24000 23.52300
C  16.53300 52.03700 22.09100
C  18.13600 51.75200 22.12000
C  18.29200 51.47300 23.58100
C  15.65600 51.05700 21.30400
C  19.15300 52.91700 21.79200
C  20.36600 52.55400 20.89400
N  18.85700 50.85300 26.48700
C  19.69700 50.40700 25.48600
C  20.85500 49.81500 25.96300
C  20.70800 49.83200 27.31700
C  19.42000 50.49400 27.66000
C  21.92200 49.23300 25.10600
C  21.27900 49.44000 28.60000
O  22.37900 48.97700 28.86800
C  20.26700 49.96600 29.75000
C  20.12400 48.92300 30.77100
O  19.21900 48.04400 30.77400
O  21.03700 49.03900 31.78000
C  20.78400 48.30100 33.05100
H  14.07400 53.07000 29.59300
H  14.46300 53.23600 23.10900
H  20.10100 50.24000 23.42700
H  17.58200 50.17500 31.27000
H  15.71800 52.52500 31.47100
H  15.23200 49.64100 30.64100
H  13.95400 50.74900 30.86700
H  15.08700 50.37800 32.23500
H  17.93800 53.14000 31.74300
H  19.39200 52.13300 31.29900
H  19.54800 51.92200 33.62400
H  18.36900 50.72600 33.31900
H  12.97900 54.90300 28.66000
H  11.67300 53.73600 28.57700
H  11.64000 55.21400 27.49200
H  10.79400 55.50100 24.86600
H  10.32400 53.99700 25.49500
H  10.06100 54.45400 23.82300
H  16.47200 52.96400 21.52100
H  18.28600 50.85800 21.51500
H  14.58100 51.22200 21.37800
H  15.97000 50.07400 21.65400
H  15.97400 51.17200 20.26800
H  19.55400 53.30700 22.72800
H  18.52100 53.69100 21.35700
H  20.21800 53.32600 20.13800
H  20.29500 51.52600 20.53700
H  21.29800 52.72400 21.43300
H  22.42000 49.97600 24.48300
H  21.52300 48.48700 24.41700
H  22.55700 48.75500 25.85100
H  20.64700 50.78800 30.35700
H  21.69600 48.15700 33.63000
H  20.35700 47.31100 32.88600
H  20.14300 48.78900 33.78500

