158

Mg 24.71700 1.12400 30.20900
C  26.78700 0.91700 32.97100
C  22.06700 1.52100 32.36000
C  22.66700 0.63800 27.52100
C  27.43200 0.23900 28.21300
N  24.48000 1.17600 32.50200
C  25.47200 1.11900 33.37500
C  24.99300 1.68300 34.71500
C  23.44400 1.44400 34.58700
C  23.30600 1.34400 33.07000
C  22.98600 0.04300 35.20800
C  25.56100 3.11000 35.10600
C  26.40000 3.19200 36.45400
H  25.98300 4.17500 37.54300
N  22.70100 1.06400 30.00500
C  21.73300 1.32400 30.98200
C  20.47000 1.41500 30.35000
C  20.62900 0.98100 28.99100
C  22.06500 0.94200 28.77900
C  19.20300 1.73700 31.10000
C  19.60700 0.75000 27.95300
O  19.93000 0.51900 26.79400
C  18.22500 0.68800 28.27000
N  25.00800 0.35900 28.23700
C  24.03300 0.52500 27.31700
C  24.56200 0.39800 25.88400
C  26.08200 0.15300 26.07500
C  26.20700 0.25200 27.56900
C  23.85000 -0.49300 24.87000
C  26.93200 1.15400 25.22700
C  26.44500 1.23500 23.78000
N  26.68700 0.63400 30.46900
C  27.71800 0.45500 29.56300
C  28.99700 0.32700 30.26500
C  28.68300 0.51500 31.64100
C  27.25800 0.69500 31.67200
C  30.39200 0.10500 29.75500
C  29.27900 0.65800 32.97800
O  30.44800 0.54600 33.40600
C  28.06500 0.96100 33.87600
C  28.07900 -0.18600 34.80300
O  27.46900 -1.22300 34.65500
O  28.86200 0.15100 35.88700
C  28.73800 -0.74800 37.01600
H  21.22700 1.86900 32.96500
H  22.09100 0.83500 26.61500
H  28.26700 0.09600 27.52400
H  25.37900 1.05500 35.51800
H  22.99700 2.33600 35.02400
H  23.84400 -0.59200 35.43200
H  22.41300 -0.51100 34.46400
H  22.41300 0.29900 36.09900
H  24.70500 3.78300 35.04700
H  26.22900 3.32200 34.27100
H  27.39000 3.52800 36.14500
H  26.36700 2.19000 36.88200
H  19.41800 1.72400 32.16800
H  18.35400 1.10500 30.84000
H  18.96900 2.75200 30.77900
H  18.18300 -0.13100 28.98800
H  17.70700 0.42600 27.34800
H  17.84200 1.61700 28.69300
H  24.34600 1.33900 25.37800
H  26.46900 -0.85600 25.93400
H  24.56400 -1.14500 24.36800
H  23.39700 0.11700 24.08800
H  23.03600 -1.02700 25.36000
H  27.97700 0.84800 25.28700
H  26.73600 2.15100 25.62200
H  25.70900 2.01300 23.57800
H  26.00300 0.31600 23.39500
H  27.26300 1.35800 23.07100
H  30.91800 1.05500 29.66700
H  30.37600 -0.34400 28.76100
H  30.83300 -0.53200 30.52100
H  28.01500 1.91200 34.40700
H  28.50900 -1.75000 36.65400
H  28.01100 -0.37400 37.73700
H  29.71900 -0.61400 37.47200
Mg 35.94500 49.47800 25.17100
C  36.39200 47.78400 28.30900
C  34.15600 51.79400 26.86600
C  35.20400 50.73600 22.22000
C  37.39400 46.72000 23.58500
N  35.24400 49.66900 27.31300
C  35.73700 48.98600 28.42200
C  35.42100 49.71700 29.70500
C  34.59200 50.97400 29.23600
C  34.67200 50.82000 27.72300
C  33.08600 50.98000 29.83500
C  36.73000 50.10200 30.39900
C  36.80400 49.84600 31.90600
H  35.52300 49.95400 32.78400
N  34.77100 50.96400 24.60700
C  34.11400 51.92400 25.48200
C  33.40300 52.88300 24.73400
C  33.67700 52.57100 23.35700
C  34.60500 51.40200 23.33900
C  32.35800 53.75200 25.32000
C  33.08400 53.14700 22.07600
O  33.43000 52.74000 20.94500
C  32.25000 54.42900 22.09600
N  36.14600 48.72100 23.18300
C  35.91500 49.48800 22.18000
C  36.38500 48.94500 20.82300
C  37.34500 47.78000 21.27000
C  36.89900 47.69300 22.74600
C  35.11800 48.50400 19.98700
C  38.81100 48.10700 20.96500
C  39.61300 47.07100 20.15000
N  36.61200 47.57900 25.74500
C  37.21900 46.60400 24.93500
C  37.70400 45.52800 25.78400
C  37.34500 45.92900 27.12500
C  36.72400 47.23400 27.02300
C  38.32000 44.24100 25.30700
C  37.50700 45.58400 28.52300
O  37.97900 44.61400 29.07600
C  36.87900 46.76000 29.29300
C  35.74200 46.19000 30.18000
O  34.62800 45.92100 29.82400
O  36.17900 46.07500 31.46500
C  35.06300 45.82400 32.39000
H  33.79700 52.63100 27.46900
H  35.01500 51.11800 21.21500
H  37.92200 45.87300 23.14300
H  34.74400 49.09200 30.28700
H  35.00900 51.95800 29.44600
H  32.43600 50.25100 29.35200
H  32.64200 51.97400 29.79000
H  33.12700 50.65000 30.87300
H  37.00400 51.15500 30.34100
H  37.58200 49.54700 30.00700
H  37.43900 50.66000 32.25700
H  37.22700 48.87700 32.17000
H  32.33800 54.73500 24.85100
H  32.59000 53.91300 26.37300
H  31.38100 53.30800 25.13000
H  32.71100 55.21100 22.70000
H  31.23700 54.19500 22.42400
H  32.14000 54.81200 21.08200
H  36.90900 49.62500 20.15200
H  37.09400 46.85800 20.74600
H  34.20600 48.63300 20.57000
H  35.15500 47.48600 19.59800
H  35.12600 49.02900 19.03300
H  39.35900 48.22900 21.90000
H  38.84200 49.12800 20.58300
H  39.06600 46.12800 20.17300
H  40.63600 46.95800 20.50800
H  39.57100 47.41200 19.11600
H  38.67600 44.31300 24.27900
H  37.55000 43.47200 25.35800
H  39.12200 43.95600 25.98800
H  37.55900 47.27300 29.97300
H  34.47300 44.94800 32.12100
H  34.27100 46.56000 32.25200
H  35.27200 45.63200 33.44300

