158

Mg 41.21300 9.04500 30.08500
C  43.13600 10.35700 32.71400
C  38.81400 7.96900 32.29500
C  39.35900 7.91700 27.47600
C  43.76400 10.02300 27.85300
N  40.99800 9.22100 32.26800
C  41.86700 9.86300 33.18300
C  41.31600 9.81700 34.64800
C  40.07100 8.78800 34.48000
C  39.94300 8.66400 32.93500
C  40.32200 7.45100 35.18800
C  41.04000 11.18800 35.24300
C  40.36100 11.23400 36.68800
H  41.05300 12.17400 37.65300
N  39.29600 8.05400 29.89900
C  38.47900 7.72800 30.95500
C  37.30600 7.13000 30.39700
C  37.38000 7.15200 28.95500
C  38.69000 7.75900 28.74100
C  36.25700 6.53400 31.33900
C  36.37600 6.67900 27.86100
O  36.66800 6.59800 26.68600
C  34.91500 6.24600 28.24900
N  41.57500 8.87700 27.99900
C  40.62100 8.46300 27.17800
C  41.00200 8.51800 25.75400
C  42.46000 9.13200 25.84400
C  42.63000 9.39000 27.31300
C  40.91900 7.29400 24.80600
C  42.72800 10.37100 24.92400
C  42.34200 11.74200 25.50300
N  43.06100 9.93600 30.19700
C  44.00600 10.22400 29.21400
C  45.08000 10.95500 29.78000
C  44.80500 11.05700 31.13600
C  43.56900 10.35900 31.37900
C  46.24000 11.54000 29.10400
C  45.15400 11.68300 32.43800
O  46.06800 12.50700 32.63700
C  44.09200 11.25000 33.52300
C  44.73400 10.48800 34.62900
O  45.36300 9.49800 34.55000
O  44.41500 11.13800 35.77700
C  44.61700 10.34500 37.05900
H  37.97400 7.78400 32.96900
H  38.79100 7.70200 26.56800
H  44.53100 10.45900 27.20900
H  42.08400 9.30800 35.23200
H  39.10500 9.14600 34.83600
H  39.75900 7.34400 36.11500
H  41.38300 7.37100 35.42400
H  40.06600 6.60700 34.54700
H  40.46900 11.86600 34.60800
H  42.00300 11.67200 35.40300
H  40.34300 10.27400 37.20500
H  39.35200 11.63500 36.59500
H  36.10600 5.50700 31.00600
H  35.32100 7.05800 31.14700
H  36.50400 6.34600 32.38300
H  34.27500 6.35700 27.37400
H  34.61600 6.73300 29.17800
H  35.13500 5.20100 28.46700
H  40.40200 9.30000 25.28800
H  43.31000 8.55600 25.47900
H  40.85900 6.36000 25.36500
H  41.81500 7.34500 24.18700
H  40.11600 7.35000 24.07100
H  42.24300 10.24800 23.95500
H  43.81200 10.42400 24.82200
H  41.47500 11.60000 26.14800
H  42.05900 12.39600 24.67900
H  43.16900 12.09200 26.12100
H  45.93700 12.23200 28.31900
H  46.80400 10.71400 28.67100
H  46.92300 12.04500 29.78700
H  43.65200 12.21200 33.78800
H  44.26900 9.31500 36.98100
H  44.20500 10.80300 37.95900
H  45.67800 10.42300 37.29800
Mg -12.92900 38.38600 42.23300
C  -11.68700 35.41100 40.85300
C  -10.32200 40.15000 40.64900
C  -14.48500 41.47500 42.79000
C  -15.49600 36.73800 43.56900
N  -11.22200 37.80700 40.79500
C  -10.89200 36.52000 40.46200
C  -9.56100 36.50100 39.66500
C  -9.04700 37.99100 39.78100
C  -10.19400 38.71500 40.56000
C  -7.69500 38.07700 40.48400
C  -9.84700 35.96800 38.18400
C  -8.79400 34.94200 37.84600
H  -7.64200 35.53900 36.89700
N  -12.47500 40.53700 41.79500
C  -11.36300 40.99000 41.15300
C  -11.36100 42.38700 41.16700
C  -12.56900 42.80400 41.68200
C  -13.28300 41.59600 42.13500
C  -10.23200 43.25800 40.60900
C  -13.07200 44.30900 41.79100
O  -12.40300 45.22900 41.38700
C  -14.29900 44.67300 42.50800
N  -14.78400 39.02300 42.81200
C  -15.02600 40.27200 43.24800
C  -16.30400 40.30700 44.16700
C  -16.49700 38.80200 44.51000
C  -15.49700 38.10700 43.59500
C  -16.24500 41.29100 45.37700
C  -17.93100 38.26200 44.25000
C  -19.11800 39.04800 44.94300
N  -13.58800 36.43800 42.23300
C  -14.60900 35.88300 42.90500
C  -14.62700 34.40200 42.66600
C  -13.39100 34.24800 41.96300
C  -12.88300 35.47600 41.63200
C  -15.69000 33.40600 42.92700
C  -12.51800 33.25600 41.38200
O  -12.62000 32.05200 41.53900
C  -11.38400 33.95700 40.52000
C  -10.10200 33.43800 41.01200
O  -9.48900 32.51400 40.48500
O  -9.73700 33.98000 42.26300
C  -8.73600 33.13500 42.94400
H  -9.43800 40.59800 40.19100
H  -15.08600 42.29100 43.19600
H  -16.28100 36.15600 44.05600
H  -8.93600 35.82800 40.25100
H  -8.94100 38.40300 38.77700
H  -7.11100 37.16600 40.35300
H  -7.83800 38.16200 41.56100
H  -7.14700 38.93600 40.09600
H  -9.72200 36.76200 37.44800
H  -10.83400 35.50800 38.14000
H  -9.31800 34.18300 37.26500
H  -8.29000 34.53600 38.72300
H  -9.28700 42.72900 40.48700
H  -9.96000 43.95900 41.39800
H  -10.51200 43.86500 39.74700
H  -15.11100 44.05300 42.12800
H  -14.54900 45.72900 42.40200
H  -14.23000 44.46400 43.57600
H  -17.06500 40.80400 43.56500
H  -16.23700 38.65000 45.55700
H  -16.58200 42.29200 45.10600
H  -15.25300 41.25200 45.82700
H  -16.89800 40.99700 46.19900
H  -17.99600 37.26300 44.68100
H  -18.02100 38.14900 43.17000
H  -18.72400 39.78400 45.64500
H  -19.78300 38.43200 45.54800
H  -19.76200 39.45300 44.16200
H  -16.39100 33.52900 42.10200
H  -16.02600 33.67600 43.92800
H  -15.25100 32.41000 42.86600
H  -11.32600 33.64000 39.47800
H  -8.55800 33.75700 43.82000
H  -7.80600 32.96100 42.40300
H  -9.19800 32.17100 43.15900

