158

Mg 0.79200 7.25400 26.90600
C  1.45400 9.14200 29.68600
C  1.19100 4.38300 28.69500
C  0.99100 5.57600 24.01300
C  1.23700 10.33500 25.06800
N  1.34500 6.87700 28.90400
C  1.29300 7.75900 29.93100
C  1.21700 7.07500 31.25400
C  1.46200 5.58800 30.93700
C  1.34500 5.60000 29.41400
C  2.80200 4.89800 31.43500
C  -0.09200 7.38400 32.03800
C  0.05300 7.70800 33.50400
H  1.26600 7.10300 34.24400
N  0.88400 5.21000 26.41800
C  1.01800 4.13500 27.30000
C  0.96800 2.87300 26.54700
C  1.00700 3.23000 25.10400
C  0.96200 4.71100 25.12600
C  0.91000 1.57900 27.35400
C  1.04900 2.36600 23.98600
O  0.91700 2.78500 22.81400
C  1.18100 0.88300 24.15100
N  0.98800 7.88500 24.79800
C  0.98100 6.97200 23.79300
C  0.89300 7.60800 22.38300
C  0.93800 9.14100 22.78800
C  0.99900 9.12200 24.33600
C  1.97300 7.22900 21.38300
C  -0.30000 10.01800 22.33500
C  -0.04900 11.12000 21.32200
N  1.09700 9.30700 27.24100
C  1.31900 10.39500 26.39200
C  1.55600 11.62000 27.22400
C  1.66500 11.15300 28.50700
C  1.40300 9.74200 28.44000
C  1.59900 13.00500 26.75200
C  1.93100 11.49900 29.90600
O  2.28300 12.59300 30.36200
C  1.62400 10.27700 30.74500
C  2.66900 10.19300 31.73000
O  3.71400 9.68100 31.63000
O  2.29200 11.06300 32.69000
C  3.33700 11.35100 33.75300
H  1.33400 3.53700 29.37000
H  1.11600 5.09100 23.04200
H  1.45200 11.21600 24.46000
H  2.10100 7.42300 31.78800
H  0.69000 4.92400 31.32600
H  3.38300 5.58100 32.05500
H  3.45800 4.66400 30.59600
H  2.54000 4.02000 32.02500
H  -0.82300 6.58500 31.91700
H  -0.63700 8.15600 31.49600
H  -0.79700 7.31800 34.06200
H  0.06500 8.78600 33.66600
H  1.10700 1.76400 28.41000
H  1.84000 1.06900 27.10600
H  0.00100 0.99500 27.20900
H  0.32300 0.48700 24.69300
H  2.16900 0.63000 24.53500
H  1.14100 0.47600 23.14000
H  -0.08000 7.33200 21.97700
H  1.87100 9.59600 22.45600
H  2.80000 6.98500 22.05000
H  2.05800 8.14200 20.79400
H  1.58100 6.39300 20.80400
H  -0.85300 10.28200 23.23600
H  -1.01800 9.31700 21.91000
H  -0.51400 10.84900 20.37400
H  1.03000 11.14400 21.16600
H  -0.49800 12.06100 21.63900
H  1.70100 12.97600 25.66700
H  2.41500 13.55100 27.22700
H  0.63800 13.47100 26.97200
H  0.68500 10.56600 31.21700
H  2.90500 11.80700 34.64400
H  3.96100 12.10200 33.27000
H  3.80500 10.41500 34.06000
Mg 46.67000 16.73100 28.06000
C  44.70700 16.12100 30.85200
C  48.91800 18.36600 29.94500
C  48.12400 17.93700 25.25100
C  44.02200 15.41100 26.01600
N  46.68000 17.28100 30.11100
C  45.79200 16.93500 31.13500
C  46.36600 17.27500 32.49200
C  47.63700 18.10800 32.13200
C  47.79400 17.85200 30.61100
C  47.73100 19.52600 32.69700
C  46.57200 16.06300 33.51000
C  45.88500 16.16300 34.87200
H  45.43100 17.59500 35.43300
N  48.50000 17.78600 27.68500
C  49.23600 18.42000 28.57900
C  50.33600 19.12600 27.96000
C  50.18900 18.95400 26.55000
C  48.93500 18.15100 26.39500
C  51.30600 19.91100 28.79900
C  50.97200 19.48200 25.33300
O  50.65300 19.24000 24.18600
C  52.11100 20.32600 25.62300
N  46.12100 16.70800 25.94800
C  46.90600 17.27900 25.01900
C  46.33400 17.04700 23.60000
C  45.31700 15.96200 23.80300
C  45.11700 16.01300 25.32700
C  45.84900 18.33800 22.94600
C  45.77700 14.53600 23.33200
C  44.71700 13.94500 22.39200
N  44.84700 15.86200 28.33100
C  43.89300 15.33200 27.41500
C  42.73700 14.87800 28.16300
C  43.09300 15.13700 29.48200
C  44.30900 15.69100 29.52200
C  41.44500 14.27300 27.57200
C  42.54200 15.06000 30.83600
O  41.42400 14.61700 31.21100
C  43.61500 15.67000 31.90200
C  42.90900 16.74300 32.63600
O  42.63800 17.83300 32.11900
O  42.57800 16.37000 33.94000
C  41.50500 17.16200 34.56700
H  49.53900 18.98100 30.60000
H  48.54100 18.31200 24.31400
H  43.22500 15.14300 25.31900
H  45.59100 17.97600 32.80100
H  48.52300 17.60500 32.51900
H  47.90200 20.10900 31.79200
H  48.53000 19.61900 33.43200
H  46.80000 19.96700 33.05400
H  47.65000 15.90400 33.52700
H  46.11000 15.21200 33.01000
H  46.45300 15.70000 35.67800
H  44.94400 15.61400 34.84400
H  51.95000 20.62500 28.28600
H  51.84300 19.19900 29.42500
H  50.70900 20.51500 29.48200
H  51.63600 21.19700 26.07600
H  52.60500 20.70200 24.72700
H  52.78100 19.80100 26.30400
H  47.02700 16.61800 22.87500
H  44.32600 16.24300 23.44600
H  46.42500 19.16000 23.37200
H  44.78200 18.49200 23.10500
H  45.98500 18.16900 21.87800
H  45.94000 14.02300 24.28000
H  46.66200 14.55500 22.69500
H  43.74500 14.43800 22.41300
H  44.51700 12.95700 22.80700
H  45.16600 13.87000 21.40200
H  41.70200 13.21800 27.48000
H  41.34200 14.60200 26.53800
H  40.56800 14.42900 28.19900
H  43.98700 14.84600 32.51000
H  41.12000 18.03800 34.04500
H  41.93800 17.63300 35.45000
H  40.64300 16.58700 34.90600

