158

Mg 42.58200 42.42000 26.53100
C  41.31900 44.77500 28.92400
C  44.09600 40.69700 29.06200
C  43.98400 40.45800 24.21600
C  41.54800 44.67200 23.95100
N  42.88000 42.86700 28.79200
C  42.06100 43.75200 29.57500
C  42.07900 43.26600 31.07900
C  43.20000 42.18900 31.09400
C  43.36300 41.82700 29.53700
C  44.51400 42.79000 31.57300
C  40.72300 42.73000 31.71100
C  40.16200 43.28800 33.01100
H  40.24600 42.44200 34.22500
N  43.64300 40.57000 26.67000
C  44.20900 40.08500 27.76700
C  44.89800 38.88800 27.37500
C  44.80500 38.78300 25.99400
C  44.04100 39.95100 25.55300
C  45.69500 38.09600 28.44800
C  45.39600 37.73300 25.04100
O  45.08700 37.71300 23.85400
C  46.39900 36.74600 25.48700
N  42.79700 42.65200 24.43500
C  43.40700 41.71500 23.70300
C  43.48400 42.18900 22.19500
C  42.33600 43.12800 22.09200
C  42.15500 43.47200 23.56800
C  44.91500 42.59300 21.66600
C  41.02800 42.53000 21.41300
C  40.19600 41.54800 22.21700
N  41.59300 44.36200 26.44300
C  41.28800 45.12300 25.28100
C  40.63900 46.31200 25.71800
C  40.42800 46.11100 27.16400
C  41.20200 44.94600 27.52400
C  40.19300 47.51200 24.97500
C  39.92000 46.79800 28.34000
O  39.42000 47.89500 28.46400
C  40.38800 45.88300 29.53200
C  41.01500 46.62900 30.64200
O  42.22400 46.82000 30.84700
O  39.99700 46.86000 31.57500
C  40.57000 47.21200 32.85000
H  44.51000 40.04500 29.83400
H  44.45900 39.87900 23.42100
H  41.30300 45.26400 23.06700
H  42.41700 44.11400 31.67500
H  43.06000 41.27800 31.67600
H  45.16600 41.92600 31.70400
H  44.39900 43.23300 32.56200
H  44.90600 43.43100 30.78400
H  40.81600 41.64400 31.73300
H  40.03300 43.02700 30.92100
H  39.09800 43.48900 32.88400
H  40.68200 44.22400 33.21700
H  45.11900 37.87500 29.34700
H  46.43400 38.82800 28.77300
H  46.32100 37.24100 28.19100
H  46.04300 36.13100 26.31400
H  47.28500 37.34700 25.69400
H  46.49100 36.14300 24.58400
H  43.23500 41.28300 21.64300
H  42.50900 44.07500 21.58000
H  45.79600 42.16500 22.14400
H  45.06600 43.66200 21.51400
H  44.96000 42.08400 20.70300
H  41.47800 42.02700 20.55700
H  40.43300 43.36500 21.04500
H  40.67700 41.41300 23.18600
H  40.10700 40.57900 21.72700
H  39.20200 41.95600 22.40300
H  40.40500 48.38500 25.59300
H  39.10600 47.54400 24.89600
H  40.61200 47.60900 23.97400
H  39.44900 45.43400 29.85600
H  41.12400 46.30700 33.09600
H  39.84700 47.47700 33.62100
H  41.29200 48.02200 32.74700
Mg 30.16500 58.47100 41.09600
C  27.31000 56.75800 40.02500
C  31.98700 56.02500 39.46100
C  32.98900 60.46300 41.15500
C  28.18800 61.14900 42.32800
N  29.67800 56.46800 40.08600
C  28.47100 56.03500 39.67500
C  28.54500 54.75800 38.84500
C  30.05500 54.38500 38.93900
C  30.63900 55.71600 39.53400
C  30.45500 53.07500 39.64600
C  28.01800 54.95500 37.39400
C  27.46000 53.76400 36.61400
H  27.80300 53.71900 35.10900
N  32.14300 58.31600 40.35700
C  32.68300 57.17900 39.73400
C  34.03900 57.38900 39.43800
C  34.35200 58.64900 39.97500
C  33.10700 59.23800 40.47900
C  34.94300 56.29100 38.84700
C  35.69000 59.29800 39.67900
O  36.71300 58.64300 39.44300
C  35.96400 60.78400 39.77700
N  30.49200 60.52900 41.63600
C  31.79600 61.08000 41.72200
C  31.66100 62.52300 41.97300
C  30.15700 62.72700 42.44400
C  29.51700 61.41000 42.12500
C  32.69600 63.07900 43.03600
C  29.39200 64.02500 41.80200
C  28.56800 64.80700 42.85500
N  28.20400 58.89800 41.27200
C  27.57600 59.98100 41.85700
C  26.15100 59.73900 41.80800
C  26.00500 58.49000 41.11000
C  27.27500 58.02000 40.83100
C  25.03400 60.64500 42.33700
C  25.05200 57.53100 40.58700
O  23.86200 57.58000 40.48300
C  25.89600 56.33500 39.90800
C  25.52100 55.15500 40.69300
O  26.03200 54.77000 41.72900
O  24.46300 54.49100 40.14900
C  23.88800 53.29400 40.80900
H  32.57500 55.16700 39.12800
H  33.82700 61.14300 41.32100
H  27.53500 61.86500 42.83300
H  27.97600 53.90400 39.21100
H  30.36100 54.25100 37.90100
H  31.21700 53.19600 40.41700
H  30.92200 52.39100 38.93700
H  29.56700 52.53900 39.98300
H  28.81000 55.45600 36.83700
H  27.17100 55.63700 37.47500
H  26.37400 53.69200 36.67200
H  27.90600 52.87900 37.06700
H  34.50900 55.86600 37.94300
H  34.99700 55.42000 39.50100
H  35.92700 56.65000 38.54700
H  35.14400 61.38000 39.37600
H  36.79800 60.94200 39.09200
H  36.29600 61.00800 40.79100
H  31.84800 62.91600 40.97300
H  30.15600 62.79100 43.53200
H  33.50500 63.50900 42.44600
H  33.06000 62.24300 43.63300
H  32.21300 63.94100 43.49800
H  28.67300 63.67600 41.06000
H  30.07900 64.78600 41.43100
H  27.54200 64.82800 42.48700
H  28.94900 65.82800 42.87900
H  28.64700 64.42400 43.87300
H  25.27000 61.68800 42.12500
H  25.29800 60.76700 43.38700
H  24.02500 60.24300 42.25100
H  25.57200 56.22400 38.87300
H  24.70500 52.79800 41.33300
H  23.57100 52.61200 40.02100
H  23.09800 53.59400 41.49900

