158

Mg 24.72000 -6.06900 45.67900
C  26.80600 -3.70700 44.39200
C  22.18200 -4.91400 43.73300
C  22.96700 -8.95000 46.33600
C  27.45800 -7.30100 47.54900
N  24.57500 -4.44700 44.17000
C  25.58800 -3.67300 43.75100
C  25.12400 -2.74200 42.52500
C  23.56300 -2.96100 42.63200
C  23.40300 -4.15700 43.53900
C  22.70000 -1.78800 43.08900
C  25.72300 -3.29000 41.19200
C  26.44700 -2.24500 40.27800
H  25.94100 -2.22200 38.76100
N  22.75200 -6.82000 45.18000
C  21.91700 -6.16700 44.38200
C  20.71800 -7.00000 44.30400
C  20.88800 -8.15100 44.98200
C  22.25600 -8.00900 45.57400
C  19.59600 -6.62300 43.30800
C  19.86900 -9.29600 45.10000
O  18.72600 -9.11400 44.62400
C  20.13600 -10.50900 45.86000
N  25.12600 -7.82900 46.78900
C  24.25700 -8.84000 46.93600
C  24.84100 -10.04000 47.75300
C  26.19000 -9.46800 48.22800
C  26.29900 -8.11900 47.47100
C  23.87800 -10.59500 48.84000
C  27.34100 -10.51000 48.09200
C  28.32200 -10.54900 49.29600
N  26.67400 -5.47100 46.19600
C  27.70200 -6.14900 46.83500
C  28.94400 -5.46500 46.61900
C  28.61800 -4.41700 45.69300
C  27.30300 -4.54500 45.45600
C  30.30400 -5.73900 47.22600
C  29.15600 -3.29500 44.99200
O  30.31100 -2.88600 44.96500
C  28.01400 -2.91600 43.96900
C  27.69300 -1.46600 44.02900
O  26.96400 -0.98000 44.84900
O  28.30100 -0.90000 42.95700
C  28.28500 0.55900 42.99900
H  21.42200 -4.41400 43.12800
H  22.41600 -9.87900 46.49900
H  28.32800 -7.80200 47.98100
H  25.41200 -1.72700 42.79900
H  23.23900 -3.43100 41.70300
H  22.18200 -2.10800 43.99300
H  22.05000 -1.43000 42.29000
H  23.27700 -0.95500 43.49100
H  24.95200 -3.80400 40.61900
H  26.47700 -4.02200 41.48300
H  27.40300 -2.76900 40.27000
H  26.50500 -1.26500 40.75100
H  20.00000 -6.05500 42.47000
H  18.70800 -6.19000 43.76800
H  19.35500 -7.55400 42.79500
H  19.23100 -11.11100 45.78800
H  20.34300 -10.27900 46.90500
H  20.95400 -11.02000 45.35200
H  24.95200 -10.74800 46.93200
H  26.07300 -9.27500 49.29400
H  23.60100 -11.59200 48.49800
H  23.02500 -9.92900 48.97100
H  24.38500 -10.63700 49.80400
H  27.87200 -10.27000 47.17100
H  26.86900 -11.48800 47.99600
H  29.34900 -10.87700 49.13800
H  27.93100 -11.16300 50.10700
H  28.34800 -9.49800 49.58400
H  30.39400 -5.27500 48.20800
H  31.05700 -5.37300 46.52800
H  30.63300 -6.76300 47.40200
H  28.27500 -3.28400 42.97700
H  28.45000 0.82400 41.95500
H  29.12500 1.03400 43.50600
H  27.34300 1.00600 43.31500
Mg 30.85000 59.21300 40.03100
C  27.81200 57.57700 38.74900
C  32.61100 56.70900 38.67700
C  33.50600 61.04800 40.63100
C  28.72300 62.04500 40.59400
N  30.21800 57.40900 38.73400
C  29.00900 56.88100 38.45600
C  29.18600 55.45500 37.98600
C  30.68700 55.08800 38.20900
C  31.22200 56.47600 38.65300
C  31.03000 53.94100 39.22500
C  28.62600 55.24600 36.56000
C  29.33700 56.06200 35.42800
H  28.41800 56.61100 34.29500
N  32.85300 58.83600 39.81200
C  33.38900 57.70500 39.28500
C  34.85900 57.81600 39.35000
C  35.13100 59.05200 40.04900
C  33.81500 59.73200 40.18600
C  35.77300 56.76400 38.76500
C  36.49900 59.47300 40.41000
O  37.43100 58.76900 40.09500
C  36.74100 60.82000 41.08700
N  31.03400 61.29900 40.50800
C  32.28800 61.74300 40.78600
C  32.18200 63.31100 40.95700
C  30.66000 63.56300 41.19400
C  30.10200 62.26800 40.71400
C  33.06300 64.01000 42.02700
C  30.16400 64.73400 40.31900
C  29.14000 65.69400 41.07600
N  28.69900 59.77800 39.79000
C  28.07800 60.94900 40.06200
C  26.68000 60.78900 39.80800
C  26.58200 59.44600 39.34500
C  27.82300 58.88100 39.30100
C  25.51500 61.72000 40.06100
C  25.61600 58.47500 38.77600
O  24.37200 58.62700 38.65900
C  26.33200 57.15400 38.39800
C  25.90400 55.93400 39.10200
O  25.47400 55.86900 40.24500
O  25.89000 54.82400 38.28600
C  25.35400 53.61200 38.96000
H  33.27400 55.97000 38.22200
H  34.36300 61.68400 40.85900
H  28.08200 62.89500 40.83500
H  28.58900 54.81200 38.63200
H  31.18500 54.83400 37.27300
H  30.21200 53.49300 39.78900
H  31.65700 54.38900 39.99500
H  31.59700 53.25400 38.59700
H  27.54800 55.39300 36.49900
H  28.83300 54.18800 36.40100
H  30.12100 55.45400 34.97700
H  29.78600 56.93200 35.90700
H  35.40600 55.78200 38.46600
H  36.45700 56.49800 39.57100
H  36.28200 57.23100 37.92200
H  37.76200 60.72300 41.45600
H  36.06100 60.93500 41.93100
H  36.59400 61.65200 40.39800
H  32.47900 63.71300 39.98800
H  30.59000 63.76200 42.26400
H  32.50500 64.70400 42.65500
H  33.82800 64.58300 41.50300
H  33.51300 63.25300 42.66900
H  29.60600 64.37200 39.45600
H  31.04000 65.20100 39.87000
H  29.57600 66.68500 41.20400
H  29.02400 65.27300 42.07400
H  28.21800 65.74000 40.49700
H  25.74400 62.72700 39.71300
H  25.17700 61.72500 41.09800
H  24.68700 61.33900 39.46400
H  26.31200 57.07800 37.31100
H  25.35400 52.95300 38.09100
H  24.33600 53.83000 39.28200
H  26.01800 53.27400 39.75500

