158

Mg 25.76300 0.53100 29.86600
C  27.65500 0.25300 32.83600
C  22.91400 0.89300 31.84200
C  23.74900 0.64400 27.15500
C  28.47700 -0.32200 27.96400
N  25.37400 0.58900 32.03600
C  26.27900 0.49800 33.08100
C  25.70500 0.76400 34.41100
C  24.18900 0.97400 34.13700
C  24.15700 0.78400 32.60000
C  23.13600 -0.10800 34.74400
C  26.38700 1.90400 35.19000
C  26.70900 1.57900 36.66200
H  26.24700 2.69700 37.60600
N  23.59400 0.73300 29.58200
C  22.60800 0.90400 30.49000
C  21.37400 1.21600 29.91800
C  21.62000 1.10700 28.52400
C  22.99500 0.88700 28.37000
C  20.14400 1.58600 30.69500
C  20.70900 1.04400 27.34800
O  21.01100 0.67900 26.18400
C  19.24400 1.33000 27.59200
N  26.12700 0.13000 27.85500
C  25.11700 0.28100 26.90200
C  25.67200 0.17400 25.44900
C  27.22000 0.08100 25.67200
C  27.31700 -0.03400 27.24000
C  25.00800 -0.99500 24.73700
C  28.08900 1.31000 25.14600
C  27.75200 2.72300 25.69600
N  27.68400 0.12100 30.25800
C  28.63900 -0.30700 29.37800
C  29.87700 -0.62800 30.21100
C  29.48300 -0.30300 31.49700
C  28.20500 0.02200 31.52000
C  31.16500 -1.04600 29.77800
C  29.99900 -0.32400 32.87100
O  31.07300 -0.70200 33.33600
C  28.87600 0.12200 33.82300
C  28.75500 -1.01900 34.74300
O  28.47700 -2.11300 34.39800
O  29.23800 -0.65100 35.95800
C  29.07000 -1.56900 37.09200
H  22.07400 1.16500 32.48500
H  23.30700 1.04600 26.24100
H  29.43400 -0.52000 27.47800
H  25.80800 -0.05800 35.11900
H  23.89500 1.99300 34.38600
H  22.28800 0.37000 35.23300
H  23.65800 -0.59500 35.56700
H  22.66400 -0.88400 34.14000
H  25.74000 2.77900 35.12100
H  27.25600 2.32100 34.68200
H  27.79300 1.59200 36.77500
H  26.35400 0.59600 36.96900
H  19.95900 2.64200 30.49600
H  20.18500 1.54700 31.78400
H  19.24600 1.04400 30.39900
H  19.21900 2.20600 28.24000
H  18.82600 0.49000 28.14700
H  18.65100 1.61600 26.72300
H  25.33700 1.14800 25.09200
H  27.65600 -0.82300 25.24700
H  24.58900 -1.67600 25.47800
H  25.81600 -1.48800 24.19600
H  24.27900 -0.75600 23.96300
H  27.95100 1.44900 24.07300
H  29.12800 0.98300 25.19100
H  28.52300 3.25500 26.25400
H  26.95500 2.71700 26.44000
H  27.47400 3.30100 24.81400
H  31.28500 -1.26900 28.71800
H  31.43300 -2.03600 30.14600
H  31.90900 -0.29600 30.04400
H  29.06800 1.01900 34.41200
H  28.21100 -1.27800 37.69500
H  30.00100 -1.61200 37.65700
H  28.84700 -2.59200 36.78600
Mg 47.54400 34.65100 27.94200
C  45.96000 32.76500 30.41700
C  48.18600 37.12000 30.13200
C  48.66400 36.51100 25.32500
C  46.72200 32.09900 25.62000
N  47.09700 34.90400 30.07400
C  46.34300 34.05100 30.85100
C  46.72800 34.42000 32.27300
C  47.20500 35.95900 32.18100
C  47.51400 35.99500 30.68900
C  46.10200 36.99600 32.63600
C  47.87400 33.50500 32.78100
C  47.93500 33.42000 34.35800
H  46.98800 34.35400 35.14900
N  48.36300 36.57100 27.76400
C  48.64700 37.44500 28.80700
C  49.28000 38.63700 28.31000
C  49.49600 38.45100 26.88400
C  48.84100 37.11200 26.58200
C  49.71300 39.73700 29.24600
C  50.08400 39.42600 25.84300
O  50.45100 39.02600 24.73400
C  50.46500 40.86500 26.30000
N  47.62100 34.34600 25.79000
C  48.27700 35.22800 24.99000
C  48.41900 34.71700 23.51700
C  47.76800 33.22700 23.68600
C  47.42500 33.22700 25.12300
C  47.83400 35.63900 22.41000
C  48.75800 32.13500 23.22600
C  48.23500 31.13100 22.22000
N  46.54800 32.85800 27.96900
C  46.31400 31.89100 26.94900
C  45.69500 30.73000 27.47800
C  45.46500 30.99200 28.84800
C  46.11900 32.27700 29.06000
C  45.32900 29.55100 26.60500
C  44.86700 30.52200 30.07100
O  44.16000 29.50900 30.30900
C  45.03400 31.74600 31.00100
C  45.01900 31.31400 32.39700
O  45.86000 30.68900 33.02500
O  43.82300 31.62600 33.01600
C  43.63600 31.36500 34.43200
H  48.44000 37.84900 30.90500
H  49.14400 37.07700 24.52300
H  46.42700 31.29800 24.93800
H  45.83400 34.34500 32.89300
H  47.98000 36.14800 32.92400
H  45.14400 36.51100 32.82300
H  46.13700 37.79900 31.90000
H  46.46300 37.49100 33.53800
H  48.82100 33.91500 32.43100
H  47.65400 32.48300 32.47300
H  48.97700 33.67400 34.55700
H  47.75000 32.37300 34.59600
H  50.72400 39.65000 29.64500
H  49.04200 39.70200 30.10400
H  49.54000 40.74600 28.87100
H  51.38600 40.79100 26.87800
H  49.62200 41.36800 26.77400
H  50.55200 41.42500 25.36900
H  49.50800 34.70900 23.46100
H  46.89500 33.14300 23.03800
H  48.63200 35.89400 21.71300
H  47.41900 36.53200 22.87600
H  46.99000 35.24600 21.84300
H  49.09200 31.51400 24.05700
H  49.62500 32.54700 22.71000
H  48.93200 30.72700 21.48500
H  47.46000 31.70100 21.70800
H  47.85600 30.36100 22.89200
H  46.21300 29.13700 26.12000
H  44.67400 29.86900 25.79300
H  44.88900 28.81000 27.27300
H  44.14300 32.37300 30.95400
H  42.61200 31.04300 34.62500
H  43.89200 32.22900 35.04500
H  44.34200 30.65200 34.85900

