158

Mg 25.93100 1.17800 29.84000
C  27.94600 0.88200 32.83400
C  23.23700 1.38600 31.85000
C  24.08600 1.05000 27.09400
C  28.73400 0.36100 28.00500
N  25.71200 1.24500 32.13500
C  26.62700 1.05100 33.14800
C  25.97100 1.14200 34.57500
C  24.47000 1.23900 34.15600
C  24.38700 1.17200 32.62100
C  23.55300 0.17200 34.84200
C  26.56000 2.31400 35.44800
C  26.74600 1.93500 36.94700
H  26.49700 3.10600 37.84200
N  23.89100 1.32100 29.54800
C  22.93300 1.37600 30.52500
C  21.61300 1.53800 29.93600
C  21.84300 1.37100 28.54200
C  23.33500 1.24600 28.32900
C  20.44900 1.74400 30.83000
C  20.82400 1.29100 27.42600
O  21.26500 1.02300 26.27700
C  19.41600 1.61100 27.66400
N  26.28100 0.65700 27.89900
C  25.37500 0.84600 26.88400
C  25.99700 0.62700 25.48600
C  27.52100 0.55500 25.85200
C  27.50500 0.53900 27.39500
C  25.51400 -0.73200 24.84600
C  28.41200 1.76600 25.39200
C  29.82900 1.32800 25.02700
N  27.92200 0.76200 30.28700
C  28.94400 0.45200 29.41900
C  30.15800 0.18500 30.13000
C  29.77500 0.38000 31.44300
C  28.43000 0.73300 31.51800
C  31.47500 -0.24700 29.67100
C  30.28000 0.30600 32.79500
O  31.43100 -0.04700 33.17500
C  29.08800 0.76400 33.70700
C  28.94700 -0.35000 34.68700
O  28.47200 -1.44800 34.47300
O  29.39000 0.07400 35.94200
C  29.25400 -1.02400 36.94600
H  22.34600 1.32300 32.47900
H  23.52900 0.98500 26.15700
H  29.58900 0.12500 27.36900
H  26.20200 0.21000 35.09100
H  24.06700 2.22900 34.37100
H  22.86500 -0.29300 34.13600
H  22.93100 0.65700 35.59400
H  24.17800 -0.60000 35.28900
H  25.74200 3.03400 35.49100
H  27.37700 2.86900 34.98800
H  27.79500 1.69300 37.11400
H  26.18100 1.02900 37.16900
H  20.64000 2.53300 31.55700
H  20.17500 0.87500 31.42900
H  19.52200 2.00800 30.32100
H  19.02900 0.85500 28.34700
H  18.94400 1.53200 26.68500
H  19.23200 2.61800 28.03900
H  25.86700 1.45800 24.79300
H  27.94700 -0.41800 25.60900
H  24.77200 -1.22300 25.47600
H  26.26800 -1.50700 24.70800
H  25.15400 -0.60600 23.82500
H  28.64400 2.49900 26.16600
H  27.85600 2.35100 24.65900
H  29.97800 1.48200 23.95900
H  30.05500 0.30200 25.31700
H  30.49800 1.98500 25.58500
H  32.07500 -0.18600 30.57900
H  31.90000 0.41100 28.91300
H  31.42500 -1.28900 29.35600
H  29.13400 1.72300 34.22200
H  29.75800 -0.62700 37.82700
H  29.73500 -1.92200 36.55800
H  28.22700 -1.27600 37.21100
Mg 36.03000 48.80100 24.71900
C  36.39400 47.06500 27.67000
C  34.91200 51.53200 26.56000
C  35.50400 50.60600 21.85100
C  37.20300 46.07100 22.93400
N  35.82000 49.26200 26.93800
C  35.83500 48.30400 27.92900
C  35.49900 48.91100 29.27400
C  34.78500 50.28200 28.89800
C  35.13300 50.36600 27.34400
C  33.31000 50.36200 29.25700
C  36.82800 49.15800 30.03200
C  36.75300 48.78200 31.50200
H  35.37500 48.81900 32.18400
N  35.29500 50.74500 24.28400
C  34.97800 51.72600 25.20300
C  34.55300 52.89000 24.45900
C  34.74400 52.69200 23.05500
C  35.21300 51.27400 22.98400
C  33.97700 54.14600 25.15400
C  34.38600 53.56100 21.83100
O  34.42000 53.16800 20.65400
C  33.93700 54.97200 22.06800
N  36.11300 48.36300 22.73000
C  35.86700 49.18600 21.69500
C  36.26300 48.55400 20.33900
C  37.01000 47.28200 20.78800
C  36.79100 47.26700 22.28600
C  34.99200 48.35000 19.45700
C  38.46300 47.14800 20.33200
C  39.46900 47.94000 21.20500
N  36.62200 46.90000 25.12600
C  37.10400 45.90200 24.32600
C  37.49500 44.82200 25.18900
C  37.31700 45.18000 26.52600
C  36.76900 46.51600 26.44900
C  38.13100 43.53200 24.78000
C  37.43400 44.78700 27.89400
O  37.77600 43.74300 28.45300
C  36.88500 46.03900 28.66100
C  35.84300 45.52800 29.50800
O  34.72200 45.16700 29.03000
O  36.25700 45.30500 30.77100
C  35.27300 44.59700 31.55700
H  34.55200 52.37800 27.15000
H  35.42500 51.03700 20.85000
H  37.60400 45.20800 22.39900
H  34.77000 48.24700 29.73900
H  35.37200 51.09800 29.32000
H  33.08700 51.28800 29.78700
H  32.86600 49.60100 29.89800
H  32.72800 50.30700 28.33700
H  37.27400 50.14100 29.88700
H  37.54900 48.49200 29.55700
H  37.18000 49.64500 32.01300
H  37.20100 47.83300 31.79600
H  33.38000 53.84300 26.01400
H  33.34000 54.69600 24.46200
H  34.75800 54.79900 25.54200
H  32.93300 55.02300 22.48900
H  33.87000 55.51900 21.12800
H  34.63600 55.48800 22.72600
H  36.95800 49.25500 19.87700
H  36.39400 46.53400 20.28800
H  34.39900 47.49700 19.78700
H  35.16200 48.20500 18.39000
H  34.40200 49.26100 19.55800
H  38.62600 47.57300 19.34200
H  38.61900 46.07000 20.32900
H  40.44000 47.46000 21.32800
H  39.05000 48.07600 22.20200
H  39.61000 48.88700 20.68400
H  37.22300 42.93700 24.68100
H  38.84000 43.12700 25.50200
H  38.67000 43.69700 23.84600
H  37.76900 46.34800 29.21800
H  35.72400 43.98100 32.33600
H  34.71600 43.89400 30.93900
H  34.61400 45.35200 31.98700

