158

Mg 1.09100 7.67900 25.52000
C  1.76800 9.72600 28.22500
C  0.98800 4.97700 27.59400
C  0.53300 5.72200 22.85800
C  1.32400 10.45500 23.43800
N  1.27000 7.39200 27.64400
C  1.53500 8.34500 28.58700
C  1.65500 7.76000 29.98900
C  1.59800 6.18700 29.66600
C  1.19500 6.15100 28.25500
C  2.93000 5.42900 29.92300
C  0.50700 8.17200 30.91900
C  0.62100 7.91900 32.47800
H  1.90500 7.28800 33.04400
N  0.86800 5.66500 25.24400
C  0.82400 4.66200 26.23900
C  0.41500 3.37300 25.67700
C  0.51500 3.60400 24.23700
C  0.65600 5.03500 24.07600
C  0.22000 2.07600 26.38300
C  0.46500 2.69000 23.05500
O  0.80000 2.99300 21.88400
C  0.25700 1.19200 23.40500
N  1.20900 8.08500 23.38500
C  0.83100 7.11000 22.47100
C  0.53100 7.61800 21.06100
C  0.75000 9.17700 21.27300
C  1.10000 9.29000 22.77900
C  1.36500 7.00700 19.88600
C  -0.32100 10.21600 20.80200
C  0.18700 11.01100 19.49800
N  1.55000 9.68100 25.71000
C  1.55900 10.71800 24.83100
C  1.77400 12.00800 25.52400
C  1.95000 11.57400 26.81000
C  1.72000 10.23200 26.91600
C  1.73900 13.38400 24.96000
C  2.29100 12.11400 28.10200
O  2.64100 13.20800 28.40800
C  1.95400 10.95700 29.12600
C  3.04000 10.88100 30.08400
O  4.19700 10.44000 29.87100
O  2.64300 11.42100 31.27400
C  3.67700 11.38200 32.26800
H  0.89600 4.06400 28.18600
H  0.03500 5.27200 21.99600
H  1.12000 11.26400 22.73300
H  2.60100 8.02000 30.46500
H  0.91300 5.74500 30.38900
H  2.85600 4.65200 30.68400
H  3.67900 6.13300 30.28600
H  3.38200 4.97600 29.04000
H  -0.34200 7.65300 30.47400
H  0.33300 9.23900 30.78000
H  -0.19300 7.24900 32.75300
H  0.54100 8.89400 32.95800
H  -0.63700 1.75200 25.79300
H  -0.12800 2.04600 27.41600
H  1.03800 1.36300 26.27600
H  1.08000 0.81300 24.01100
H  0.41200 0.71800 22.43500
H  -0.75500 0.88500 23.66800
H  -0.52300 7.48800 20.81300
H  1.67500 9.44600 20.76300
H  2.34500 6.69600 20.24800
H  1.61500 7.71700 19.09800
H  0.92500 6.08400 19.50900
H  -0.45100 10.90600 21.63600
H  -1.22700 9.65300 20.57700
H  -0.59700 11.68500 19.15100
H  0.57900 10.33500 18.73900
H  0.99700 11.71300 19.69800
H  0.75700 13.78900 25.20400
H  1.79600 13.34400 23.87300
H  2.56200 14.01200 25.30200
H  0.97000 11.24700 29.49500
H  3.52700 11.96200 33.17800
H  4.57800 11.71500 31.75100
H  3.74200 10.35400 32.62300
Mg 36.26400 49.78200 24.60000
C  36.15500 48.24200 27.67300
C  34.98200 52.65700 25.91400
C  36.05100 51.23800 21.43300
C  37.07100 46.75800 23.16300
N  35.73900 50.34800 26.55000
C  35.73600 49.56800 27.70400
C  35.36800 50.38300 28.96900
C  34.89400 51.82800 28.36100
C  35.14600 51.64300 26.84600
C  33.43500 52.22600 28.65200
C  36.62400 50.50700 29.82700
C  36.49600 49.90100 31.21200
H  35.36900 50.23500 32.19900
N  35.77100 51.74700 23.85800
C  35.26800 52.79200 24.53800
C  35.01100 53.91200 23.68000
C  35.12200 53.43400 22.36500
C  35.65200 52.02700 22.52900
C  34.46900 55.20400 24.26300
C  34.86500 54.04700 20.97800
O  35.11400 53.51000 19.89800
C  34.23600 55.41100 20.98500
N  36.48800 49.04800 22.59800
C  36.43600 49.88800 21.48000
C  36.73700 49.12000 20.19200
C  37.16900 47.63300 20.74300
C  36.82600 47.76000 22.26400
C  35.57300 48.97100 19.12800
C  38.64300 47.22400 20.53300
C  39.76300 48.19100 20.82400
N  36.62700 47.80600 25.26100
C  36.95500 46.70100 24.55700
C  37.20500 45.60600 25.48400
C  36.91100 46.15700 26.74300
C  36.53700 47.51500 26.55400
C  37.64800 44.16500 25.16800
C  36.80800 45.93400 28.17600
O  37.15400 45.00800 28.87300
C  36.25600 47.23900 28.83200
C  35.03200 46.91600 29.62400
O  33.90800 47.01600 29.23300
O  35.40200 46.50400 30.91000
C  34.19200 46.27600 31.74200
H  34.49800 53.49300 26.42300
H  35.92500 51.54400 20.39200
H  37.54300 45.90400 22.67400
H  34.54700 49.89400 29.49500
H  35.57900 52.60900 28.69100
H  32.92400 52.29600 27.69200
H  33.51800 53.17100 29.18900
H  32.96700 51.38800 29.16900
H  36.93600 51.55000 29.87000
H  37.53600 50.05600 29.43400
H  37.44500 50.29200 31.57800
H  36.67100 48.82600 31.18100
H  35.13800 56.02200 23.99400
H  34.37300 55.18300 25.34900
H  33.51200 55.36800 23.76700
H  33.21400 55.13500 21.24300
H  34.19900 55.89000 20.00600
H  34.70400 56.07900 21.70800
H  37.56500 49.61200 19.68300
H  36.56100 46.86900 20.25800
H  34.62200 49.33700 19.51400
H  35.31800 47.93500 18.90200
H  35.93300 49.54700 18.27600
H  38.75100 47.07000 19.45900
H  38.88200 46.25700 20.97600
H  40.51600 48.23900 20.03700
H  40.28700 47.71000 21.65000
H  39.38700 49.20500 20.96100
H  36.92700 43.53300 24.65100
H  37.92600 43.77800 26.14900
H  38.49900 44.33100 24.50700
H  37.12700 47.48700 29.43900
H  34.13300 45.19200 31.83700
H  33.23400 46.67000 31.40200
H  34.43900 46.64600 32.73700

