158

Mg 17.52600 -1.25100 28.22500
C  16.19000 0.94400 30.70300
C  19.42300 -2.74500 30.55900
C  19.04500 -2.88600 25.65200
C  15.90100 0.79800 25.83500
N  17.74500 -0.87600 30.35400
C  17.02800 -0.08900 31.20500
C  17.34800 -0.28000 32.73100
C  18.46000 -1.43000 32.57800
C  18.52300 -1.74300 31.07600
C  19.88200 -1.10900 33.14300
C  16.12500 -0.74800 33.53000
C  16.00900 -0.42700 34.98500
H  17.07000 0.48200 35.72500
N  18.99500 -2.64800 28.14000
C  19.63200 -3.20600 29.23200
C  20.25900 -4.40700 28.83600
C  20.31000 -4.38600 27.38100
C  19.44600 -3.28700 26.96700
C  20.68000 -5.46500 29.83800
C  20.97000 -5.33700 26.39500
O  20.94500 -5.25600 25.14200
C  21.89800 -6.48500 26.99900
N  17.39700 -1.14100 26.00600
C  18.19300 -1.87200 25.18000
C  18.07100 -1.42300 23.68700
C  17.01300 -0.25200 23.81900
C  16.72700 -0.20600 25.36300
C  19.40000 -1.10000 22.86700
C  15.73100 -0.40700 22.98700
C  14.54600 -1.28200 23.50400
N  16.17100 0.38300 28.19000
C  15.64200 1.12300 27.16300
C  14.91500 2.26600 27.66800
C  15.14600 2.21800 29.08100
C  15.91600 1.11100 29.32500
C  14.09800 3.28900 26.74200
C  14.82900 2.87000 30.33800
O  14.03800 3.81300 30.54100
C  15.57300 2.11700 31.48800
C  16.53200 2.98600 32.20500
O  17.79400 2.97500 32.10300
O  15.83900 3.73500 33.11500
C  16.59800 4.66500 33.92500
H  19.95600 -3.14300 31.42500
H  19.55600 -3.40600 24.83800
H  15.43500 1.45000 25.09200
H  17.78100 0.59600 33.21300
H  18.22700 -2.30300 33.18600
H  19.88900 -0.07200 33.47700
H  20.74200 -1.35700 32.52000
H  20.07700 -1.63500 34.07800
H  16.09900 -1.83600 33.58900
H  15.22700 -0.28600 33.11900
H  15.87500 -1.31500 35.60300
H  15.08400 0.13200 35.13000
H  21.76400 -5.57400 29.78600
H  20.19600 -6.38900 29.52300
H  20.38600 -5.37200 30.88300
H  22.25300 -7.06000 26.14400
H  21.24200 -7.16000 27.54800
H  22.66000 -6.02800 27.63100
H  17.51300 -2.22500 23.20500
H  17.50000 0.66200 23.47800
H  19.26500 -0.13500 22.37900
H  19.55700 -1.82000 22.06300
H  20.15700 -0.99400 23.64500
H  15.97600 -0.89700 22.04500
H  15.47200 0.59100 22.63600
H  13.83900 -0.62700 24.01300
H  14.92600 -1.99700 24.23400
H  14.18700 -1.85900 22.65200
H  14.75300 3.77500 26.01800
H  13.81700 4.00500 27.51400
H  13.24500 2.78600 26.28700
H  14.80100 1.73100 32.15400
H  16.84300 4.20700 34.88300
H  15.85900 5.43000 34.16100
H  17.52200 5.02100 33.46900
Mg 9.56100 48.07000 26.18000
C  7.74300 48.25100 29.23100
C  12.41600 49.04600 27.77900
C  11.16700 47.99400 23.19400
C  6.54500 47.57800 24.54400
N  10.00900 48.61300 28.28700
C  9.15400 48.50600 29.32500
C  9.95400 48.86700 30.67300
C  11.23000 49.56300 30.14200
C  11.24300 49.06900 28.67200
C  11.27600 51.10700 30.11300
C  10.22000 47.63600 31.57700
C  10.03500 47.95400 33.10000
H  10.14200 46.76600 34.08300
N  11.54200 48.37300 25.64800
C  12.61500 48.74800 26.39700
C  13.77500 48.72700 25.60400
C  13.44300 48.37000 24.26300
C  11.93800 48.19800 24.33800
C  15.18600 48.99300 26.18700
C  14.36400 48.16100 23.01900
O  13.96100 47.87700 21.88500
C  15.80000 48.37200 23.18500
N  8.92800 48.05400 24.13400
C  9.76800 48.05800 23.05500
C  9.08400 47.77200 21.67400
C  7.68800 47.25500 22.21600
C  7.69500 47.59400 23.77800
C  8.89400 49.06200 20.80700
C  7.36800 45.77400 21.93000
C  6.51100 45.35400 20.72200
N  7.53600 47.85200 26.73000
C  6.42400 47.73200 25.90900
C  5.29500 47.45700 26.77100
C  5.74400 47.85200 28.05000
C  7.12400 47.95600 27.99900
C  3.98600 46.90400 26.39500
C  5.33900 47.95000 29.43300
O  4.24400 47.94700 29.97900
C  6.65700 48.11000 30.29500
C  6.77800 46.78900 30.96100
O  6.91500 45.69700 30.36000
O  6.57600 46.89300 32.30500
C  6.38000 45.60000 32.97600
H  13.27400 49.49800 28.28200
H  11.65300 47.75600 22.24500
H  5.63400 47.17400 24.09800
H  9.53000 49.66300 31.28500
H  12.14100 49.09200 30.51100
H  12.04600 51.57300 30.72900
H  10.34300 51.56200 30.44400
H  11.51800 51.37400 29.08400
H  11.23900 47.27400 31.43800
H  9.42100 46.91200 31.41800
H  8.98400 48.24300 33.13500
H  10.68400 48.73700 33.49200
H  15.09900 49.15900 27.26100
H  15.80800 49.77800 25.75700
H  15.81100 48.11600 26.02200
H  16.06200 49.25200 23.77400
H  16.22500 48.51200 22.19100
H  16.12300 47.48600 23.73300
H  9.54300 46.95700 21.11500
H  6.93600 47.89400 21.75200
H  9.70900 49.02000 20.08500
H  9.02700 49.84000 21.55900
H  7.92000 49.20800 20.33900
H  7.00300 45.43200 22.89800
H  8.30900 45.26500 21.71900
H  6.21100 46.28400 20.23800
H  5.64400 44.72600 20.92600
H  7.14800 44.88800 19.97100
H  3.93000 46.40100 25.43000
H  3.19500 47.65300 26.36800
H  3.74800 46.15300 27.14800
H  6.61000 48.91400 31.03000
H  6.12000 45.91100 33.98800
H  7.26300 44.96200 32.95800
H  5.46900 45.16100 32.56900

