158

Mg 47.87500 25.30000 29.19800
C  48.34600 27.56000 31.77400
C  46.69800 22.98300 31.51200
C  47.63900 23.02500 26.68700
C  49.56200 27.50300 27.02900
N  47.46400 25.30400 31.35900
C  47.67500 26.39400 32.22800
C  47.25700 26.12300 33.68700
C  46.83700 24.59200 33.59700
C  47.01900 24.21100 32.08000
C  47.53900 23.68900 34.61200
C  46.11700 27.07600 34.21700
C  46.34200 27.85400 35.52200
H  46.77300 27.22800 36.89500
N  47.15400 23.27800 29.13500
C  46.71900 22.50100 30.19100
C  46.31500 21.15000 29.70200
C  46.59400 21.19700 28.29400
C  47.10700 22.59400 27.95100
C  45.65200 20.12800 30.53400
C  46.38600 20.05200 27.24500
O  46.81400 20.02500 26.08900
C  45.67400 18.80300 27.64000
N  48.60000 25.23400 27.13000
C  48.28700 24.19700 26.31300
C  48.82300 24.39300 24.90200
C  49.27700 25.98900 24.93000
C  49.14600 26.30200 26.43400
C  49.90200 23.39500 24.40900
C  48.41200 26.98000 24.17300
C  49.23300 27.97700 23.41500
N  48.84900 27.13600 29.31800
C  49.39100 27.91300 28.31700
C  49.90800 29.05100 28.89300
C  49.48000 29.04800 30.26800
C  48.78300 27.83300 30.42600
C  50.62300 30.04100 28.03900
C  49.47000 29.81200 31.57400
O  49.93100 30.92800 31.81100
C  48.71200 28.89100 32.52400
C  49.46100 28.80000 33.77600
O  50.43500 28.14700 34.01900
O  48.97600 29.68800 34.68800
C  49.76800 29.88700 35.88400
H  46.35300 22.25800 32.25200
H  47.32300 22.38400 25.86100
H  50.05900 28.16100 26.31400
H  48.14100 26.25900 34.31100
H  45.77700 24.48600 33.83100
H  48.11500 24.08800 35.44700
H  48.30900 23.18600 34.02700
H  46.83100 22.93900 34.96300
H  45.14600 26.58500 34.28800
H  46.06300 27.85300 33.45500
H  45.41200 28.27200 35.90700
H  46.93400 28.75100 35.33900
H  46.29000 19.24400 30.53900
H  44.80300 19.70100 30.00100
H  45.34900 20.45100 31.53000
H  44.63000 18.92100 27.93000
H  46.23600 18.20800 28.36000
H  45.64900 18.17600 26.74800
H  47.97600 24.28900 24.22400
H  50.34400 25.99400 24.70800
H  50.85600 23.92000 24.38600
H  49.67700 22.85000 23.49100
H  50.00500 22.58600 25.13200
H  47.79900 27.56600 24.85700
H  47.76500 26.58900 23.38800
H  49.21900 27.78700 22.34200
H  50.23300 27.91500 23.84400
H  48.89000 28.99400 23.60900
H  50.76500 30.90300 28.69100
H  49.93000 30.30400 27.24000
H  51.51600 29.54500 27.65800
H  47.76500 29.37100 32.77000
H  49.43500 30.82900 36.31900
H  50.85500 29.81000 35.93200
H  49.53200 29.09800 36.59800
Mg 9.44500 47.97500 26.60400
C  7.57000 47.71900 29.51700
C  12.11600 49.28500 28.45700
C  11.20100 48.14800 23.80500
C  6.52900 47.44000 24.69700
N  9.73200 48.48500 28.76800
C  8.91300 48.16300 29.77300
C  9.47600 48.64200 31.21500
C  10.85400 49.32200 30.76500
C  10.89200 49.06600 29.20100
C  10.93800 50.84200 30.90900
C  9.64700 47.47700 32.31100
C  9.12300 47.67100 33.77900
H  9.37100 46.47100 34.80100
N  11.37000 48.57800 26.15700
C  12.33800 49.03300 27.06400
C  13.55900 49.13000 26.34000
C  13.36400 48.75100 24.98700
C  11.94500 48.48800 24.94400
C  14.83400 49.63100 27.09000
C  14.39900 48.57700 23.87300
O  14.04900 48.16100 22.74900
C  15.82600 48.71100 24.19200
N  8.90200 48.00000 24.54000
C  9.84300 47.93200 23.61600
C  9.29500 47.48400 22.24500
C  7.72400 47.41700 22.43400
C  7.68500 47.63600 23.96000
C  9.65000 48.35500 21.04300
C  7.01400 46.14900 21.82800
C  6.81600 44.90300 22.75500
N  7.44100 47.59800 26.97100
C  6.35600 47.49200 26.10500
C  5.16800 47.15500 26.90300
C  5.65200 47.24800 28.26200
C  6.97400 47.57600 28.21900
C  3.81400 46.91900 26.38500
C  5.26100 47.07100 29.62200
O  4.17700 46.86600 30.15400
C  6.48300 47.29000 30.51700
C  6.73900 45.99400 31.21900
O  7.25200 44.99500 30.78300
O  6.36000 46.15700 32.51400
C  6.22900 44.87500 33.17700
H  13.04600 49.58600 28.94400
H  11.81800 47.89600 22.93900
H  5.70000 47.12700 24.05900
H  8.92000 49.46700 31.66000
H  11.73600 48.89600 31.24300
H  11.95000 51.20500 30.72600
H  10.56500 51.08500 31.90400
H  10.12300 51.29900 30.34800
H  10.72500 47.31600 32.33400
H  9.21200 46.59900 31.83300
H  8.03400 47.63800 33.83300
H  9.42100 48.64100 34.17600
H  15.37100 48.73700 27.40800
H  14.63500 50.32300 27.90800
H  15.66000 50.07800 26.53600
H  16.30400 48.50000 23.23500
H  16.21400 47.94100 24.85800
H  16.01200 49.71400 24.57600
H  9.70200 46.48600 22.07800
H  7.20700 48.22500 21.91600
H  9.97600 49.33300 21.39700
H  8.73300 48.45700 20.46300
H  10.51200 47.92600 20.53300
H  7.56800 45.89300 20.92500
H  6.03500 46.54800 21.56200
H  7.45100 44.89000 23.64100
H  6.98600 43.90400 22.35200
H  5.75200 44.88900 22.98800
H  3.25800 47.85400 26.45600
H  3.29000 46.23000 27.04800
H  3.95200 46.65900 25.33500
H  6.24200 48.08200 31.22500
H  6.82800 44.01600 32.87400
H  5.19700 44.52700 33.12800
H  6.54700 45.12400 34.18900

