158

Mg 23.90000 -5.58400 45.66500
C  26.49300 -3.57100 44.42100
C  21.67100 -3.89400 43.60500
C  21.83800 -8.25800 45.86600
C  26.43700 -7.50000 47.35500
N  24.09300 -3.88000 44.36400
C  25.21800 -3.16600 43.96900
C  24.86100 -2.07200 42.90400
C  23.37900 -1.88600 43.20300
C  23.01400 -3.29300 43.77100
C  23.03500 -0.76400 44.23700
C  25.12900 -2.56800 41.44600
C  25.45900 -1.41000 40.52300
H  24.73600 -1.26400 39.17300
N  21.95500 -5.96000 44.88400
C  21.22800 -5.15400 44.05600
C  19.99000 -5.79600 43.66600
C  20.00800 -7.08400 44.32700
C  21.26600 -7.16300 45.10800
C  19.02500 -5.20000 42.68500
C  18.89300 -8.05100 44.36400
O  17.87000 -7.78800 43.67300
C  18.81300 -9.18900 45.35900
N  24.09400 -7.53500 46.64000
C  23.08500 -8.46900 46.50900
C  23.46200 -9.72900 47.31300
C  24.96200 -9.48200 47.75400
C  25.17600 -8.07700 47.23100
C  22.52500 -10.17200 48.52100
C  25.97700 -10.46400 47.11600
C  25.66600 -11.93100 47.33900
N  25.95700 -5.46200 46.03200
C  26.84700 -6.32700 46.67300
C  28.19900 -5.82300 46.52700
C  28.09900 -4.73300 45.69700
C  26.75000 -4.59100 45.35900
C  29.35900 -6.46600 47.13600
C  28.83500 -3.78000 44.95700
O  30.04900 -3.52500 45.02600
C  27.78300 -2.91300 44.10200
C  27.82400 -1.45400 44.45300
O  27.33600 -0.92300 45.42000
O  28.41300 -0.82200 43.41400
C  28.20600 0.66800 43.43500
H  21.05000 -3.32800 42.90700
H  21.22300 -9.15800 45.93800
H  27.14400 -8.11000 47.92200
H  25.42700 -1.16200 43.10500
H  22.74700 -1.58100 42.37000
H  22.67200 -1.24700 45.14400
H  22.27000 -0.13900 43.77600
H  23.94600 -0.22100 44.48900
H  24.25700 -3.02100 40.97500
H  25.93700 -3.29900 41.43100
H  26.52300 -1.57400 40.34800
H  25.34000 -0.50800 41.12400
H  19.52600 -4.49700 42.01900
H  18.30500 -4.63100 43.27300
H  18.46500 -5.92600 42.09700
H  17.73700 -9.36200 45.36800
H  19.09000 -8.83100 46.35100
H  19.36100 -10.06400 45.01000
H  23.39000 -10.53200 46.58000
H  25.07900 -9.48100 48.83700
H  21.59500 -9.60300 48.52100
H  23.03100 -10.04100 49.47700
H  22.35300 -11.24800 48.55200
H  26.91700 -10.16700 47.58200
H  25.97100 -10.15300 46.07200
H  26.47500 -12.34800 47.93900
H  25.38100 -12.47800 46.44000
H  24.80300 -11.98200 48.00300
H  29.17300 -6.91600 48.11100
H  30.22100 -5.80200 47.21000
H  29.77900 -7.29800 46.56900
H  27.87300 -3.05700 43.02600
H  28.83800 1.05400 44.23500
H  27.14000 0.76100 43.64700
H  28.40800 1.19300 42.50100
Mg 36.17800 48.42100 26.55300
C  36.40600 46.26900 29.40200
C  34.47400 50.68400 28.48300
C  35.46800 50.11500 23.69200
C  37.09600 45.62200 24.62300
N  35.36300 48.31600 28.61500
C  35.64600 47.46800 29.67900
C  35.36700 48.14500 31.06100
C  34.46800 49.39000 30.62500
C  34.76400 49.50500 29.12300
C  32.92700 49.24700 30.97200
C  36.74900 48.54700 31.78300
C  36.78500 48.33400 33.28900
H  36.52200 49.55600 34.12900
N  35.31100 50.25100 26.16700
C  34.64000 50.98100 27.11800
C  34.12000 52.16700 26.39500
C  34.39800 51.97500 25.05300
C  35.09300 50.73100 24.94300
C  33.45800 53.35600 27.12500
C  34.04000 52.92900 23.80600
O  34.28600 52.63900 22.64200
C  33.23000 54.16300 23.98200
N  36.27700 47.92400 24.39200
C  35.98100 48.85600 23.44600
C  36.05500 48.19600 22.05100
C  36.92900 46.88100 22.36700
C  36.79600 46.77400 23.92200
C  34.64700 47.95700 21.44900
C  38.36900 46.80500 21.80200
C  38.55800 45.84300 20.70500
N  36.76500 46.43000 26.82400
C  37.14800 45.35100 25.96000
C  37.51900 44.19900 26.62200
C  37.37700 44.50200 27.98600
C  36.85600 45.86200 28.09000
C  37.97600 42.91600 26.10200
C  37.51600 44.04200 29.37800
O  37.84700 42.94300 29.68500
C  37.07000 45.23900 30.31800
C  36.12300 44.72200 31.34100
O  34.95300 44.47000 31.10600
O  36.65400 44.73600 32.64700
C  35.55900 44.50100 33.66000
H  33.97500 51.44000 29.09200
H  35.06200 50.49000 22.75000
H  37.45300 44.82300 23.96900
H  34.76400 47.40100 31.58200
H  34.79900 50.28800 31.14500
H  32.70700 48.23800 31.32200
H  32.39500 49.38600 30.03100
H  32.57200 49.97600 31.70100
H  37.05100 49.57000 31.56200
H  37.49700 47.91700 31.30100
H  37.74500 47.88900 33.55300
H  36.06300 47.59200 33.63100
H  33.91100 54.31200 26.86200
H  33.49800 53.23400 28.20800
H  32.41200 53.31900 26.82200
H  32.36600 53.93300 24.60500
H  32.91200 54.57600 23.02500
H  33.75000 54.94200 24.53800
H  36.65400 48.79200 21.36200
H  36.45500 45.94000 22.08400
H  34.55500 48.26300 20.40700
H  33.93000 48.50700 22.05800
H  34.36500 46.90400 21.43200
H  39.16200 46.55200 22.50600
H  38.68400 47.79400 21.46900
H  39.59400 45.50700 20.76400
H  38.47600 46.35800 19.74800
H  37.89900 44.98300 20.82800
H  38.66600 42.36200 26.73700
H  38.46700 43.04900 25.13800
H  37.09500 42.27700 26.03900
H  38.00600 45.68600 30.65400
H  34.68600 45.13900 33.80000
H  36.03500 44.31400 34.62300
H  35.06000 43.55800 33.43600

