158

Mg 0.61200 7.53200 27.26400
C  0.81300 9.73000 29.96500
C  0.49400 4.94000 29.66400
C  0.32700 5.28800 24.81800
C  0.73000 10.19500 25.09500
N  0.74600 7.35100 29.59400
C  0.68500 8.41400 30.40800
C  0.44000 7.96000 31.89000
C  0.53900 6.39300 31.78100
C  0.63700 6.18300 30.28400
C  1.83600 5.79500 32.39400
C  -1.00400 8.38500 32.45200
C  -1.06800 8.45300 34.01100
H  0.15400 8.04100 34.83800
N  0.47100 5.38200 27.20700
C  0.29700 4.54200 28.31100
C  -0.01000 3.18500 27.82500
C  0.09100 3.26100 26.32600
C  0.27200 4.65000 26.06400
C  -0.37000 2.01300 28.76000
C  -0.05900 2.11100 25.38900
O  -0.16800 2.25700 24.17600
C  -0.17400 0.67400 25.93800
N  0.50200 7.74500 25.30500
C  0.47400 6.64300 24.41200
C  0.48900 7.17100 22.95500
C  0.28600 8.68700 23.09100
C  0.46300 8.90900 24.55600
C  1.77000 6.65500 22.22700
C  -1.08300 9.20700 22.54800
C  -0.99500 10.25100 21.44800
N  0.95700 9.51500 27.42800
C  0.91100 10.52200 26.45200
C  1.09800 11.80000 27.07400
C  1.06700 11.49500 28.47700
C  0.95900 10.11200 28.64400
C  1.19000 13.15500 26.41200
C  1.16100 12.15500 29.72400
O  1.43300 13.30200 29.93400
C  0.77800 10.97900 30.73400
C  1.78200 11.00400 31.85400
O  2.98900 10.72500 31.71800
O  1.18000 11.44400 32.99400
C  2.02500 11.50500 34.11800
H  0.29800 4.23400 30.47400
H  -0.00100 4.69400 23.96200
H  0.69400 11.02000 24.38100
H  1.29500 8.32900 32.45700
H  -0.28700 5.85400 32.24500
H  1.56500 4.87700 32.91500
H  2.30400 6.55600 33.01900
H  2.55600 5.44200 31.65500
H  -1.67000 7.62000 32.05500
H  -1.32600 9.35300 32.06800
H  -1.86900 7.80800 34.37300
H  -1.46900 9.43900 34.24800
H  -1.42300 1.78400 28.59600
H  -0.19000 2.30900 29.79300
H  0.16300 1.10100 28.49000
H  0.71700 0.54300 26.55200
H  -0.11300 0.01700 25.07100
H  -1.09100 0.56000 26.51500
H  -0.40700 6.75900 22.49000
H  1.18700 9.11800 22.65200
H  2.46200 6.15900 22.90700
H  2.29200 7.45800 21.70600
H  1.36500 5.96700 21.48500
H  -1.62100 9.56800 23.42400
H  -1.62000 8.33600 22.17200
H  -1.49400 9.92400 20.53500
H  0.03800 10.54800 21.27100
H  -1.57500 11.08800 21.83600
H  0.16800 13.34600 26.08200
H  1.83000 13.10000 25.53200
H  1.48900 13.92000 27.12800
H  -0.19900 11.16700 31.17900
H  2.47300 12.48900 34.26000
H  2.83600 10.77700 34.15600
H  1.39800 11.31500 34.98900
Mg 47.02000 16.71300 28.23200
C  45.24000 16.15500 31.19500
C  48.97700 18.94100 29.98200
C  48.69900 17.40200 25.33300
C  44.64400 14.98700 26.44600
N  47.02200 17.48400 30.36900
C  46.32400 17.00300 31.38000
C  46.87600 17.49000 32.75000
C  48.11300 18.42200 32.22900
C  48.00400 18.26700 30.76100
C  48.06100 19.85600 32.67300
C  47.33700 16.38300 33.66000
C  46.97200 16.47000 35.15200
H  47.55300 17.65700 35.94100
N  48.59500 17.97500 27.66100
C  49.24600 18.86900 28.55600
C  50.08100 19.76700 27.84600
C  50.02500 19.30300 26.53700
C  49.14600 18.16200 26.44300
C  50.98400 20.84900 28.46900
C  50.88100 19.83500 25.29100
O  50.68600 19.32900 24.13200
C  51.89600 20.91100 25.40000
N  46.89800 16.04300 26.25500
C  47.74200 16.42500 25.27500
C  47.16700 15.89200 23.94600
C  45.92300 15.05100 24.31500
C  45.77000 15.41000 25.77700
C  46.88200 16.85800 22.76200
C  46.01300 13.53700 24.01600
C  46.22800 12.95300 22.60900
N  45.26900 15.71000 28.64000
C  44.37400 15.08600 27.85900
C  43.23700 14.65600 28.66700
C  43.59800 15.03300 29.97400
C  44.85100 15.67900 29.90600
C  42.04200 13.92100 28.23900
C  43.08900 15.01600 31.32700
O  42.02700 14.56300 31.76200
C  44.16000 15.80600 32.21500
C  43.55200 17.02200 32.91000
O  42.91900 17.85800 32.29300
O  43.73100 16.97600 34.26500
C  43.03400 18.02600 34.98500
H  49.59700 19.63200 30.55700
H  49.10800 17.60200 24.34000
H  43.81200 14.56500 25.87800
H  46.11200 18.18500 33.09900
H  49.08100 18.06400 32.57900
H  48.90100 19.94800 33.36100
H  47.21000 20.00400 33.33700
H  48.13700 20.63400 31.91300
H  48.42100 16.26700 33.65500
H  47.01700 15.43700 33.22300
H  47.02100 15.47000 35.58100
H  45.90900 16.71000 35.17000
H  50.87000 21.70200 27.80000
H  52.01300 20.52000 28.61400
H  50.62000 21.11800 29.46000
H  51.29900 21.80100 25.59800
H  52.55300 20.85000 24.53200
H  52.52700 20.63700 26.24600
H  47.89600 15.14200 23.63900
H  45.01900 15.52900 23.93800
H  47.42400 17.77800 22.97900
H  45.83700 17.09900 22.56400
H  47.34800 16.48000 21.85200
H  45.11300 13.18100 24.51800
H  46.73700 13.10500 24.70700
H  47.06100 12.25500 22.51800
H  46.59800 13.65700 21.86300
H  45.28300 12.53200 22.26700
H  42.26700 13.66300 27.20400
H  41.25000 14.66800 28.18600
H  41.88300 13.07800 28.91100
H  44.54200 15.13400 32.98300
H  43.21600 18.99500 34.52100
H  43.43200 18.04900 35.99900
H  41.96400 17.91700 35.16500

