158

Mg -2.11900 16.80500 26.99500
C  -2.70200 14.58400 29.59800
C  -2.42200 19.45400 29.16600
C  -2.07600 18.92500 24.34800
C  -2.53900 14.10100 24.73100
N  -2.42800 16.94500 29.13400
C  -2.47400 15.89400 30.08100
C  -2.63500 16.41500 31.51100
C  -2.62200 17.97100 31.23100
C  -2.53500 18.17400 29.71700
C  -3.87700 18.80400 31.76000
C  -1.58300 15.81900 32.54300
C  -1.15400 16.73600 33.73600
H  -1.18700 16.09200 35.18200
N  -1.97700 18.88900 26.79600
C  -2.16100 19.78600 27.80600
C  -2.06100 21.11000 27.29200
C  -1.94500 20.94200 25.86900
C  -2.04200 19.51800 25.60500
C  -2.09500 22.32400 28.25300
C  -1.82200 22.06700 24.84100
O  -2.00100 21.95200 23.60000
C  -1.77400 23.50500 25.34000
N  -2.59000 16.57000 24.79000
C  -2.25500 17.56000 23.97600
C  -2.49700 17.17000 22.48900
C  -2.36200 15.55700 22.62300
C  -2.46200 15.38500 24.15100
C  -3.93500 17.56200 22.03500
C  -1.11300 14.78500 21.99500
C  -1.37800 13.36200 21.41000
N  -2.51900 14.74000 27.09200
C  -2.60200 13.74800 26.09400
C  -2.71300 12.48900 26.66800
C  -2.79400 12.78900 28.02900
C  -2.65000 14.14400 28.24100
C  -2.86500 11.12700 26.08700
C  -2.91100 12.16700 29.30100
O  -3.05100 11.00500 29.63700
C  -2.83100 13.31900 30.38300
C  -1.64400 13.03700 31.22200
O  -0.45500 13.23900 30.93700
O  -2.09000 12.51000 32.41200
C  -1.09100 12.20300 33.40600
H  -2.48700 20.17500 29.98300
H  -1.95400 19.60000 23.49800
H  -2.60700 13.26200 24.03400
H  -3.62000 16.14700 31.89300
H  -1.71500 18.36300 31.69300
H  -4.44300 19.01100 30.85200
H  -3.68900 19.72800 32.30700
H  -4.59100 18.19900 32.31800
H  -0.76500 15.54900 31.87400
H  -2.04600 14.93200 32.97500
H  -1.66700 17.69700 33.69000
H  -0.14100 17.11700 33.61000
H  -3.06100 22.82700 28.21100
H  -1.37300 23.10800 28.02300
H  -2.10400 22.03700 29.30500
H  -1.63800 24.09900 24.43600
H  -0.79500 23.55200 25.81600
H  -2.59900 23.76700 26.00200
H  -1.78400 17.64400 21.81400
H  -3.25100 15.10200 22.18600
H  -4.60500 17.82600 22.85300
H  -4.39900 16.78600 21.42600
H  -3.79100 18.48700 21.47700
H  -0.28300 14.76600 22.70100
H  -0.73200 15.37300 21.16000
H  -0.91600 13.24900 20.43000
H  -2.44700 13.20500 21.26200
H  -0.96200 12.57300 22.03600
H  -3.88000 11.04100 25.69800
H  -2.57900 10.30200 26.73900
H  -2.26700 10.91400 25.20100
H  -3.71800 13.36300 31.01500
H  -1.44100 11.24600 33.79400
H  -1.23100 12.89500 34.23700
H  -0.04800 12.16700 33.09200
Mg -4.75300 25.16200 25.35800
C  -3.52800 26.29200 28.49700
C  -6.69600 22.95700 27.02200
C  -5.40300 23.62100 22.45000
C  -2.41900 27.22300 23.78800
N  -4.79700 24.51800 27.47900
C  -4.36700 25.27500 28.57100
C  -4.92900 24.74300 29.87100
C  -5.78900 23.51600 29.31100
C  -5.74600 23.63900 27.82800
C  -5.43800 22.03600 29.89800
C  -5.78000 25.75300 30.75100
C  -5.25100 25.86300 32.20700
H  -6.19700 25.35200 33.35300
N  -5.97300 23.62000 24.80500
C  -6.80600 22.98700 25.63900
C  -7.74500 22.11700 24.94400
C  -7.23500 22.08400 23.62400
C  -6.15600 23.10500 23.56100
C  -8.97000 21.42500 25.51900
C  -7.52800 21.13200 22.45600
O  -6.87900 20.94000 21.50400
C  -8.80300 20.34900 22.67300
N  -3.86200 25.24400 23.45900
C  -4.39600 24.54500 22.45000
C  -3.77200 24.89900 21.09000
C  -3.08600 26.28600 21.46700
C  -3.12100 26.27300 22.98400
C  -2.84300 23.82300 20.48200
C  -3.83000 27.52400 20.79500
C  -3.66900 27.54800 19.30600
N  -3.34400 26.65300 25.94300
C  -2.46100 27.36500 25.20900
C  -1.66200 28.23600 26.11600
C  -2.00000 27.84900 27.39500
C  -3.05200 26.86200 27.24000
C  -0.58500 29.24200 25.80700
C  -1.64800 28.03400 28.75500
O  -0.88300 28.79600 29.37300
C  -2.74500 27.10900 29.55600
C  -1.88700 26.36800 30.47700
O  -1.45900 25.20200 30.38600
O  -1.71600 27.02400 31.68100
C  -1.00500 26.32900 32.72800
H  -7.42400 22.30700 27.51300
H  -5.59400 23.06300 21.53100
H  -1.74000 27.83600 23.19100
H  -4.02300 24.46300 30.40800
H  -6.84200 23.53100 29.59300
H  -4.48100 22.05400 30.42000
H  -5.17800 21.30600 29.13200
H  -6.23100 21.58000 30.49100
H  -6.84500 25.56800 30.88900
H  -5.82800 26.70300 30.21900
H  -5.02600 26.89800 32.46500
H  -4.27100 25.40200 32.33700
H  -8.91500 20.33700 25.51400
H  -9.96400 21.68000 25.15000
H  -9.15500 21.58700 26.58100
H  -9.69300 20.97500 22.73000
H  -8.64200 19.69400 23.52900
H  -8.87500 19.62700 21.86000
H  -4.55600 25.05000 20.34800
H  -2.05100 26.41000 21.15000
H  -1.81200 24.17600 20.48000
H  -3.19100 23.45400 19.51700
H  -2.94400 23.02700 21.21900
H  -3.32700 28.41900 21.16400
H  -4.87300 27.58700 21.10400
H  -4.59000 27.11100 18.92000
H  -2.83500 26.99400 18.87400
H  -3.45600 28.55700 18.95400
H  -0.88300 29.83400 24.94200
H  0.42600 28.84500 25.72300
H  -0.56300 29.88900 26.68400
H  -3.43200 27.65800 30.20000
H  0.03900 26.30500 32.41500
H  -1.28900 25.27900 32.78400
H  -1.16800 26.85400 33.67000

