158

Mg 45.33700 3.82700 47.62800
C  43.46500 6.80600 47.04200
C  42.39900 2.05400 46.94000
C  47.13400 1.04100 47.18800
C  48.17000 5.71600 48.07400
N  43.19300 4.37800 47.19100
C  42.69600 5.64300 46.96800
C  41.19500 5.57900 46.55400
C  40.82400 4.06300 46.83700
C  42.20800 3.44400 47.08300
C  39.83100 3.79600 48.02200
C  40.87100 6.01100 45.03900
C  39.88800 7.19500 44.91300
H  38.82900 7.09600 43.75600
N  44.85300 1.79100 47.07300
C  43.56200 1.27800 46.89200
C  43.69900 -0.03500 46.45400
C  45.02200 -0.40900 46.40900
C  45.74300 0.80500 46.92900
C  42.55100 -0.97600 46.12400
C  45.61300 -1.84800 46.13000
O  44.82600 -2.71200 45.69000
C  47.03400 -2.22000 46.40900
N  47.32300 3.44500 47.69700
C  47.82700 2.15500 47.60200
C  49.21700 2.10100 48.14100
C  49.69900 3.64300 48.30200
C  48.31600 4.30400 48.02200
C  49.34300 1.22900 49.41300
C  50.78500 3.93500 47.23300
C  52.24300 3.98700 47.76600
N  45.83600 5.80700 47.59100
C  47.00800 6.46500 47.80000
C  46.82400 7.90200 47.65600
C  45.47200 8.04900 47.44500
C  44.90300 6.77500 47.39400
C  47.88700 8.96600 47.64900
C  44.42300 9.04000 47.18900
O  44.56500 10.23200 47.16900
C  43.08100 8.22600 47.04300
C  42.27000 8.59300 48.23600
O  42.02600 7.84100 49.20800
O  41.63200 9.85600 48.02400
C  40.30300 10.01400 48.52900
H  41.50100 1.47100 46.72700
H  47.75400 0.14500 47.26300
H  49.04800 6.27900 48.39700
H  40.61500 6.15700 47.27300
H  40.37700 3.66600 45.92500
H  39.01800 3.14900 47.68900
H  39.28300 4.71900 48.21100
H  40.34000 3.42800 48.91300
H  40.48300 5.12800 44.53100
H  41.77400 6.37600 44.54900
H  40.42000 8.12600 44.71800
H  39.34700 7.36000 45.84500
H  42.69200 -1.37700 45.12000
H  41.61500 -0.42000 46.07400
H  42.59300 -1.80200 46.83400
H  47.57100 -1.44700 45.85900
H  47.35800 -3.18500 46.01900
H  47.33100 -2.00600 47.43600
H  49.81600 1.68900 47.32900
H  50.09300 3.89700 49.28500
H  49.94200 0.32000 49.46500
H  48.38000 0.90800 49.81100
H  49.68000 1.85700 50.23800
H  50.64900 4.98600 46.98000
H  50.69200 3.27600 46.37000
H  52.62900 5.00700 47.77800
H  52.95600 3.50300 47.09800
H  52.41800 3.61600 48.77500
H  48.62400 8.64200 48.38500
H  47.51000 9.94600 47.94000
H  48.34700 8.91800 46.66200
H  42.53600 8.42700 46.12000
H  39.80800 10.78700 47.94200
H  40.44400 10.36500 49.55200
H  39.87400 9.01300 48.55300
Mg 42.03300 40.57600 27.02900
C  41.15200 42.95800 29.55200
C  42.99600 38.43000 29.59400
C  43.23700 38.75500 24.82600
C  41.39100 43.23000 24.68500
N  42.06100 40.73400 29.28700
C  41.54100 41.70600 30.07100
C  41.50600 41.35300 31.53100
C  42.27700 39.96200 31.58800
C  42.52800 39.66400 30.03000
C  43.54600 39.85100 32.51800
C  40.11500 41.44300 32.16600
C  39.86000 40.58800 33.44100
H  39.09600 41.20600 34.60800
N  42.93700 38.82100 27.11600
C  43.18000 38.02300 28.25300
C  43.71100 36.73200 27.83500
C  43.78600 36.75000 26.45300
C  43.29000 38.16700 26.06100
C  44.10300 35.64800 28.81300
C  44.18100 35.65500 25.47900
O  44.18800 35.86200 24.26800
C  44.60700 34.32200 26.00900
N  42.21000 40.96000 25.00900
C  42.88500 40.02800 24.30700
C  43.08800 40.41500 22.78100
C  42.42700 41.85700 22.80000
C  41.97500 42.04500 24.22100
C  44.51300 40.33400 22.29000
C  41.23800 41.95100 21.80600
C  40.05500 41.01000 22.09800
N  41.40200 42.68800 27.05400
C  41.16100 43.57600 26.01400
C  40.54500 44.83500 26.48900
C  40.55200 44.59900 27.95500
C  41.06800 43.29100 28.19900
C  40.02400 45.94700 25.70500
C  40.18900 45.20600 29.18900
O  39.73600 46.27700 29.46500
C  40.49200 44.13000 30.28600
C  41.36000 44.82200 31.30800
O  42.55900 45.14800 31.28900
O  40.57800 45.14900 32.41000
C  41.06400 46.00400 33.49800
H  43.28100 37.70800 30.36200
H  43.74100 38.16900 24.05500
H  41.18100 43.99700 23.93600
H  42.08500 42.13000 32.02900
H  41.63000 39.11900 31.83000
H  43.36100 39.04600 33.22900
H  43.82600 40.80300 32.96800
H  44.38300 39.50700 31.91000
H  39.47100 41.07000 31.37000
H  39.94800 42.50000 32.37400
H  40.82400 40.29200 33.85500
H  39.40700 39.61900 33.23300
H  44.02700 35.71200 29.89800
H  45.12900 35.31900 28.64500
H  43.42100 34.82900 28.58600
H  44.05500 33.86200 26.82900
H  45.64000 34.55500 26.26800
H  44.82900 33.64600 25.18300
H  42.43700 39.76800 22.19300
H  43.13700 42.64700 22.55300
H  44.65300 40.12600 21.23000
H  44.92400 39.49100 22.84500
H  45.06400 41.20300 22.64900
H  41.62300 41.52400 20.88000
H  40.94800 43.00100 21.84200
H  40.03600 40.74400 23.15500
H  40.08400 40.22800 21.33900
H  39.22100 41.70600 22.01100
H  39.01500 46.09300 26.09100
H  39.87500 45.73300 24.64600
H  40.70300 46.79600 25.78200
H  39.53700 43.84300 30.72600
H  41.75500 46.76600 33.13600
H  41.51400 45.40000 34.28500
H  40.19100 46.48100 33.94400

