158

Mg 41.70100 40.69200 26.35100
C  40.95200 43.10300 28.89600
C  42.11400 38.33700 29.00100
C  42.68600 38.46600 24.14000
C  41.66800 43.16600 24.03300
N  41.42300 40.71000 28.77500
C  41.13300 41.78200 29.52500
C  40.97900 41.37200 30.98500
C  41.39200 39.81600 30.98000
C  41.69100 39.57300 29.49600
C  42.61200 39.41100 31.88200
C  39.54800 41.69000 31.41500
C  39.25700 42.74800 32.53700
H  38.49400 42.38500 33.89200
N  42.26900 38.66700 26.51800
C  42.48000 37.93300 27.66600
C  43.02800 36.63100 27.32500
C  43.20000 36.66000 25.91500
C  42.69800 37.95800 25.43500
C  43.34100 35.61400 28.29700
C  43.96300 35.65300 25.07500
O  44.10800 35.83000 23.85900
C  44.58300 34.33100 25.61700
N  42.21800 40.83100 24.40800
C  42.43700 39.74600 23.64800
C  42.45900 40.13600 22.02400
C  41.84800 41.51600 22.10900
C  41.97600 41.88400 23.55800
C  43.85400 39.94900 21.41800
C  40.39600 41.52300 21.55100
C  39.29200 40.80900 22.41200
N  41.29600 42.69200 26.39300
C  41.35700 43.59800 25.35400
C  41.14800 44.89600 25.84700
C  40.92100 44.71800 27.24800
C  41.04100 43.39300 27.51600
C  40.98300 46.19000 25.00000
C  40.54500 45.48300 28.43000
O  40.21700 46.67600 28.55500
C  40.59400 44.50100 29.55300
C  41.63200 45.07900 30.53800
O  42.75600 45.44000 30.25900
O  41.02900 45.17900 31.79500
C  41.82500 45.70800 32.85100
H  42.01800 37.65100 29.84500
H  43.00400 37.79100 23.34200
H  41.37200 43.85400 23.23900
H  41.59700 41.96400 31.66000
H  40.55300 39.13400 31.11300
H  43.42400 38.93800 31.33100
H  42.20000 38.69000 32.58800
H  42.95000 40.34400 32.33300
H  39.12600 40.76100 31.79900
H  38.92800 41.88300 30.54000
H  38.63100 43.55100 32.14700
H  40.22000 43.06800 32.93600
H  44.41400 35.47200 28.42600
H  42.84400 34.68900 28.00500
H  42.98800 35.96000 29.26900
H  44.88100 33.67400 24.80000
H  43.80000 33.87400 26.22200
H  45.44900 34.69600 26.17000
H  41.74800 39.52100 21.47200
H  42.37200 42.21300 21.45400
H  44.50600 39.99500 22.29000
H  44.12400 40.72100 20.69700
H  43.77800 39.08000 20.76500
H  40.41100 40.94300 20.62800
H  40.10200 42.54100 21.29500
H  39.49900 39.74800 22.55200
H  38.39900 40.94700 21.80300
H  39.08200 41.35400 23.33300
H  40.92400 47.11500 25.57300
H  40.07500 46.19300 24.39700
H  41.70000 46.23000 24.18000
H  39.61600 44.43900 30.03100
H  42.51300 46.47700 32.49900
H  42.40300 44.92900 33.34700
H  41.10700 46.20400 33.50400
Mg -11.91500 39.26300 42.07700
C  -10.20600 36.31100 41.33100
C  -9.52300 41.00500 40.47200
C  -13.88300 42.06200 42.42200
C  -14.56800 37.28600 43.15400
N  -10.13700 38.64300 41.01300
C  -9.58500 37.38200 40.80100
C  -8.39500 37.40200 39.81300
C  -8.08500 39.00600 39.78500
C  -9.38200 39.61500 40.39900
C  -6.75400 39.40700 40.41500
C  -8.58100 36.76000 38.42200
C  -7.41600 35.81200 38.03100
H  -6.24100 36.41400 37.27600
N  -11.60500 41.29800 41.60700
C  -10.53900 41.84400 40.97400
C  -10.72600 43.27600 40.87400
C  -11.92200 43.58500 41.64200
C  -12.52700 42.22400 41.92700
C  -9.69900 44.16500 40.15800
C  -12.39600 44.98600 41.86100
O  -11.77200 45.94200 41.35000
C  -13.69100 45.35400 42.64600
N  -13.93300 39.62800 42.67000
C  -14.52800 40.85500 42.72100
C  -15.96400 40.72200 43.16100
C  -16.21300 39.19600 43.41800
C  -14.82800 38.63700 42.98100
C  -16.45900 41.59200 44.33600
C  -17.38900 38.50100 42.71200
C  -18.63700 37.94400 43.51800
N  -12.30500 37.26800 42.43300
C  -13.40800 36.62300 42.86000
C  -13.17200 35.15900 42.83800
C  -11.90000 35.03700 42.27100
C  -11.45000 36.27300 42.03200
C  -14.15200 34.03400 43.27700
C  -10.87700 34.04900 41.80400
O  -10.95000 32.81800 41.80200
C  -9.70100 34.92600 41.17500
C  -8.55700 34.68400 42.04000
O  -8.30400 35.22800 43.12800
O  -7.60800 33.89900 41.40700
C  -6.23000 33.81800 41.83000
H  -8.89500 41.52900 39.74700
H  -14.62200 42.84700 42.59200
H  -15.36600 36.62200 43.49400
H  -7.44800 37.06200 40.23200
H  -8.09200 39.32400 38.74200
H  -6.58600 38.86300 41.34400
H  -6.90100 40.46600 40.62400
H  -5.96200 39.13700 39.71600
H  -8.59500 37.44200 37.57100
H  -9.51800 36.20800 38.49100
H  -7.80300 34.96600 37.46200
H  -7.07500 35.48900 39.01400
H  -9.53900 45.10800 40.68100
H  -10.14000 44.23700 39.16400
H  -8.78500 43.60400 39.96600
H  -14.47600 44.99500 41.98100
H  -13.80200 46.42300 42.82700
H  -13.64300 44.77400 43.56800
H  -16.56700 40.86600 42.26500
H  -16.34500 38.94000 44.46900
H  -17.04600 42.41400 43.92500
H  -15.61300 42.09800 44.80100
H  -17.05300 41.03100 45.05600
H  -16.98100 37.65900 42.15200
H  -17.86100 39.08600 41.92200
H  -18.66000 36.85400 43.52600
H  -19.52900 38.46100 43.16500
H  -18.54900 38.07800 44.59600
H  -15.10200 34.10500 42.74900
H  -14.40700 34.20500 44.32300
H  -13.67500 33.05500 43.23500
H  -9.51700 34.62900 40.14300
H  -5.55900 34.28800 41.11100
H  -5.92000 32.77400 41.88500
H  -6.00500 34.20000 42.82500

