158

Mg 24.48900 -4.62400 45.70600
C  26.62700 -2.24100 44.46200
C  22.00900 -3.43100 43.67800
C  22.73100 -7.31200 46.55100
C  27.20300 -5.88400 47.67100
N  24.31000 -2.94200 44.33800
C  25.34000 -2.15300 43.87600
C  24.88100 -1.31100 42.65400
C  23.29600 -1.43700 42.76800
C  23.15600 -2.69500 43.65200
C  22.62400 -0.19600 43.41100
C  25.39900 -1.81700 41.31100
C  26.15500 -0.85500 40.34300
H  25.67500 -0.82900 38.84600
N  22.56800 -5.26100 45.21400
C  21.74100 -4.65700 44.35100
C  20.60800 -5.50000 44.10300
C  20.70300 -6.59200 44.97200
C  21.98500 -6.39200 45.66700
C  19.49900 -5.11700 43.06200
C  19.64900 -7.67800 45.15000
O  18.61000 -7.71100 44.49800
C  19.80000 -8.70800 46.26000
N  24.99400 -6.53800 46.82400
C  24.00600 -7.39000 47.10000
C  24.53500 -8.49200 48.01500
C  25.73200 -7.78200 48.72000
C  26.07400 -6.68800 47.68200
C  23.61500 -9.14500 49.04800
C  26.92600 -8.69500 49.05300
C  27.21700 -8.82900 50.55400
N  26.46500 -4.13800 46.13300
C  27.45600 -4.71400 46.89600
C  28.61000 -3.80800 46.84900
C  28.35300 -2.83300 45.90900
C  27.04500 -3.18900 45.48500
C  29.93700 -3.91800 47.63400
C  28.90300 -1.62800 45.22300
O  29.93700 -0.95400 45.35400
C  27.84200 -1.40000 44.06100
C  27.58300 -0.00400 44.00500
O  26.99100 0.66600 44.86000
O  28.17300 0.50700 42.87100
C  28.15600 1.99100 42.75900
H  21.28600 -2.94700 43.01800
H  22.22000 -8.23900 46.81600
H  28.04800 -6.16100 48.30400
H  25.29600 -0.30800 42.75300
H  22.73400 -1.51400 41.83700
H  23.28900 0.66800 43.40800
H  22.31700 -0.44800 44.42600
H  21.71900 0.12000 42.89300
H  24.56800 -2.21000 40.72500
H  26.04900 -2.63900 41.61300
H  27.20000 -1.16800 40.34300
H  26.00700 0.13900 40.76400
H  19.05800 -5.99100 42.58300
H  20.01700 -4.78000 42.16400
H  18.82400 -4.28500 43.26500
H  20.15800 -8.22300 47.16800
H  20.58200 -9.44500 46.07500
H  18.88900 -9.29600 46.37300
H  24.88100 -9.31700 47.39200
H  25.50200 -7.24800 49.64200
H  23.93900 -9.03500 50.08300
H  23.44700 -10.21000 48.89300
H  22.64400 -8.66100 48.94000
H  27.81400 -8.62000 48.42500
H  26.57500 -9.68100 48.74900
H  28.26700 -9.10800 50.64500
H  26.48100 -9.50900 50.98200
H  27.25300 -7.87700 51.08300
H  29.82700 -4.24800 48.66700
H  30.40600 -2.93600 47.69400
H  30.58500 -4.54600 47.02200
H  28.26700 -1.81200 43.14500
H  28.57800 2.60900 43.55200
H  27.10500 2.25900 42.64500
H  28.62900 2.33400 41.84000
Mg 16.54300 52.12300 26.47500
C  18.07000 50.82400 29.36800
C  13.70800 52.75200 28.51400
C  14.85700 53.13400 23.78800
C  19.10900 50.86300 24.62600
N  15.81800 51.51800 28.63500
C  16.82200 51.37300 29.57500
C  16.22900 51.67700 31.00700
C  14.67200 51.78400 30.72100
C  14.73000 52.07800 29.18200
C  13.83700 50.56500 31.04100
C  17.00000 52.91400 31.69100
C  17.69100 52.52200 33.07800
H  16.90300 53.09200 34.30200
N  14.58400 52.94500 26.22300
C  13.54500 53.04300 27.12900
C  12.37200 53.63000 26.49500
C  12.69000 53.79000 25.11000
C  14.06100 53.30700 24.99600
C  11.16200 53.94000 27.22700
C  11.84300 54.35500 23.90100
O  12.25100 54.50000 22.75500
C  10.43500 54.73000 24.16200
N  16.83600 51.86100 24.43300
C  16.07900 52.43900 23.49600
C  16.86700 52.45000 22.19300
C  18.29200 52.00800 22.56500
C  18.02700 51.44600 23.94400
C  16.12400 51.78800 21.05400
C  19.33500 53.23700 22.57100
C  19.46200 53.96800 21.22700
N  18.21500 51.04000 26.83800
C  19.21800 50.60700 25.96200
C  20.26300 49.95200 26.69500
C  19.87500 50.10100 28.00700
C  18.62200 50.66900 28.06000
C  21.49400 49.33300 26.06000
C  20.38200 49.87900 29.31300
O  21.45900 49.42700 29.68100
C  19.21900 50.46800 30.36200
C  18.73900 49.36300 31.28500
O  17.97300 48.43300 30.94000
O  19.36400 49.52100 32.51000
C  19.04300 48.52600 33.52200
H  12.92900 53.21100 29.12500
H  14.37200 53.44400 22.86000
H  20.00600 50.65100 24.04100
H  16.33700 50.78400 31.62300
H  14.42300 52.68500 31.28100
H  13.00300 50.49300 30.34300
H  13.44200 50.58100 32.05700
H  14.38800 49.63300 30.90800
H  16.40600 53.81700 31.83000
H  17.90500 53.09500 31.11100
H  18.74300 52.80000 33.14700
H  17.69500 51.43200 33.06300
H  10.29100 53.43700 26.80600
H  11.08200 55.02400 27.15500
H  11.12200 53.70000 28.29000
H  10.33500 55.34500 25.05600
H  9.91000 53.77900 24.24300
H  9.92900 55.34200 23.41500
H  16.84600 53.52900 22.03900
H  18.71300 51.18300 21.99100
H  16.64200 50.94100 20.60500
H  15.97300 52.60800 20.35100
H  15.14000 51.50100 21.42300
H  20.35300 53.02900 22.89800
H  19.01600 54.00400 23.27700
H  19.45600 55.05600 21.28400
H  18.60400 53.67400 20.62100
H  20.31200 53.59800 20.65400
H  21.74900 48.35300 26.46200
H  22.37900 49.88200 26.38300
H  21.45800 49.31500 24.97100
H  19.60100 51.22900 31.04200
H  19.48800 48.85100 34.46300
H  19.39000 47.50200 33.38600
H  17.95700 48.56200 33.60400

