158

Mg 0.56100 7.42800 28.04900
C  1.06900 9.90200 30.26400
C  0.60500 5.14300 30.67200
C  0.54600 4.90600 25.74400
C  0.70000 9.76400 25.41600
N  0.75900 7.53600 30.23200
C  0.80200 8.69600 30.97000
C  0.77200 8.41300 32.46100
C  1.09600 6.88000 32.51500
C  0.71000 6.47600 31.09200
C  2.56900 6.54900 32.82100
C  -0.73700 8.78700 32.94900
C  -1.02400 8.94400 34.47300
H  0.10700 8.81800 35.48600
N  0.49400 5.37900 28.20300
C  0.47700 4.58800 29.32500
C  0.32500 3.18900 29.05300
C  0.15700 3.10800 27.59700
C  0.41600 4.46800 27.09800
C  0.42200 2.06400 30.08000
C  -0.17000 1.93300 26.70100
O  -0.18600 2.01500 25.48600
C  -0.36200 0.57000 27.37300
N  0.65700 7.35600 25.92300
C  0.68100 6.20500 25.21800
C  0.74700 6.39800 23.69400
C  0.60800 7.95300 23.61500
C  0.55800 8.37400 25.06600
C  2.03400 5.80000 23.08600
C  -0.61000 8.37100 22.64000
C  -0.40100 9.60700 21.68600
N  0.86000 9.44900 27.83200
C  0.86700 10.25000 26.74800
C  1.15900 11.64900 27.16900
C  1.27400 11.54900 28.54300
C  1.05600 10.19000 28.87900
C  1.15500 12.87600 26.27800
C  1.63000 12.18800 29.72100
O  2.08700 13.32100 29.91700
C  1.53600 11.21700 30.84400
C  2.85800 11.22300 31.56800
O  3.94500 10.98400 31.09900
O  2.55700 11.48800 32.89000
C  3.55000 11.30200 33.95500
H  0.51300 4.44400 31.50600
H  0.58700 4.08500 25.02500
H  0.90400 10.51000 24.64600
H  1.46300 9.00800 33.05900
H  0.43600 6.39900 33.23700
H  3.06900 5.79000 32.21900
H  2.58000 6.15300 33.83600
H  3.24200 7.38600 32.63600
H  -1.35900 8.00600 32.51200
H  -1.08000 9.76700 32.61500
H  -1.64000 8.11300 34.81800
H  -1.54400 9.89600 34.58000
H  1.13700 1.33500 29.70000
H  -0.56700 1.67500 30.32000
H  0.92100 2.53100 30.92900
H  -0.69500 -0.21100 26.69000
H  -1.20800 0.82100 28.01300
H  0.44700 0.25500 28.03300
H  -0.07700 5.87200 23.21100
H  1.53600 8.25000 23.12700
H  1.93500 4.71500 23.11400
H  2.85600 6.18700 23.68800
H  2.13100 6.18200 22.06900
H  -1.45400 8.69600 23.24800
H  -0.79300 7.56300 21.93200
H  -0.24800 9.26700 20.66100
H  0.47200 10.19800 21.96000
H  -1.29900 10.22100 21.75700
H  1.54000 12.53400 25.31700
H  1.84000 13.65000 26.62400
H  0.15100 13.29500 26.21500
H  0.66600 11.60800 31.37200
H  3.48900 10.29500 34.36800
H  3.28400 11.94300 34.79500
H  4.50800 11.69900 33.62000
Mg 49.38600 35.61300 28.22600
C  46.81900 33.86500 29.86700
C  49.36500 37.95100 30.76800
C  51.17600 37.49600 26.18200
C  48.76200 33.36600 25.47100
N  48.34600 35.75600 30.05300
C  47.39600 34.93500 30.63500
C  47.20100 35.19200 32.16800
C  47.70800 36.68800 32.25500
C  48.55000 36.79100 30.94700
C  46.52300 37.63200 32.24200
C  48.13800 34.23200 32.99800
C  47.92200 34.27900 34.51000
H  46.93000 35.31000 35.14900
N  50.22000 37.47200 28.41900
C  50.08100 38.30100 29.55600
C  50.75600 39.57100 29.27800
C  51.19200 39.51700 27.85700
C  50.87700 38.10800 27.41800
C  50.82800 40.73900 30.26500
C  51.78800 40.59700 26.98500
O  51.92800 40.45100 25.81300
C  52.05900 41.96100 27.55200
N  49.93900 35.36900 26.14200
C  50.81400 36.26900 25.58500
C  51.33300 35.82800 24.24100
C  50.48300 34.48400 24.00100
C  49.66100 34.35900 25.24200
C  51.07100 36.85100 23.09800
C  51.39800 33.18800 23.75800
C  50.82200 32.18200 22.74200
N  48.18100 33.86800 27.77500
C  48.04700 33.06000 26.65800
C  46.90500 32.09200 26.86400
C  46.38400 32.38300 28.07100
C  47.25400 33.35900 28.58500
C  46.44200 31.06200 25.82400
C  45.38000 31.95800 28.99800
O  44.59400 30.99400 28.99000
C  45.56700 32.98400 30.19100
C  45.61600 32.27400 31.43300
O  46.59100 31.61200 31.84200
O  44.43900 32.41500 32.07700
C  44.32700 31.79600 33.40300
H  49.47100 38.69300 31.56200
H  51.70400 38.11900 25.45800
H  48.58000 32.70500 24.62100
H  46.16800 34.97000 32.43800
H  48.25700 36.77800 33.19200
H  45.56500 37.18400 31.97800
H  46.71300 38.43000 31.52400
H  46.36200 38.06100 33.23100
H  49.16800 34.58500 32.94000
H  48.17400 33.19700 32.65800
H  48.90900 34.61700 34.82900
H  47.63700 33.24800 34.72000
H  50.33200 41.61400 29.84400
H  51.83500 41.09600 30.47800
H  50.24200 40.47100 31.14400
H  51.12800 42.51600 27.66500
H  52.64500 42.57600 26.86900
H  52.46000 41.80600 28.55400
H  52.40200 35.61900 24.25200
H  49.79400 34.60900 23.16600
H  50.42700 36.57200 22.26400
H  52.02100 37.17300 22.67300
H  50.50500 37.68000 23.52300
H  51.51500 32.55800 24.64000
H  52.35300 33.51400 23.34700
H  50.94300 31.23300 23.26300
H  51.23500 32.12000 21.73500
H  49.75400 32.39800 22.72700
H  46.70300 30.11300 26.29100
H  46.93600 31.10600 24.85300
H  45.37000 30.96500 25.65200
H  44.72000 33.66400 30.27900
H  43.33100 31.45400 33.68300
H  44.67100 32.50300 34.15800
H  44.96900 30.92800 33.55600

