158

Mg 17.36200 -0.47700 27.79400
C  15.90300 1.19900 30.55600
C  19.39300 -2.14900 30.03400
C  18.73700 -2.07900 25.21800
C  15.50700 1.68800 25.73100
N  17.47800 -0.55600 30.00500
C  16.87200 0.20300 30.89600
C  17.41800 0.12700 32.30100
C  18.63900 -0.80600 32.10600
C  18.54100 -1.21900 30.63200
C  19.97700 -0.02600 32.35500
C  16.37500 -0.55200 33.27400
C  16.10800 -0.06500 34.73500
H  17.32100 0.38900 35.47500
N  18.81400 -1.97200 27.69800
C  19.47100 -2.58600 28.68300
C  20.42300 -3.62000 28.15900
C  20.15100 -3.66300 26.77100
C  19.14400 -2.60600 26.50100
C  21.33000 -4.48100 28.95500
C  20.46400 -4.70400 25.68700
O  20.07700 -4.59000 24.53000
C  21.14700 -6.02700 26.11800
N  17.29300 -0.11800 25.84000
C  17.97500 -0.87000 24.94300
C  17.82400 -0.25300 23.53500
C  16.72500 0.84600 23.80400
C  16.47000 0.86400 25.27100
C  19.21700 0.31700 23.27900
C  15.39300 0.61300 22.94700
C  14.91500 1.75900 22.09700
N  15.84100 1.10600 28.01600
C  15.20700 1.90800 27.11100
C  14.38200 2.88400 27.82300
C  14.66400 2.63900 29.14900
C  15.49900 1.56600 29.23500
C  13.65200 4.07100 27.11800
C  14.33000 3.13400 30.46200
O  13.56900 4.04400 30.79000
C  15.18100 2.21800 31.40800
C  15.95700 3.11600 32.34400
O  16.91400 3.79300 31.99100
O  15.38600 3.13200 33.55600
C  15.80800 4.08700 34.55300
H  20.12700 -2.62900 30.68600
H  18.90100 -2.51900 24.23200
H  15.03200 2.29100 24.95500
H  17.58500 1.14800 32.64400
H  18.61800 -1.68000 32.75700
H  20.59600 0.12500 31.47100
H  20.54000 -0.70800 32.99200
H  19.73700 0.94100 32.79900
H  16.37600 -1.62700 33.45000
H  15.41700 -0.45400 32.76400
H  15.76200 -0.93900 35.28700
H  15.42600 0.78600 34.73000
H  22.35700 -4.59500 28.60900
H  20.88400 -5.47300 29.02400
H  21.36200 -4.10100 29.97600
H  21.09200 -6.76000 25.31400
H  20.71800 -6.43600 27.03300
H  22.19300 -5.83600 26.35800
H  17.66000 -1.13800 22.92000
H  16.99600 1.87000 23.54800
H  19.13200 1.29600 22.80700
H  19.80400 -0.33100 22.62700
H  19.83400 0.51300 24.15600
H  14.56500 0.40500 23.62400
H  15.52900 -0.18400 22.21600
H  14.13500 2.19600 22.72000
H  14.36400 1.56400 21.17700
H  15.75900 2.40100 21.84500
H  13.32700 3.81600 26.10900
H  14.12900 5.04900 27.16900
H  12.68300 4.03000 27.61600
H  14.43700 1.75100 32.05300
H  14.98400 4.13800 35.26500
H  16.06000 5.06600 34.14700
H  16.65800 3.83200 35.18500
Mg 44.00900 5.18300 47.03000
C  42.07300 7.92900 46.47500
C  41.20200 3.27100 46.06400
C  45.93900 2.38000 46.67300
C  46.83500 7.08300 46.94400
N  41.82800 5.53100 46.24600
C  41.27800 6.80000 46.18000
C  39.72500 6.77700 45.96100
C  39.42800 5.23900 46.13900
C  40.88200 4.58800 46.15900
C  38.70900 4.95300 47.46600
C  39.11800 7.34700 44.59300
C  40.12500 7.66200 43.43900
H  39.56300 7.86100 42.04800
N  43.63600 3.11100 46.50900
C  42.38300 2.55400 46.12600
C  42.56200 1.14100 45.79700
C  43.96700 0.87700 45.84200
C  44.58700 2.15400 46.33500
C  41.46200 0.28300 45.21600
C  44.58100 -0.46800 45.43700
O  43.89800 -1.39900 45.09900
C  46.08800 -0.55500 45.34800
N  46.09400 4.74700 46.85100
C  46.69600 3.57400 46.85400
C  48.24900 3.61700 46.85200
C  48.44300 5.18800 46.98700
C  47.01300 5.72900 46.92100
C  49.02700 2.75200 47.91800
C  49.33900 5.83700 45.91400
C  50.33900 6.85900 46.46700
N  44.33000 7.09100 46.88900
C  45.57300 7.77800 46.89800
C  45.34700 9.16900 46.73600
C  43.97900 9.27500 46.65800
C  43.40700 7.97400 46.71200
C  46.36700 10.16600 46.66700
C  42.90300 10.21100 46.50100
O  42.91500 11.43900 46.51300
C  41.55200 9.37100 46.40300
C  40.65200 9.65600 47.56100
O  40.86200 9.20500 48.67400
O  39.53100 10.36300 47.17500
C  38.39000 10.46600 48.22600
H  40.31100 2.70100 45.79500
H  46.64700 1.55000 46.70000
H  47.75300 7.67500 46.92900
H  39.25100 7.34800 46.76000
H  38.91900 4.88000 45.24500
H  37.81500 5.56000 47.60600
H  39.47300 5.03900 48.23900
H  38.44100 3.89600 47.47800
H  38.77000 8.32400 44.92600
H  38.37000 6.65600 44.20500
H  40.88300 6.88000 43.37400
H  40.51900 8.62500 43.76300
H  41.80800 -0.01400 44.22600
H  40.55100 0.86500 45.07700
H  41.21100 -0.66400 45.69200
H  46.31500 -1.51400 44.88200
H  46.42000 -0.55200 46.38600
H  46.51600 0.29400 44.81500
H  48.59800 3.33000 45.86000
H  48.75800 5.44200 47.99900
H  49.68800 2.03500 47.43100
H  48.25100 2.21100 48.45900
H  49.71600 3.37600 48.48600
H  48.84300 6.27800 45.04900
H  49.88900 5.04000 45.41400
H  51.32700 6.43200 46.29600
H  50.21800 6.98900 47.54200
H  50.02800 7.84200 46.11300
H  47.20500 9.78300 47.25000
H  45.93200 11.07600 47.07900
H  46.53600 10.31800 45.60100
H  41.01600 9.69500 45.51200
H  37.74500 9.59700 48.09600
H  37.75700 11.30900 47.94900
H  38.82800 10.63100 49.21000

