158

Mg 47.75200 16.43800 28.29000
C  45.70400 16.05100 31.04800
C  49.86100 18.48400 30.21900
C  49.49400 17.20700 25.55800
C  45.23800 14.83200 26.35200
N  47.74900 17.28200 30.38200
C  46.86000 16.82200 31.32000
C  47.30500 17.25200 32.69600
C  48.45300 18.22700 32.42800
C  48.79700 17.94200 30.91000
C  48.10700 19.69100 32.80800
C  47.83800 16.06600 33.60600
C  47.78000 16.26400 35.14500
H  47.41100 17.57400 35.70000
N  49.56900 17.53200 27.95200
C  50.23200 18.28500 28.83500
C  51.41200 18.78500 28.18100
C  51.39900 18.38600 26.84100
C  50.18600 17.63500 26.72800
C  52.53400 19.39900 28.95600
C  52.33700 18.64400 25.73400
O  52.09900 18.21000 24.59000
C  53.53100 19.58000 25.92600
N  47.42300 16.00700 26.31800
C  48.31900 16.42500 25.39000
C  47.72800 16.10200 23.94600
C  46.56300 14.99400 24.23500
C  46.40300 15.26500 25.74300
C  47.26500 17.34700 23.12200
C  46.78900 13.52800 23.81900
C  45.57400 12.99300 23.06600
N  45.74800 15.71200 28.55000
C  44.91400 15.00600 27.70300
C  43.82100 14.52700 28.41500
C  44.04600 14.90700 29.75100
C  45.24400 15.58600 29.78500
C  42.66900 13.76300 27.83600
C  43.48400 14.89700 31.10000
O  42.44900 14.51500 31.55900
C  44.58200 15.61300 31.99100
C  43.86100 16.74800 32.71900
O  43.47700 17.77400 32.20600
O  43.68700 16.47500 34.02000
C  43.03700 17.55800 34.86400
H  50.46900 19.18400 30.79600
H  49.93400 17.46900 24.59300
H  44.57800 14.28900 25.67300
H  46.46100 17.64800 33.26000
H  49.36000 18.17200 33.03000
H  48.66900 19.92600 33.71200
H  47.06100 19.81600 33.08700
H  48.47200 20.34900 32.01900
H  48.82200 15.70300 33.30800
H  47.27800 15.15500 33.39900
H  48.70100 15.99000 35.66100
H  47.09600 15.47900 35.46800
H  52.61900 20.46800 28.76000
H  53.43600 18.87700 28.63500
H  52.34700 19.18000 30.00700
H  53.16700 20.46000 26.45600
H  53.74000 19.91600 24.91100
H  54.34800 19.04200 26.40700
H  48.46800 15.56100 23.35500
H  45.66300 15.36000 23.74200
H  46.35700 17.36200 22.51900
H  48.07500 17.58800 22.43400
H  47.10000 18.13400 23.85800
H  46.93100 13.01700 24.77100
H  47.76700 13.52800 23.33700
H  44.65700 13.57000 22.95100
H  45.25000 12.01100 23.41000
H  45.96000 12.84500 22.05800
H  42.37200 14.19000 26.87800
H  41.87700 13.74000 28.58500
H  43.02100 12.76500 27.57700
H  44.85200 14.82300 32.69200
H  43.79300 18.33800 34.94500
H  42.81400 17.06700 35.81100
H  42.12900 18.01500 34.47000
Mg -10.83200 38.32600 42.55900
C  -8.79600 35.63700 41.53500
C  -8.89200 40.40900 40.70600
C  -13.30000 40.65200 42.76000
C  -13.15800 35.88400 43.63100
N  -9.11200 38.01900 41.04300
C  -8.37600 36.84900 40.91000
C  -7.08400 37.22300 40.01500
C  -7.05400 38.71200 40.20200
C  -8.47400 39.09300 40.63300
C  -5.91500 39.39600 41.14600
C  -7.29000 36.70100 38.52800
C  -6.09900 35.93600 37.92700
H  -5.54600 36.60700 36.67200
N  -11.00800 40.32500 42.05300
C  -10.02200 40.98400 41.36000
C  -10.42300 42.39800 41.34900
C  -11.74100 42.51100 41.91700
C  -12.04400 41.12500 42.34300
C  -9.62200 43.49300 40.65700
C  -12.63400 43.74100 41.91400
O  -12.24700 44.80200 41.41800
C  -13.98800 43.84600 42.55800
N  -12.97400 38.28000 43.02500
C  -13.74600 39.37500 43.11300
C  -15.13400 39.07200 43.72700
C  -15.06700 37.54600 44.01500
C  -13.67200 37.14800 43.45400
C  -15.36300 39.85500 45.07800
C  -16.14100 36.69100 43.25700
C  -17.54000 37.08000 43.52300
N  -10.95300 36.19400 42.81300
C  -11.89300 35.34000 43.28900
C  -11.35900 33.98200 43.42800
C  -10.14600 34.08800 42.67600
C  -9.96100 35.44400 42.29100
C  -12.08100 32.92200 44.13900
C  -9.00900 33.30400 42.30900
O  -8.63100 32.21200 42.57400
C  -8.14400 34.26400 41.44700
C  -6.78200 34.19500 42.07700
O  -6.06800 33.18500 42.13100
O  -6.52900 35.36600 42.78100
C  -5.31100 35.38700 43.52800
H  -8.22500 41.12500 40.22000
H  -13.98300 41.47000 42.99900
H  -13.88700 35.16600 44.01300
H  -6.22100 36.84300 40.56200
H  -6.98500 39.13300 39.19900
H  -5.93400 39.20500 42.21900
H  -6.17100 40.43700 40.94800
H  -4.93200 39.07200 40.80500
H  -7.61900 37.50300 37.86900
H  -8.10100 35.98500 38.65900
H  -6.13600 34.85300 37.80600
H  -5.28300 35.98500 38.64800
H  -9.61700 44.36500 41.31100
H  -10.25900 43.65600 39.78700
H  -8.60100 43.17600 40.44200
H  -14.00100 43.75600 43.64400
H  -14.58700 43.12500 42.00000
H  -14.49800 44.77300 42.29900
H  -15.91300 39.43000 43.05400
H  -15.05100 37.39500 45.09400
H  -16.26800 39.65100 45.65100
H  -15.33800 40.94200 45.00300
H  -14.48100 39.57700 45.65700
H  -16.07800 35.68200 43.66600
H  -15.91200 36.62500 42.19300
H  -17.91000 37.60800 42.64400
H  -17.53700 37.84500 44.30000
H  -18.24100 36.26700 43.70900
H  -13.16200 32.88100 44.00600
H  -12.03000 33.05400 45.22000
H  -11.85800 31.90900 43.80300
H  -8.04100 33.72900 40.50400
H  -4.53200 35.79500 42.88500
H  -5.10100 34.39600 43.93100
H  -5.41800 36.03200 44.40100

