158

Mg 16.87600 -1.19300 27.84200
C  16.11200 0.79100 30.62400
C  19.22500 -2.93200 29.70300
C  17.90100 -2.94200 25.05900
C  14.75900 0.76500 25.86500
N  17.59200 -1.05500 29.86700
C  17.10300 -0.19000 30.84600
C  17.68200 -0.57700 32.20900
C  18.90000 -1.56600 31.90500
C  18.61000 -1.86100 30.38100
C  20.39300 -0.98700 32.12100
C  16.70200 -1.18000 33.25100
C  16.50200 -0.46800 34.53900
H  17.81100 0.25200 35.06400
N  18.17200 -2.86800 27.49300
C  19.11300 -3.39600 28.35100
C  19.79300 -4.59600 27.72800
C  19.32200 -4.58800 26.37600
C  18.38200 -3.44200 26.24100
C  20.81000 -5.50700 28.32600
C  19.72200 -5.52200 25.19300
O  19.33400 -5.43800 24.04900
C  20.59200 -6.75700 25.27400
N  16.34400 -1.21500 25.75200
C  17.10100 -1.81700 24.81900
C  16.74100 -1.37200 23.35900
C  15.60700 -0.27100 23.69300
C  15.52100 -0.18200 25.20200
C  17.95300 -0.77900 22.64200
C  14.20700 -0.65400 23.07800
C  13.65100 0.41100 22.08300
N  15.69500 0.45000 28.17100
C  14.80500 1.05400 27.29400
C  14.06100 2.08700 27.94700
C  14.49000 1.99800 29.31100
C  15.50900 1.05400 29.38300
C  13.09500 2.99900 27.38900
C  14.35600 2.60800 30.57400
O  13.55300 3.43000 30.99700
C  15.39900 1.75900 31.59100
C  16.19100 2.72300 32.31000
O  17.18700 3.22400 31.90400
O  15.66100 3.01400 33.58900
C  16.44400 3.99800 34.38400
H  19.99600 -3.50500 30.22300
H  18.36200 -3.34400 24.15400
H  14.20000 1.51500 25.30100
H  17.99600 0.43700 32.45700
H  18.75200 -2.45500 32.51900
H  20.90800 -1.49800 32.93500
H  20.32300 0.04500 32.46700
H  20.98700 -1.09600 31.21400
H  16.82900 -2.22700 33.52800
H  15.72200 -1.13700 32.77400
H  16.18500 -1.23200 35.24900
H  15.64900 0.18400 34.34700
H  20.65900 -6.56700 28.12000
H  20.97200 -5.24700 29.37200
H  21.75000 -5.32700 27.80500
H  20.41300 -7.29800 26.20300
H  21.60200 -6.35900 25.36000
H  20.51600 -7.39400 24.39200
H  16.45200 -2.20100 22.71400
H  15.90300 0.75300 23.46200
H  17.83700 0.19500 22.16500
H  18.30400 -1.51600 21.92000
H  18.78800 -0.71600 23.34000
H  13.42600 -0.70300 23.83700
H  14.36200 -1.61200 22.58100
H  14.39000 1.18500 21.87400
H  12.87100 0.94600 22.62400
H  13.29700 -0.20400 21.25600
H  13.14000 3.05900 26.30100
H  13.29000 4.01800 27.72500
H  12.10400 2.72900 27.75400
H  14.78600 1.21500 32.30900
H  15.89500 4.89900 34.10900
H  17.48000 4.20800 34.12000
H  16.23100 3.76700 35.42800
Mg 48.56300 25.13100 27.97100
C  49.43100 27.26300 30.70800
C  47.55600 22.83100 30.50700
C  48.01500 22.84100 25.54300
C  50.10500 27.19000 25.80300
N  48.39900 25.15300 30.36500
C  48.85800 26.12200 31.22300
C  48.62800 25.72300 32.68000
C  48.00500 24.24600 32.56900
C  47.97600 24.05600 31.04000
C  48.73900 23.16100 33.44400
C  47.70100 26.79100 33.41700
C  47.15700 26.36400 34.82300
H  47.58500 27.15800 36.06900
N  47.77800 23.20300 27.97900
C  47.37700 22.40700 29.10500
C  46.83000 21.12200 28.60200
C  46.83600 21.15700 27.14400
C  47.59100 22.40900 26.81200
C  46.42000 19.95000 29.45900
C  46.42800 20.14800 26.08200
O  46.58600 20.10900 24.85000
C  45.61600 18.95900 26.70500
N  49.03500 24.94700 25.92000
C  48.76500 23.94000 25.09400
C  48.95000 24.36700 23.56000
C  49.32000 25.86900 23.72100
C  49.58600 26.02500 25.23300
C  50.20500 23.58100 22.99800
C  48.18200 26.80500 23.30400
C  48.48100 27.56600 22.01500
N  49.58700 26.78400 28.11900
C  50.08800 27.65800 27.16100
C  50.65200 28.76900 27.76800
C  50.57600 28.63300 29.10900
C  49.77500 27.46700 29.34000
C  51.33200 29.88900 27.02000
C  50.89300 29.27500 30.39800
O  51.57000 30.25800 30.61500
C  50.16800 28.40800 31.51100
C  51.24900 27.78900 32.25300
O  51.84200 26.76700 31.95800
O  51.50800 28.58000 33.32000
C  52.70300 28.36600 34.10600
H  47.14300 22.08900 31.19300
H  47.80400 22.18600 24.69600
H  50.32100 28.04700 25.16100
H  49.56800 25.61200 33.22000
H  46.95200 24.14100 32.83100
H  49.08400 22.29300 32.88300
H  47.99000 22.89700 34.19100
H  49.66900 23.53600 33.87100
H  46.84700 26.97300 32.76400
H  48.38000 27.63900 33.50800
H  47.32800 25.32200 35.09200
H  46.07100 26.35200 34.72900
H  46.72700 18.99500 29.03300
H  45.38600 20.10100 29.77100
H  46.91100 19.97600 30.43200
H  46.33200 18.21600 27.05700
H  44.96900 18.51200 25.95000
H  44.98100 19.36600 27.49100
H  47.97000 24.22900 23.10300
H  50.28300 26.11100 23.27100
H  50.37700 22.70000 23.61700
H  51.13500 24.14900 23.01500
H  49.92000 23.27200 21.99300
H  48.12400 27.55900 24.08800
H  47.19000 26.35500 23.26200
H  47.72000 27.45600 21.24300
H  49.40100 27.14300 21.60900
H  48.61900 28.59500 22.34600
H  50.62400 30.17100 26.24000
H  52.18000 29.53200 26.43600
H  51.60600 30.70300 27.69100
H  49.53200 29.04200 32.12900
H  53.60400 28.29600 33.49800
H  52.61000 27.44600 34.68400
H  52.82900 29.17700 34.82400

