158

Mg 30.53600 57.92600 40.44500
C  27.66000 55.99400 39.64200
C  32.47700 55.24300 39.53700
C  33.04500 60.04800 40.22300
C  28.31700 60.64700 40.90700
N  30.04900 55.85500 39.87900
C  28.89500 55.29100 39.55100
C  29.19200 53.88900 38.93300
C  30.60000 53.51900 39.50300
C  31.12000 54.93800 39.72500
C  30.61400 52.76500 40.82900
C  29.12000 53.99300 37.40500
C  27.80400 53.35800 36.82700
H  26.90600 54.13900 35.88600
N  32.59400 57.61700 40.05500
C  33.16900 56.49900 39.61100
C  34.58900 56.75200 39.35700
C  34.80000 58.16800 39.60100
C  33.47500 58.70900 39.94900
C  35.64400 55.73300 38.95000
C  36.09300 59.03800 39.31900
O  37.07000 58.47000 38.99900
C  36.16400 60.50100 39.53600
N  30.62200 60.08500 40.39800
C  31.81600 60.69500 40.51200
C  31.74900 62.10400 40.97800
C  30.22000 62.29000 41.26300
C  29.63200 60.94500 40.81500
C  32.61300 62.43000 42.23800
C  29.54900 63.61300 40.54900
C  28.95600 64.73500 41.50300
N  28.39000 58.30000 40.40100
C  27.62100 59.45200 40.60500
C  26.23100 59.12300 40.49500
C  26.21400 57.78000 40.15000
C  27.52800 57.32700 40.07600
C  25.04300 60.04000 40.72900
C  25.31700 56.65900 39.85300
O  24.09900 56.55300 39.89400
C  26.27400 55.47000 39.58700
C  26.00100 54.43400 40.63900
O  26.73200 54.23500 41.59500
O  24.85300 53.67400 40.42100
C  24.85600 52.40100 41.13000
H  33.05000 54.39100 39.16400
H  33.93200 60.64700 40.44300
H  27.77800 61.55900 41.17100
H  28.38100 53.34100 39.41200
H  31.19600 53.02500 38.73600
H  31.38900 53.09900 41.51900
H  30.78500 51.75700 40.45300
H  29.66300 52.80300 41.35900
H  29.95800 53.55600 36.86200
H  29.10600 55.05400 37.15400
H  27.09200 53.10400 37.61200
H  28.08000 52.46800 36.26300
H  35.76500 55.57300 37.87800
H  35.35900 54.79700 39.43000
H  36.59300 56.01800 39.40500
H  36.02200 60.67800 40.60200
H  35.42800 61.10200 39.00200
H  37.15400 60.87100 39.26900
H  32.05800 62.67400 40.10200
H  30.11500 62.43700 42.33800
H  32.71100 63.51200 42.32200
H  33.60000 61.97500 42.31900
H  32.01100 62.14800 43.10200
H  28.75600 63.17000 39.94700
H  30.33300 64.10100 39.97000
H  28.73800 64.18700 42.42000
H  28.00900 65.20600 41.23800
H  29.71300 65.50700 41.64400
H  25.15900 60.65600 41.62100
H  24.05200 59.58600 40.74300
H  25.25200 60.86100 40.04300
H  26.07800 55.10300 38.58000
H  24.30200 51.66000 40.55400
H  24.47100 52.53100 42.14100
H  25.84500 51.99200 41.33400
Mg 26.97300 50.85000 26.92600
C  24.88100 51.78400 29.52100
C  29.35100 49.86100 29.24700
C  29.01400 49.90700 24.41200
C  24.74400 52.24400 24.65100
N  27.06300 50.81100 29.02600
C  26.06000 51.20600 29.97000
C  26.52900 50.95800 31.38300
C  28.01200 50.69600 31.25200
C  28.13600 50.38000 29.73100
C  28.87000 51.82900 31.83900
C  25.69000 49.67400 31.92100
C  25.18400 49.67300 33.32700
H  25.88800 50.34600 34.51300
N  28.92500 50.01600 26.79400
C  29.77000 49.62000 27.89400
C  30.96500 48.97500 27.47300
C  30.94000 49.04900 26.08600
C  29.57200 49.68600 25.65200
C  31.94700 48.30000 28.42400
C  31.99000 48.65200 25.13300
O  31.91400 48.73300 23.91800
C  33.22500 47.97500 25.56100
N  26.83800 50.88300 24.89200
C  27.78200 50.48300 24.03200
C  27.41800 50.73800 22.52300
C  25.93600 51.29800 22.60900
C  25.85600 51.54100 24.16500
C  28.38100 51.70700 21.75800
C  24.93500 50.27700 22.15200
C  23.47500 50.61200 21.70800
N  25.18200 51.84300 26.93000
C  24.38000 52.36900 25.96700
C  23.27800 53.01400 26.56400
C  23.33200 52.79500 27.98100
C  24.52100 51.98200 28.11200
C  22.22800 53.82000 25.82700
C  22.74900 52.93800 29.31300
O  21.64100 53.38300 29.65300
C  23.70800 52.23000 30.39600
C  24.09300 53.27800 31.39500
O  24.85400 54.26200 31.23200
O  23.58600 52.86000 32.55000
C  23.73500 53.66200 33.79400
H  29.95100 49.56600 30.11100
H  29.50200 49.58900 23.48800
H  24.07000 52.76700 23.97000
H  26.27500 51.79400 32.03500
H  28.23600 49.73600 31.71800
H  29.29900 51.49300 32.78300
H  28.30000 52.74800 31.97500
H  29.78800 51.92900 31.25900
H  26.17500 48.71100 31.76200
H  24.70800 49.60300 31.45300
H  25.07800 48.60000 33.48900
H  24.12100 49.89000 33.43600
H  33.01300 48.48700 28.30400
H  31.67300 47.24600 28.47100
H  31.79300 48.66400 29.44000
H  33.81600 48.62900 26.20200
H  33.84000 47.68500 24.70900
H  32.93400 47.04000 26.04000
H  27.53700 49.75500 22.06800
H  25.82300 52.21700 22.03400
H  29.15600 52.07400 22.43100
H  27.87000 52.60400 21.40700
H  28.87400 51.11100 20.98900
H  24.76900 49.49500 22.89200
H  25.39300 49.78300 21.29500
H  22.70700 49.97300 22.14400
H  23.42000 50.49500 20.62500
H  23.17100 51.63100 21.94700
H  22.10500 54.78800 26.31300
H  21.38900 53.16000 26.04400
H  22.33700 53.93900 24.74900
H  23.18300 51.40600 30.87800
H  22.80300 53.92100 34.29700
H  24.19400 54.63500 33.62000
H  24.30200 53.09300 34.53100

