158

Mg 25.28000 2.04600 29.73300
C  27.02600 1.63900 32.74200
C  22.44900 1.60200 31.66900
C  23.51200 2.10300 26.87900
C  28.19800 1.64500 27.92400
N  24.82400 1.78700 31.98600
C  25.65200 1.75900 32.98800
C  25.01000 1.90200 34.38600
C  23.47200 1.81800 34.00800
C  23.54800 1.67100 32.45100
C  22.69600 0.56500 34.53100
C  25.44500 3.25100 35.15600
C  26.45200 3.05200 36.34800
H  26.32100 4.20600 37.37800
N  23.28600 2.00200 29.32800
C  22.28200 1.74400 30.25400
C  20.96500 1.75400 29.52600
C  21.26600 1.90700 28.14200
C  22.77500 2.03000 28.09600
C  19.65700 1.29800 30.21700
C  20.31900 1.75700 26.87200
O  20.67400 1.64200 25.71300
C  18.89300 1.77300 27.09900
N  25.78200 1.79200 27.66600
C  24.90500 2.00400 26.72000
C  25.56300 2.01200 25.30100
C  27.08500 1.94100 25.62400
C  27.06300 1.74500 27.12000
C  25.04500 0.89100 24.37900
C  27.87800 3.19200 25.17100
C  27.44200 4.61500 25.67900
N  27.23600 1.71500 30.15800
C  28.31400 1.57500 29.32700
C  29.44800 1.28900 30.18900
C  29.04400 1.41800 31.48600
C  27.63900 1.63500 31.45300
C  30.86700 1.00200 29.78700
C  29.46700 1.30900 32.88300
O  30.63000 1.31200 33.32600
C  28.20400 1.58100 33.74600
C  28.21800 0.56300 34.86000
O  27.77800 -0.56500 34.78500
O  28.88400 1.15500 35.93000
C  28.87200 0.29700 37.15300
H  21.54500 1.57600 32.28200
H  22.95700 2.16400 25.94100
H  29.16500 1.64800 27.41600
H  25.23200 1.01600 34.98100
H  23.04300 2.78200 34.28200
H  21.78700 0.91400 35.02200
H  23.31500 0.02200 35.24500
H  22.50400 -0.06000 33.65900
H  24.57600 3.73200 35.60500
H  26.05000 3.74800 34.39900
H  27.47000 3.18500 35.98200
H  26.41200 2.05400 36.78300
H  19.77100 1.39800 31.29600
H  19.46300 0.23800 30.05100
H  18.74900 1.82400 29.92200
H  18.62900 2.43200 27.92600
H  18.45100 0.78200 27.20000
H  18.39800 2.02300 26.16100
H  25.27700 2.96300 24.85100
H  27.50900 1.04500 25.17100
H  25.06200 1.21000 23.33700
H  24.07300 0.64300 24.80600
H  25.69900 0.02800 24.49900
H  27.81300 3.25800 24.08500
H  28.89900 3.07200 25.53400
H  28.31200 5.10900 26.11100
H  26.62400 4.62300 26.40000
H  27.07900 5.23900 24.86200
H  31.44700 1.47400 30.58000
H  31.13100 1.52500 28.86800
H  31.12700 -0.04900 29.91300
H  28.37500 2.50700 34.29600
H  29.04400 -0.77000 37.01100
H  27.92400 0.38600 37.68300
H  29.81100 0.48100 37.67500
Mg 48.66500 35.56100 28.45200
C  46.92000 33.65700 30.68600
C  48.87900 38.16000 30.87500
C  49.86500 37.66900 26.10100
C  47.86000 33.29600 25.91600
N  47.96000 35.87100 30.43700
C  47.40100 34.87300 31.16700
C  47.64300 35.19500 32.64600
C  47.65000 36.78600 32.63000
C  48.21200 37.00500 31.21200
C  46.26600 37.52000 32.71600
C  48.94700 34.58100 33.20500
C  49.31900 34.69400 34.70300
H  48.32100 35.32300 35.74200
N  49.40800 37.50300 28.46800
C  49.43200 38.33900 29.55800
C  50.17200 39.63500 29.16400
C  50.56900 39.43500 27.78800
C  49.97000 38.11100 27.42300
C  50.53100 40.76700 30.08000
C  51.22600 40.44600 26.80600
O  51.53400 40.24900 25.60300
C  51.45500 41.90200 27.24400
N  48.80200 35.51600 26.32500
C  49.37900 36.48900 25.59400
C  49.34600 36.12800 24.14600
C  48.93400 34.62300 24.10500
C  48.51000 34.45900 25.54100
C  48.42700 37.09300 23.35000
C  50.20800 33.75300 23.76500
C  50.71000 33.79800 22.30800
N  47.66100 33.81800 28.25400
C  47.52500 32.93500 27.24600
C  46.90600 31.69300 27.70700
C  46.62200 31.88500 29.10600
C  47.07000 33.23500 29.32100
C  46.51300 30.50200 26.83100
C  46.03900 31.34200 30.32500
O  45.38400 30.29600 30.56900
C  46.09800 32.54400 31.27300
C  46.46200 32.12700 32.61000
O  47.21500 31.23900 32.86900
O  45.70200 32.81400 33.49200
C  45.71200 32.34000 34.92700
H  49.13700 38.91100 31.62400
H  50.21000 38.32400 25.29800
H  47.72100 32.55100 25.13000
H  46.77000 34.85300 33.20200
H  48.24600 37.21600 33.43500
H  46.14600 38.15400 31.83800
H  46.17100 38.04500 33.66600
H  45.41700 36.85800 32.88800
H  49.75900 34.99800 32.60800
H  49.08600 33.53400 32.93700
H  50.27400 35.17600 34.91100
H  49.43400 33.70600 35.14800
H  50.13200 41.76600 29.90300
H  51.60400 40.82800 30.26000
H  50.14700 40.68500 31.09700
H  52.02600 42.44500 26.49000
H  52.13300 41.86200 28.09700
H  50.53700 42.39800 27.56000
H  50.38500 36.17100 23.81900
H  48.17300 34.26400 23.41100
H  47.76300 37.66000 24.00300
H  47.80400 36.52700 22.65800
H  49.09800 37.73400 22.78000
H  49.92700 32.73000 24.01300
H  50.94900 34.10100 24.48400
H  50.45600 34.67000 21.70500
H  50.29500 32.97000 21.73400
H  51.77800 33.59000 22.23600
H  45.82700 30.75700 26.02300
H  46.23200 29.66500 27.46900
H  47.49400 30.25900 26.42200
H  45.04700 32.83100 31.31400
H  45.51300 33.18000 35.59300
H  46.68200 31.90600 35.17000
H  44.92400 31.63900 35.20100

