158

Mg 1.48800 -0.59700 43.35600
C  4.87200 0.27100 42.93200
C  0.60200 2.39200 42.03900
C  -1.70000 -1.65600 43.14500
C  2.55300 -3.83500 44.14100
N  2.66800 1.06500 42.52500
C  4.02400 1.24300 42.47200
C  4.42500 2.62600 41.96700
C  3.06100 3.35300 41.83500
C  1.98500 2.23500 42.07900
C  2.88300 4.75700 42.64400
C  5.26100 2.54200 40.61600
C  6.40800 3.55800 40.50600
H  6.41200 4.14800 39.06300
N  -0.24500 0.29000 42.62000
C  -0.43700 1.49000 42.12000
C  -1.80800 1.86800 41.94700
C  -2.56400 0.73300 42.33800
C  -1.50100 -0.29100 42.77200
C  -2.33600 3.12400 41.34900
C  -4.08700 0.59000 42.32900
O  -4.68800 1.57500 41.97300
C  -4.81700 -0.58300 42.79200
N  0.58800 -2.44000 43.70500
C  -0.73700 -2.63000 43.51100
C  -1.12700 -4.17300 43.43500
C  0.10900 -4.79200 44.08100
C  1.14400 -3.66800 43.88400
C  -2.57000 -4.64800 43.86900
C  0.45500 -6.28500 43.51900
C  1.07500 -7.18000 44.65000
N  3.36700 -1.63100 43.53300
C  3.61600 -2.91800 43.97200
C  5.07900 -3.14800 44.11900
C  5.62000 -1.84900 43.78000
C  4.53800 -1.06800 43.29700
C  5.80000 -4.40700 44.59500
C  6.83700 -1.07000 43.62200
O  7.95600 -1.43700 43.84400
C  6.38100 0.37500 42.97900
C  6.79300 1.41900 43.96800
O  6.16800 1.64200 45.00900
O  8.00700 1.89400 43.65100
C  8.55800 2.86400 44.59900
H  0.37000 3.45900 42.01800
H  -2.68000 -2.12600 43.04700
H  2.83200 -4.85700 44.40600
H  5.04900 3.10300 42.72300
H  2.88100 3.70800 40.82000
H  2.30700 4.68000 43.56600
H  2.38800 5.46800 41.98300
H  3.81200 5.14000 43.06500
H  4.62800 2.63100 39.73300
H  5.84100 1.63400 40.45100
H  7.33600 3.02400 40.70500
H  6.30400 4.42900 41.15300
H  -2.93800 3.05500 40.44300
H  -1.46800 3.68200 40.99600
H  -2.70700 3.73800 42.16900
H  -5.90700 -0.56900 42.81300
H  -4.62900 -0.72900 43.85600
H  -4.50500 -1.40800 42.15100
H  -1.14600 -4.46400 42.38500
H  -0.05300 -4.91800 45.15100
H  -2.53900 -5.55000 44.48000
H  -3.10900 -4.97500 42.98000
H  -3.13200 -3.91500 44.44900
H  1.27400 -6.19200 42.80600
H  -0.44500 -6.71900 43.08400
H  2.15200 -7.08500 44.51500
H  0.75500 -8.18500 44.37500
H  0.69300 -6.97600 45.65100
H  5.59300 -5.19600 43.87200
H  5.28200 -4.64300 45.52400
H  6.87700 -4.26200 44.67600
H  6.86400 0.44400 42.00400
H  9.64500 2.80800 44.65600
H  8.25700 2.87600 45.64700
H  8.42300 3.87300 44.20900
Mg 8.76700 4.18000 27.42200
C  10.29400 2.62300 30.21600
C  6.81700 6.09300 29.74800
C  7.42600 5.85600 24.85600
C  10.26000 1.87200 25.41400
N  8.59100 4.34600 29.77500
C  9.31800 3.56800 30.65400
C  9.00900 4.01200 32.04600
C  7.69800 4.94800 31.89300
C  7.63800 5.13900 30.36100
C  6.39200 4.42500 32.49600
C  10.21500 4.84200 32.64800
C  9.95300 5.26600 34.08100
H  10.91600 4.68300 35.07700
N  7.46800 5.88500 27.31900
C  6.81300 6.53600 28.37900
C  6.03100 7.72000 27.77100
C  6.15500 7.59700 26.34200
C  7.07100 6.43800 26.08900
C  5.21300 8.56100 28.60100
C  5.63600 8.50800 25.22000
O  6.00200 8.29100 24.09200
C  4.44700 9.42300 25.53100
N  8.94800 3.99200 25.50600
C  8.25600 4.74600 24.57200
C  8.41400 4.20900 23.14500
C  9.45700 3.00600 23.41000
C  9.50800 2.87800 24.90300
C  7.01700 3.88300 22.35400
C  10.85500 3.13200 22.80300
C  11.96400 3.96000 23.51400
N  9.86200 2.45700 27.67100
C  10.51100 1.68800 26.73600
C  11.43800 0.78100 27.41600
C  11.36400 1.08300 28.80200
C  10.43500 2.12700 28.93000
C  12.38600 -0.18600 26.69500
C  11.89600 0.77900 30.10800
O  12.75600 -0.02000 30.47900
C  11.28100 1.86300 31.03000
C  10.66900 1.08100 32.16800
O  10.11700 0.03100 32.10100
O  10.84000 1.75100 33.41400
C  10.46800 1.09600 34.69300
H  6.16100 6.61700 30.44600
H  6.93700 6.12800 23.91900
H  10.56200 1.08400 24.72000
H  8.78300 3.15200 32.67700
H  7.87800 5.85700 32.46700
H  5.63200 5.14500 32.80200
H  6.68200 3.82700 33.36000
H  5.92200 3.76800 31.76500
H  10.26000 5.71100 31.99200
H  11.20100 4.41300 32.47000
H  8.92100 5.13900 34.40800
H  10.05800 6.33900 34.24100
H  4.16700 8.26700 28.51500
H  5.40200 9.55000 28.18300
H  5.44400 8.56900 29.66600
H  3.65800 8.84100 26.00600
H  4.08000 9.83600 24.59100
H  4.59000 10.20000 26.28200
H  8.98600 4.97200 22.61600
H  9.03500 2.03000 23.16600
H  6.10900 3.74400 22.94200
H  7.13400 2.91400 21.86800
H  6.92400 4.62400 21.56000
H  10.69500 3.60300 21.83200
H  11.23000 2.11900 22.65900
H  11.64400 4.56800 24.36000
H  12.40000 4.73400 22.88300
H  12.80200 3.30200 23.74600
H  11.82700 -1.07000 26.38900
H  13.04600 -0.56400 27.47600
H  12.87200 0.27700 25.83700
H  11.98700 2.61100 31.39300
H  11.11400 1.57400 35.43000
H  10.68500 0.03000 34.62700
H  9.41000 1.27500 34.88700

