158

Mg 50.15800 46.45200 41.35100
C  47.33500 47.65000 40.01500
C  49.47700 43.27400 39.89100
C  53.41600 45.22800 42.04800
C  51.25200 49.66900 42.09100
N  48.70600 45.65400 40.17200
C  47.50700 46.24500 39.80400
C  46.50400 45.40500 39.11800
C  47.11200 43.98500 39.34600
C  48.51500 44.33300 39.81300
C  46.36200 42.96400 40.31600
C  46.17300 45.79400 37.66400
C  44.81700 45.20800 37.10300
H  44.90800 44.23700 35.92500
N  51.24500 44.55300 41.09100
C  50.81200 43.40400 40.41400
C  51.82300 42.36200 40.52900
C  52.93500 42.91800 41.25700
C  52.54800 44.30000 41.55400
C  51.62400 40.90700 40.10800
C  54.15500 42.16600 41.69900
O  54.31800 41.02900 41.29800
C  55.18000 42.67700 42.66100
N  52.19000 47.34700 41.82600
C  53.22700 46.65100 42.22400
C  54.25800 47.59900 42.73900
C  53.62600 48.98600 42.96100
C  52.26700 48.71200 42.16500
C  55.18400 47.13800 43.93000
C  54.39900 50.28200 42.56600
C  54.48900 51.39500 43.59300
N  49.41100 48.24400 41.24900
C  49.96300 49.51400 41.56000
C  48.98200 50.57200 41.33500
C  47.91400 49.81200 40.74800
C  48.27400 48.42600 40.62900
C  48.95500 52.05200 41.44600
C  46.53500 49.94200 40.40500
O  45.79200 50.91500 40.63100
C  46.19000 48.59300 39.76500
C  44.86700 48.14700 40.26300
O  44.64700 47.57100 41.31600
O  43.83400 48.36900 39.33100
C  42.55600 47.76600 39.64600
H  49.25300 42.26300 39.54400
H  54.44800 44.92800 42.24200
H  51.42600 50.71100 42.36700
H  45.59800 45.31400 39.71700
H  47.30000 43.53200 38.37300
H  46.93400 42.51900 41.13000
H  46.03900 42.13400 39.68700
H  45.46400 43.45200 40.69200
H  46.92000 45.36100 36.99900
H  46.24100 46.85500 37.42500
H  44.18100 46.02400 36.75900
H  44.40200 44.71500 37.98200
H  51.54300 40.31800 41.02200
H  52.46200 40.57400 39.49600
H  50.65700 40.64200 39.67900
H  54.73200 43.05200 43.58100
H  55.82500 43.41000 42.17600
H  55.82600 41.83800 42.91800
H  55.03400 47.83700 42.01200
H  53.38000 49.07400 44.01900
H  56.26600 47.21100 43.81800
H  54.99000 46.08400 44.12600
H  55.01400 47.62800 44.88900
H  53.87500 50.60000 41.66500
H  55.38500 49.95900 42.23200
H  54.09000 52.30700 43.14900
H  55.55400 51.41200 43.82400
H  53.80700 51.23000 44.42700
H  48.64300 52.56600 40.53700
H  50.01200 52.23700 41.64100
H  48.33500 52.41000 42.26800
H  46.09900 48.84300 38.70800
H  42.60300 46.73300 39.99100
H  41.88200 47.74000 38.79000
H  41.99500 48.35400 40.37300
Mg -0.14800 43.90100 26.13900
C  1.87100 44.04400 28.98400
C  -2.88700 43.04900 27.96200
C  -1.75300 43.33500 23.18100
C  2.81300 44.51000 24.22600
N  -0.45700 43.49300 28.21200
C  0.49200 43.57500 29.20000
C  -0.17600 43.46900 30.60600
C  -1.60300 43.01400 30.26800
C  -1.66600 43.17400 28.72400
C  -2.07300 41.56800 30.72100
C  -0.24200 44.70700 31.61900
C  0.30600 44.37700 32.97100
H  0.07600 42.97400 33.69300
N  -2.04800 43.32000 25.59500
C  -3.06600 43.09100 26.56900
C  -4.27600 42.88600 25.77300
C  -3.95100 42.80700 24.36800
C  -2.51300 43.08100 24.35100
C  -5.64100 42.73600 26.43400
C  -4.82200 42.48400 23.13500
O  -4.40400 42.23900 22.01200
C  -6.31900 42.42700 23.26500
N  0.51400 43.78300 24.01100
C  -0.42800 43.71100 23.02000
C  0.16200 43.80800 21.66700
C  1.63100 44.40500 21.99500
C  1.66800 44.23400 23.49500
C  0.15700 42.50200 20.80600
C  1.93400 45.82600 21.43700
C  1.41100 47.11900 22.11400
N  1.91400 44.25400 26.52500
C  3.00400 44.51400 25.66200
C  4.22700 44.69300 26.42500
C  3.80800 44.59600 27.77000
C  2.45000 44.28400 27.72700
C  5.60500 44.89800 25.97500
C  4.20400 44.58900 29.17100
O  5.29300 44.74400 29.60000
C  2.96500 44.33600 29.97800
C  3.31600 43.13900 30.81900
O  2.84800 41.98800 30.62600
O  4.22800 43.49400 31.89500
C  4.53400 42.41900 32.85600
H  -3.77100 42.73000 28.51900
H  -2.24700 43.27300 22.20800
H  3.62400 44.99000 23.67500
H  0.26400 42.64300 31.16500
H  -2.32200 43.75300 30.62000
H  -2.47600 41.06400 29.84200
H  -2.95400 41.50700 31.35900
H  -1.26900 41.00800 31.19800
H  -1.22300 45.16300 31.75500
H  0.41400 45.34000 31.02200
H  -0.09600 45.24000 33.50000
H  1.36600 44.60800 32.86200
H  -6.16500 43.68000 26.28300
H  -5.57600 42.77400 27.52200
H  -6.17500 41.86200 26.06200
H  -6.61500 41.60700 23.91900
H  -6.65600 42.09200 22.28400
H  -6.67600 43.42000 23.53600
H  -0.27500 44.70400 21.22600
H  2.50400 43.85300 21.64700
H  -0.54500 41.86400 21.34200
H  1.15400 42.06300 20.82300
H  0.03700 42.51100 19.72200
H  1.69900 45.92900 20.37700
H  3.02300 45.81800 21.40400
H  2.28900 47.59900 22.54600
H  0.65400 46.82300 22.84100
H  0.84000 47.81200 21.49600
H  5.93700 44.12400 25.28300
H  6.26300 45.16600 26.80100
H  5.81100 45.78800 25.38000
H  2.86300 45.12000 30.72900
H  3.72300 42.56500 33.57000
H  5.37600 42.80300 33.43200
H  4.55300 41.40600 32.45300

