158

Mg 45.54400 4.02800 46.76100
C  43.48200 6.76400 47.09100
C  42.58000 2.06500 46.20500
C  47.49900 1.44200 45.88000
C  48.32300 6.07300 46.82100
N  43.29700 4.44500 46.49100
C  42.69400 5.64700 46.77900
C  41.12700 5.52400 46.68200
C  40.85000 3.98100 46.50100
C  42.33100 3.43300 46.40900
C  39.94000 3.35700 47.64000
C  40.52300 6.29900 45.50600
C  41.28600 6.31200 44.17100
H  40.47800 5.85400 42.89300
N  45.08100 2.01000 46.22600
C  43.83200 1.38600 46.16000
C  44.06500 -0.00500 45.91000
C  45.51100 -0.29300 46.03400
C  46.13100 1.08500 46.05600
C  42.94800 -1.06700 45.90200
C  46.15700 -1.65100 46.02400
O  45.52400 -2.70000 46.06000
C  47.68200 -1.80300 45.92900
N  47.65900 3.82500 46.18700
C  48.17800 2.65000 45.96500
C  49.73300 2.78600 46.01000
C  49.89500 4.28100 46.37700
C  48.52700 4.78000 46.44100
C  50.55100 1.78900 46.90700
C  51.05700 5.07500 45.59000
C  52.32200 5.42600 46.23300
N  45.93500 6.05900 46.91300
C  47.10900 6.76700 46.98200
C  46.82100 8.18400 47.14500
C  45.38800 8.25700 47.23000
C  44.90700 6.91100 47.08800
C  47.74200 9.27200 47.29000
C  44.22000 9.10100 47.39300
O  44.14100 10.31000 47.54800
C  42.99500 8.17900 47.29200
C  42.01900 8.29400 48.42200
O  42.23100 7.91500 49.57300
O  40.88100 9.01600 48.09700
C  39.99000 9.40600 49.17100
H  41.69300 1.47600 45.95800
H  48.18100 0.66600 45.52500
H  49.14900 6.74000 47.07700
H  40.61800 5.89000 47.57400
H  40.27900 3.80600 45.58800
H  40.40400 2.79800 48.45300
H  39.12200 2.74000 47.26700
H  39.48500 4.22700 48.11300
H  40.56500 7.34300 45.81900
H  39.53700 5.83400 45.49800
H  42.09200 5.57700 44.17900
H  41.67300 7.33100 44.14800
H  42.66900 -1.34200 46.91900
H  43.07100 -1.89900 45.20900
H  42.00900 -0.64700 45.54100
H  48.07000 -1.09100 46.65800
H  48.00000 -1.61400 44.90300
H  48.00800 -2.77600 46.29600
H  50.07500 2.74800 44.97600
H  50.23600 4.32300 47.41100
H  51.13500 2.37700 47.61500
H  51.33400 1.22400 46.40200
H  49.91700 1.05600 47.40700
H  50.53200 5.97900 45.28000
H  51.29600 4.48600 44.70500
H  53.10700 5.40400 45.47800
H  52.47000 4.53700 46.84700
H  52.23800 6.31300 46.86100
H  48.05900 9.48300 46.26800
H  48.63300 9.07100 47.88500
H  47.16900 10.12200 47.66000
H  42.62100 8.59900 46.35800
H  40.44000 10.29300 49.61500
H  39.83900 8.75900 50.03500
H  39.02900 9.66500 48.72600
Mg 54.51700 23.61200 45.75000
C  51.98000 25.71100 44.53600
C  52.81300 20.87800 44.44900
C  57.37800 21.87400 45.75300
C  56.15200 26.41100 46.89900
N  52.70900 23.38600 44.58900
C  51.75200 24.37600 44.24300
C  50.46300 23.76200 43.66400
C  50.63200 22.22700 43.96200
C  52.15000 22.14400 44.43200
C  49.76800 21.68700 45.16100
C  50.25800 24.08600 42.16900
C  51.34700 24.18100 41.18700
H  52.37200 22.92300 41.20000
N  55.01500 21.53600 45.28300
C  54.17400 20.60600 44.70400
C  54.92300 19.37000 44.49400
C  56.28500 19.64300 44.85800
C  56.24700 21.04800 45.32800
C  54.31700 18.21600 43.84400
C  57.51100 18.70100 44.83600
O  57.36000 17.49600 44.62200
C  58.88800 19.12800 45.18600
N  56.49900 24.10600 46.12900
C  57.48100 23.19600 46.11400
C  58.86200 23.72600 46.71600
C  58.44100 25.15600 47.16000
C  56.97100 25.25400 46.70400
C  59.26100 22.80200 47.84100
C  59.45800 26.26500 46.65900
C  59.00400 27.09700 45.41500
N  54.23600 25.68500 45.73300
C  54.89200 26.70700 46.40700
C  54.03000 27.86300 46.51200
C  52.93200 27.47100 45.72500
C  53.10900 26.18800 45.25200
C  54.21800 29.07200 47.27000
C  51.65800 27.93400 45.30900
O  51.14300 29.01600 45.48500
C  51.04600 26.85000 44.43500
C  50.96000 27.41200 43.04500
O  51.91700 27.61600 42.28600
O  49.63100 27.54900 42.69300
C  49.45800 28.01300 41.33300
H  52.24700 20.02400 44.07000
H  58.32800 21.35300 45.89000
H  56.64800 27.29300 47.31100
H  49.70300 24.21100 44.30300
H  50.65500 21.41800 43.23200
H  49.95300 20.63000 45.35400
H  48.72800 21.97600 45.00900
H  50.11100 22.03800 46.13400
H  49.64400 24.97900 42.27900
H  49.57000 23.35800 41.73800
H  52.01600 25.01000 41.41900
H  50.85900 24.18500 40.21300
H  53.88900 17.63200 44.65900
H  55.08000 17.62100 43.34300
H  53.64600 18.69200 43.12800
H  59.64400 18.34500 45.24400
H  58.78900 19.60300 46.16200
H  59.23400 19.76600 44.37200
H  59.65400 23.73400 45.96700
H  58.27900 25.27400 48.23100
H  58.36700 22.24300 48.11700
H  59.60400 23.43800 48.65700
H  60.09200 22.14700 47.57700
H  60.37300 25.73300 46.39700
H  59.68600 26.78600 47.58900
H  57.99000 26.82300 45.12500
H  59.67500 26.83600 44.59700
H  59.22200 28.15000 45.59700
H  55.11800 29.57300 46.91400
H  54.26100 28.86600 48.34000
H  53.29600 29.64100 47.15000
H  50.09500 26.53000 44.85800
H  49.79800 27.21300 40.67400
H  50.09600 28.89600 41.30000
H  48.40600 28.19000 41.10900

