158

Mg 5.48000 53.50400 41.47200
C  5.06100 50.19200 40.80700
C  8.70500 53.32100 40.02500
C  5.67900 56.84600 41.35900
C  2.14900 53.77500 42.26400
N  6.78000 51.88000 40.43300
C  6.40400 50.61600 40.32500
C  7.52300 49.72900 39.71400
C  8.76300 50.73500 39.80500
C  8.08600 52.09000 40.07500
C  9.65100 50.39200 41.04900
C  7.29500 49.11700 38.29400
C  6.49900 50.02700 37.31000
H  5.76300 49.29300 36.16100
N  7.07000 54.90500 41.03800
C  8.26900 54.56100 40.48000
C  9.06600 55.80500 40.43500
C  8.18700 56.88500 40.77000
C  6.88200 56.27100 40.98100
C  10.50100 55.82000 40.06400
C  8.55700 58.31300 40.66400
O  9.70200 58.68900 40.31000
C  7.71900 59.33200 41.18700
N  4.13300 55.11500 41.76000
C  4.40100 56.43300 41.71900
C  3.33000 57.37200 42.27200
C  2.18200 56.39300 42.51900
C  2.85500 55.00400 42.12800
C  3.90200 58.19800 43.54100
C  0.95100 56.89100 41.60500
C  1.11300 56.63200 40.15200
N  3.85000 52.26500 41.59300
C  2.58500 52.44700 41.99100
C  1.85100 51.18300 42.02700
C  2.81400 50.26700 41.64300
C  4.00400 51.01000 41.30100
C  0.42100 51.00600 42.53800
C  3.06100 48.93400 41.48900
O  2.42500 47.92600 41.76600
C  4.52700 48.76300 40.91700
C  4.41200 47.97300 39.65100
O  3.65700 48.23200 38.67500
O  5.06000 46.82600 39.76400
C  4.67800 45.78900 38.76300
H  9.73200 53.35800 39.65500
H  5.67000 57.92500 41.19300
H  1.07900 53.85500 42.46600
H  7.72200 48.88200 40.37100
H  9.45500 50.74000 38.96200
H  9.80000 51.28400 41.65700
H  10.59600 49.95200 40.73100
H  9.07000 49.71700 41.67700
H  6.73400 48.18300 38.25600
H  8.20800 48.90100 37.73900
H  7.04600 50.84900 36.85000
H  5.77600 50.55600 37.93200
H  10.63200 56.07700 39.01300
H  11.05700 54.88800 40.16500
H  10.98600 56.62600 40.61400
H  8.17400 60.27700 41.48300
H  7.33500 58.82100 42.07000
H  6.91300 59.37900 40.45600
H  3.09600 58.00900 41.41900
H  1.94300 56.37500 43.58200
H  4.89100 57.82800 43.80900
H  3.27600 58.02200 44.41600
H  3.94600 59.26700 43.32900
H  0.79100 57.95200 41.79900
H  0.03700 56.38300 41.91400
H  0.88400 57.53500 39.58700
H  0.43800 55.80200 39.94300
H  2.11900 56.32700 39.86600
H  0.44200 51.02900 43.62700
H  0.17700 49.96700 42.31600
H  -0.36400 51.61900 42.09600
H  5.03700 48.09700 41.61300
H  5.53700 45.68700 38.10100
H  3.80000 46.11500 38.20400
H  4.38900 44.86400 39.26300
Mg 0.95200 42.74900 26.09400
C  2.20900 42.77300 29.35900
C  -2.07300 41.78900 27.54600
C  -0.14400 41.70300 23.11900
C  4.04600 43.48600 24.86400
N  0.22000 42.43400 28.34700
C  0.87200 42.46800 29.45900
C  -0.02400 42.43600 30.66400
C  -1.47200 42.15100 29.99400
C  -1.08900 42.06400 28.51900
C  -2.08200 40.84300 30.52800
C  0.08700 43.59600 31.69600
C  0.45500 43.15800 33.21600
H  -0.59100 43.72800 34.19800
N  -0.92200 42.05200 25.35300
C  -2.01800 41.73000 26.08300
C  -3.13700 41.26100 25.23100
C  -2.63100 41.30500 23.90400
C  -1.18200 41.69000 24.07200
C  -4.61200 40.99200 25.65400
C  -3.34300 41.11800 22.54300
O  -2.68800 41.23000 21.52500
C  -4.89800 40.90200 22.30900
N  1.80500 42.77400 24.29800
C  1.16500 42.18200 23.19400
C  2.10500 42.04400 22.04800
C  3.33600 42.99800 22.48000
C  3.11800 43.03600 23.98000
C  2.46400 40.59800 21.58100
C  3.46100 44.41400 21.71800
C  4.07500 44.31300 20.32600
N  2.83400 43.09600 26.89300
C  4.00800 43.40800 26.23800
C  5.06500 43.45400 27.21200
C  4.43500 43.23900 28.45200
C  3.08400 43.04200 28.23100
C  6.56000 43.48300 26.93300
C  4.65200 42.99000 29.86600
O  5.67600 42.90900 30.49100
C  3.21400 42.82200 30.54400
C  3.17200 41.59900 31.39900
O  3.03600 40.44300 31.03400
O  3.39800 41.92900 32.78700
C  3.34500 40.74500 33.65200
H  -3.07000 41.58000 27.93900
H  -0.49800 41.36400 22.14300
H  4.94800 43.74400 24.30500
H  0.20600 41.56000 31.27100
H  -2.18600 42.95100 30.18800
H  -3.13900 41.04800 30.70000
H  -1.66700 40.56800 31.49800
H  -1.88700 39.99500 29.87200
H  -0.78900 44.24000 31.77500
H  0.87600 44.26700 31.35800
H  1.38600 43.68200 33.43000
H  0.63600 42.09100 33.34600
H  -4.76400 41.26100 26.70000
H  -5.03800 40.00500 25.47900
H  -5.24600 41.78200 25.25100
H  -5.41000 41.82000 22.59500
H  -5.02400 40.19100 23.12600
H  -5.13100 40.42500 21.35700
H  1.55700 42.40700 21.17900
H  4.21900 42.37200 22.35500
H  2.55700 39.87400 22.39000
H  3.41500 40.63500 21.04900
H  1.72900 40.27600 20.84300
H  3.93300 45.19500 22.31300
H  2.43100 44.75000 21.59400
H  4.42400 43.30700 20.09300
H  4.94800 44.96600 20.33400
H  3.41200 44.65000 19.52900
H  6.80800 44.54400 26.95500
H  6.76400 43.04200 25.95700
H  7.02600 42.96900 27.77400
H  3.16500 43.72100 31.15800
H  2.51300 40.11200 33.34600
H  3.30300 41.15000 34.66400
H  4.25400 40.14400 33.63700

