158

Mg 30.37200 58.72000 40.11100
C  27.45800 57.05000 39.07900
C  32.19200 56.08300 38.98500
C  33.04200 60.80600 40.32700
C  28.28500 61.43600 41.02600
N  29.82400 56.84800 38.97000
C  28.61400 56.36300 38.78700
C  28.64500 54.93300 38.28200
C  30.12800 54.46100 38.60100
C  30.81000 55.87800 38.87400
C  30.34100 53.40900 39.77300
C  28.25400 54.94300 36.77800
C  26.91900 54.28500 36.24600
H  26.00500 55.06100 35.29200
N  32.38700 58.48600 39.72500
C  32.90800 57.29600 39.33700
C  34.35700 57.44700 39.35500
C  34.68700 58.80100 39.68800
C  33.35000 59.42500 40.01700
C  35.39900 56.35900 39.13500
C  36.04600 59.38500 39.71200
O  37.03700 58.76700 39.28900
C  36.37400 60.68300 40.34100
N  30.63900 60.78700 40.53300
C  31.82900 61.39000 40.66100
C  31.64900 62.91800 40.96400
C  30.16400 63.04200 41.48500
C  29.62700 61.66600 40.98700
C  32.69200 63.77900 41.78100
C  29.47000 64.25400 41.00000
C  28.73100 64.96500 42.11900
N  28.27600 59.13900 40.11700
C  27.58600 60.25500 40.63800
C  26.13800 60.00400 40.52900
C  26.05700 58.77300 39.87500
C  27.39600 58.35400 39.63900
C  25.09000 60.90100 40.98900
C  25.14100 57.78900 39.43000
O  23.90300 57.75900 39.37500
C  26.02200 56.63000 39.02800
C  25.60800 55.52300 39.94400
O  25.94600 55.50100 41.11400
O  25.05700 54.53300 39.22800
C  25.13300 53.13600 39.64400
H  32.73900 55.18800 38.67900
H  33.90200 61.47700 40.35200
H  27.64300 62.16200 41.53000
H  28.02800 54.32200 38.94100
H  30.64300 54.09400 37.71300
H  29.36100 53.05600 40.09600
H  30.97000 53.82500 40.56000
H  30.93600 52.52900 39.52900
H  29.04800 54.50200 36.17500
H  28.11600 55.98300 36.48200
H  26.23000 54.03200 37.05200
H  27.16800 53.37900 35.69400
H  36.23700 56.41000 39.83100
H  35.86200 56.46400 38.15400
H  35.10500 55.32000 38.98500
H  36.02100 61.47000 39.67500
H  37.46400 60.70200 40.33400
H  35.98500 60.70800 41.35800
H  31.64400 63.30600 39.94500
H  30.09900 62.88800 42.56200
H  33.09200 64.59900 41.18400
H  33.51800 63.13400 42.08300
H  32.40500 64.21200 42.73900
H  28.82000 63.94600 40.18100
H  30.15400 64.89000 40.43700
H  27.66700 64.73500 42.17300
H  28.69600 66.05000 42.02400
H  29.20500 64.74000 43.07400
H  24.19100 60.29500 41.09600
H  25.02500 61.68700 40.23600
H  25.38400 61.22900 41.98600
H  25.75900 56.20900 38.05700
H  26.08100 52.97100 40.15700
H  25.04400 52.64500 38.67500
H  24.42600 52.85900 40.42500
Mg 27.38400 50.60500 27.06400
C  24.84100 51.22600 29.50600
C  29.44100 49.73800 29.50900
C  29.50700 49.57500 24.62000
C  25.10800 51.64800 24.73500
N  27.06200 50.33600 29.22700
C  26.01000 50.70700 30.01000
C  26.39400 50.47400 31.51900
C  27.91000 50.13100 31.46700
C  28.14100 50.00500 29.93900
C  28.85000 51.16300 32.16000
C  25.40200 49.38900 32.10500
C  24.56200 49.80700 33.37600
H  24.53900 48.90300 34.58200
N  29.28000 49.93100 27.04700
C  29.92600 49.64800 28.20500
C  31.30700 49.27100 27.88300
C  31.40800 49.19900 26.39700
C  30.06700 49.55600 25.92300
C  32.39300 48.94700 28.85300
C  32.48900 48.67900 25.55800
O  32.41300 48.83000 24.35400
C  33.80800 48.16400 26.01800
N  27.27800 50.55700 24.94000
C  28.30500 50.06300 24.11200
C  27.91400 50.05300 22.62600
C  26.59400 50.94700 22.66500
C  26.26500 51.08400 24.18100
C  28.95300 50.47400 21.50700
C  25.43300 50.52700 21.74100
C  24.29500 49.75600 22.32600
N  25.48700 51.40500 27.05900
C  24.68400 51.74000 26.03100
C  23.42700 52.32600 26.45600
C  23.46800 52.18500 27.84400
C  24.67300 51.55900 28.11600
C  22.33100 53.05600 25.60800
C  22.76000 52.41600 29.11500
O  21.75200 53.07500 29.42900
C  23.64900 51.75800 30.21300
C  23.82100 52.80100 31.30600
O  24.52700 53.81800 31.17200
O  22.96600 52.65000 32.32700
C  23.00700 53.58100 33.46800
H  30.11300 49.47500 30.32900
H  30.28800 49.29000 23.91200
H  24.46200 52.02700 23.94000
H  26.28900 51.42800 32.03600
H  27.94600 49.17000 31.98000
H  29.83200 51.05200 31.70100
H  28.83500 50.95500 33.23000
H  28.44100 52.16800 32.05900
H  25.87000 48.44900 32.39600
H  24.64000 49.03500 31.41100
H  23.52100 50.08800 33.21400
H  25.00000 50.73100 33.75300
H  32.33500 47.88000 29.07100
H  32.31800 49.57900 29.73800
H  33.35500 49.04200 28.34900
H  34.32700 48.92600 26.59800
H  34.48300 47.71800 25.28800
H  33.46300 47.37800 26.69000
H  27.62900 49.00400 22.54900
H  26.92400 51.92900 22.32800
H  29.51400 49.63900 21.08700
H  29.57700 51.34100 21.72300
H  28.43200 50.92400 20.66200
H  25.87300 49.89200 20.97200
H  25.07400 51.47700 21.34500
H  23.95700 49.03200 21.58500
H  23.55800 50.50600 22.61400
H  24.64300 49.22800 23.21300
H  22.21000 54.03700 26.06800
H  21.33200 52.63200 25.50700
H  22.66400 53.25500 24.58900
H  23.10800 50.92500 30.66200
H  23.72900 53.17500 34.17600
H  22.07200 53.64300 34.02500
H  23.36000 54.59200 33.26200

