158

Mg 1.76500 -1.76400 44.43800
C  5.14200 -1.15300 43.85800
C  0.97900 0.83800 42.40100
C  -1.38700 -2.92200 44.22000
C  2.75300 -4.64600 46.27600
N  2.86800 -0.48500 43.25800
C  4.24000 -0.48600 43.05700
C  4.68500 0.56900 42.04100
C  3.38600 1.39500 41.85800
C  2.33200 0.53900 42.53200
C  3.41600 2.76500 42.64700
C  5.12600 -0.14800 40.71200
C  6.45700 0.32600 40.15700
H  6.52400 1.14700 38.82700
N  -0.03800 -0.94200 43.59600
C  -0.14600 0.14200 42.79700
C  -1.53900 0.33500 42.44100
C  -2.30700 -0.69800 42.89400
C  -1.25300 -1.62800 43.59600
C  -1.92200 1.59700 41.73500
C  -3.80000 -0.90600 42.79300
O  -4.40400 -0.20900 41.99600
C  -4.50600 -2.00000 43.62000
N  0.82900 -3.62900 45.08700
C  -0.50500 -3.80300 44.94900
C  -0.90100 -5.24100 45.48800
C  0.42300 -5.62700 46.31800
C  1.39000 -4.57000 45.91400
C  -2.17200 -5.39900 46.41500
C  0.97400 -7.03800 46.10600
C  0.95900 -7.86100 47.38300
N  3.55300 -2.77700 45.04800
C  3.84700 -3.88100 45.80400
C  5.22000 -4.01100 45.99300
C  5.83200 -2.99400 45.20400
C  4.76700 -2.23700 44.67400
C  5.97700 -5.09800 46.70900
C  7.08000 -2.47400 44.61600
O  8.23800 -2.87900 44.78300
C  6.70200 -1.09000 43.79800
C  7.24700 0.15400 44.44000
O  6.93000 0.61300 45.51800
O  8.05500 0.80100 43.53900
C  8.54500 2.09300 43.99600
H  0.77200 1.69700 41.76000
H  -2.42200 -3.23800 44.07600
H  3.12300 -5.44000 46.92700
H  5.48300 1.19500 42.44000
H  3.18000 1.51800 40.79500
H  3.37400 3.60500 41.95400
H  4.33400 2.82700 43.23200
H  2.61400 2.81600 43.38200
H  4.29200 -0.10900 40.01100
H  5.28100 -1.17800 41.03300
H  7.30200 -0.35800 40.23200
H  6.85500 1.03500 40.88200
H  -2.85500 1.68800 41.17900
H  -1.15900 1.80900 40.98600
H  -1.70000 2.39700 42.44100
H  -4.42800 -2.99700 43.18600
H  -5.55300 -1.70200 43.68100
H  -4.08800 -1.98600 44.62600
H  -0.98800 -5.87200 44.60300
H  0.17600 -5.36500 47.34700
H  -2.77900 -4.49800 46.33200
H  -1.88400 -5.53200 47.45800
H  -2.68300 -6.25900 45.98200
H  2.00800 -7.07700 45.76400
H  0.36000 -7.66300 45.45700
H  1.66500 -8.66400 47.16700
H  -0.04100 -8.29300 47.39500
H  1.23500 -7.18900 48.19600
H  5.54400 -5.35100 47.67600
H  7.03900 -4.85700 46.75700
H  5.89300 -6.01200 46.12100
H  6.88900 -1.18900 42.72900
H  7.67100 2.74300 44.04200
H  9.22300 2.40700 43.20200
H  8.84300 1.93100 45.03200
Mg 6.57200 54.24300 41.36800
C  5.89000 50.89100 40.60200
C  9.58100 53.89800 39.79500
C  6.68700 57.65500 41.33900
C  3.24100 54.50200 42.67600
N  7.59200 52.59600 40.29300
C  7.10400 51.35800 40.04200
C  8.19900 50.61300 39.25200
C  9.50500 51.37000 39.48500
C  8.87600 52.72300 39.93000
C  10.40400 50.86300 40.68500
C  7.79900 50.59900 37.73700
C  8.09300 49.25700 37.02700
H  7.36400 49.20100 35.68900
N  8.02400 55.61100 40.83600
C  9.20600 55.22200 40.18600
C  9.95600 56.47400 40.09900
C  9.04500 57.56200 40.36200
C  7.87100 56.95400 40.87000
C  11.40600 56.49000 39.55700
C  9.40700 59.03800 40.11700
O  10.54600 59.37200 39.78900
C  8.41000 60.10900 40.17200
N  5.12000 55.85400 42.12100
C  5.46900 57.12400 41.89400
C  4.34600 58.05500 42.26400
C  3.28400 57.10500 42.81200
C  3.84700 55.73100 42.46700
C  4.83600 59.13400 43.26900
C  1.87800 57.31900 42.27300
C  0.73700 56.97600 43.18300
N  4.93500 53.01300 41.57100
C  3.69700 53.23100 42.20200
C  3.02500 51.97500 42.43200
C  3.85900 51.02800 41.74800
C  4.97100 51.65800 41.27900
C  1.84900 51.72800 43.25600
C  4.05600 49.60100 41.47200
O  3.30700 48.68100 41.78400
C  5.37800 49.43300 40.52900
C  4.90900 48.93400 39.13600
O  4.25700 49.65100 38.36800
O  5.20800 47.58800 39.03800
C  4.55600 46.98500 37.86700
H  10.60900 53.84300 39.43000
H  6.53900 58.72600 41.18700
H  2.25500 54.49700 43.14600
H  8.34000 49.57200 39.54000
H  10.10400 51.38100 38.57500
H  10.12500 49.86800 41.03200
H  10.37000 51.40300 41.63100
H  11.42700 50.89200 40.31100
H  8.42400 51.31700 37.20700
H  6.76700 50.92000 37.60000
H  7.71500 48.57000 37.78400
H  9.14000 49.07400 36.78500
H  12.05500 57.14700 40.13700
H  11.58900 56.99800 38.61000
H  11.81500 55.48000 39.56900
H  8.88000 61.05500 39.90300
H  7.98800 60.23500 41.16900
H  7.53400 59.99300 39.53400
H  3.98100 58.60800 41.39800
H  3.33200 57.22100 43.89500
H  4.25800 59.21900 44.18900
H  4.70200 60.12100 42.82700
H  5.88600 59.14000 43.55900
H  1.60600 56.72800 41.39800
H  1.81900 58.36600 41.97400
H  1.05700 56.58700 44.15000
H  0.18600 56.16900 42.70000
H  0.00500 57.77200 43.04500
H  0.95500 52.20700 42.85700
H  2.01200 52.04000 44.28800
H  1.50600 50.69500 43.31500
H  6.10600 48.71100 40.89700
H  3.60800 47.44900 37.59400
H  4.49100 45.90600 38.01200
H  5.26900 47.19300 37.06900

