158

Mg 42.32200 42.02200 26.25900
C  41.52000 44.25300 28.80700
C  43.79100 39.93900 28.83700
C  43.44300 39.94700 23.86700
C  41.63200 44.45900 23.91100
N  42.72300 42.17500 28.57600
C  42.14400 43.11200 29.36300
C  42.12000 42.66600 30.83300
C  43.17400 41.45400 30.78600
C  43.22200 41.14900 29.31500
C  44.59500 41.75900 31.33500
C  40.57300 42.40600 31.20500
C  40.02900 43.06200 32.49700
H  40.93500 43.37500 33.71100
N  43.42500 40.25700 26.34600
C  43.97100 39.54700 27.39500
C  44.52700 38.33000 26.89800
C  44.37400 38.22300 25.52200
C  43.68300 39.51200 25.17400
C  45.10200 37.31300 27.89200
C  44.57600 36.99900 24.66000
O  44.29600 37.12900 23.44600
C  45.10900 35.71400 25.13900
N  42.67100 42.25600 24.11600
C  42.93900 41.18600 23.37100
C  42.91300 41.55900 21.90900
C  42.02900 42.82600 21.93200
C  42.16600 43.31600 23.34600
C  44.35500 41.80300 21.31500
C  40.58600 42.60000 21.44600
C  39.69300 41.77000 22.32700
N  41.69600 43.93000 26.24600
C  41.43300 44.82200 25.26500
C  40.94200 46.07600 25.82900
C  40.94900 45.86600 27.22400
C  41.38300 44.57100 27.39900
C  40.33900 47.24000 25.10900
C  40.47000 46.46900 28.45300
O  39.79700 47.49400 28.77000
C  40.77000 45.39900 29.55800
C  41.51100 46.12100 30.61100
O  42.69100 46.42900 30.60000
O  40.64000 46.48700 31.63500
C  41.26900 47.30300 32.67900
H  44.26400 39.26800 29.55700
H  43.41700 39.23000 23.04300
H  41.13800 45.16100 23.23600
H  42.53600 43.47700 31.43200
H  42.60000 40.75200 31.39100
H  44.63900 41.29400 32.32000
H  44.67200 42.83300 31.50900
H  45.37200 41.40100 30.66000
H  40.55300 41.31700 31.23000
H  39.88900 42.68800 30.40400
H  39.30800 42.30100 32.79600
H  39.45000 43.97400 32.35300
H  46.02500 36.83800 27.55900
H  44.41500 36.48600 28.07000
H  45.19400 37.73000 28.89500
H  46.06300 35.90200 25.63200
H  45.22000 35.17700 24.19800
H  44.40000 35.09800 25.69200
H  42.41000 40.73400 21.40400
H  42.43400 43.55600 21.23100
H  45.14500 41.26500 21.83900
H  44.58700 42.86400 21.40400
H  44.29800 41.66700 20.23500
H  40.64100 42.10600 20.47600
H  40.09900 43.54300 21.20100
H  40.23000 41.59200 23.25800
H  39.53900 40.83200 21.79300
H  38.73300 42.20700 22.60400
H  39.30100 47.39900 25.40100
H  40.27600 47.01400 24.04400
H  40.91500 48.14000 25.32700
H  39.96400 44.88600 30.08300
H  41.57400 48.25100 32.23600
H  41.99500 46.79900 33.31800
H  40.42300 47.38000 33.36100
Mg 35.91400 48.95400 25.24300
C  36.28900 47.14700 28.07300
C  34.48000 51.53000 26.92400
C  35.26900 50.52500 22.23900
C  37.08800 46.30700 23.31200
N  35.46700 49.23300 27.29400
C  35.76000 48.38900 28.36500
C  35.28600 48.94300 29.68500
C  34.56900 50.27100 29.22300
C  34.81900 50.38000 27.70800
C  33.11900 50.43800 29.76400
C  36.48600 49.11600 30.66400
C  36.25000 48.55600 32.08100
H  34.79600 48.43600 32.59100
N  34.96300 50.76900 24.68900
C  34.52500 51.71600 25.54100
C  34.03000 52.85800 24.82300
C  34.21600 52.56100 23.44600
C  34.84300 51.25800 23.41400
C  33.44700 54.17600 25.45000
C  34.02400 53.41800 22.23600
O  34.32000 53.13500 21.07700
C  33.27400 54.74900 22.41900
N  36.10400 48.50600 23.00200
C  35.84900 49.32100 22.06000
C  36.09300 48.73700 20.63400
C  36.67900 47.42700 20.97600
C  36.58300 47.32500 22.50600
C  34.92700 48.63000 19.60100
C  38.19200 47.25800 20.52100
C  39.33000 47.71200 21.36000
N  36.51600 47.09000 25.58600
C  37.05600 46.14500 24.72500
C  37.35200 44.94200 25.53300
C  37.11300 45.32500 26.81600
C  36.59600 46.59200 26.80300
C  37.94500 43.68600 25.14400
C  37.08100 44.84500 28.22300
O  37.31200 43.75800 28.74500
C  36.63700 46.07600 29.07100
C  35.40400 45.65300 29.86700
O  34.19200 45.76800 29.56400
O  35.84100 44.98600 30.94400
C  34.87400 44.34500 31.76600
H  34.08900 52.40300 27.45200
H  35.10300 50.99200 21.26600
H  37.63900 45.53700 22.76800
H  34.51900 48.34500 30.17700
H  35.14000 51.13200 29.57100
H  32.80600 49.46600 30.14700
H  32.48400 50.61300 28.89500
H  33.08900 51.19300 30.55000
H  36.85700 50.14100 30.67400
H  37.27900 48.49800 30.24300
H  36.78500 49.22300 32.75800
H  36.74100 47.58500 32.02200
H  32.40300 53.95500 25.22500
H  33.86700 55.05600 24.96400
H  33.60200 54.33000 26.51800
H  33.93200 55.45000 22.93300
H  32.38100 54.38000 22.92400
H  32.94500 55.28500 21.52900
H  36.96900 49.23300 20.21600
H  36.13600 46.58500 20.54700
H  35.40000 48.66500 18.62000
H  34.21200 49.45300 19.61600
H  34.41300 47.67300 19.68500
H  38.36400 47.76700 19.57300
H  38.28700 46.18300 20.37200
H  39.02600 48.04300 22.35300
H  39.69500 48.54100 20.75400
H  40.14200 46.99000 21.45200
H  37.32700 42.83500 25.43000
H  38.97300 43.51500 25.46300
H  37.98200 43.74000 24.05600
H  37.43500 46.33300 29.76700
H  35.26600 44.30600 32.78200
H  34.77900 43.27400 31.58800
H  33.87700 44.78600 31.79000

