158

Mg 25.72800 0.96400 28.58600
C  27.86700 1.03300 31.47200
C  23.10400 1.58200 30.82000
C  23.61300 0.30400 26.13800
C  28.50100 0.00900 26.78600
N  25.53600 1.19900 30.87300
C  26.57000 1.38300 31.79700
C  25.98100 1.60300 33.17600
C  24.42100 1.69800 32.96200
C  24.33300 1.47600 31.45400
C  23.65100 0.59600 33.71500
C  26.63800 2.95000 33.78500
C  25.82700 3.50500 35.05800
H  26.50300 3.93600 36.36300
N  23.60600 1.13600 28.47700
C  22.76200 1.37000 29.50200
C  21.42500 1.47700 28.92300
C  21.52300 1.13500 27.51900
C  22.91800 0.74400 27.32400
C  20.16600 1.91500 29.74900
C  20.49900 1.03200 26.47300
O  20.65300 0.54200 25.37400
C  19.24200 1.52800 26.79100
N  25.98500 0.21200 26.84700
C  24.97300 0.11800 25.90500
C  25.49300 -0.10700 24.44100
C  26.96800 0.15400 24.67700
C  27.15500 0.07000 26.16500
C  25.16000 -1.48100 23.80300
C  27.34800 1.59500 24.20700
C  27.72100 1.75000 22.70500
N  27.75400 0.44100 29.07100
C  28.68800 0.07200 28.18600
C  29.90400 -0.34200 28.87200
C  29.60300 0.14000 30.14700
C  28.26900 0.54100 30.24900
C  31.21100 -0.89300 28.32500
C  30.21300 0.33900 31.42300
O  31.35700 0.09800 31.78800
C  29.11600 0.94300 32.37700
C  29.04600 0.14700 33.61100
O  28.61600 -0.98800 33.76800
O  29.42000 0.96200 34.63700
C  29.54100 0.33200 35.99000
H  22.21500 1.77000 31.42600
H  22.98400 0.16900 25.25500
H  29.34100 -0.13900 26.10500
H  26.36200 0.79200 33.79700
H  24.22500 2.72400 33.27300
H  24.31300 -0.25100 33.89500
H  22.85700 0.32200 33.02100
H  23.18900 0.90900 34.65200
H  26.58900 3.69100 32.98800
H  27.67600 2.82600 34.09300
H  25.07400 2.76000 35.31600
H  25.34700 4.44000 34.76700
H  19.80700 2.91100 29.48800
H  20.31100 1.80500 30.82300
H  19.36400 1.20900 29.53500
H  18.71900 0.85200 27.46700
H  18.64800 1.57000 25.87800
H  19.32900 2.53400 27.20300
H  25.03700 0.61100 23.75800
H  27.65600 -0.54700 24.20600
H  26.10600 -2.01900 23.73000
H  24.61000 -1.43400 22.86300
H  24.58100 -2.00400 24.56400
H  28.23000 1.93700 24.74900
H  26.60800 2.32100 24.54300
H  27.21200 2.64800 22.35300
H  27.42500 0.91500 22.07000
H  28.80700 1.80800 22.63000
H  31.10500 -1.19800 27.28400
H  31.48000 -1.82200 28.82700
H  32.02300 -0.18000 28.47400
H  29.34200 1.97300 32.65400
H  28.54700 0.29500 36.43400
H  30.17800 1.04400 36.51500
H  29.95800 -0.66700 35.86800
Mg 41.16500 8.90100 28.94300
C  42.80200 10.27700 31.67800
C  38.88800 7.63800 31.10600
C  39.58000 7.64800 26.22300
C  43.92900 9.78800 26.88200
N  40.93800 8.94100 31.19000
C  41.58900 9.78500 32.05200
C  41.00200 9.83300 33.44500
C  39.78100 8.79900 33.24700
C  39.85000 8.40900 31.71400
C  39.86500 7.52500 34.08500
C  40.58000 11.23400 33.96900
C  39.96000 11.35100 35.39800
H  40.79600 11.89900 36.59500
N  39.50300 7.78600 28.65900
C  38.68800 7.39500 29.73800
C  37.61600 6.59100 29.19100
C  37.82900 6.43600 27.76500
C  38.97700 7.36300 27.50100
C  36.49000 6.05700 30.13900
C  37.03600 5.71500 26.70400
O  37.41400 5.76300 25.54300
C  35.82300 5.01800 27.18000
N  41.64700 8.70700 26.78600
C  40.81300 8.23000 25.85500
C  41.30500 8.40700 24.41700
C  42.72500 9.04300 24.67500
C  42.84200 9.20400 26.23200
C  41.29700 7.13300 23.61400
C  42.91700 10.34300 23.90600
C  42.54000 11.67100 24.55600
N  43.04700 9.64800 29.13400
C  44.02600 10.05200 28.26500
C  45.00900 10.95200 28.92300
C  44.55600 10.92000 30.27800
C  43.40900 10.17600 30.41200
C  46.18400 11.67000 28.33000
C  44.89000 11.43900 31.54100
O  45.75500 12.21500 31.87500
C  43.74400 11.12700 32.58300
C  44.35000 10.36600 33.64100
O  45.14200 9.42000 33.46200
O  43.98600 10.82300 34.87600
C  44.70000 10.31600 36.08900
H  38.16800 7.21700 31.81100
H  39.05800 7.51600 25.27200
H  44.85300 10.08100 26.37800
H  41.72300 9.49300 34.18800
H  38.86500 9.30300 33.55600
H  40.66800 7.66600 34.81000
H  40.02700 6.67600 33.42200
H  39.00200 7.40900 34.74100
H  39.84500 11.68400 33.30200
H  41.48100 11.84600 33.95500
H  39.65800 10.37300 35.77200
H  39.01700 11.89500 35.33800
H  35.61700 6.04700 29.48700
H  36.28600 6.72000 30.98000
H  36.80500 5.12500 30.60800
H  36.09100 4.18900 27.83500
H  35.45700 4.48900 26.30000
H  35.07000 5.66200 27.63400
H  40.68900 9.13000 23.88400
H  43.44500 8.26600 24.41400
H  41.09100 6.37100 24.36500
H  42.16400 6.85900 23.01200
H  40.43900 7.17900 22.94300
H  42.29400 10.31800 23.01200
H  43.93000 10.30700 23.50500
H  43.31100 12.07700 25.21100
H  41.60800 11.43700 25.07000
H  42.28400 12.49500 23.88900
H  47.14000 11.16400 28.46800
H  46.31000 12.62100 28.84700
H  46.01900 11.83500 27.26500
H  43.27500 12.03200 32.96900
H  43.91700 10.63800 36.77500
H  45.70800 10.72900 36.11300
H  44.62200 9.22900 36.12000

