158

Mg 53.65400 23.82500 44.18400
C  51.24800 26.15100 43.23600
C  51.55300 21.32900 43.17900
C  56.34400 21.74700 43.87800
C  55.85600 26.45500 44.86800
N  51.62900 23.81800 43.17300
C  50.80700 24.85400 42.95700
C  49.45500 24.36600 42.39100
C  49.52400 22.83900 42.64000
C  50.99200 22.61200 43.05100
C  48.44900 22.08000 43.54200
C  49.28600 24.83900 40.89400
C  47.86200 25.25200 40.46500
H  47.40400 24.58300 39.10000
N  53.82400 21.75400 43.72200
C  52.82500 20.89000 43.48300
C  53.35800 19.56100 43.44600
C  54.77600 19.69900 43.41000
C  55.06500 21.13100 43.63500
C  52.49800 18.31500 43.18400
C  55.72900 18.49100 43.11400
O  55.29100 17.31900 42.88400
C  57.16800 18.73100 43.04400
N  55.83600 24.05500 44.24200
C  56.71400 23.05400 44.18600
C  58.11600 23.43500 44.28900
C  57.97500 24.97500 44.75200
C  56.45500 25.20500 44.64600
C  58.89300 22.58400 45.35000
C  58.89300 25.96400 43.96500
C  59.28300 27.28800 44.70600
N  53.59300 25.92900 44.14700
C  54.47900 26.86700 44.56400
C  53.93200 28.15900 44.59900
C  52.62700 27.90900 44.14900
C  52.50200 26.57200 43.76500
C  54.57100 29.51000 44.95800
C  51.39100 28.53900 43.77300
O  51.07100 29.72000 43.71900
C  50.50400 27.44200 43.14200
C  50.42300 27.82200 41.75600
O  51.32000 27.77900 40.90700
O  49.25500 28.38300 41.49600
C  49.01300 28.95800 40.16700
H  50.85600 20.50700 42.99900
H  57.17200 21.03500 43.89600
H  56.52500 27.23300 45.24100
H  48.68400 24.71200 43.07900
H  49.35000 22.45700 41.63400
H  47.74800 22.77800 43.99900
H  48.98200 21.44800 44.25200
H  47.84400 21.43800 42.90000
H  49.51700 24.02300 40.20900
H  49.92700 25.69200 40.67000
H  47.94800 26.33200 40.34600
H  47.16600 25.12500 41.29500
H  52.70100 17.97600 42.16800
H  51.45900 18.44600 43.48600
H  52.85000 17.52900 43.85300
H  57.63900 18.89900 44.01300
H  57.34800 19.67600 42.53200
H  57.80700 17.97100 42.59500
H  58.71300 23.28500 43.39000
H  58.03600 25.17500 45.82100
H  59.88800 22.38500 44.95300
H  58.38600 21.67100 45.66300
H  59.10500 23.17200 46.24300
H  58.51200 26.27000 42.99000
H  59.82600 25.44100 43.75500
H  60.36400 27.43200 44.69700
H  59.04100 27.23800 45.76700
H  58.82000 28.14200 44.21100
H  54.50800 29.46300 46.04500
H  53.98800 30.35100 44.58400
H  55.60100 29.52000 44.60000
H  49.52800 27.43100 43.62800
H  49.91800 29.14400 39.58800
H  48.33500 29.80100 40.30100
H  48.34400 28.33300 39.57500
Mg -0.11900 43.95200 26.37900
C  2.02000 43.22900 29.23300
C  -2.68100 42.72600 28.21700
C  -1.82700 44.12800 23.64100
C  2.86700 44.94800 24.62400
N  -0.28800 43.18800 28.47500
C  0.65300 42.95500 29.47000
C  0.01100 42.58800 30.76200
C  -1.43800 42.24100 30.32300
C  -1.49700 42.76900 28.92000
C  -1.84400 40.71900 30.37900
C  0.01200 43.68600 31.88000
C  0.62200 43.38000 33.28600
H  0.13300 42.08200 33.85500
N  -2.04700 43.53700 25.95100
C  -2.93900 42.99300 26.82400
C  -4.25500 42.85100 26.11400
C  -3.99200 43.08000 24.75700
C  -2.58900 43.65100 24.76100
C  -5.47900 42.34700 26.80100
C  -4.83700 42.97500 23.53900
O  -4.48200 43.28200 22.40900
C  -6.17800 42.36300 23.66300
N  0.38500 44.67400 24.46400
C  -0.54800 44.60500 23.51500
C  0.02500 44.96800 22.14000
C  1.48600 45.50600 22.50400
C  1.63100 45.01300 23.95300
C  -0.09900 43.82700 21.07200
C  1.72300 47.02300 22.39600
C  1.20600 47.95900 23.50500
N  2.04400 44.03000 26.80800
C  3.04700 44.48600 25.99800
C  4.25400 44.36900 26.78800
C  3.87400 43.90200 28.01600
C  2.51000 43.75300 28.00800
C  5.62400 44.74000 26.26000
C  4.40200 43.50100 29.30400
O  5.56200 43.40200 29.71600
C  3.19000 43.14600 30.15900
C  3.42000 41.85600 30.85800
O  3.20400 40.76000 30.39300
O  3.90700 42.08100 32.17200
C  4.14600 40.88500 32.98600
H  -3.54300 42.45200 28.82800
H  -2.41200 44.22200 22.72400
H  3.69800 45.20000 23.96200
H  0.57000 41.77100 31.21900
H  -2.15500 42.77200 30.94900
H  -1.08600 40.20200 30.96800
H  -1.74300 40.35100 29.35800
H  -2.83400 40.62800 30.82500
H  -0.97800 44.09500 32.08200
H  0.70300 44.42200 31.46800
H  0.50400 44.25900 33.92000
H  1.70000 43.40900 33.12800
H  -5.45800 42.42400 27.88800
H  -5.64200 41.32700 26.45200
H  -6.34800 42.87000 26.40100
H  -6.13300 41.48900 24.31300
H  -6.57400 42.04500 22.69800
H  -6.84400 43.06500 24.16500
H  -0.55600 45.83900 21.83600
H  2.27000 45.06300 21.89100
H  0.77100 43.95000 20.42600
H  -0.91700 43.92100 20.35900
H  -0.06000 42.79900 21.43400
H  1.28400 47.47800 21.50800
H  2.80300 47.10600 22.27400
H  2.01100 48.64300 23.77600
H  1.18000 47.39300 24.43600
H  0.23300 48.42400 23.34900
H  5.62800 44.47800 25.20200
H  6.29000 44.11100 26.85100
H  5.66000 45.82600 26.35100
H  3.12500 43.89600 30.94700
H  4.82500 40.18400 32.49900
H  3.22400 40.31900 33.11800
H  4.49300 41.13400 33.98900

