158

Mg 44.98800 3.13200 46.65200
C  42.63900 5.54500 45.81200
C  42.30900 0.84300 46.43500
C  47.04600 0.61300 46.85200
C  47.39400 5.52600 46.71800
N  42.82400 3.12700 45.95600
C  42.07200 4.29500 45.78400
C  40.53100 4.01200 45.43800
C  40.43900 2.60000 46.15300
C  41.94100 2.14200 46.23800
C  39.50900 2.59300 47.40100
C  40.41700 4.07800 43.82700
C  39.45200 5.17600 43.16400
H  39.99000 5.88900 41.85600
N  44.69600 0.99900 46.65800
C  43.52500 0.21400 46.54100
C  43.84800 -1.20800 46.62700
C  45.23000 -1.26100 46.76900
C  45.74700 0.12300 46.67800
C  42.83000 -2.26300 46.55800
C  46.07400 -2.56100 46.81500
O  45.42100 -3.57700 46.84300
C  47.55600 -2.61900 46.87600
N  47.05600 3.06100 46.74500
C  47.65500 1.89300 46.97900
C  49.20100 2.07800 46.95700
C  49.23100 3.66900 47.12700
C  47.84200 4.13700 46.83600
C  49.88500 1.31900 48.12900
C  50.33700 4.35400 46.23200
C  51.71900 4.33300 46.92700
N  45.11300 5.15800 46.30000
C  46.10700 6.00600 46.52600
C  45.62800 7.41700 46.31000
C  44.27600 7.23400 46.00900
C  44.02400 5.86500 45.99400
C  46.43000 8.69900 46.50500
C  43.03200 7.97400 45.68700
O  42.77300 9.10700 45.49600
C  41.96400 6.87600 45.59400
C  40.90700 7.24600 46.60800
O  40.78300 6.79500 47.71300
O  39.98200 8.01700 45.92400
C  38.86900 8.47400 46.77500
H  41.37300 0.29000 46.33000
H  47.80400 -0.16100 46.98500
H  48.10800 6.35100 46.70400
H  39.85600 4.68700 45.96600
H  40.06400 1.86900 45.43700
H  38.93400 3.51900 47.42300
H  40.13700 2.60100 48.29200
H  38.87900 1.70300 47.39200
H  40.09600 3.07100 43.55900
H  41.43700 4.20200 43.46400
H  39.21000 5.92400 43.91900
H  38.51000 4.68300 42.92500
H  41.92800 -1.89100 47.04400
H  42.95900 -3.22600 47.05100
H  42.55300 -2.41800 45.51500
H  47.89200 -2.21000 45.92300
H  47.88700 -3.65600 46.92300
H  47.84900 -2.04800 47.75700
H  49.67600 1.68100 46.06100
H  49.46100 4.00600 48.13700
H  50.72800 0.73800 47.75600
H  49.28600 0.59700 48.68500
H  50.29300 2.05500 48.82100
H  50.04000 5.39600 46.11500
H  50.55200 3.83900 45.29600
H  51.68800 3.75400 47.85100
H  52.11600 5.31400 47.18900
H  52.49700 4.01600 46.23200
H  47.11000 9.00600 45.71100
H  46.87000 8.72300 47.50200
H  45.70800 9.50700 46.62800
H  41.62200 6.97100 44.56300
H  38.33000 9.32300 46.35400
H  39.26600 8.88200 47.70500
H  38.29700 7.56200 46.94300
Mg -11.25800 18.45500 43.08500
C  -7.75600 18.69300 43.93700
C  -11.50800 21.81100 42.86700
C  -14.28000 18.02500 41.83000
C  -10.72100 14.91700 43.09200
N  -9.75600 19.95900 43.36600
C  -8.43700 19.87100 43.65600
C  -7.76300 21.21800 43.37000
C  -9.01800 22.22900 43.48900
C  -10.20000 21.32000 43.16100
C  -9.17900 23.08000 44.78700
C  -7.20600 21.14100 41.89600
C  -5.72100 21.32800 41.83600
H  -5.14600 21.99200 40.62900
N  -12.73600 19.74900 42.42100
C  -12.70100 21.11200 42.40500
C  -13.82000 21.68500 41.80100
C  -14.71500 20.54000 41.44800
C  -13.97600 19.38100 41.97500
C  -13.95600 23.14900 41.58600
C  -16.10700 20.70200 40.90300
O  -16.50700 21.78700 40.55200
C  -16.96500 19.55800 40.58900
N  -12.32300 16.75800 42.50200
C  -13.59600 16.83400 41.98300
C  -14.20400 15.47500 41.75300
C  -13.13700 14.43600 42.26800
C  -11.96800 15.38500 42.61000
C  -15.68000 15.32500 42.24400
C  -12.74700 13.32600 41.17400
C  -12.58000 11.84500 41.69900
N  -9.63800 16.95100 43.57700
C  -9.60500 15.61600 43.52300
C  -8.27000 15.14800 43.83700
C  -7.49400 16.27000 44.08600
C  -8.41100 17.38100 43.93800
C  -7.83200 13.69600 43.83200
C  -6.17900 16.83100 44.41400
O  -5.13500 16.26000 44.79000
C  -6.32800 18.35700 44.35500
C  -5.91400 18.87000 45.71900
O  -6.55700 18.76800 46.71500
O  -4.57200 19.27300 45.73000
C  -4.07600 20.03200 46.86100
H  -11.48200 22.90200 42.91100
H  -15.26300 17.74400 41.44600
H  -10.51000 13.87800 42.83000
H  -7.10700 21.36000 44.22900
H  -8.83100 22.94300 42.68700
H  -9.49400 24.06900 44.45300
H  -8.19800 23.15900 45.25700
H  -9.90400 22.62000 45.45800
H  -7.66100 21.85800 41.21200
H  -7.42900 20.19300 41.40700
H  -5.25400 20.37300 42.07700
H  -5.44700 21.91500 42.71300
H  -14.36900 23.40600 40.61000
H  -12.95400 23.56900 41.50100
H  -14.55600 23.59300 42.38000
H  -16.60000 18.96300 39.75100
H  -17.92600 19.89800 40.20300
H  -17.16900 18.91400 41.44400
H  -14.16600 15.36900 40.66900
H  -13.46600 13.92600 43.17400
H  -15.96100 16.16900 42.87400
H  -15.75800 14.36300 42.74900
H  -16.33400 15.23900 41.37700
H  -11.83200 13.66800 40.69000
H  -13.48900 13.33900 40.37500
H  -12.46700 11.09000 40.92100
H  -13.53900 11.48500 42.07200
H  -11.84900 11.87400 42.50600
H  -8.05600 13.27600 42.85100
H  -8.27600 13.12700 44.64900
H  -6.74600 13.61700 43.88600
H  -5.55000 18.56500 43.62000
H  -4.28700 21.09400 46.73200
H  -3.01000 20.06500 47.08800
H  -4.67300 19.79100 47.74000

