158

Mg 25.96100 2.12500 29.85600
C  27.91800 1.92500 32.77500
C  23.17200 2.57600 31.83100
C  24.24600 2.03900 27.16100
C  28.88400 1.19400 28.04400
N  25.60800 2.26600 32.14900
C  26.58300 2.23200 33.11900
C  25.98300 2.50800 34.56200
C  24.47100 2.61700 34.22200
C  24.36600 2.42500 32.65300
C  23.56800 1.78700 35.11800
C  26.62300 3.75200 35.26100
C  27.20500 3.51800 36.78300
H  26.77700 4.49500 37.93000
N  24.00300 2.40300 29.51600
C  23.01100 2.52000 30.39700
C  21.78400 2.80300 29.69600
C  22.04000 2.61800 28.31300
C  23.45600 2.32400 28.25800
C  20.46500 3.18600 30.38000
C  21.07700 2.68300 27.19700
O  21.38800 2.69600 25.95900
C  19.62700 2.68800 27.54400
N  26.52800 1.80300 27.87500
C  25.58600 1.88600 26.92300
C  26.18200 1.52500 25.53500
C  27.77700 1.50000 25.89900
C  27.74200 1.45400 27.34500
C  25.65000 0.11000 25.17400
C  28.52500 2.72500 25.20000
C  29.78400 2.30800 24.33300
N  27.92200 1.58800 30.27200
C  29.01000 1.31600 29.48700
C  30.14400 0.96300 30.27700
C  29.77100 1.23700 31.54200
C  28.45000 1.59700 31.51600
C  31.51100 0.40200 29.80000
C  30.29900 1.23500 32.90700
O  31.41400 0.93100 33.33600
C  29.02200 1.61200 33.80300
C  28.66100 0.44800 34.71700
O  28.02900 -0.53800 34.41500
O  29.00300 0.78300 36.02000
C  28.33500 -0.04200 36.99900
H  22.25700 2.85500 32.35700
H  23.71100 1.92500 26.21600
H  29.83700 1.06700 27.52500
H  26.26000 1.65200 35.17700
H  24.21900 3.64000 34.50000
H  22.97800 2.39500 35.80400
H  24.14000 1.09800 35.74000
H  22.90100 1.25100 34.44300
H  25.91600 4.57600 35.17100
H  27.52000 3.90900 34.66200
H  28.29100 3.56300 36.86400
H  26.92600 2.49400 37.03400
H  20.22100 4.18700 30.02200
H  20.60400 3.17400 31.46100
H  19.67400 2.44800 30.24900
H  19.27900 1.98200 28.29800
H  19.03100 2.60000 26.63500
H  19.32900 3.62600 28.01300
H  25.84600 2.26600 24.81000
H  28.19500 0.60000 25.44900
H  24.73300 -0.12100 25.71500
H  26.26200 -0.75400 25.43200
H  25.38200 0.06800 24.11800
H  28.90700 3.40700 25.96000
H  27.85700 3.30600 24.56300
H  30.65900 2.67300 24.87000
H  29.77000 2.85200 23.38900
H  29.94400 1.23500 24.22500
H  31.62900 -0.53900 30.33800
H  32.27100 1.15500 30.00800
H  31.42500 0.01700 28.78400
H  29.29600 2.48400 34.39600
H  28.64200 -1.08400 37.08800
H  27.26900 0.07200 36.80300
H  28.34500 0.47900 37.95600
Mg 41.44200 8.90300 29.67300
C  43.41600 10.21300 32.39200
C  39.17300 7.71600 31.84700
C  39.78000 7.62000 27.03900
C  44.13200 9.68500 27.50900
N  41.41700 8.95000 31.92400
C  42.19700 9.61800 32.88200
C  41.57400 9.39500 34.32000
C  40.37000 8.48500 34.01800
C  40.30000 8.36800 32.51000
C  40.41400 7.08800 34.62300
C  41.40300 10.82800 35.00700
C  40.38700 10.86600 36.15200
H  40.78100 11.84500 37.28000
N  39.68600 7.82900 29.52300
C  38.88000 7.49100 30.50400
C  37.61000 6.94300 30.05200
C  37.74900 7.06800 28.64900
C  39.08700 7.50000 28.31600
C  36.61300 6.21500 30.97700
C  36.69900 6.84400 27.52300
O  36.97900 6.97700 26.29800
C  35.27800 6.52600 28.02900
N  42.00700 8.30500 27.62900
C  41.08000 7.97700 26.72500
C  41.50700 8.25200 25.30300
C  42.91400 8.91400 25.35600
C  43.07400 8.97200 26.93200
C  41.32800 6.95300 24.49200
C  43.05600 10.29600 24.79000
C  42.18200 11.39000 25.42400
N  43.40400 9.77600 29.85600
C  44.33600 10.02900 28.86900
C  45.38300 10.75100 29.46300
C  45.07800 10.87300 30.84400
C  43.83700 10.23400 31.03100
C  46.45000 11.34200 28.64000
C  45.45700 11.42700 32.20200
O  46.51600 11.92000 32.49000
C  44.39700 10.93000 33.24900
C  45.14500 10.05300 34.29700
O  45.78100 9.04000 33.95100
O  44.88100 10.56300 35.55600
C  45.38000 9.78600 36.73900
H  38.39500 7.48600 32.57800
H  39.17500 7.40700 26.15500
H  44.85400 10.05800 26.78000
H  42.28400 8.80800 34.90200
H  39.47100 8.89400 34.48000
H  39.52800 6.93400 35.23800
H  41.29900 6.82500 35.20400
H  40.33800 6.28900 33.88600
H  41.06100 11.46800 34.19400
H  42.33300 11.22900 35.41100
H  40.25800 9.89000 36.61900
H  39.39400 11.26000 35.93200
H  37.12300 6.10300 31.93400
H  36.25100 5.31800 30.47500
H  35.76400 6.87900 31.14400
H  35.37600 5.64500 28.66400
H  34.52400 6.35700 27.26000
H  34.99800 7.41000 28.60100
H  40.78200 8.96800 24.91400
H  43.79200 8.33200 25.07700
H  42.15200 6.87700 23.78100
H  40.41100 7.07600 23.91500
H  41.22000 6.10200 25.16400
H  43.02900 10.39700 23.70500
H  44.12800 10.48800 24.84100
H  42.84100 12.03500 26.00500
H  41.44200 10.99700 26.12200
H  41.70800 12.09900 24.74500
H  46.83600 12.17800 29.22300
H  46.02000 11.81700 27.75900
H  47.22900 10.60600 28.44200
H  43.94900 11.78000 33.76400
H  45.90500 8.87100 36.46600
H  44.52700 9.51700 37.36100
H  45.98500 10.43900 37.36800

