158

Mg 30.74400 58.31900 39.55600
C  27.98500 56.48600 38.15500
C  32.87300 55.72300 38.47500
C  33.37800 60.14300 40.45000
C  28.52700 60.92600 40.24300
N  30.43100 56.42800 38.23000
C  29.23800 55.85900 37.87100
C  29.50700 54.43600 37.33600
C  31.04900 54.21500 37.61200
C  31.52500 55.54400 38.13300
C  31.31200 52.98900 38.54800
C  29.00000 54.31400 35.83200
C  29.60100 55.34800 34.93900
H  28.67600 56.30400 34.05200
N  32.82800 57.99900 39.43700
C  33.50900 56.91400 38.91700
C  34.92400 57.12400 39.03300
C  35.06300 58.36900 39.71500
C  33.74300 58.91100 39.91300
C  35.94100 56.19400 38.34000
C  36.43300 58.92500 40.07000
O  37.38200 58.23000 39.80200
C  36.69200 60.20700 40.69700
N  30.85300 60.18100 40.24900
C  32.06700 60.73400 40.60500
C  31.92700 62.20400 40.91600
C  30.39400 62.41600 41.05200
C  29.83000 61.06900 40.56000
C  32.86200 62.69300 42.04600
C  29.91500 63.68600 40.24700
C  30.11400 65.07800 40.96200
N  28.72000 58.62200 39.39600
C  27.92000 59.78700 39.70900
C  26.56600 59.46200 39.46100
C  26.58800 58.17400 38.92300
C  27.90900 57.68700 38.89800
C  25.44500 60.36600 39.87000
C  25.70400 57.19500 38.35200
O  24.47100 57.13800 38.21700
C  26.53200 56.00100 37.89900
C  26.09900 54.76100 38.63800
O  26.19300 54.65900 39.88600
O  25.40800 53.90800 37.78800
C  25.03500 52.59800 38.41400
H  33.57000 54.88400 38.40900
H  34.25100 60.68900 40.81300
H  27.84100 61.70600 40.57900
H  28.90300 53.77500 37.95900
H  31.54000 53.93400 36.68000
H  30.45000 52.32300 38.50400
H  31.36000 53.48500 39.51700
H  32.29300 52.54900 38.37200
H  27.91900 54.45300 35.80200
H  29.35900 53.32200 35.56000
H  30.12300 54.70300 34.23200
H  30.38300 56.01100 35.30800
H  36.69800 56.81000 37.85500
H  35.35400 55.51500 37.72100
H  36.49400 55.64500 39.10100
H  36.30700 60.99600 40.05100
H  37.76700 60.35700 40.79400
H  36.08500 60.13900 41.60000
H  32.21400 62.67300 39.97500
H  30.00500 62.54700 42.06100
H  33.49100 61.99700 42.60200
H  32.12900 63.08000 42.75400
H  33.43300 63.56900 41.73900
H  28.83600 63.73200 40.10200
H  30.53900 63.77200 39.35700
H  30.84000 65.61500 40.35200
H  30.50900 64.97400 41.97200
H  29.18400 65.64600 40.97100
H  24.54200 59.78700 39.67500
H  25.39500 61.41000 39.55900
H  25.52000 60.42700 40.95500
H  26.40600 55.82500 36.83100
H  25.69100 52.31900 39.23800
H  25.09700 51.82000 37.65300
H  24.09400 52.61900 38.96400
Mg 36.57200 49.18400 25.10600
C  36.65200 47.25800 28.08900
C  35.17600 51.87700 27.01900
C  35.84300 50.87000 22.35400
C  37.67500 46.46700 23.32300
N  36.01000 49.48600 27.30300
C  36.22200 48.54200 28.32800
C  35.96700 49.19600 29.67300
C  35.31100 50.57400 29.33000
C  35.48100 50.67100 27.78900
C  33.80700 50.79400 29.83000
C  37.34300 49.44800 30.44000
C  37.32800 49.10800 31.91100
H  36.00500 49.32700 32.68200
N  35.67100 51.11000 24.68600
C  35.19300 52.01200 25.62200
C  34.73500 53.13900 24.91200
C  34.99500 52.92800 23.56700
C  35.47600 51.54500 23.51800
C  34.17400 54.38000 25.53000
C  34.88200 53.85900 22.32900
O  35.02000 53.44100 21.18300
C  34.55700 55.22800 22.50200
N  36.71500 48.76900 23.05100
C  36.37200 49.63300 22.09600
C  36.92800 49.11200 20.73000
C  37.59000 47.79700 21.06300
C  37.37000 47.68100 22.54300
C  35.79400 49.11500 19.61500
C  39.05400 47.59800 20.60000
C  40.13300 48.45900 21.31600
N  36.93700 47.29800 25.57400
C  37.47000 46.31100 24.70500
C  37.92700 45.14100 25.55500
C  37.37800 45.39600 26.81100
C  36.90200 46.77900 26.79100
C  38.44400 43.83200 25.07500
C  37.27700 44.86500 28.14200
O  37.53600 43.72900 28.51200
C  36.84800 46.06500 29.00600
C  35.52900 45.78600 29.76500
O  34.44800 45.83400 29.23200
O  35.82200 45.36300 31.06600
C  34.64900 45.12100 31.88500
H  34.73200 52.70400 27.57600
H  35.69400 51.26500 21.34700
H  38.21200 45.71300 22.74500
H  35.26400 48.64500 30.29700
H  35.86600 51.36500 29.83400
H  33.26000 49.89400 30.11000
H  33.29900 51.09500 28.91400
H  33.63800 51.64000 30.49600
H  37.71800 50.47100 30.46800
H  38.05500 48.72400 30.04400
H  37.93200 49.73300 32.57000
H  37.57500 48.06000 32.07600
H  33.69100 54.19000 26.48800
H  33.34500 54.63300 24.87000
H  34.86600 55.22100 25.58600
H  33.50600 55.25900 22.79200
H  34.57100 55.68200 21.51200
H  35.26300 55.75300 23.14600
H  37.76900 49.78500 20.56700
H  36.98900 47.04200 20.55600
H  35.80800 50.01200 18.99600
H  34.85100 49.16000 20.15900
H  35.86200 48.24000 18.96800
H  39.06600 48.00100 19.58800
H  39.43300 46.57800 20.65000
H  40.85400 48.94000 20.65400
H  40.78800 47.83400 21.92300
H  39.67500 49.23700 21.92700
H  39.48600 43.98100 24.79400
H  37.88200 43.58900 24.17300
H  38.39200 43.11100 25.89100
H  37.56300 46.30200 29.79400
H  33.93000 45.93900 31.84500
H  34.95500 45.07700 32.93000
H  34.13100 44.21800 31.56200

