158

Mg 24.33000 -4.96500 45.22100
C  26.85600 -3.02100 43.84100
C  22.12400 -3.54600 43.12100
C  22.29000 -7.57000 45.83300
C  26.91500 -6.76200 46.96300
N  24.47600 -3.39500 43.88000
C  25.56000 -2.72700 43.39100
C  25.22500 -1.59500 42.31700
C  23.66600 -1.65800 42.43400
C  23.35200 -2.90700 43.23000
C  22.93900 -0.34900 43.01100
C  25.66800 -2.09900 40.91700
C  26.23800 -0.94900 40.07700
H  26.02000 -0.94200 38.53600
N  22.43600 -5.50600 44.53000
C  21.68300 -4.78900 43.63300
C  20.45100 -5.47500 43.42600
C  20.49300 -6.64500 44.24500
C  21.72400 -6.57600 44.98700
C  19.35800 -4.99200 42.49200
C  19.41500 -7.67900 44.33200
O  18.37800 -7.57700 43.61400
C  19.37000 -8.79500 45.31800
N  24.69600 -7.00100 46.11600
C  23.54400 -7.72500 46.44100
C  23.89100 -8.96500 47.31100
C  25.30200 -8.58100 47.83500
C  25.68600 -7.39900 46.93000
C  22.86400 -9.23700 48.51300
C  26.28700 -9.79100 47.93700
C  26.81100 -10.40900 46.60800
N  26.42800 -4.85700 45.53400
C  27.31800 -5.63000 46.22500
C  28.68800 -5.11900 46.04800
C  28.54300 -4.09300 45.10300
C  27.17900 -3.99700 44.81900
C  29.93400 -5.69200 46.63700
C  29.25700 -3.12500 44.35100
O  30.48600 -2.89600 44.37000
C  28.20400 -2.45000 43.37800
C  28.36200 -1.03300 43.57200
O  27.87700 -0.25300 44.36600
O  29.07000 -0.60500 42.43800
C  28.99100 0.85000 42.06900
H  21.49400 -3.05800 42.37400
H  21.61300 -8.38800 46.08800
H  27.69700 -7.32300 47.47800
H  25.60800 -0.65700 42.72000
H  23.01600 -1.83700 41.57800
H  22.43600 0.21500 42.22600
H  23.62800 0.44000 43.31500
H  22.32600 -0.58500 43.88100
H  24.90300 -2.71000 40.43700
H  26.49700 -2.80600 40.95500
H  27.30800 -0.94600 40.28300
H  25.84300 0.00400 40.43000
H  19.87600 -5.03700 41.53400
H  19.14000 -3.95100 42.72900
H  18.42700 -5.55900 42.46300
H  19.61600 -8.47100 46.33000
H  19.98900 -9.61400 44.95300
H  18.34500 -9.16400 45.33700
H  23.82700 -9.86400 46.69900
H  25.16200 -8.07200 48.78900
H  22.08000 -8.48600 48.61000
H  23.25300 -9.50700 49.49400
H  22.30000 -10.10300 48.16500
H  25.70700 -10.59300 48.39300
H  27.06600 -9.70100 48.69500
H  27.88900 -10.53900 46.69900
H  26.71900 -9.67500 45.80700
H  26.38100 -11.35200 46.27100
H  30.51200 -6.09200 45.80400
H  29.64700 -6.54300 47.25600
H  30.55400 -4.96400 47.16000
H  28.55000 -2.82300 42.41400
H  28.83300 1.44700 42.96800
H  28.27800 0.99200 41.25800
H  29.92700 1.16800 41.61000
Mg 26.31500 50.36000 27.19700
C  24.10200 51.65600 29.61800
C  28.29600 49.12400 29.53200
C  28.34300 49.19500 24.62500
C  24.10500 51.35900 24.78100
N  26.15900 50.27700 29.33500
C  25.26700 50.91700 30.11600
C  25.51700 50.71800 31.58200
C  27.02100 50.03200 31.55800
C  27.19600 49.81900 30.04900
C  28.20200 50.87600 32.06700
C  24.44100 49.83500 32.23400
C  23.94300 50.25400 33.64500
H  24.96900 50.63600 34.65800
N  28.15200 49.43300 27.08900
C  28.73700 48.86100 28.19000
C  29.91100 48.00500 27.83900
C  30.04400 48.13600 26.40600
C  28.80500 48.94900 25.98200
C  30.73100 47.26600 28.85000
C  31.03900 47.42000 25.41800
O  31.05100 47.60600 24.21300
C  32.03400 46.49200 25.97000
N  26.27700 50.35600 25.00600
C  27.22000 49.84400 24.18000
C  26.86000 50.02300 22.71200
C  25.40000 50.44200 22.79500
C  25.15500 50.66700 24.26500
C  27.77400 51.08700 22.02600
C  24.41600 49.31800 22.25700
C  23.78600 49.53300 20.91800
N  24.59000 51.42100 27.14700
C  23.81600 51.81800 26.05900
C  22.58900 52.48600 26.48800
C  22.71800 52.47100 27.86400
C  23.86500 51.74400 28.23100
C  21.52300 52.97800 25.60600
C  21.96700 52.78500 29.05500
O  20.85500 53.28200 29.19500
C  22.85000 52.26300 30.25200
C  23.30100 53.35900 31.18500
O  24.40600 53.95700 31.15100
O  22.32700 53.55000 32.15300
C  22.50000 54.49200 33.27200
H  28.89400 48.77300 30.37500
H  29.04900 48.88100 23.85300
H  23.31700 51.52200 24.04200
H  25.56700 51.72700 31.99000
H  26.95100 49.08500 32.09400
H  28.89500 51.13700 31.26700
H  28.71200 50.22300 32.77500
H  27.77400 51.79900 32.45700
H  24.71800 48.79100 32.38200
H  23.54700 49.63200 31.64400
H  23.37600 49.38200 33.97000
H  23.24900 51.07900 33.47900
H  30.61500 46.20100 28.64500
H  30.48500 47.53300 29.87700
H  31.76600 47.60400 28.89300
H  32.51600 47.02400 26.79000
H  32.78800 46.42600 25.18500
H  31.53400 45.53700 26.12700
H  27.05500 49.04000 22.28400
H  25.16300 51.40100 22.33500
H  28.33100 51.63000 22.79000
H  27.14800 51.62000 21.31100
H  28.49900 50.54600 21.41800
H  23.54700 49.15600 22.89500
H  24.89500 48.34600 22.13200
H  22.81800 49.05200 21.05900
H  24.28200 49.10200 20.04700
H  23.75300 50.58300 20.62700
H  21.91900 53.17200 24.60900
H  21.05300 53.84700 26.06500
H  20.69600 52.29600 25.40800
H  22.20700 51.59500 30.82500
H  23.14900 54.04200 34.02300
H  21.53000 54.75900 33.69100
H  23.01500 55.34500 32.83000

