158

Mg 42.25400 41.11100 26.41600
C  41.63800 43.50500 28.95100
C  42.96000 38.73900 28.58800
C  43.49400 39.29400 23.76300
C  41.76400 43.82600 24.02600
N  42.52100 41.23400 28.58600
C  41.99300 42.19600 29.46100
C  41.89300 41.68000 30.94700
C  42.30400 40.18100 30.67500
C  42.54500 40.00800 29.18600
C  43.42100 39.69100 31.66400
C  40.47300 41.89100 31.58000
C  40.21900 41.18800 32.93800
H  39.48400 42.02300 34.02400
N  43.03800 39.25100 26.23400
C  43.34800 38.38100 27.27600
C  43.84200 37.15100 26.77500
C  44.04500 37.30200 25.36200
C  43.53200 38.69600 25.05400
C  44.02200 35.90100 27.62700
C  44.57200 36.33700 24.28900
O  44.77800 36.56700 23.11800
C  44.72500 34.83500 24.64200
N  42.47800 41.48600 24.24100
C  43.03100 40.55000 23.34600
C  43.00600 40.95300 21.86100
C  42.15700 42.24900 21.94300
C  42.18800 42.62300 23.49700
C  44.41900 41.13800 21.16000
C  40.70700 42.11500 21.47700
C  39.70200 40.97800 21.96300
N  41.90300 43.29600 26.39200
C  41.61500 44.19800 25.41300
C  41.15600 45.43600 25.97800
C  41.18100 45.24700 27.33900
C  41.64700 43.91100 27.56100
C  40.77300 46.72000 25.36600
C  40.95500 45.84200 28.66800
O  40.55500 46.93800 28.93500
C  41.10600 44.73700 29.70400
C  42.04000 45.18400 30.79900
O  43.28300 45.26900 30.74200
O  41.29200 45.41700 31.85100
C  41.96100 45.52700 33.13300
H  43.21200 37.90700 29.24800
H  43.68700 38.64300 22.90800
H  41.53900 44.59600 23.28500
H  42.69000 42.19800 31.48200
H  41.42400 39.57100 30.88300
H  44.35200 39.70100 31.09600
H  43.08800 38.75400 32.11100
H  43.53900 40.41100 32.47400
H  39.81000 41.48500 30.81600
H  40.18200 42.91300 31.82200
H  41.20300 40.85100 33.26500
H  39.53500 40.34900 32.80900
H  43.40600 35.13700 27.15300
H  43.84300 36.01400 28.69600
H  45.01300 35.45300 27.55500
H  45.07500 34.32300 23.74600
H  43.82400 34.50200 25.15700
H  45.44700 34.81100 25.45800
H  42.43900 40.19200 21.32400
H  42.54800 43.07700 21.35300
H  44.51300 40.39300 20.37000
H  45.03600 40.75500 21.97400
H  44.80600 42.10200 20.83000
H  40.84200 41.98900 20.40300
H  40.37700 43.11100 21.77200
H  39.96100 40.42900 22.86900
H  39.42800 40.46700 21.04100
H  38.78600 41.47800 22.27800
H  39.84700 47.07600 25.81800
H  40.50900 46.48100 24.33500
H  41.56700 47.46100 25.45600
H  40.13300 44.63400 30.18300
H  42.35100 44.52500 33.31400
H  41.43100 45.87800 34.01800
H  42.76800 46.25800 33.18500
Mg 36.24600 49.50400 25.78700
C  36.22700 47.43800 28.61500
C  34.95200 52.14300 27.85100
C  35.63400 51.33100 22.98300
C  37.12400 46.68800 23.89900
N  35.58900 49.70700 27.92300
C  35.74300 48.77500 28.88400
C  35.49400 49.29300 30.30700
C  34.82700 50.66800 30.01800
C  35.17200 50.89500 28.53700
C  33.41000 50.96500 30.50800
C  36.74200 49.43200 31.13600
C  36.55600 48.87300 32.57300
H  35.25300 49.13000 33.29300
N  35.54300 51.45400 25.50500
C  35.06800 52.37500 26.42300
C  34.78900 53.60400 25.79000
C  34.89600 53.35300 24.36000
C  35.30800 51.99300 24.28500
C  34.25800 54.81200 26.59200
C  34.65500 54.28400 23.11600
O  34.81300 54.00200 21.96300
C  33.86100 55.56100 23.44500
N  36.56100 49.12200 23.77800
C  36.14100 49.98900 22.81800
C  36.36400 49.39000 21.43400
C  37.15300 48.13600 21.76100
C  36.92700 47.93700 23.23400
C  35.11600 49.22500 20.47900
C  38.65900 48.15700 21.31100
C  39.02100 47.03600 20.31400
N  36.78300 47.58900 26.14000
C  37.02900 46.54700 25.30800
C  37.26100 45.32000 25.96700
C  36.98800 45.61500 27.29000
C  36.67600 46.97800 27.37000
C  37.61800 44.02200 25.28100
C  36.91300 45.08500 28.61700
O  37.13400 44.00800 29.05200
C  36.43200 46.32800 29.56500
C  35.26400 45.77700 30.40000
O  34.12100 45.74800 30.01600
O  35.67500 45.30900 31.67200
C  34.56100 44.78500 32.51900
H  34.63400 52.91900 28.55100
H  35.52400 51.86800 22.03900
H  37.43600 45.86400 23.25500
H  34.77100 48.61000 30.75300
H  35.31200 51.44400 30.61000
H  32.97400 50.03400 30.87000
H  32.74500 51.23500 29.68800
H  33.32700 51.78500 31.22100
H  37.17000 50.43400 31.16500
H  37.62700 48.96000 30.70700
H  37.11600 49.56700 33.19900
H  36.83100 47.82100 32.64900
H  34.45100 55.75700 26.08400
H  34.77800 54.99500 27.53200
H  33.21000 54.69100 26.86500
H  33.13500 55.29000 24.21100
H  33.42100 55.81700 22.48100
H  34.49600 56.41300 23.68800
H  36.97000 50.09900 20.86900
H  36.61200 47.27400 21.37100
H  34.25400 49.46700 21.10100
H  34.94100 48.18100 20.22000
H  35.26400 49.85400 19.60200
H  39.27200 47.88200 22.16900
H  38.97200 49.17400 21.07500
H  39.14000 47.59900 19.38800
H  38.15800 46.38200 20.18500
H  39.91000 46.54900 20.71400
H  38.67300 43.99500 25.00900
H  36.96600 43.92500 24.41300
H  37.45000 43.15400 25.91900
H  37.24700 46.55900 30.25100
H  34.82300 45.09100 33.53100
H  34.36800 43.71300 32.54100
H  33.63100 45.28400 32.24400

