158

Mg 1.87700 -2.38200 45.73700
C  5.11100 -1.24900 44.76600
C  0.61500 0.06900 43.53500
C  -1.30400 -3.62200 46.14900
C  3.33500 -5.26900 46.98300
N  2.78300 -0.96400 44.12000
C  4.06400 -0.55400 44.10600
C  4.31900 0.65100 43.16300
C  2.84900 0.99200 42.85000
C  2.03700 -0.00200 43.60700
C  2.46400 2.46000 43.21900
C  5.17100 0.35100 41.82900
C  6.61700 0.96000 41.69100
H  7.45500 0.32800 40.61200
N  -0.06300 -1.74500 45.08400
C  -0.33400 -0.73200 44.21700
C  -1.77900 -0.51500 44.21500
C  -2.40300 -1.59100 44.98500
C  -1.25900 -2.42800 45.39400
C  -2.41700 0.65200 43.47700
C  -3.85700 -1.70700 45.22900
O  -4.61700 -0.76400 45.02200
C  -4.35800 -2.95900 45.84500
N  1.16100 -4.20500 46.51400
C  -0.22100 -4.48400 46.57600
C  -0.42200 -5.91700 47.01900
C  1.04200 -6.50000 47.22300
C  1.90600 -5.28900 46.85900
C  -1.35900 -6.24900 48.18400
C  1.38200 -7.81100 46.38300
C  1.43800 -9.04300 47.28300
N  3.82400 -3.06000 46.04800
C  4.25100 -4.25500 46.60600
C  5.70100 -4.17200 46.77200
C  6.09800 -3.00800 46.13300
C  4.91200 -2.40200 45.62300
C  6.55000 -5.22200 47.46200
C  7.26100 -2.18200 45.78000
O  8.45000 -2.15600 46.09000
C  6.58200 -1.07900 44.82600
C  6.96100 0.20000 45.35100
O  6.25700 0.87800 46.11700
O  8.19500 0.51100 44.92500
C  8.57700 1.87000 45.29500
H  0.11600 0.83800 42.94200
H  -2.27400 -4.11000 46.26600
H  3.70400 -6.16300 47.49000
H  4.73500 1.43100 43.80100
H  2.47600 0.98500 41.82600
H  1.63800 2.78800 42.58800
H  3.29300 3.12800 42.99000
H  2.13300 2.54800 44.25400
H  4.59500 0.74300 40.99100
H  5.29400 -0.72900 41.74400
H  7.22100 0.89400 42.59600
H  6.32600 2.00200 41.56300
H  -2.31200 0.45500 42.41000
H  -1.92700 1.59000 43.73800
H  -3.45800 0.79400 43.76800
H  -4.08300 -3.75400 45.15200
H  -5.44400 -2.94500 45.94200
H  -3.88300 -3.00100 46.82500
H  -0.97500 -6.38200 46.20200
H  1.28200 -6.57100 48.28400
H  -2.34500 -6.53100 47.81500
H  -1.63500 -5.38800 48.79200
H  -1.05700 -7.03600 48.87600
H  2.26200 -7.65700 45.75900
H  0.63100 -8.00900 45.61800
H  1.23700 -8.79600 48.32500
H  2.46600 -9.40300 47.24300
H  0.70000 -9.81700 47.07000
H  5.98300 -5.69000 48.26700
H  7.42700 -4.83200 47.97900
H  6.65200 -6.03100 46.74000
H  7.00400 -1.08400 43.82100
H  7.69900 2.39200 44.91400
H  9.42000 2.21400 44.69500
H  8.96600 2.03300 46.30000
Mg 23.99900 -5.13900 45.30900
C  25.86200 -2.55600 43.71100
C  21.24800 -4.30000 43.64300
C  22.58500 -8.20800 46.19800
C  27.05300 -6.25500 46.67000
N  23.70100 -3.75400 43.67700
C  24.47300 -2.74000 43.24500
C  23.77400 -1.88200 42.17400
C  22.27600 -2.24000 42.48800
C  22.37200 -3.44600 43.40200
C  21.46200 -1.13500 43.23000
C  24.26300 -2.15600 40.73700
C  24.64600 -1.03200 39.85800
H  24.09200 -1.15900 38.41900
N  22.04900 -6.02800 45.12900
C  21.11100 -5.50300 44.39500
C  19.94900 -6.41300 44.47200
C  20.27600 -7.52900 45.26000
C  21.70800 -7.31200 45.60700
C  18.66600 -6.12900 43.60600
C  19.37300 -8.72500 45.60100
O  18.21600 -8.68000 45.25400
C  19.87000 -9.82800 46.34700
N  24.70500 -6.94600 46.32600
C  23.93800 -8.02900 46.58100
C  24.76000 -9.24500 47.11700
C  26.08500 -8.51800 47.53600
C  25.97300 -7.12400 46.73900
C  24.18700 -10.01900 48.30400
C  27.41300 -9.31400 47.17000
C  28.44200 -9.48400 48.29800
N  26.02700 -4.41500 45.41400
C  27.14400 -5.03100 45.96600
C  28.25500 -4.14300 45.76600
C  27.75400 -3.18000 44.88600
C  26.41900 -3.40100 44.66500
C  29.66800 -4.19400 46.34600
C  28.16700 -2.10500 44.08900
O  29.30100 -1.64900 43.96700
C  26.89200 -1.60800 43.17200
C  26.56700 -0.27600 43.65200
O  26.00300 0.02000 44.69300
O  27.10900 0.61700 42.69600
C  26.85000 2.03700 42.99900
H  20.32500 -3.89300 43.22500
H  22.25800 -9.24000 46.33900
H  27.99300 -6.54400 47.14600
H  23.86700 -0.81000 42.35000
H  21.68800 -2.40600 41.58500
H  22.23000 -0.48700 43.65200
H  20.75300 -1.51900 43.96400
H  20.90100 -0.50800 42.53800
H  23.46100 -2.64100 40.18200
H  25.12100 -2.81700 40.86300
H  25.72800 -0.98700 39.98000
H  24.25600 -0.11000 40.29100
H  18.79700 -6.74400 42.71600
H  18.62000 -5.09000 43.28100
H  17.72500 -6.39600 44.08800
H  20.52800 -10.25900 45.59200
H  18.99500 -10.44300 46.55700
H  20.27800 -9.43700 47.27900
H  24.99400 -9.96100 46.33000
H  26.08000 -8.30700 48.60500
H  24.69300 -9.79300 49.24200
H  24.39200 -11.06300 48.06600
H  23.13800 -9.85200 48.55000
H  27.97700 -8.88400 46.34200
H  27.10200 -10.32600 46.91300
H  28.16000 -10.17000 49.09700
H  28.87700 -8.54400 48.63600
H  29.28200 -10.01500 47.85100
H  30.33200 -3.59400 45.72400
H  29.95300 -5.23400 46.50000
H  29.52900 -3.69100 47.30300
H  27.14600 -1.69200 42.11500
H  27.36000 2.51800 42.16500
H  27.35400 2.25700 43.94100
H  25.77500 2.21500 42.98700

