158

Mg 36.08200 49.66300 25.81700
C  36.01100 47.67700 28.71800
C  34.43300 52.11400 27.31300
C  35.53100 51.07400 22.76600
C  37.73500 46.95300 24.24400
N  35.33000 49.83100 27.77900
C  35.52700 48.97700 28.87900
C  34.97700 49.68100 30.20900
C  34.42100 51.00400 29.66200
C  34.68500 50.95300 28.10100
C  32.89300 51.20300 29.92100
C  36.20200 49.87800 31.19300
C  36.00200 49.41300 32.65200
H  34.57000 49.20800 33.14700
N  35.26200 51.48800 25.14600
C  34.60500 52.37700 25.95000
C  34.13400 53.51100 25.09800
C  34.54100 53.24700 23.78100
C  35.14600 51.92000 23.82400
C  33.31300 54.64200 25.61800
C  34.55600 54.09800 22.55300
O  35.12700 53.78300 21.51600
C  33.85600 55.41700 22.59000
N  36.57700 49.08700 23.83900
C  36.27200 49.89500 22.78100
C  36.93400 49.42800 21.50400
C  37.73800 48.10900 21.90900
C  37.35800 48.07300 23.47500
C  36.05300 49.16200 20.23600
C  39.24500 48.11700 21.56600
C  40.17100 49.18100 22.13800
N  36.73200 47.75500 26.26400
C  37.39200 46.76400 25.52800
C  37.55200 45.57400 26.33800
C  37.06800 45.89500 27.61000
C  36.58500 47.20900 27.51400
C  38.14900 44.35400 25.85200
C  36.79400 45.34700 28.92300
O  36.91700 44.21200 29.32200
C  36.25700 46.54000 29.78000
C  35.06200 46.16600 30.60800
O  33.89700 46.41300 30.36300
O  35.47500 45.66200 31.80300
C  34.56200 45.23200 32.80700
H  33.90900 52.88200 27.88700
H  35.21000 51.52900 21.82700
H  38.31800 46.15100 23.78600
H  34.20500 49.03400 30.62500
H  34.90100 51.87300 30.11200
H  32.66600 52.08700 30.51700
H  32.38100 50.35500 30.37700
H  32.24100 51.27400 29.05100
H  36.42600 50.93800 31.07400
H  37.08300 49.32800 30.86400
H  36.49100 50.11500 33.32700
H  36.45100 48.42300 32.73900
H  33.05800 54.40100 26.65000
H  32.33400 54.86100 25.19100
H  33.85500 55.58800 25.61400
H  34.40000 55.98100 23.34800
H  32.78600 55.37000 22.79100
H  33.90700 56.01700 21.68100
H  37.74300 50.15600 21.44000
H  37.20200 47.28300 21.44200
H  36.28400 48.20300 19.77400
H  36.18100 49.91100 19.45500
H  34.98900 49.13700 20.47400
H  39.30300 48.28900 20.49100
H  39.55700 47.07600 21.65000
H  40.45000 49.73200 21.24000
H  41.03700 48.69200 22.58600
H  39.65600 49.80200 22.87100
H  37.41400 43.78600 25.28300
H  38.61000 43.76500 26.64500
H  38.99700 44.58300 25.20600
H  37.05100 46.86900 30.45000
H  33.54300 45.28800 32.42300
H  34.68600 45.90200 33.65800
H  34.79200 44.21900 33.13600
Mg 16.52100 51.75500 25.91000
C  18.36100 50.27400 28.43300
C  14.18100 52.63600 28.12000
C  14.80000 53.21900 23.35800
C  19.02000 50.90600 23.67700
N  16.32300 51.40400 27.99700
C  17.15900 50.76500 28.89300
C  16.70200 50.92600 30.38800
C  15.21300 51.43000 30.16300
C  15.26800 51.91500 28.65600
C  14.10600 50.29500 30.35800
C  17.58400 51.97700 31.15200
C  17.99200 51.49900 32.58000
H  17.26200 52.22600 33.75800
N  14.69400 52.75000 25.73000
C  13.91300 52.97700 26.77900
C  12.79500 53.75900 26.34700
C  13.01400 54.12600 24.99200
C  14.15800 53.32000 24.60200
C  11.72900 54.20300 27.24700
C  12.26700 55.08200 24.07800
O  12.63300 55.38800 22.97200
C  11.07600 55.96000 24.59600
N  16.89800 51.96100 23.77700
C  15.99300 52.53500 22.96300
C  16.52100 52.69800 21.49300
C  17.88600 51.98200 21.54100
C  17.98400 51.60700 23.08400
C  15.58000 52.10600 20.39800
C  19.03500 52.87400 21.03400
C  19.48000 54.01900 21.97100
N  18.18600 50.64300 25.90800
C  19.17300 50.37700 24.97300
C  20.29100 49.63800 25.47200
C  19.98000 49.61700 26.85200
C  18.75900 50.24000 27.09100
C  21.52100 49.16600 24.83300
C  20.46100 49.09600 28.11500
O  21.44600 48.40700 28.39300
C  19.46800 49.61900 29.24800
C  19.06000 48.61300 30.23700
O  18.23500 47.72500 30.17600
O  19.93600 48.68500 31.36300
C  19.48600 47.78300 32.53500
H  13.45800 52.71700 28.93500
H  14.29700 53.66100 22.49500
H  19.81500 50.59100 22.99700
H  16.79600 49.98000 30.92200
H  14.97600 52.31700 30.75100
H  14.45800 49.49200 31.00500
H  13.84400 49.89200 29.38000
H  13.24800 50.77600 30.82800
H  16.90800 52.82600 31.25900
H  18.47700 52.08400 30.53600
H  19.06400 51.64200 32.72200
H  17.87800 50.43700 32.79600
H  12.00600 53.93900 28.26800
H  10.74100 53.82500 26.98200
H  11.62200 55.28500 27.17300
H  10.64300 56.50000 23.75500
H  11.41400 56.63600 25.38200
H  10.32800 55.24400 24.93700
H  16.59300 53.76100 21.26300
H  18.01100 51.08000 20.94200
H  16.09200 51.53600 19.62200
H  15.07500 52.93000 19.89500
H  14.83300 51.47600 20.88000
H  18.82400 53.32500 20.06400
H  19.90300 52.22600 20.91700
H  20.17500 53.59600 22.69600
H  18.64000 54.50900 22.46300
H  19.92900 54.80400 21.36300
H  22.25000 49.04200 25.63300
H  21.89100 49.90100 24.11800
H  21.19900 48.24100 24.35500
H  19.98300 50.44900 29.73100
H  19.82600 46.76400 32.35100
H  18.44300 47.76200 32.85100
H  20.02700 48.20300 33.38400

