158

Mg 47.08800 24.71100 28.63300
C  47.69700 27.08800 31.26000
C  45.87100 22.69500 30.93300
C  46.85500 22.53600 26.04900
C  48.36700 27.18700 26.38200
N  47.29900 24.74000 30.91800
C  47.28700 25.81300 31.73400
C  46.77500 25.50400 33.17100
C  46.36000 24.00800 33.08900
C  46.51100 23.78900 31.56600
C  47.11800 23.02000 33.87400
C  45.76300 26.47600 33.77500
C  46.07000 27.07400 35.22900
H  45.12900 26.75800 36.37100
N  46.50200 22.79600 28.54100
C  45.96300 22.12300 29.61300
C  45.36200 20.86500 29.08000
C  45.82200 20.74300 27.73200
C  46.47800 22.01600 27.34600
C  44.73500 19.78600 29.93600
C  45.72200 19.60700 26.75100
O  46.26400 19.60200 25.66500
C  44.92800 18.40400 27.15800
N  47.78000 24.80200 26.51300
C  47.42600 23.79500 25.70000
C  47.73900 24.17700 24.30000
C  47.75400 25.75300 24.34000
C  47.97800 25.98600 25.81700
C  49.09800 23.68300 23.80000
C  46.48400 26.45600 23.78800
C  45.43000 27.10200 24.78200
N  48.02000 26.64300 28.75200
C  48.44000 27.51500 27.75300
C  48.83000 28.81300 28.29800
C  48.54600 28.62500 29.63700
C  48.11300 27.33300 29.90100
C  49.22400 30.04400 27.60500
C  48.53000 29.35700 30.91800
O  48.97300 30.47800 31.23100
C  48.05700 28.29700 32.05700
C  49.07800 28.04300 33.09800
O  49.97500 27.23500 33.01900
O  48.99000 29.06000 34.07800
C  49.68300 28.89200 35.36500
H  45.30800 22.04200 31.60300
H  46.66000 21.83600 25.23400
H  48.54300 28.12100 25.84400
H  47.65700 25.53700 33.81000
H  45.27700 23.93200 33.19100
H  47.94600 23.46100 34.42900
H  47.49000 22.19100 33.27100
H  46.41700 22.55900 34.56900
H  44.77700 26.01100 33.78100
H  45.41900 27.18700 33.02400
H  46.15100 28.16100 35.23500
H  47.03400 26.73100 35.60300
H  43.78700 19.70400 29.40500
H  44.43900 20.13200 30.92600
H  45.03200 18.75000 29.77200
H  43.98000 18.65500 27.63300
H  45.54400 17.83100 27.85000
H  44.71800 17.71600 26.33900
H  46.86500 23.88500 23.71800
H  48.60600 26.17100 23.80300
H  49.72400 24.56200 23.64800
H  49.05600 23.05100 22.91200
H  49.67200 23.12500 24.53900
H  46.13100 25.63100 23.17000
H  46.92100 27.25600 23.18900
H  45.57000 26.87500 25.83900
H  44.50900 26.60400 24.47800
H  45.31400 28.16200 24.55800
H  50.11900 30.02600 26.98400
H  49.24100 30.93100 28.23900
H  48.42500 30.22300 26.88600
H  47.27700 28.71700 32.69100
H  50.70700 28.54700 35.22000
H  49.22800 28.15300 36.02400
H  49.54200 29.73700 36.03800
Mg 46.90500 45.44000 43.86400
C  43.67300 45.17900 43.14300
C  47.42200 42.14900 42.87300
C  50.27100 46.06200 43.92800
C  46.48800 48.99900 44.26600
N  45.76800 43.87800 43.11500
C  44.44600 44.03600 42.81200
C  43.92500 42.85200 42.05000
C  44.97300 41.74400 42.47700
C  46.16400 42.66800 42.66300
C  44.59200 40.91600 43.76300
C  43.67900 43.10000 40.49900
C  42.63000 42.12500 39.89700
H  42.94700 41.48100 38.49300
N  48.65300 44.22500 43.52200
C  48.64100 42.85100 43.18300
C  49.94600 42.29800 43.36200
C  50.72900 43.46500 43.57400
C  49.89200 44.66900 43.74600
C  50.32100 40.89700 43.08500
C  52.28300 43.47800 43.50300
O  52.90700 42.45500 43.45500
C  53.11100 44.76000 43.55800
N  48.21700 47.41900 43.86000
C  49.56500 47.24700 43.92100
C  50.29800 48.58000 44.24300
C  49.08100 49.52300 44.33000
C  47.87400 48.61800 44.14600
C  51.11300 48.43700 45.59000
C  49.18200 50.86200 43.53000
C  49.42700 52.12400 44.30200
N  45.40400 46.86000 43.91000
C  45.30500 48.20900 44.08500
C  43.92600 48.66600 43.91900
C  43.23000 47.46700 43.58800
C  44.15900 46.45000 43.61200
C  43.43000 50.06200 43.85300
C  41.97600 46.88400 43.20200
O  40.88000 47.42200 42.96100
C  42.16100 45.42500 42.98400
C  41.35000 44.54700 43.92100
O  40.35700 43.90600 43.53800
O  41.99500 44.39300 45.16300
C  41.17300 43.66900 46.16700
H  47.55800 41.11600 42.54800
H  51.24900 46.19300 44.39500
H  46.29400 50.05500 44.46200
H  42.96300 42.64100 42.51900
H  45.22400 41.08500 41.64600
H  45.11100 41.23600 44.66600
H  44.90100 39.88100 43.62200
H  43.52700 41.03900 43.96000
H  44.64500 43.12400 39.99400
H  43.30300 44.12100 40.42600
H  41.72100 42.70500 39.73800
H  42.36700 41.36100 40.62800
H  51.31900 40.63500 43.43600
H  50.22100 40.66700 42.02400
H  49.59900 40.25200 43.58500
H  53.21000 45.16400 44.56500
H  52.72200 45.57000 42.94100
H  54.11300 44.51400 43.20600
H  51.08700 48.81700 43.52800
H  49.01300 49.85400 45.36700
H  50.84300 49.23200 46.28500
H  52.17500 48.40100 45.34600
H  50.85700 47.49700 46.07900
H  48.28400 50.87100 42.91300
H  50.05700 50.79300 42.88400
H  50.07000 51.93900 45.16200
H  48.51200 52.62900 44.61300
H  49.98000 52.86100 43.71900
H  42.34700 50.06100 43.72900
H  43.93300 50.66400 43.09600
H  43.53200 50.58300 44.80500
H  41.80100 45.23200 41.97300
H  41.61200 43.81900 47.15300
H  41.23900 42.64200 45.80700
H  40.11900 43.93600 46.09000

