158

Mg 30.33400 58.12000 40.23100
C  27.69300 56.03800 38.99100
C  32.41400 55.82400 38.55400
C  32.71200 60.30200 40.34200
C  27.87000 60.41600 41.07100
N  29.99600 56.27600 38.65800
C  28.89500 55.62900 38.41800
C  29.17400 54.22900 37.81900
C  30.69600 54.12800 37.89600
C  31.05000 55.47100 38.36000
C  31.18100 52.95800 38.88100
C  28.68400 54.10000 36.32700
C  29.16800 55.28600 35.48300
H  28.00200 55.91700 34.62100
N  32.32100 58.07700 39.72100
C  33.01600 57.00200 39.12700
C  34.40600 57.29700 39.16600
C  34.52100 58.64100 39.65500
C  33.16800 59.06600 39.91500
C  35.41500 56.31000 38.61600
C  35.80100 59.39500 39.79600
O  36.85800 58.89100 39.49700
C  35.94800 60.89100 40.19400
N  30.34900 59.94700 40.96400
C  31.46400 60.71300 40.78900
C  31.21900 62.23800 40.91500
C  29.67500 62.28800 41.07300
C  29.27400 60.82900 41.06200
C  31.99400 62.95400 42.08600
C  28.96000 63.10300 39.97300
C  28.48700 64.49600 40.44600
N  28.30500 58.20600 40.26100
C  27.46000 59.15700 40.66600
C  26.11400 58.72900 40.55400
C  26.17500 57.56100 39.91800
C  27.50800 57.22000 39.72700
C  24.89300 59.47700 41.08900
C  25.33400 56.50800 39.26000
O  24.12600 56.53700 39.04900
C  26.33000 55.45100 38.72600
C  25.96800 54.13000 39.39600
O  26.41400 53.65600 40.45300
O  24.99000 53.55300 38.63400
C  24.34800 52.41000 39.30800
H  33.14900 55.05300 38.31400
H  33.46600 61.07500 40.18200
H  27.19300 61.27300 41.08600
H  28.58600 53.56200 38.45000
H  31.17200 53.91900 36.93800
H  30.35100 52.30800 39.15500
H  31.76300 53.36800 39.70600
H  31.95900 52.32300 38.45600
H  27.59900 54.02400 36.39500
H  29.09800 53.25900 35.77000
H  30.00700 54.98300 34.85600
H  29.44700 56.14000 36.10000
H  36.37400 56.81400 38.49000
H  35.12900 56.08000 37.59000
H  35.49500 55.38200 39.18300
H  35.43400 61.57900 39.52200
H  36.98700 61.14800 39.98500
H  35.73900 61.10500 41.24200
H  31.53700 62.71000 39.98500
H  29.39100 62.61500 42.07300
H  32.34600 63.92600 41.74100
H  32.82800 62.32300 42.39300
H  31.36500 63.14500 42.95500
H  28.20900 62.47300 39.49800
H  29.65200 63.14800 39.13200
H  28.80100 64.73400 41.46200
H  27.41600 64.31900 40.34600
H  28.66900 65.30400 39.73700
H  24.11900 58.71000 41.11700
H  24.57300 60.27800 40.42300
H  25.01800 59.85900 42.10200
H  26.07600 55.51300 37.66800
H  23.50900 52.04300 38.71800
H  23.90700 52.67800 40.26800
H  25.08000 51.63000 39.52200
Mg -9.95100 17.02200 40.74900
C  -6.59600 16.78400 40.88200
C  -9.51500 20.39900 39.68900
C  -13.34800 17.45000 40.16800
C  -10.28000 13.65000 41.13600
N  -8.28500 18.46200 40.43200
C  -6.97100 18.02600 40.55000
C  -6.00800 19.13500 39.93300
C  -6.93400 20.39300 40.00100
C  -8.31100 19.67700 39.98700
C  -6.82200 21.10100 41.43200
C  -5.54500 18.73500 38.49300
C  -4.07700 18.71300 38.13900
H  -3.58200 17.68600 37.17800
N  -11.29400 18.72800 40.00600
C  -10.89500 19.95800 39.59700
C  -12.03300 20.72600 39.12700
C  -13.14500 20.01800 39.52300
C  -12.65600 18.65800 39.93700
C  -12.05400 22.03500 38.48500
C  -14.57100 20.46100 39.47300
O  -14.88300 21.63300 39.20700
C  -15.66500 19.58000 39.59500
N  -11.50800 15.61300 40.31700
C  -12.84100 16.11000 40.32400
C  -13.80300 14.89400 40.46700
C  -12.76600 13.69900 40.79100
C  -11.41200 14.31000 40.74100
C  -14.86200 15.23100 41.56300
C  -12.81200 12.53900 39.81500
C  -13.83400 11.37600 40.14200
N  -8.68600 15.51200 40.96500
C  -8.94500 14.18500 41.13100
C  -7.72600 13.42600 41.44900
C  -6.66000 14.43200 41.30800
C  -7.36800 15.64100 41.09900
C  -7.64700 11.91600 41.63000
C  -5.24700 14.66400 41.31000
O  -4.33700 13.79500 41.42200
C  -5.11900 16.25800 41.03500
C  -4.43100 16.88200 42.21200
O  -3.58300 17.76300 42.21500
O  -4.92700 16.27800 43.36800
C  -4.29800 16.68700 44.57900
H  -9.32700 21.40000 39.29600
H  -14.43800 17.52300 40.16900
H  -10.37600 12.60000 41.42300
H  -5.15100 19.30300 40.58500
H  -6.83400 21.03500 39.12600
H  -7.80600 21.33400 41.83900
H  -6.39600 22.08200 41.22100
H  -6.18500 20.49500 42.07600
H  -5.96600 19.50600 37.84800
H  -5.96700 17.77700 38.18800
H  -3.48400 18.64600 39.05100
H  -3.75400 19.64400 37.67400
H  -11.14800 22.25800 37.92300
H  -12.22200 22.83900 39.20200
H  -12.90900 21.99400 37.81000
H  -15.57300 18.77200 38.86900
H  -16.61100 20.04400 39.31600
H  -15.86400 19.24200 40.61200
H  -14.37700 14.89200 39.54100
H  -12.93300 13.32400 41.80100
H  -14.63900 16.18200 42.04600
H  -14.77700 14.57500 42.43000
H  -15.80100 15.26400 41.01000
H  -11.87000 12.03100 39.60800
H  -13.04400 12.91800 38.81900
H  -14.73900 11.59800 39.57800
H  -13.93300 11.17400 41.20900
H  -13.47400 10.46900 39.65700
H  -6.69400 11.67000 42.09800
H  -7.51400 11.50900 40.62800
H  -8.53000 11.39600 42.00100
H  -4.54200 16.48100 40.13700
H  -4.68700 17.52700 45.15500
H  -3.22400 16.86500 44.62800
H  -4.55100 15.85300 45.23200

