158

Mg 9.65300 48.47200 25.53700
C  7.61200 48.79200 28.40800
C  12.32500 49.57700 27.47300
C  11.56700 48.32800 22.84100
C  6.81400 47.76200 23.63700
N  9.90100 49.27100 27.63400
C  8.99700 49.14900 28.62200
C  9.56600 49.45800 30.04100
C  11.03500 49.94900 29.65100
C  11.10800 49.54600 28.16200
C  11.25500 51.51100 29.79800
C  9.60600 48.23000 30.96300
C  9.42200 48.55900 32.46100
H  8.94000 47.37600 33.27200
N  11.64200 49.05300 25.15300
C  12.59200 49.30100 26.10500
C  13.89600 49.29500 25.48400
C  13.71200 48.90000 24.11600
C  12.28500 48.80400 23.95600
C  15.24700 49.64400 26.16700
C  14.76500 48.84400 22.99800
O  14.49000 48.69400 21.82300
C  16.24400 48.83100 23.28800
N  9.22000 48.30200 23.56600
C  10.23800 48.08100 22.69800
C  9.78300 47.59400 21.29400
C  8.33900 47.14600 21.64400
C  8.04700 47.76100 23.01500
C  9.86100 48.63400 20.14400
C  8.03000 45.62500 21.61700
C  7.89600 44.77900 22.88500
N  7.59300 48.29500 25.89600
C  6.52900 48.08300 24.98600
C  5.29700 48.13300 25.76500
C  5.66000 48.41400 27.08600
C  7.03100 48.52300 27.13400
C  3.86700 47.85200 25.22900
C  5.12300 48.51300 28.41800
O  3.95900 48.34400 28.82900
C  6.39800 48.60200 29.31000
C  6.29900 47.29600 30.05300
O  6.49500 46.16200 29.56700
O  5.68700 47.52900 31.28700
C  5.30500 46.33900 32.08900
H  13.18200 49.87900 28.07800
H  12.14500 48.16500 21.92900
H  5.95600 47.58800 22.98300
H  9.02800 50.22500 30.59800
H  11.86300 49.53200 30.22400
H  12.15900 51.73100 30.36600
H  10.42800 52.04600 30.26400
H  11.37000 51.93200 28.79900
H  10.61200 47.81400 30.91900
H  8.95400 47.46000 30.55100
H  8.61000 49.28000 32.55700
H  10.33200 48.96700 32.89900
H  15.01300 49.83600 27.21400
H  15.71900 50.52900 25.74000
H  15.88900 48.76400 26.19600
H  16.52400 49.78100 23.74500
H  16.75500 48.56900 22.36200
H  16.29800 48.05100 24.04700
H  10.34600 46.73400 20.93200
H  7.64000 47.65500 20.98000
H  10.69100 49.32800 20.27000
H  8.87300 49.07800 20.01800
H  10.17500 48.08800 19.25400
H  8.78500 45.13100 21.00500
H  7.09700 45.59700 21.05500
H  8.58800 45.13700 23.64700
H  8.12600 43.73100 22.69300
H  6.90300 44.79200 23.33300
H  3.44900 47.54100 26.18600
H  3.78400 46.97100 24.59200
H  3.23400 48.66600 24.87300
H  6.25400 49.37900 30.06100
H  5.97000 45.50700 31.85500
H  4.23800 46.15500 31.96300
H  5.43100 46.37300 33.17100
Mg -11.22500 37.86400 42.43000
C  -9.01200 35.30400 41.43800
C  -9.29100 40.18500 40.66700
C  -13.57300 40.13100 42.87800
C  -13.27100 35.38600 43.69300
N  -9.30500 37.77300 41.19400
C  -8.70700 36.56200 40.79100
C  -7.55600 36.75800 39.78400
C  -7.50900 38.35900 39.75300
C  -8.75600 38.79000 40.61000
C  -6.21000 39.07200 40.34600
C  -7.85000 36.02700 38.45600
C  -6.69900 35.31400 37.85900
H  -5.74000 36.10700 36.87400
N  -11.30500 39.95500 41.98200
C  -10.45700 40.69500 41.24900
C  -10.96000 42.05400 41.15700
C  -12.20400 42.07500 41.76200
C  -12.48000 40.68500 42.21500
C  -10.16500 43.21700 40.60600
C  -13.09500 43.33200 41.96900
O  -12.63000 44.34400 41.47400
C  -14.41700 43.29200 42.74600
N  -13.40600 37.74300 42.82200
C  -13.92100 38.84800 43.26100
C  -15.16100 38.51900 44.11000
C  -15.10400 37.04600 44.35500
C  -13.89400 36.65700 43.53800
C  -15.26500 39.43900 45.38300
C  -16.36800 36.17300 44.08200
C  -17.08700 35.59800 45.36400
N  -11.24600 35.75000 42.52800
C  -12.11200 34.89300 43.18100
C  -11.62000 33.57800 43.15600
C  -10.37800 33.63900 42.52500
C  -10.21100 35.01000 42.14600
C  -12.16700 32.43300 43.91500
C  -9.20800 32.93200 41.99100
O  -9.04200 31.71800 42.01400
C  -8.32300 33.95900 41.21200
C  -6.97200 33.89300 41.72700
O  -5.98600 33.23000 41.34100
O  -6.84300 34.88300 42.66900
C  -5.54800 35.02800 43.26300
H  -8.66400 40.83900 40.05700
H  -14.37400 40.79900 43.20200
H  -13.95500 34.70300 44.20200
H  -6.64800 36.37300 40.24900
H  -7.64900 38.70200 38.72700
H  -6.52500 39.88600 40.99900
H  -5.47200 39.38100 39.60700
H  -5.67800 38.39400 41.01300
H  -8.25700 36.79900 37.80300
H  -8.73600 35.40000 38.56200
H  -7.18800 34.50900 37.31200
H  -6.14700 34.80400 38.64800
H  -10.72400 43.72800 39.82200
H  -9.26500 42.84900 40.11500
H  -9.83200 43.94000 41.35000
H  -14.29800 42.77500 43.69800
H  -15.18800 42.97800 42.04200
H  -14.68100 44.32300 42.97800
H  -16.04700 38.72500 43.50900
H  -14.75000 36.91900 45.37800
H  -14.55500 40.26600 45.35400
H  -15.18100 38.78400 46.25100
H  -16.18600 40.01200 45.48900
H  -16.10900 35.34400 43.42300
H  -16.99900 36.89100 43.55900
H  -16.98200 36.22100 46.25300
H  -16.66300 34.59900 45.46700
H  -18.15800 35.48200 45.19600
H  -13.23500 32.63300 43.83300
H  -11.90900 32.52000 44.97000
H  -11.86200 31.44200 43.57900
H  -8.35200 33.59800 40.18400
H  -4.96500 35.71900 42.65300
H  -4.99400 34.09600 43.38000
H  -5.72400 35.47300 44.24200

