158

Mg 1.17300 7.91500 25.45800
C  1.97000 9.84300 28.28600
C  1.03400 5.07500 27.37900
C  1.17700 5.98600 22.54100
C  1.59100 10.85900 23.47700
N  1.53400 7.53800 27.60200
C  1.77800 8.49000 28.59200
C  1.58100 7.85400 29.96500
C  1.48500 6.30800 29.64900
C  1.30600 6.28100 28.13800
C  2.75300 5.42200 30.09500
C  0.29500 8.18800 30.77900
C  0.18700 7.79400 32.22200
H  1.22600 6.96400 32.99500
N  1.00100 5.85300 25.04900
C  0.95600 4.81900 25.99400
C  0.99800 3.52400 25.39400
C  0.94000 3.80900 23.97600
C  1.06100 5.33100 23.75700
C  1.15600 2.23200 26.18500
C  0.79600 2.83000 22.82900
O  0.92800 3.09900 21.64100
C  0.52700 1.31400 23.17000
N  1.33800 8.30900 23.38900
C  1.33700 7.39100 22.36400
C  1.48800 7.98900 21.00500
C  1.33400 9.56700 21.20900
C  1.33200 9.60600 22.79600
C  2.96500 7.78200 20.43200
C  -0.03800 10.17100 20.62000
C  -0.09800 11.70800 20.40500
N  1.59700 9.96500 25.72500
C  1.80100 11.03800 24.84900
C  2.20800 12.21100 25.55800
C  2.20800 11.81900 26.89400
C  1.95700 10.42600 26.96600
C  2.33800 13.56700 24.93700
C  2.37500 12.21800 28.27000
O  2.67300 13.29200 28.71400
C  2.08500 11.01000 29.19700
C  3.24900 10.96300 30.12000
O  4.37300 10.56600 29.79900
O  2.86800 11.39400 31.38700
C  4.02600 11.51400 32.30600
H  0.99800 4.22900 28.06800
H  1.01400 5.49500 21.57900
H  1.82600 11.74100 22.87800
H  2.48900 8.10100 30.51500
H  0.53600 5.81300 29.85600
H  3.20500 5.81900 31.00400
H  3.49000 5.56400 29.30400
H  2.45800 4.37900 30.21100
H  -0.52500 7.79700 30.17700
H  0.38600 9.26600 30.91500
H  -0.68200 7.13800 32.26800
H  0.01100 8.63600 32.89100
H  1.55300 1.39200 25.61500
H  0.30000 2.02800 26.82700
H  1.93100 2.50400 26.90100
H  -0.04400 1.02100 24.05200
H  1.51200 0.94900 23.46000
H  0.15300 0.86900 22.24800
H  0.77700 7.55300 20.30300
H  2.16700 10.15000 20.81800
H  3.59900 7.30900 21.18100
H  3.54100 8.66000 20.13900
H  2.78800 7.15100 19.56100
H  -0.78900 9.91600 21.36800
H  -0.20200 9.75400 19.62700
H  -0.23000 11.94900 19.35000
H  0.77400 12.17000 20.86800
H  -0.96700 12.15500 20.88900
H  1.38900 13.66200 24.40900
H  3.12300 13.60400 24.18200
H  2.42800 14.34800 25.69200
H  1.12000 11.16200 29.68100
H  3.99100 12.56500 32.59200
H  5.03300 11.23800 31.99300
H  3.80100 10.92600 33.19600
Mg 17.43300 52.48600 25.55600
C  19.35300 51.40400 28.30500
C  15.09500 53.48500 27.74800
C  15.71900 53.42100 23.01200
C  19.86300 51.04500 23.41800
N  17.32900 52.53700 27.81200
C  18.27100 52.14400 28.70300
C  17.79800 52.35900 30.09500
C  16.31800 52.83300 29.96200
C  16.20700 52.87200 28.42600
C  15.28500 52.03400 30.65400
C  18.67400 53.24700 31.00600
C  18.40900 53.26400 32.53500
H  17.28300 52.30300 33.11300
N  15.62400 53.36500 25.42300
C  14.77000 53.75000 26.44600
C  13.48800 54.33900 25.86800
C  13.70700 54.33700 24.48200
C  15.05700 53.70800 24.19100
C  12.26900 54.74700 26.65900
C  12.78800 54.84300 23.26600
O  13.06700 54.88300 22.03700
C  11.57200 55.67000 23.70700
N  17.84800 52.38400 23.49100
C  16.95000 52.87400 22.60600
C  17.44200 52.72200 21.12300
C  18.86500 52.08000 21.25900
C  18.94300 51.91600 22.87900
C  16.46200 51.94700 20.17500
C  20.03500 52.96100 20.77600
C  21.29000 52.34100 20.27900
N  19.19200 51.33400 25.75500
C  19.97700 50.75200 24.82500
C  20.94200 49.88100 25.49300
C  20.77600 50.15900 26.86200
C  19.66800 51.07700 26.93800
C  22.06900 49.13700 25.00800
C  21.25200 49.87100 28.18400
O  22.29700 49.28800 28.52400
C  20.37300 50.66400 29.20300
C  19.79400 49.60000 30.02600
O  18.95800 48.80000 29.68800
O  20.35700 49.73500 31.26700
C  19.70100 48.95000 32.28500
H  14.28800 53.81000 28.40800
H  15.17100 53.74000 22.12300
H  20.58600 50.59800 22.73200
H  17.69600 51.39500 30.59300
H  16.18500 53.85000 30.33100
H  14.66500 51.52100 29.91900
H  14.78200 52.68600 31.36900
H  15.66500 51.28200 31.34500
H  18.49700 54.22600 30.56000
H  19.70100 52.88200 31.01100
H  18.10500 54.27400 32.81100
H  19.31800 52.91300 33.02400
H  11.99400 55.78400 26.46100
H  12.38400 54.69000 27.74100
H  11.40700 54.09900 26.49800
H  11.00400 56.01300 22.84300
H  11.90100 56.51500 24.31200
H  10.88800 55.00600 24.23500
H  17.48000 53.77200 20.83200
H  18.93800 51.06100 20.88000
H  16.11700 52.69300 19.45900
H  15.55000 51.62900 20.68100
H  17.10300 51.26100 19.62200
H  20.29500 53.50800 21.68200
H  19.71500 53.65600 20.00000
H  21.39700 52.46100 19.20000
H  21.26500 51.29500 20.58200
H  22.12800 52.80700 20.79600
H  21.85800 48.94500 23.95600
H  22.05900 48.19400 25.55300
H  22.99700 49.69200 25.14300
H  21.07100 51.29000 29.75900
H  19.97600 49.41400 33.23100
H  20.06700 47.92300 32.25100
H  18.63900 48.99200 32.04400

