158

Mg 50.50600 46.12900 41.68500
C  47.42400 47.57700 40.79200
C  49.24500 42.99200 40.46300
C  53.63000 44.69500 41.99600
C  51.72000 49.22600 42.44900
N  48.54700 45.36400 40.79800
C  47.45500 46.18100 40.49500
C  46.32800 45.36700 39.81500
C  46.85800 43.90200 40.12300
C  48.34800 44.07300 40.53000
C  46.13500 43.17500 41.31300
C  46.20800 45.72600 38.33000
C  44.87800 45.69200 37.69800
H  44.86000 44.61100 36.54900
N  51.28400 44.16900 41.15100
C  50.58600 43.06500 40.72300
C  51.54400 41.93300 40.56600
C  52.83800 42.45200 40.87200
C  52.61600 43.82100 41.39900
C  51.11000 40.52600 40.09300
C  54.15200 41.77700 40.76300
O  54.22100 40.61200 40.52400
C  55.39400 42.48100 40.88400
N  52.41900 46.84600 42.03000
C  53.47600 46.07100 42.29300
C  54.69200 47.00800 42.68500
C  54.05200 48.36400 43.10400
C  52.66000 48.16300 42.43000
C  55.68800 46.28000 43.68500
C  54.88300 49.56600 42.62900
C  54.94100 50.69000 43.69600
N  49.80000 48.06400 41.73000
C  50.38400 49.24800 41.98200
C  49.50600 50.35800 41.86300
C  48.29300 49.73000 41.42200
C  48.51800 48.33500 41.29900
C  49.72000 51.77900 42.12500
C  46.95000 49.98000 40.87200
O  46.37500 51.03800 40.68700
C  46.39100 48.63300 40.34500
C  44.99400 48.37400 40.87400
O  44.66300 47.78600 41.91000
O  44.07900 48.80400 39.91100
C  42.74000 48.21600 40.00100
H  48.73800 42.10800 40.07100
H  54.60800 44.29300 42.26900
H  52.01800 50.20400 42.83300
H  45.36400 45.51400 40.30400
H  46.76900 43.25900 39.24700
H  45.36300 42.47300 40.99700
H  45.63800 44.00000 41.82300
H  46.88100 42.67500 41.93000
H  46.83000 44.95500 37.87300
H  46.64200 46.66200 37.97900
H  44.64000 46.66400 37.26600
H  44.04700 45.56600 38.39300
H  51.70600 39.66400 40.39200
H  51.04500 40.46300 39.00700
H  50.18400 40.24800 40.59600
H  55.64200 42.52000 41.94400
H  55.32400 43.50300 40.51200
H  56.05000 41.92000 40.21800
H  55.33700 47.08700 41.81000
H  54.02500 48.36200 44.19300
H  55.99400 46.88100 44.54200
H  56.62600 46.10500 43.15900
H  55.26600 45.33700 44.03100
H  54.63000 49.90900 41.62500
H  55.90900 49.20500 42.57000
H  55.96600 51.00400 43.89200
H  54.67100 50.25300 44.65700
H  54.23700 51.50200 43.51400
H  49.86200 51.87800 43.20100
H  48.80100 52.32600 41.91100
H  50.63300 52.08400 41.61500
H  46.27900 48.67800 39.26100
H  42.12700 49.09900 39.81900
H  42.42400 47.78400 40.95000
H  42.46900 47.51100 39.21400
Mg 0.96000 42.95900 26.10500
C  2.08000 43.03600 29.43400
C  -2.25900 42.75100 27.35700
C  -0.13600 42.49900 22.92000
C  4.14400 43.05200 25.01800
N  0.08300 42.91000 28.27100
C  0.68600 42.99300 29.41200
C  -0.30700 42.79200 30.57500
C  -1.67600 42.82200 29.88800
C  -1.27700 42.80800 28.41000
C  -2.69000 41.74300 30.18200
C  -0.21300 43.89700 31.67000
C  -0.15600 43.36000 33.11600
H  -0.95300 42.10100 33.55200
N  -0.94700 42.73400 25.30000
C  -2.15000 42.72800 25.92800
C  -3.23500 42.54600 24.99400
C  -2.65500 42.60900 23.63500
C  -1.17600 42.66200 23.88900
C  -4.64200 42.47800 25.33200
C  -3.27900 42.46800 22.28400
O  -2.69800 42.58300 21.15400
C  -4.76900 42.24100 22.19500
N  1.82100 42.89600 24.17900
C  1.22300 42.65900 22.98200
C  2.24700 42.46100 21.85500
C  3.53900 42.87700 22.58100
C  3.19400 42.90600 24.04600
C  2.17500 40.94900 21.37600
C  4.11800 44.16000 22.01200
C  3.21200 45.42600 21.95200
N  2.75900 43.10800 26.95800
C  3.96300 43.16000 26.42800
C  5.03800 43.28000 27.40800
C  4.30700 43.24900 28.55900
C  2.92200 43.12800 28.30500
C  6.47600 43.37700 27.33200
C  4.45100 43.24300 29.99100
O  5.50800 43.30000 30.64200
C  3.07700 43.05800 30.66500
C  3.22100 41.76400 31.49100
O  3.48100 40.69400 31.00400
O  2.90900 41.92200 32.84000
C  3.05000 40.76200 33.73800
H  -3.31600 42.84500 27.61500
H  -0.35000 42.29800 21.86800
H  5.15200 43.17400 24.61400
H  -0.01200 41.85600 31.04900
H  -2.22000 43.73900 30.11100
H  -2.32600 40.75800 30.47500
H  -3.30000 41.56800 29.29600
H  -3.32800 42.18300 30.94800
H  -1.08700 44.54800 31.62700
H  0.63600 44.53700 31.42900
H  -0.46600 44.17400 33.77100
H  0.92100 43.23300 33.22000
H  -5.02400 41.47300 25.15400
H  -5.26900 43.15600 24.75200
H  -4.85700 42.87300 26.32400
H  -4.94000 42.26700 21.11900
H  -5.36100 43.07400 22.57700
H  -4.80200 41.25400 22.65600
H  1.94100 43.08500 21.01500
H  4.27000 42.07500 22.48100
H  3.10800 40.41500 21.20100
H  1.76200 40.97100 20.36700
H  1.62400 40.42200 22.15400
H  4.44900 44.01800 20.98300
H  4.94200 44.52200 22.62700
H  2.30800 45.22900 22.52800
H  3.03000 45.71200 20.91600
H  3.72900 46.32700 22.28200
H  6.75500 44.41000 27.12500
H  6.90200 42.78700 26.52000
H  6.77600 43.03300 28.32100
H  2.91500 43.93000 31.29900
H  2.94500 41.01200 34.79400
H  3.92200 40.13100 33.56500
H  2.14200 40.20600 33.50700

