158

Mg 24.44200 -6.29500 45.62400
C  26.46100 -3.62300 44.68100
C  21.90100 -4.90600 43.82600
C  22.67300 -9.10600 46.07500
C  27.08100 -7.55100 47.41300
N  24.26900 -4.47300 44.41500
C  25.24600 -3.60100 44.06900
C  24.62700 -2.43000 43.24800
C  23.09500 -2.81200 43.20400
C  23.07600 -4.18400 43.79400
C  22.16600 -1.81200 43.91800
C  25.34100 -2.11400 41.83000
C  24.78900 -0.97200 40.99000
H  24.10600 -1.27500 39.67200
N  22.56600 -6.89800 45.06200
C  21.66300 -6.16900 44.42300
C  20.44300 -6.95200 44.39600
C  20.66200 -8.17900 44.96700
C  22.05900 -8.08800 45.41900
C  19.28400 -6.42500 43.68400
C  19.52200 -9.27800 45.01000
O  18.40000 -9.08900 44.55300
C  19.92600 -10.70600 45.54300
N  24.97400 -8.17900 46.39600
C  24.01800 -9.14800 46.57600
C  24.59000 -10.38300 47.22400
C  25.83000 -9.79500 47.93700
C  25.96000 -8.41400 47.18500
C  23.59300 -11.13100 48.13000
C  27.08100 -10.57000 47.76400
C  28.10400 -10.36700 48.93800
N  26.39800 -5.74100 45.98700
C  27.36700 -6.32000 46.79600
C  28.52600 -5.41700 46.89500
C  28.28300 -4.37200 46.02000
C  26.93900 -4.64000 45.52400
C  29.74200 -5.65200 47.72900
C  28.74800 -3.05100 45.41300
O  29.79900 -2.45300 45.54500
C  27.60000 -2.64600 44.49000
C  27.20500 -1.17300 44.76900
O  26.34300 -0.80400 45.53100
O  27.91600 -0.41500 43.89200
C  27.49100 1.00400 43.79200
H  21.06900 -4.36200 43.37300
H  22.16700 -10.07000 46.15900
H  27.74300 -7.93900 48.18900
H  24.69600 -1.53500 43.86500
H  22.75900 -3.02000 42.18800
H  21.65400 -2.31300 44.73900
H  21.50500 -1.40600 43.15200
H  22.58900 -0.91000 44.36100
H  25.41300 -2.97000 41.15800
H  26.39600 -1.90800 42.00800
H  25.66300 -0.36900 40.74100
H  24.04700 -0.41900 41.56600
H  19.20900 -5.35300 43.50100
H  18.35300 -6.56900 44.23200
H  19.04300 -6.93800 42.75300
H  19.06100 -11.36500 45.46500
H  20.19000 -10.65200 46.60000
H  20.78000 -11.12700 45.01200
H  24.93900 -10.92900 46.34800
H  25.58900 -9.53100 48.96700
H  23.46900 -12.16200 47.79800
H  22.70400 -10.52100 48.28600
H  24.08800 -11.35100 49.07600
H  27.55300 -10.21200 46.84900
H  26.89700 -11.64100 47.68500
H  29.13000 -10.16400 48.62900
H  28.27800 -11.28300 49.50300
H  27.79600 -9.65900 49.70700
H  29.42700 -5.60700 48.77100
H  30.57400 -4.98000 47.51600
H  29.99800 -6.70700 47.63200
H  27.91700 -2.73500 43.45100
H  26.50200 1.09500 43.34200
H  28.17600 1.56900 43.16000
H  27.59200 1.33600 44.82600
Mg 17.47600 53.42200 25.65600
C  19.04400 52.13400 28.50900
C  14.85300 54.23300 27.71200
C  15.57800 53.97700 22.96600
C  19.98600 52.00000 23.69300
N  17.08700 53.21400 27.86800
C  17.86700 52.83200 28.83100
C  17.30300 53.05200 30.24500
C  15.90000 53.60800 29.92100
C  15.94600 53.73100 28.40200
C  14.65800 52.74300 30.43200
C  18.21700 54.00000 30.99000
C  18.39300 53.66600 32.44000
H  17.51900 54.36000 33.43900
N  15.61800 54.26400 25.39700
C  14.59100 54.42500 26.35700
C  13.36800 54.85300 25.69800
C  13.62200 54.82500 24.29800
C  14.97300 54.38200 24.18100
C  12.12600 55.10800 26.49700
C  12.65600 55.28800 23.19600
O  13.10500 55.42600 22.05700
C  11.19800 55.46800 23.54600
N  17.70600 52.87700 23.69800
C  16.82500 53.39900 22.75400
C  17.38700 53.16300 21.31400
C  18.81800 52.57700 21.54200
C  18.87700 52.53200 23.06200
C  16.53900 52.25200 20.40400
C  19.98700 53.37400 20.85000
C  20.89600 52.47200 20.01100
N  19.18700 52.26200 26.00200
C  20.16900 51.79700 25.11500
C  21.19400 51.18000 25.86800
C  20.74500 51.16200 27.21700
C  19.52000 51.92600 27.17800
C  22.47500 50.70700 25.39500
C  21.00200 50.74600 28.61500
O  22.00100 50.17300 29.01600
C  19.97100 51.40000 29.47000
C  19.30400 50.34600 30.30600
O  18.67200 49.35200 29.94900
O  19.50800 50.66400 31.64000
C  18.87100 49.83400 32.70300
H  14.07300 54.59300 28.38600
H  15.06500 54.14800 22.01700
H  20.72200 51.52900 23.03900
H  17.31200 52.08200 30.74300
H  15.83200 54.60300 30.36000
H  14.83000 52.25500 31.39100
H  14.28200 52.05800 29.67300
H  14.00900 53.54200 30.79100
H  17.93100 55.05000 30.92900
H  19.23600 54.02400 30.60300
H  19.42700 53.89200 32.70000
H  18.31700 52.62700 32.76100
H  12.08300 54.47200 27.38100
H  11.12600 55.01200 26.07400
H  12.29100 56.09100 26.93900
H  11.06400 56.33100 24.19900
H  10.85300 54.58500 24.08500
H  10.62300 55.49700 22.62000
H  17.36300 54.12400 20.80100
H  18.83000 51.52900 21.24600
H  16.41400 51.25400 20.82400
H  17.13700 52.21000 19.49400
H  15.60200 52.75100 20.15600
H  20.69700 53.78700 21.56700
H  19.47600 54.14500 20.27500
H  21.77000 52.97700 19.59900
H  20.41500 52.03600 19.13500
H  21.23200 51.63300 20.62000
H  22.74500 51.13700 24.43100
H  22.47900 49.62600 25.25300
H  23.13600 51.12700 26.15400
H  20.42500 52.17000 30.09300
H  17.81700 49.75200 32.43700
H  19.03000 50.43200 33.60000
H  19.38500 48.88000 32.81900

