158

Mg 47.59100 25.05200 28.28100
C  48.59800 27.19500 30.96700
C  46.81000 22.60400 30.71800
C  47.35300 22.79300 25.77500
C  48.84200 27.37000 25.92900
N  47.78300 24.90400 30.57600
C  48.00000 26.01500 31.41100
C  47.60100 25.65600 32.83500
C  47.09100 24.19900 32.72000
C  47.24300 23.83300 31.26200
C  47.86200 23.23200 33.61100
C  46.61000 26.61700 33.48400
C  47.01400 27.22200 34.87400
H  45.88300 27.50500 35.87400
N  47.01500 23.01900 28.22700
C  46.74100 22.19600 29.36300
C  46.07900 21.03800 28.78700
C  46.19400 21.06400 27.36400
C  46.86600 22.32000 27.06000
C  45.38700 19.93700 29.65900
C  45.63800 20.13600 26.33600
O  45.68900 20.38100 25.13100
C  45.06200 18.76800 26.73700
N  48.21100 25.00700 26.17400
C  47.94200 23.97400 25.34200
C  48.27400 24.29100 23.86100
C  48.57800 25.78000 23.93600
C  48.51500 26.06600 25.44100
C  49.27300 23.32600 23.31000
C  47.68500 26.67600 23.02900
C  46.19000 26.56100 23.18500
N  48.57800 26.85200 28.33400
C  48.86100 27.70600 27.32200
C  49.40500 28.89200 27.94900
C  49.19200 28.76000 29.29800
C  48.86100 27.45000 29.51000
C  50.05800 30.07700 27.32400
C  49.31300 29.47100 30.60400
O  49.72900 30.63300 30.83600
C  48.96900 28.43700 31.74600
C  50.19700 28.30100 32.63500
O  51.30000 28.03700 32.26000
O  49.82200 28.56300 33.89600
C  50.91700 28.62800 34.88600
H  46.53700 21.80300 31.40800
H  47.15000 22.08400 24.97000
H  49.05500 28.20500 25.25700
H  48.48000 25.68100 33.47900
H  46.02700 24.17400 32.95400
H  48.47100 22.58700 32.97700
H  47.13200 22.60500 34.12200
H  48.55000 23.61100 34.36600
H  45.61700 26.20700 33.66800
H  46.52700 27.48000 32.82400
H  47.45900 28.18100 34.60700
H  47.76400 26.54600 35.28300
H  45.67400 18.90700 29.44300
H  44.32900 20.06900 29.43200
H  45.73900 20.07600 30.68100
H  44.50400 18.29100 25.93000
H  44.36700 19.03600 27.53300
H  45.83400 18.17000 27.22100
H  47.36300 24.12300 23.28700
H  49.56900 25.92200 23.50300
H  49.88400 23.82500 22.55800
H  48.69900 22.53000 22.83500
H  49.91300 22.92600 24.09600
H  47.88000 26.38700 21.99600
H  48.02000 27.70200 23.18000
H  45.89700 27.59500 23.36900
H  45.92700 26.04500 24.10900
H  45.65200 26.20100 22.30800
H  50.11500 29.87600 26.25400
H  51.10500 30.20100 27.60100
H  49.61500 31.05000 27.53600
H  48.11200 28.70700 32.36200
H  50.62600 28.57800 35.93600
H  51.34200 29.61100 34.68500
H  51.67800 27.86500 34.72400
Mg 48.70900 46.89900 42.64400
C  45.33900 47.22000 41.78300
C  48.79800 43.96100 41.05400
C  51.96600 47.06000 42.94300
C  48.51500 50.38600 43.77200
N  47.20500 45.74100 41.48200
C  45.86300 45.97600 41.37400
C  45.15100 44.79500 40.69200
C  46.35000 43.76900 40.52400
C  47.52700 44.51300 41.07700
C  46.12800 42.47800 41.47800
C  44.59200 45.21400 39.27500
C  43.13100 44.76100 39.04600
H  42.84600 43.93700 37.75000
N  50.16200 45.51100 42.26100
C  50.02500 44.34400 41.60700
C  51.32800 43.72900 41.57000
C  52.20600 44.52100 42.34100
C  51.45500 45.73700 42.57100
C  51.68900 42.38900 40.89300
C  53.56200 44.06100 42.76300
O  54.06200 43.01000 42.38500
C  54.43200 44.78800 43.68000
N  50.04000 48.60600 43.07700
C  51.37500 48.29800 43.25900
C  52.21100 49.55400 43.83600
C  51.03000 50.63400 43.96000
C  49.77100 49.86500 43.55800
C  52.94500 49.27600 45.14200
C  51.19400 51.91000 43.01200
C  50.52000 53.17200 43.56500
N  47.25100 48.50400 42.87700
C  47.30500 49.83800 43.33800
C  45.96900 50.37000 43.34600
C  45.15700 49.37500 42.77700
C  46.01600 48.28400 42.44100
C  45.58800 51.72000 43.90400
C  43.77200 49.08500 42.30300
O  42.74600 49.75000 42.39900
C  43.85700 47.59000 41.72100
C  43.08300 46.74600 42.66000
O  43.46300 46.34700 43.72800
O  41.82200 46.26900 42.18100
C  41.07900 45.39800 43.06300
H  48.78300 42.98500 40.56500
H  53.01000 46.98000 43.25500
H  48.58000 51.42600 44.09800
H  44.49000 44.31900 41.41700
H  46.53800 43.40400 39.51400
H  46.05500 41.64100 40.78300
H  45.19300 42.56600 42.03200
H  46.88500 42.37700 42.25500
H  45.20200 44.88700 38.43300
H  44.70800 46.29500 39.19800
H  42.45500 45.58200 38.80600
H  42.67600 44.34500 39.94500
H  52.36600 42.53900 40.05200
H  50.75100 42.14200 40.39700
H  51.98600 41.55200 41.52500
H  54.87400 45.66400 43.20500
H  55.28300 44.13800 43.88200
H  53.94900 45.02400 44.62900
H  52.89700 50.06600 43.16100
H  50.93000 51.03700 44.96700
H  53.82200 48.71000 44.82900
H  52.22100 48.70400 45.72100
H  53.29400 50.09900 45.76600
H  50.74000 51.71200 42.04200
H  52.21100 52.18800 42.73700
H  49.67200 53.57100 43.00700
H  51.28500 53.94900 43.57400
H  50.28300 53.00400 44.61500
H  46.31100 52.46100 43.56200
H  45.46900 51.95900 44.96100
H  44.68700 51.98300 43.34900
H  43.45700 47.57400 40.70800
H  41.18500 45.76600 44.08400
H  41.46800 44.38100 43.00900
H  40.02900 45.33400 42.78100

