158

Mg 23.79700 -5.40300 45.48600
C  25.66100 -2.79900 44.05700
C  21.13000 -4.35800 43.42500
C  22.38000 -8.50500 45.90500
C  26.75100 -6.57700 46.92100
N  23.47800 -3.82000 43.88500
C  24.42800 -2.91000 43.51400
C  23.92000 -2.04300 42.33100
C  22.36800 -2.26800 42.42900
C  22.26300 -3.55700 43.25700
C  21.64900 -1.04000 43.16400
C  24.57400 -2.44200 40.99700
C  25.00700 -1.38100 40.00900
H  24.68800 -1.65800 38.47600
N  22.06800 -6.30200 44.87600
C  21.07500 -5.61800 44.06500
C  19.90300 -6.49900 44.09100
C  20.21100 -7.66300 44.80700
C  21.58700 -7.53600 45.29100
C  18.57600 -6.13100 43.40200
C  19.23500 -8.80800 45.10200
O  18.12200 -8.82300 44.58900
C  19.47800 -9.97100 45.96400
N  24.41700 -7.21800 46.43800
C  23.65400 -8.38000 46.46800
C  24.45800 -9.52500 47.17300
C  25.69700 -8.81900 47.74500
C  25.62900 -7.39700 47.00700
C  23.65600 -10.20300 48.31700
C  26.97700 -9.66300 47.63500
C  27.98200 -9.41500 48.83600
N  25.78800 -4.78300 45.62500
C  26.88900 -5.35100 46.25200
C  28.00300 -4.49200 46.24200
C  27.59500 -3.40300 45.37100
C  26.20200 -3.65100 45.06100
C  29.37300 -4.64300 46.95700
C  28.04400 -2.15400 44.69600
O  29.13300 -1.64800 44.54600
C  26.77000 -1.79400 43.77600
C  26.39600 -0.44100 44.16400
O  26.04800 -0.09100 45.26500
O  26.57600 0.43200 43.07200
C  26.79700 1.88200 43.38000
H  20.23900 -3.94400 42.94700
H  21.82100 -9.44200 45.93500
H  27.67100 -6.94600 47.38000
H  24.10700 -1.00500 42.60700
H  21.84900 -2.40300 41.48000
H  22.10400 -0.84800 44.13600
H  20.58800 -1.23700 43.31600
H  21.76400 -0.25600 42.41600
H  23.86700 -3.04800 40.43000
H  25.41500 -3.07100 41.29000
H  26.08500 -1.31200 40.15600
H  24.61700 -0.42400 40.35700
H  18.13700 -6.96800 42.85800
H  18.72700 -5.40100 42.60700
H  17.81800 -5.71300 44.06500
H  18.51800 -10.48600 45.97900
H  19.81300 -9.69200 46.96300
H  20.22800 -10.55500 45.43000
H  24.72400 -10.17100 46.33700
H  25.65300 -8.51900 48.79200
H  23.90100 -9.65300 49.22500
H  23.81500 -11.28200 48.33100
H  22.59500 -10.04100 48.12800
H  27.51800 -9.43400 46.71700
H  26.82200 -10.74200 47.66800
H  27.62700 -10.10800 49.59800
H  28.18500 -8.40400 49.19100
H  28.93400 -9.80300 48.47500
H  29.26700 -5.50900 47.61100
H  29.82100 -3.84400 47.54800
H  29.95000 -4.96600 46.09000
H  27.06000 -1.87200 42.72900
H  26.85500 2.27500 44.39600
H  25.98500 2.44300 42.91800
H  27.77900 2.19200 43.02200
Mg 39.85600 10.42300 29.91900
C  42.02500 11.32100 32.51700
C  37.78400 9.04900 32.36500
C  38.09400 9.14200 27.45800
C  42.55700 11.12000 27.69400
N  39.90500 10.29200 32.19100
C  40.80800 10.80100 32.99700
C  40.45400 10.62200 34.45800
C  39.16300 9.71600 34.35400
C  38.93700 9.67600 32.87500
C  39.30300 8.24200 34.86400
C  40.27900 11.98000 35.28600
C  40.01500 11.62000 36.73400
H  40.03400 12.78500 37.63900
N  38.07400 9.42600 29.89500
C  37.35100 8.96800 30.99300
C  36.21300 8.33900 30.49000
C  36.20500 8.41700 29.03800
C  37.51400 8.99100 28.73400
C  35.08600 7.77300 31.37300
C  35.21300 7.92800 28.09000
O  35.37900 8.00600 26.86100
C  33.87700 7.37800 28.48000
N  40.27300 10.15300 27.83100
C  39.35800 9.64000 27.03900
C  39.91100 9.46700 25.58000
C  41.21400 10.38400 25.67300
C  41.31600 10.64000 27.20000
C  40.23500 8.08400 24.89800
C  41.09100 11.63900 24.77300
C  40.43900 12.97100 25.33700
N  41.86700 11.03600 29.97600
C  42.84300 11.28200 29.07300
C  44.05600 11.73600 29.65000
C  43.73500 11.85900 30.98900
C  42.38200 11.41400 31.15200
C  45.37400 11.92900 28.93400
C  44.24600 12.28500 32.28800
O  45.36700 12.72300 32.51400
C  43.16900 12.01300 33.32200
C  43.71100 11.13200 34.38600
O  44.26100 10.06300 34.29100
O  43.43900 11.66600 35.60200
C  43.97300 11.02900 36.81800
H  37.17300 8.61700 33.16000
H  37.50800 8.82700 26.59100
H  43.38000 11.25200 26.98800
H  41.27600 10.15600 35.00100
H  38.25400 10.01500 34.87600
H  39.21500 7.47900 34.09000
H  38.51100 8.06000 35.59000
H  40.19800 8.07900 35.46400
H  39.36700 12.37200 34.83700
H  41.16800 12.61200 35.27700
H  40.82600 10.97300 37.06700
H  39.10900 11.01500 36.76600
H  35.36100 7.76900 32.42700
H  34.86100 6.78000 30.98200
H  34.19200 8.35800 31.15400
H  33.25400 8.07200 29.04300
H  34.05000 6.45800 29.03800
H  33.35200 7.01300 27.59700
H  39.16300 9.93000 24.93700
H  42.08700 9.82200 25.34200
H  40.24400 7.36000 25.71400
H  41.22300 8.13200 24.44000
H  39.43200 7.96600 24.17100
H  40.44200 11.27400 23.97700
H  42.08000 11.86600 24.37700
H  41.18600 13.75700 25.23000
H  40.04300 12.90900 26.35000
H  39.52500 13.26300 24.81800
H  45.29400 12.79900 28.28200
H  45.58100 11.05100 28.32200
H  46.16300 12.16300 29.64900
H  42.77700 12.94400 33.73000
H  45.00600 11.37600 36.79500
H  43.94500 9.93900 36.81700
H  43.44900 11.46700 37.66700

