158

Mg 41.17600 40.34400 26.86700
C  40.53100 42.96000 29.18200
C  42.01900 38.29600 29.66300
C  42.06900 38.16300 24.61200
C  40.92600 42.87200 24.24900
N  41.17400 40.55100 29.13300
C  40.83400 41.70400 29.84300
C  40.76500 41.35800 31.39000
C  41.34000 39.87800 31.53700
C  41.54800 39.51900 30.05400
C  42.51600 39.65900 32.46500
C  39.28400 41.51900 32.08400
C  39.01000 40.89400 33.48200
H  38.72000 42.00300 34.59300
N  41.95900 38.43300 27.12900
C  42.16600 37.74800 28.32900
C  42.53700 36.40500 27.94300
C  42.51300 36.34500 26.47300
C  42.19300 37.70600 26.00600
C  42.95600 35.35700 29.00800
C  42.94900 35.28700 25.53900
O  43.02200 35.31100 24.31500
C  43.09700 33.89200 26.11400
N  41.52700 40.55100 24.74200
C  41.73800 39.36900 24.03400
C  41.56700 39.56700 22.49000
C  41.01500 41.03300 22.47500
C  41.18800 41.52100 23.89000
C  42.84700 39.38900 21.61900
C  39.56600 41.21500 21.87600
C  38.28800 41.24600 22.76700
N  40.85100 42.50000 26.74500
C  40.70700 43.31900 25.60200
C  40.40100 44.67600 26.04000
C  40.34700 44.58900 27.44500
C  40.68600 43.25900 27.81700
C  40.23000 45.86100 25.14300
C  40.00400 45.31700 28.64500
O  39.63200 46.42200 28.80600
C  40.14900 44.28100 29.87400
C  41.19500 44.74400 30.83400
O  42.30700 44.99300 30.44900
O  40.73300 44.65900 32.15200
C  41.84300 44.50300 33.07600
H  42.22100 37.62600 30.50200
H  42.31100 37.53100 23.75500
H  40.83000 43.52100 23.37600
H  41.42100 42.05500 31.91000
H  40.52600 39.21800 31.83500
H  43.38300 39.26300 31.93600
H  42.19800 38.99200 33.26700
H  42.87700 40.64900 32.74300
H  38.58500 41.05700 31.38600
H  39.01800 42.57100 31.98400
H  39.89700 40.33000 33.77000
H  38.15700 40.22100 33.39500
H  43.88100 34.83000 28.77300
H  42.16300 34.63800 29.21300
H  43.30100 35.93000 29.86900
H  43.91100 33.93900 26.83700
H  43.24100 33.12400 25.35400
H  42.13500 33.80900 26.62100
H  40.79600 38.87000 22.16100
H  41.69100 41.69000 21.92600
H  43.11600 40.30400 21.09100
H  42.74100 38.66200 20.81300
H  43.70400 39.02000 22.18200
H  39.37200 40.38400 21.19700
H  39.55200 42.02900 21.15200
H  37.60800 40.43200 22.51400
H  37.92200 42.25900 22.60000
H  38.57500 41.12000 23.81100
H  39.81000 46.69800 25.70000
H  39.51100 45.69300 24.34100
H  41.18100 46.21700 24.74600
H  39.15700 44.26600 30.32600
H  42.76700 44.19900 32.58400
H  41.66300 43.78700 33.87800
H  42.02200 45.45000 33.58400
Mg 8.61300 47.78200 25.80000
C  6.39500 47.65200 28.49100
C  11.08600 48.90200 27.94900
C  10.71300 47.83700 23.23200
C  5.89600 47.36900 23.69100
N  8.63500 48.37500 27.90300
C  7.68600 48.07500 28.86200
C  8.16800 48.38600 30.25600
C  9.51200 49.16100 29.96800
C  9.77000 48.81800 28.56000
C  9.50500 50.70300 30.17100
C  8.11100 47.18700 31.26500
C  9.11000 47.18300 32.43000
H  8.69100 46.56000 33.77500
N  10.65600 48.01800 25.68000
C  11.53000 48.48800 26.64200
C  12.83100 48.41700 26.05500
C  12.77300 48.02200 24.73200
C  11.35100 47.96000 24.47100
C  14.04200 48.73300 26.89400
C  13.86600 47.79100 23.62000
O  13.68400 47.51900 22.45200
C  15.34100 47.81900 24.02300
N  8.30100 47.76700 23.75700
C  9.36100 47.75500 22.88200
C  8.89200 47.70100 21.43000
C  7.33800 47.58700 21.56400
C  7.14100 47.55100 23.10100
C  9.38900 48.87800 20.60500
C  6.66900 46.37100 20.86700
C  5.75700 46.61300 19.64600
N  6.57200 47.58400 25.95700
C  5.58700 47.38100 25.02800
C  4.28800 47.14100 25.66900
C  4.62500 47.21900 27.03500
C  6.00600 47.52100 27.16900
C  2.93300 46.97300 25.08400
C  3.94500 47.14700 28.34400
O  2.74800 46.93400 28.53000
C  5.11000 47.42500 29.35500
C  5.05100 46.36000 30.37700
O  5.62500 45.32200 30.38800
O  4.17700 46.75800 31.39000
C  4.42300 46.28300 32.75400
H  11.85100 49.15300 28.68700
H  11.39100 47.97700 22.38700
H  5.08100 47.25800 22.97300
H  7.49000 49.17600 30.57900
H  10.39400 48.75900 30.46500
H  9.20700 51.05600 29.18400
H  10.42800 51.13400 30.56100
H  8.83600 50.95400 30.99400
H  8.05300 46.24400 30.72200
H  7.17000 47.41000 31.76800
H  9.42600 48.22300 32.50900
H  9.96400 46.57700 32.12700
H  14.68700 49.39500 26.31600
H  14.64000 47.85100 27.12400
H  13.76900 49.17800 27.85100
H  15.47800 46.93500 24.64600
H  15.62100 48.72100 24.56600
H  16.08800 47.64900 23.24800
H  9.34300 46.81100 20.99200
H  6.73900 48.47600 21.36600
H  9.71800 48.40600 19.68000
H  10.10300 49.52100 21.12000
H  8.49000 49.42500 20.32000
H  6.17300 45.81100 21.66000
H  7.49800 45.71400 20.60200
H  6.05500 45.89100 18.88500
H  5.84500 47.62300 19.24600
H  4.73100 46.44200 19.97300
H  3.08000 46.53400 24.09800
H  2.54600 47.98700 24.98000
H  2.43700 46.23300 25.71200
H  4.92300 48.38500 29.83700
H  3.65900 45.59100 33.11000
H  4.57300 47.06900 33.49500
H  5.36500 45.73900 32.82700

