158

Mg 25.13400 1.43200 29.51200
C  27.30000 1.12800 32.49100
C  22.53500 1.48500 31.66900
C  23.40100 1.91700 26.81100
C  28.17000 1.13600 27.61800
N  24.98800 1.13300 31.89600
C  25.97500 1.31700 32.83300
C  25.30700 1.29500 34.31000
C  23.78900 1.22800 33.98000
C  23.76300 1.33600 32.43900
C  22.92400 0.00400 34.49400
C  25.77200 2.50200 35.18000
C  26.01600 2.24100 36.64200
H  25.94700 3.48700 37.58200
N  23.25000 1.65200 29.29600
C  22.23200 1.67800 30.24800
C  20.92900 1.73500 29.58800
C  21.21100 1.92700 28.19800
C  22.67000 1.82000 28.03400
C  19.61000 1.63200 30.31500
C  20.19900 2.04100 26.99400
O  20.61700 2.01900 25.87300
C  18.65300 2.14300 27.31200
N  25.73600 1.39000 27.46000
C  24.77300 1.60500 26.52600
C  25.39600 1.73500 25.08400
C  26.91900 1.79100 25.43000
C  26.95800 1.43300 26.94800
C  24.80100 0.60300 24.23000
C  27.66900 3.11100 25.25100
C  26.95800 4.27200 25.94700
N  27.20200 1.07800 29.93000
C  28.27800 0.92900 29.00700
C  29.56200 0.63200 29.68100
C  29.14000 0.69800 31.07400
C  27.74700 0.98100 31.18000
C  30.89800 0.40900 29.14200
C  29.71100 0.76400 32.41300
O  30.89100 0.49100 32.77700
C  28.52500 1.09500 33.42300
C  28.52400 -0.03300 34.31100
O  28.10400 -1.15200 34.13600
O  29.08500 0.35400 35.47700
C  29.17300 -0.61700 36.57000
H  21.68700 1.44300 32.35600
H  22.78800 1.99400 25.91000
H  29.06900 1.17600 27.00000
H  25.68000 0.36400 34.73600
H  23.29000 2.12700 34.34000
H  21.97700 0.53200 34.60900
H  23.22400 -0.49300 35.41600
H  22.75500 -0.70300 33.68200
H  25.11700 3.37300 35.20200
H  26.66300 2.87200 34.67200
H  27.03500 1.85500 36.67300
H  25.30200 1.53900 37.07000
H  18.92300 2.39300 29.94500
H  19.55400 1.59800 31.40300
H  19.15500 0.73700 29.88900
H  18.36500 3.06300 27.82100
H  18.23100 1.33000 27.90300
H  18.21800 2.02300 26.32000
H  24.95100 2.66700 24.73800
H  27.48100 1.03600 24.87900
H  24.33500 -0.16300 24.85000
H  25.63900 0.15000 23.70100
H  24.08700 1.06200 23.54500
H  27.64800 3.32600 24.18200
H  28.70300 3.03700 25.58700
H  26.19100 3.90200 26.62700
H  26.52100 4.92500 25.19100
H  27.69100 4.81900 26.53900
H  31.64000 1.18500 29.33300
H  30.74500 0.39800 28.06300
H  31.31200 -0.56800 29.39100
H  28.57600 2.00300 34.02400
H  28.35400 -0.37500 37.24800
H  30.14400 -0.45100 37.03600
H  29.17300 -1.65300 36.22900
Mg 47.80500 25.74500 29.39500
C  48.66800 28.17000 31.75200
C  46.61400 23.82600 31.85800
C  47.12800 23.47700 27.03400
C  49.34900 27.75300 26.99400
N  47.54500 26.07700 31.53500
C  47.96300 27.07400 32.26900
C  47.59300 26.92100 33.72500
C  47.00300 25.51400 33.75200
C  47.11100 25.06500 32.26300
C  47.61900 24.47000 34.75000
C  46.55100 27.96400 34.15400
C  46.38400 28.14200 35.67500
H  47.34100 27.51200 36.65200
N  46.88400 23.91200 29.39800
C  46.49800 23.29500 30.56500
C  45.64700 22.10900 30.23600
C  45.73600 22.07000 28.76900
C  46.63000 23.16700 28.30100
C  44.97300 21.22600 31.29400
C  45.25900 21.01800 27.79900
O  45.34700 21.11400 26.57700
C  44.30200 19.95600 28.30000
N  48.42800 25.50800 27.40800
C  48.01000 24.52000 26.66500
C  48.58900 24.52100 25.22800
C  49.22000 25.88000 25.17400
C  48.92100 26.50300 26.57100
C  49.54100 23.32800 25.02900
C  48.53800 26.67400 24.04400
C  49.51700 27.36900 23.00300
N  48.73500 27.67300 29.33400
C  49.26500 28.31400 28.27600
C  49.94600 29.48300 28.73100
C  49.69500 29.51000 30.10800
C  48.94400 28.39900 30.43300
C  50.56800 30.56400 27.92300
C  49.87300 30.31100 31.32300
O  50.38700 31.41500 31.54900
C  49.34500 29.32900 32.49900
C  50.54900 28.90500 33.27400
O  51.08800 27.78000 33.24100
O  50.89400 29.83000 34.19100
C  52.04100 29.44600 35.04200
H  46.12000 23.22300 32.62300
H  47.03200 22.72900 26.24400
H  49.94400 28.19400 26.19100
H  48.48500 26.91700 34.35100
H  45.92600 25.53900 33.91500
H  48.49500 24.83600 35.28500
H  47.88500 23.53900 34.24800
H  46.83500 24.15800 35.44000
H  45.59800 27.68000 33.70900
H  46.82600 28.94300 33.76300
H  45.38700 27.96100 36.07600
H  46.49400 29.22600 35.69200
H  45.25300 20.17600 31.20900
H  43.89900 21.32800 31.13500
H  45.11300 21.47400 32.34600
H  43.46200 20.54000 28.67600
H  44.63500 19.26700 29.07700
H  43.85400 19.38800 27.48500
H  47.68800 24.40100 24.62800
H  50.30800 25.82500 25.19500
H  48.98800 22.38900 25.05700
H  50.15800 23.35300 25.92700
H  50.05700 23.46500 24.07900
H  47.84000 27.38200 24.49200
H  47.84200 26.11600 23.41800
H  49.18100 27.15600 21.98800
H  50.54500 27.05100 23.17600
H  49.51300 28.43200 23.24600
H  49.82100 30.71700 27.14400
H  51.50100 30.27800 27.43800
H  50.78800 31.38700 28.60300
H  48.59900 29.88800 33.06400
H  51.79300 28.50700 35.53600
H  52.07600 30.20800 35.82000
H  53.01000 29.41500 34.54400

