158

Mg -1.63400 17.64100 25.79900
C  -2.29100 15.51700 28.62000
C  -1.91100 20.32600 27.99600
C  -1.25300 19.65900 23.13900
C  -1.44100 14.78400 23.80200
N  -2.23900 17.88200 28.05300
C  -2.24500 16.87900 29.04100
C  -2.05800 17.43800 30.49800
C  -2.18500 18.97000 30.19500
C  -2.01700 19.09100 28.66500
C  -3.53500 19.63600 30.59100
C  -0.83600 16.94000 31.34800
C  -0.44600 17.80500 32.60100
H  -0.35900 17.05700 33.90800
N  -1.52300 19.73800 25.56400
C  -1.69200 20.66800 26.61100
C  -1.67200 21.99600 26.03000
C  -1.59000 21.76200 24.65100
C  -1.46200 20.33100 24.39800
C  -1.81100 23.29500 26.86800
C  -1.75000 22.73400 23.51800
O  -1.88600 22.48200 22.30200
C  -1.82100 24.23400 23.89500
N  -1.30900 17.28500 23.78600
C  -1.19400 18.27600 22.84800
C  -0.97100 17.72400 21.45500
C  -0.83300 16.16000 21.68700
C  -1.18300 16.03700 23.18000
C  -2.10400 18.17500 20.54800
C  0.61500 15.68600 21.33400
C  1.66400 16.04900 22.38900
N  -1.91700 15.56800 26.03800
C  -1.84700 14.53100 25.11000
C  -2.10200 13.25000 25.74800
C  -2.30500 13.57200 27.17400
C  -2.17900 15.03400 27.26500
C  -1.94700 11.97300 25.06300
C  -2.49100 13.06600 28.54200
O  -2.50300 11.88900 28.93000
C  -2.55200 14.30400 29.52700
C  -1.44900 14.06400 30.45300
O  -0.28100 14.04900 30.14600
O  -1.94400 13.70000 31.65300
C  -1.17200 12.96800 32.66300
H  -2.09100 21.20800 28.61500
H  -1.18900 20.26700 22.23400
H  -1.38000 13.89700 23.16700
H  -2.96100 17.12900 31.02500
H  -1.37500 19.52200 30.67200
H  -4.07700 18.88000 31.15900
H  -4.08800 20.09600 29.77100
H  -3.38900 20.49000 31.25200
H  0.01200 16.87300 30.66700
H  -1.20700 16.04500 31.84800
H  -1.14500 18.61400 32.81600
H  0.51600 18.25300 32.35100
H  -2.62800 23.94400 26.55200
H  -0.90500 23.88000 26.71000
H  -2.11300 23.16700 27.90700
H  -2.83500 24.43000 24.24400
H  -1.66100 24.78100 22.96600
H  -1.03000 24.50200 24.59600
H  -0.00900 18.13600 21.14800
H  -1.56500 15.51300 21.20400
H  -2.86200 18.63200 21.18400
H  -2.57300 17.33600 20.03300
H  -1.67400 18.96600 19.93300
H  0.94600 16.28600 20.48600
H  0.64100 14.60500 21.19500
H  1.33900 16.86100 23.04000
H  2.52400 16.40200 21.82100
H  1.95400 15.20800 23.01900
H  -1.14800 11.90900 24.32300
H  -2.77700 11.79700 24.37900
H  -2.00800 11.09600 25.70800
H  -3.51600 14.26300 30.03400
H  -0.38600 12.30600 32.29900
H  -1.86700 12.47700 33.34400
H  -0.58800 13.78600 33.08600
Mg 7.30000 53.73300 41.63100
C  6.88700 50.26400 41.36900
C  10.67600 53.28800 40.86600
C  7.42900 57.03200 41.27900
C  3.91400 53.90200 42.47500
N  8.61500 51.95700 41.02900
C  8.24600 50.61300 41.06000
C  9.38900 49.71400 40.72100
C  10.60200 50.66600 41.03000
C  9.99900 52.09000 40.99700
C  11.37800 50.40200 42.32900
C  9.48300 49.15300 39.25700
C  9.20200 50.07100 38.02100
H  8.03600 49.83100 37.06500
N  8.84400 54.99700 41.05300
C  10.11300 54.60500 40.72400
C  10.85700 55.82000 40.47000
C  9.99900 56.93400 40.44800
C  8.70000 56.37700 40.87700
C  12.30600 55.80400 40.00400
C  10.39900 58.37500 40.14300
O  11.56600 58.66400 39.98900
C  9.39000 59.51200 40.15400
N  5.91800 55.19700 41.78000
C  6.27300 56.53400 41.69500
C  5.05300 57.44300 42.18500
C  4.13400 56.39300 42.79000
C  4.66300 55.04300 42.31700
C  5.32500 58.77100 43.10500
C  2.69600 56.67900 42.54000
C  1.68800 56.34600 43.69400
N  5.74100 52.39900 42.00800
C  4.37700 52.59400 42.34400
C  3.72000 51.29900 42.57000
C  4.70900 50.33800 42.20700
C  5.88500 51.04900 41.87000
C  2.24000 51.17500 42.98700
C  4.94100 48.93100 42.26900
O  4.17100 48.03100 42.63400
C  6.37000 48.81400 41.47500
C  5.98400 48.18500 40.14300
O  5.77200 48.69700 39.02200
O  5.96500 46.86200 40.27500
C  5.58100 46.14500 39.03500
H  11.76100 53.17100 40.86600
H  7.48800 58.11800 41.17300
H  2.93700 53.81700 42.95500
H  9.32000 48.94400 41.49000
H  11.30300 50.62600 40.19600
H  11.34300 51.25000 43.01300
H  12.38600 50.01600 42.17600
H  10.88500 49.50900 42.71200
H  8.71800 48.39500 39.08900
H  10.44100 48.63900 39.16800
H  10.13000 49.97500 37.45700
H  9.25600 51.10200 38.37200
H  12.78400 54.83800 39.84100
H  12.87200 56.13000 40.87700
H  12.53100 56.49700 39.19300
H  8.70200 59.44800 39.31200
H  9.93300 60.43500 39.95000
H  8.81600 59.60900 41.07500
H  4.64700 57.88600 41.27600
H  4.24700 56.41700 43.87400
H  6.39400 58.98000 43.14800
H  4.95300 58.52900 44.10100
H  4.65100 59.57000 42.79400
H  2.40400 56.16500 41.62500
H  2.57300 57.70100 42.18200
H  1.44100 57.29900 44.16200
H  2.12200 55.76700 44.50900
H  0.86100 55.83200 43.20400
H  1.67000 51.55900 42.14100
H  2.13500 51.89000 43.80300
H  1.82600 50.22600 43.32900
H  6.89100 48.20200 42.21100
H  6.37100 45.42200 38.83200
H  5.25600 46.74200 38.18400
H  4.72100 45.50300 39.22500

