158

Mg 0.79700 6.87100 26.60900
C  1.35200 9.27000 29.06200
C  0.80200 4.47000 28.88500
C  0.10400 4.76500 24.01100
C  1.34900 9.41600 24.19100
N  0.97000 6.91100 28.70900
C  1.12100 8.00900 29.54700
C  1.05000 7.59200 31.04300
C  1.20500 6.04500 30.94200
C  0.99800 5.77500 29.40800
C  2.58200 5.59400 31.43700
C  -0.19900 7.97100 31.85100
C  0.06700 8.16100 33.38700
H  1.26200 7.61400 34.06100
N  0.58500 4.83900 26.50600
C  0.61400 3.98700 27.54400
C  0.40000 2.63500 27.08700
C  0.14100 2.74100 25.71700
C  0.26000 4.17300 25.34700
C  0.46900 1.46300 28.08400
C  -0.30400 1.59900 24.77000
O  -0.47200 1.73200 23.55900
C  -0.29600 0.21800 25.25500
N  0.78200 7.12800 24.39500
C  0.38400 6.08100 23.59400
C  0.31300 6.53000 22.09100
C  0.88900 8.00700 22.16000
C  1.02000 8.18700 23.65200
C  0.96200 5.49300 21.13900
C  0.03000 9.05900 21.33900
C  0.69300 10.09800 20.39800
N  1.30400 8.91400 26.58400
C  1.53400 9.81700 25.48800
C  2.01400 11.05500 25.98700
C  1.87300 10.92000 27.42000
C  1.44800 9.56600 27.69500
C  2.34100 12.25300 25.13100
C  2.04000 11.60000 28.66500
O  2.37500 12.74600 28.91600
C  1.55900 10.54200 29.79800
C  2.66100 10.59300 30.80300
O  3.81800 10.22800 30.58800
O  2.20500 10.95000 31.99800
C  3.19800 11.08700 33.08300
H  0.78200 3.68700 29.64600
H  -0.34500 4.05800 23.31000
H  1.52000 10.18400 23.43400
H  1.93800 7.98900 31.53400
H  0.37000 5.63400 31.50800
H  3.00700 4.76100 30.87700
H  2.56200 5.12100 32.41900
H  3.22400 6.47500 31.41700
H  -0.87000 7.11700 31.93300
H  -0.68500 8.80700 31.34800
H  -0.79700 7.75100 33.91100
H  0.13100 9.23000 33.59000
H  0.90500 0.61400 27.55900
H  -0.46600 1.12200 28.52800
H  1.13700 1.78300 28.88400
H  -0.61900 -0.42300 24.43500
H  -0.98500 0.19200 26.09900
H  0.73000 -0.08100 25.47200
H  -0.73700 6.48400 21.80100
H  1.92200 8.09700 21.82500
H  1.82300 5.96500 20.66400
H  0.28700 5.29200 20.30700
H  1.22300 4.48700 21.46800
H  -0.51700 9.63900 22.08300
H  -0.71600 8.58200 20.70400
H  0.28700 11.08900 20.60100
H  0.62200 9.70400 19.38400
H  1.76700 10.11100 20.58300
H  3.05600 12.86900 25.67500
H  1.48100 12.84100 24.81100
H  2.89100 11.93700 24.24400
H  0.65600 10.99700 30.20700
H  2.90100 11.66700 33.95700
H  4.01400 11.68100 32.67000
H  3.45000 10.05100 33.30900
Mg 8.92800 2.95000 27.12600
C  10.23600 1.48100 30.04300
C  7.28800 5.17600 29.23900
C  7.52900 4.33100 24.43900
C  10.56000 0.66500 25.20600
N  8.62500 3.18200 29.51000
C  9.41300 2.55500 30.41900
C  9.19600 3.16700 31.83800
C  8.05200 4.28200 31.58300
C  7.94900 4.26900 30.03200
C  6.69900 4.14100 32.27400
C  10.53500 3.66500 32.52700
C  10.42600 4.33900 33.86700
H  11.16300 3.66900 35.03200
N  7.59000 4.43400 26.87200
C  7.01600 5.25300 27.86200
C  6.16400 6.30200 27.22800
C  6.27500 6.15100 25.82400
C  7.12500 4.92200 25.64200
C  5.19300 7.19600 28.00800
C  5.62100 6.94300 24.74900
O  5.79600 6.65900 23.53500
C  4.86600 8.22500 25.07400
N  9.15200 2.64900 25.06000
C  8.37100 3.28600 24.18100
C  8.57100 2.67000 22.78800
C  9.68100 1.61600 22.97600
C  9.85200 1.65100 24.49900
C  7.25200 2.10400 22.24000
C  11.11000 2.02300 22.31300
C  11.31900 1.26600 20.98400
N  9.95700 1.24200 27.48300
C  10.60400 0.45600 26.63300
C  11.38400 -0.55500 27.36800
C  11.28300 -0.17800 28.73100
C  10.43900 0.99100 28.71500
C  11.94700 -1.85000 26.89000
C  11.63800 -0.54100 30.14200
O  12.30600 -1.38300 30.64000
C  11.08700 0.57600 30.94600
C  10.27100 0.00900 32.10300
O  9.13500 -0.30700 32.06500
O  11.02800 0.01100 33.26800
C  10.36300 -0.26400 34.49400
H  6.95700 6.05700 29.79300
H  7.22400 4.76600 23.48500
H  11.25200 0.04300 24.63500
H  8.73000 2.50100 32.56400
H  8.41400 5.24200 31.95100
H  5.81100 4.02600 31.65300
H  6.42100 4.98300 32.90800
H  6.81700 3.33100 32.99500
H  11.07900 4.26000 31.79400
H  11.12100 2.75700 32.67300
H  9.34900 4.40200 34.02100
H  10.84200 5.34000 33.75100
H  4.19900 6.96900 27.62300
H  5.21500 8.27800 27.87400
H  5.22700 6.97300 29.07400
H  5.45700 8.87100 25.72400
H  3.91700 7.92200 25.51500
H  4.57100 8.84300 24.22600
H  8.81100 3.43100 22.04500
H  9.21100 0.69600 22.62700
H  6.42400 2.68100 22.65200
H  7.11400 1.05400 22.50000
H  7.22100 2.30100 21.16900
H  11.99700 1.78700 22.90100
H  11.07500 3.11300 22.31400
H  11.30600 2.08700 20.26800
H  10.49500 0.65400 20.61700
H  12.33000 0.86400 20.91500
H  11.53800 -2.71200 27.41800
H  13.02400 -1.90100 27.05300
H  11.71100 -2.06000 25.84700
H  11.90900 1.10000 31.43400
H  9.32000 -0.58100 34.49000
H  10.33900 0.70900 34.98400
H  10.97800 -0.93100 35.09800

