158

Mg 47.69000 35.71900 27.06200
C  45.87300 34.23000 29.75500
C  48.07900 38.42000 28.95400
C  49.09900 37.08000 24.40900
C  46.65800 32.90400 25.11100
N  47.05200 36.19800 29.12700
C  46.47800 35.44100 30.05900
C  46.69800 36.07900 31.48200
C  47.05000 37.54800 31.05800
C  47.40400 37.40600 29.61300
C  45.94500 38.62600 31.30200
C  47.86000 35.42800 32.28200
C  47.63100 35.21300 33.80400
H  46.75400 36.28800 34.50900
N  48.52100 37.56500 26.72200
C  48.60500 38.54200 27.68200
C  49.52000 39.56000 27.17700
C  49.71700 39.26600 25.75700
C  49.10400 37.91500 25.52600
C  50.23500 40.53700 28.02200
C  50.50400 39.99800 24.58400
O  50.56200 39.52100 23.47000
C  51.05000 41.32400 24.92400
N  47.72300 35.13600 24.98400
C  48.54500 35.80900 24.17200
C  48.85900 34.94500 22.94000
C  48.13700 33.65500 23.22900
C  47.46000 33.90000 24.53200
C  48.40900 35.65000 21.59600
C  49.07400 32.41400 23.14700
C  49.81900 32.01900 21.89100
N  46.38900 33.94600 27.26500
C  46.16700 32.88300 26.40700
C  45.33800 31.97200 27.08700
C  45.17500 32.46500 28.35000
C  45.87700 33.63100 28.44200
C  44.86700 30.69400 26.57400
C  44.73400 32.15000 29.66500
O  44.23400 31.13900 30.12100
C  44.90900 33.40500 30.55100
C  45.30400 33.01700 31.91300
O  46.36700 32.49400 32.24100
O  44.31800 33.28200 32.77400
C  44.44800 32.90600 34.16100
H  48.27000 39.17600 29.71800
H  49.79600 37.35500 23.61500
H  46.51200 32.03300 24.46900
H  45.69500 36.00400 31.90200
H  47.93100 37.88700 31.60300
H  46.32200 39.42000 31.94700
H  45.06400 38.20800 31.78800
H  45.72800 38.97000 30.29100
H  48.70800 36.10900 32.35300
H  47.98900 34.40800 31.92100
H  48.65100 35.35300 34.16200
H  47.30800 34.21100 34.08700
H  49.91100 41.52900 27.70800
H  51.29900 40.42000 27.81600
H  50.01100 40.42000 29.08200
H  51.20600 41.93100 24.03200
H  52.04600 41.26900 25.36500
H  50.35300 41.92700 25.50600
H  49.93500 34.77800 22.97500
H  47.43800 33.41300 22.42900
H  47.40700 35.39200 21.25200
H  49.17400 35.43200 20.85100
H  48.37400 36.73000 21.73800
H  48.51500 31.52700 23.44600
H  49.84300 32.60700 23.89500
H  49.52900 32.72000 21.10900
H  49.60600 30.97600 21.65700
H  50.88100 32.06400 22.13400
H  44.72600 30.73700 25.49400
H  43.95300 30.42500 27.10300
H  45.68400 29.97800 26.65500
H  44.04100 34.05800 30.65300
H  45.50100 32.73500 34.38200
H  43.82400 32.09800 34.54500
H  44.12500 33.72900 34.79900
Mg -10.46400 38.93300 41.11600
C  -8.64300 36.04400 40.38800
C  -8.00500 40.76200 39.42000
C  -12.42700 41.57400 41.00700
C  -13.00000 36.98200 42.45400
N  -8.58200 38.56200 40.04400
C  -8.10800 37.25100 39.84800
C  -7.02100 37.21400 38.76800
C  -6.60000 38.69900 38.74200
C  -7.85300 39.42400 39.34900
C  -5.24200 39.09300 39.47900
C  -7.47300 36.61900 37.38500
C  -6.71300 35.52000 36.78500
H  -6.13100 35.70400 35.41600
N  -10.19400 40.91000 40.53300
C  -9.13600 41.43600 39.78800
C  -9.33500 42.85200 39.71700
C  -10.59900 43.13500 40.21300
C  -11.15000 41.86600 40.62200
C  -8.32800 43.69700 39.05900
C  -11.16300 44.56900 40.40500
O  -10.54900 45.50400 40.01600
C  -12.42500 44.78100 41.17300
N  -12.44300 39.22500 41.49100
C  -13.00300 40.38600 41.42000
C  -14.46000 40.35000 41.98700
C  -14.78900 38.80100 42.06900
C  -13.31700 38.26300 42.05700
C  -14.52700 41.18600 43.37900
C  -15.42400 38.12000 40.78100
C  -16.49100 37.08000 41.04000
N  -10.77400 36.90800 41.52600
C  -11.81600 36.25400 42.21400
C  -11.40900 34.88000 42.35200
C  -10.22700 34.72500 41.65300
C  -9.86700 36.01300 41.15200
C  -12.15300 33.79700 43.10800
C  -9.18100 33.81500 41.17200
O  -9.08900 32.60200 41.34500
C  -8.19200 34.59700 40.29300
C  -6.80400 34.42500 40.89300
O  -6.02800 33.55200 40.52100
O  -6.55200 35.33900 41.86600
C  -5.15800 35.44600 42.20000
H  -7.16100 41.28600 38.96700
H  -13.13400 42.40500 40.94900
H  -13.82900 36.39500 42.85500
H  -6.24600 36.59500 39.21900
H  -6.52200 39.03200 37.70700
H  -4.50200 38.29300 39.50500
H  -5.40300 39.33600 40.53000
H  -4.65000 39.88000 39.01200
H  -7.25900 37.41500 36.67200
H  -8.55500 36.49200 37.35900
H  -7.30300 34.60400 36.75100
H  -5.94200 35.23800 37.50200
H  -8.16700 44.62700 39.60400
H  -8.62100 43.94500 38.03900
H  -7.33400 43.25300 39.11900
H  -12.41200 45.82200 41.49800
H  -12.41700 44.16000 42.06800
H  -13.32100 44.63000 40.57100
H  -15.14900 40.78800 41.26500
H  -15.17600 38.63900 43.07500
H  -13.54200 41.61900 43.55100
H  -14.77200 40.58300 44.25300
H  -15.26400 41.98100 43.26300
H  -14.59200 37.67800 40.23400
H  -15.85900 38.94200 40.21300
H  -16.84800 37.27500 42.05100
H  -16.16700 36.04000 40.98200
H  -17.25700 37.23100 40.28000
H  -12.71500 33.13100 42.45300
H  -12.88000 34.31100 43.73800
H  -11.41200 33.32200 43.75000
H  -8.15700 34.20300 39.27700
H  -4.99000 36.51300 42.05200
H  -4.54200 34.84100 41.53400
H  -4.98200 35.24100 43.25600

