158

Mg 48.16200 25.08400 28.27800
C  49.33100 27.51100 30.69400
C  47.46200 23.14900 30.96900
C  47.71300 22.72900 26.04300
C  49.95200 27.02100 25.79300
N  48.33700 25.36200 30.62300
C  48.72000 26.49000 31.32700
C  48.55400 26.23500 32.79100
C  48.13500 24.72200 32.87200
C  48.01000 24.37100 31.38900
C  49.11300 23.81500 33.66000
C  47.55800 27.19700 33.42700
C  47.67100 27.36000 34.95000
H  46.40900 27.64500 35.74600
N  47.39800 23.26300 28.42200
C  47.16900 22.54900 29.64500
C  46.59800 21.23500 29.35200
C  46.62600 21.20200 27.91000
C  47.27600 22.41200 27.37800
C  46.16100 20.23900 30.45200
C  46.13700 20.12100 26.98400
O  46.37200 20.12300 25.77500
C  45.54200 18.97500 27.65500
N  48.83000 24.90300 26.28200
C  48.31400 23.86900 25.52700
C  48.78000 23.95800 24.05200
C  49.20700 25.47900 23.96500
C  49.38200 25.80300 25.42100
C  49.93700 22.98700 23.70100
C  48.20400 26.52200 23.31500
C  48.75200 27.90600 22.91100
N  49.35600 26.89000 28.14400
C  49.92100 27.53700 27.06600
C  50.55000 28.74700 27.49900
C  50.22300 28.86000 28.87600
C  49.55900 27.65200 29.24100
C  51.45400 29.61100 26.63100
C  50.38800 29.66000 30.04900
O  50.88100 30.78100 30.07800
C  49.77200 28.88100 31.30400
C  50.89300 28.76400 32.28000
O  51.83600 27.96300 32.20000
O  50.61800 29.45200 33.48700
C  51.37200 29.07000 34.71100
H  47.09900 22.49100 31.76200
H  47.38800 21.97300 25.32500
H  50.40900 27.63900 25.01800
H  49.51700 26.40400 33.27200
H  47.14100 24.58100 33.29700
H  49.77600 24.34900 34.34000
H  49.73800 23.26100 32.96000
H  48.44400 23.17000 34.23000
H  46.56700 26.76300 33.29200
H  47.62900 28.15400 32.90800
H  48.42600 28.13100 35.10500
H  48.21600 26.44900 35.19600
H  46.17600 20.65000 31.46200
H  46.69000 19.28600 30.45400
H  45.11800 19.95300 30.31900
H  44.63700 19.15100 28.23600
H  46.23100 18.28700 28.14200
H  45.02000 18.46200 26.84700
H  47.95500 23.68500 23.39500
H  50.17000 25.50600 23.45500
H  50.13500 22.32700 24.54500
H  50.79600 23.61600 23.46500
H  49.60500 22.30300 22.92000
H  47.39800 26.65900 24.03600
H  47.69600 26.02200 22.49000
H  48.37100 28.67000 23.58800
H  48.46700 28.24500 21.91500
H  49.83500 27.84800 22.80200
H  51.97700 28.97900 25.91300
H  52.07900 30.15000 27.34300
H  50.80700 30.30200 26.09000
H  49.02500 29.58700 31.66800
H  51.25200 27.98900 34.78300
H  50.97700 29.46900 35.64500
H  52.36900 29.50300 34.62600
Mg 42.30400 40.81800 27.74600
C  41.14000 43.31500 29.98600
C  43.05600 38.80300 30.26300
C  43.90900 38.78400 25.50500
C  41.78600 43.25600 25.23500
N  42.18100 41.09600 29.85900
C  41.52900 42.13100 30.53800
C  41.46700 41.74200 32.04900
C  42.30100 40.39600 32.12400
C  42.49700 40.02200 30.69500
C  43.70100 40.49100 32.82700
C  40.02800 41.70000 32.64600
C  39.83100 42.50400 33.96300
H  39.33400 41.65900 35.11600
N  43.25600 39.05300 27.89300
C  43.37400 38.33300 28.99600
C  44.00600 37.09700 28.74400
C  44.28900 37.06900 27.35300
C  43.82000 38.31200 26.85300
C  43.96000 35.93500 29.73700
C  44.94500 35.91000 26.51200
O  45.16500 36.01400 25.31500
C  45.36500 34.63600 27.16100
N  42.86500 40.98900 25.68000
C  43.42900 39.95200 24.95900
C  43.22100 40.25100 23.48600
C  42.54700 41.72000 23.40700
C  42.39000 42.01600 24.90600
C  44.42500 39.98800 22.55400
C  41.23500 41.78400 22.56200
C  41.38000 42.63300 21.22900
N  41.69800 42.89600 27.59700
C  41.56700 43.75600 26.53100
C  41.00300 45.01000 26.87700
C  40.77300 44.85000 28.22300
C  41.24800 43.57000 28.60900
C  40.62700 46.16500 25.92200
C  40.23100 45.50000 29.33900
O  39.74000 46.63300 29.49600
C  40.42100 44.52600 30.54600
C  41.28100 45.28700 31.57800
O  42.51100 45.57600 31.45100
O  40.57100 45.44100 32.75200
C  41.36900 46.01800 33.87600
H  43.20700 38.17000 31.14000
H  44.18200 37.97000 24.83000
H  41.65400 43.85900 24.33500
H  42.01000 42.58800 32.47000
H  41.67000 39.64200 32.59400
H  44.01000 39.48800 33.12300
H  43.64000 41.03900 33.76800
H  44.45900 40.89000 32.15300
H  39.78400 40.68400 32.95800
H  39.31100 42.06000 31.90900
H  39.08400 43.28500 33.82000
H  40.78400 42.98100 34.19000
H  44.97800 35.57800 29.89300
H  43.33400 35.18700 29.25100
H  43.46500 36.14900 30.68500
H  46.06400 34.92400 27.94600
H  46.01500 34.25200 26.37500
H  44.51000 33.98700 27.35000
H  42.43900 39.51000 23.31700
H  43.20900 42.50000 23.03300
H  45.31500 40.11400 23.17100
H  44.54700 40.63700 21.68700
H  44.41600 39.00600 22.08000
H  40.46200 42.15300 23.23700
H  40.90900 40.78100 22.28900
H  40.99400 43.63400 21.41800
H  40.75900 42.11200 20.50100
H  42.41800 42.60900 20.89700
H  40.51000 47.09400 26.47900
H  39.73200 45.85600 25.38300
H  41.39000 46.21500 25.14500
H  39.43600 44.38600 30.99100
H  41.80100 45.13700 34.35100
H  40.66800 46.38200 34.62700
H  42.16600 46.70800 33.60000

