158

Mg 36.15200 1.08900 29.84200
C  33.89500 1.90200 32.32000
C  38.54300 0.66800 32.39400
C  38.41700 0.30500 27.40700
C  33.67500 1.24700 27.46200
N  36.19500 1.43300 32.09300
C  35.12300 1.77600 32.82300
C  35.48300 1.73100 34.29800
C  37.01400 1.65500 34.29800
C  37.33700 1.29900 32.84500
C  37.85700 2.75100 34.85300
C  34.83000 0.51000 35.00300
C  35.07200 0.43700 36.57600
H  35.70000 1.64200 37.33800
N  38.17100 0.64800 29.91100
C  38.96200 0.50300 31.01900
C  40.33400 0.10100 30.54100
C  40.35600 0.05600 29.15400
C  38.92200 0.45500 28.73900
C  41.46800 -0.18700 31.54900
C  41.55600 -0.34600 28.18500
O  41.38500 -0.35900 26.95500
C  42.77600 -1.06700 28.74000
N  36.04900 0.63300 27.76500
C  37.08900 0.31900 26.92200
C  36.64200 0.23300 25.44100
C  35.10100 0.41500 25.51600
C  34.92400 0.78000 27.00600
C  37.40500 1.18400 24.56800
C  34.28900 -0.78500 25.06800
C  34.00100 -1.75300 26.19300
N  34.18000 1.60800 29.83000
C  33.28900 1.62700 28.77800
C  31.99700 2.08200 29.30400
C  32.18600 2.16900 30.65900
C  33.51400 1.85900 30.92400
C  30.78700 2.24900 28.40100
C  31.51100 2.51500 31.88900
O  30.38300 2.99600 32.08900
C  32.61500 2.34000 32.94000
C  32.61100 3.55600 33.75200
O  32.81200 4.65100 33.29900
O  32.44000 3.24400 35.10400
C  32.34400 4.30100 36.13800
H  39.30200 0.38400 33.12600
H  39.06500 -0.07900 26.61600
H  32.93800 1.49500 26.69500
H  35.26900 2.69900 34.75200
H  37.30200 0.73400 34.80500
H  38.62800 2.29500 35.47400
H  37.29900 3.41300 35.51400
H  38.41300 3.30600 34.09600
H  35.26000 -0.41900 34.63000
H  33.75500 0.49200 34.82300
H  35.61000 -0.48600 36.79100
H  34.04000 0.33000 36.90900
H  41.34700 -1.18100 31.97900
H  41.31800 0.50200 32.38000
H  42.51400 0.00200 31.30600
H  42.56200 -1.76900 29.54600
H  43.57700 -0.36300 28.96600
H  43.27600 -1.78700 28.09200
H  36.87500 -0.80800 25.21800
H  34.83200 1.27700 24.90500
H  37.84300 0.53500 23.80900
H  38.30900 1.61400 25.00000
H  36.79700 1.88800 24.00000
H  34.80300 -1.33700 24.28000
H  33.31100 -0.36400 24.83300
H  33.15300 -1.48300 26.82100
H  34.83000 -1.74600 26.90000
H  33.88900 -2.79000 25.87700
H  30.59900 1.25900 27.98400
H  31.05400 2.98200 27.64000
H  29.91200 2.58100 28.95800
H  32.26400 1.52900 33.57800
H  32.32700 5.24600 35.59500
H  33.22800 4.31700 36.77500
H  31.48100 4.20300 36.79700
Mg 46.86700 24.71600 29.19500
C  47.65100 27.09700 31.63800
C  46.32000 22.43900 31.75100
C  46.54900 22.26600 26.82300
C  47.54300 27.03700 26.73000
N  46.93600 24.77900 31.44600
C  47.15500 25.91100 32.17100
C  46.81500 25.68200 33.66900
C  46.57900 24.10800 33.69700
C  46.58200 23.74600 32.18000
C  47.56300 23.31300 34.62500
C  45.63100 26.60600 34.12700
C  45.85500 27.34400 35.43700
H  44.71200 27.16400 36.43800
N  46.45200 22.65000 29.20800
C  46.22700 21.92400 30.36300
C  45.68700 20.63600 30.02900
C  46.00900 20.47600 28.65000
C  46.38000 21.80300 28.15500
C  45.23900 19.67900 31.05400
C  45.79300 19.23700 27.67000
O  46.13800 19.28600 26.51700
C  45.19500 17.94600 28.20200
N  47.12400 24.62400 26.98000
C  46.79100 23.56400 26.25900
C  46.93600 23.79800 24.77600
C  47.08400 25.38900 24.79700
C  47.28200 25.74400 26.27600
C  48.18800 23.10500 24.19100
C  45.82200 26.17100 24.17000
C  44.53200 26.24100 25.03400
N  47.51100 26.61400 29.12100
C  47.76200 27.44800 28.07700
C  48.26900 28.72000 28.51500
C  48.27800 28.62900 29.92300
C  47.83300 27.33700 30.21600
C  48.77600 29.88700 27.74500
C  48.53400 29.39800 31.17500
O  48.94300 30.54800 31.29300
C  48.10200 28.44400 32.38000
C  49.19900 28.25300 33.35000
O  50.14200 27.47800 33.16200
O  48.91600 28.96800 34.52200
C  49.53800 28.42200 35.70100
H  46.03000 21.74900 32.54600
H  46.31700 21.53800 26.04200
H  47.80600 27.84100 26.03900
H  47.69100 25.84700 34.29600
H  45.56200 23.88800 34.02200
H  48.19000 22.61200 34.07300
H  46.88100 22.78000 35.28700
H  48.16200 23.86300 35.35200
H  44.70600 26.03200 34.17700
H  45.48400 27.30900 33.30700
H  45.87200 28.41300 35.22400
H  46.74500 27.11700 36.02400
H  45.64400 19.85900 32.05000
H  45.57100 18.69400 30.72600
H  44.15800 19.74500 31.17600
H  44.86700 17.32600 27.36700
H  44.35400 18.16100 28.86100
H  45.95600 17.34100 28.69400
H  46.08300 23.44100 24.19900
H  47.95900 25.78400 24.28300
H  48.42400 22.29000 24.87500
H  49.03800 23.77000 24.03500
H  47.86700 22.67200 23.24400
H  45.64500 25.81600 23.15400
H  46.02900 27.23100 24.02900
H  44.73500 25.77500 25.99900
H  43.88500 25.63000 24.40500
H  44.04400 27.17300 25.31800
H  48.61700 30.82600 28.27700
H  48.13700 30.03300 26.87400
H  49.84000 29.78500 27.53500
H  47.23600 28.87600 32.88100
H  49.33900 27.36900 35.90100
H  49.20500 28.99800 36.56500
H  50.62000 28.34300 35.60400

