158

Mg 23.37200 -6.00200 46.88500
C  25.65000 -3.86800 45.29800
C  20.91900 -4.66400 44.87400
C  21.59800 -8.75500 47.28200
C  26.11900 -7.45900 48.50100
N  23.36100 -4.68500 45.05800
C  24.38700 -3.82500 44.72600
C  23.94900 -2.81900 43.69500
C  22.35400 -2.80400 43.88600
C  22.19000 -4.13200 44.62800
C  21.74900 -1.58500 44.60100
C  24.39200 -3.22600 42.24800
C  24.83300 -2.09800 41.41400
H  24.94000 -2.31000 39.93400
N  21.48200 -6.61800 46.28700
C  20.60800 -5.87200 45.47900
C  19.39400 -6.56900 45.31200
C  19.63200 -7.88400 45.88000
C  20.94200 -7.81800 46.49800
C  18.22400 -6.13900 44.49300
C  18.61700 -8.98000 45.83400
O  17.56600 -8.79000 45.25500
C  18.81800 -10.27800 46.50300
N  23.83500 -7.81700 47.75900
C  22.88200 -8.73900 47.88100
C  23.36900 -10.02200 48.66300
C  24.79400 -9.56700 49.10500
C  24.90900 -8.22000 48.42600
C  22.41200 -10.66700 49.75100
C  26.00900 -10.48600 48.96100
C  26.94400 -10.60000 50.13400
N  25.47700 -5.66000 47.04600
C  26.45600 -6.29800 47.82400
C  27.71500 -5.65200 47.70000
C  27.46100 -4.65100 46.74600
C  26.09600 -4.79000 46.31100
C  28.90700 -6.01500 48.40000
C  27.99700 -3.53200 45.97300
O  29.13000 -3.06900 45.92000
C  26.87700 -3.08900 45.01500
C  26.86800 -1.61900 45.15500
O  27.07000 -0.82100 44.27200
O  26.75400 -1.28700 46.51000
C  27.26300 -0.00200 46.88400
H  20.04300 -4.20800 44.40800
H  21.03400 -9.69000 47.30500
H  26.96300 -7.84200 49.07800
H  24.38000 -1.82300 43.80300
H  21.97200 -2.77600 42.86500
H  22.54300 -0.92800 44.95500
H  21.20900 -1.89100 45.49700
H  21.11700 -1.05500 43.88900
H  23.53000 -3.67200 41.75200
H  25.15900 -3.99200 42.36500
H  25.81100 -1.73000 41.72400
H  24.21300 -1.21900 41.59000
H  18.46000 -5.31000 43.82700
H  17.40600 -5.91800 45.17900
H  17.79400 -6.84700 43.78500
H  18.66000 -10.24400 47.58100
H  19.73900 -10.68200 46.08200
H  18.06200 -10.98100 46.15200
H  23.43300 -10.76200 47.86500
H  24.68200 -9.28900 50.15300
H  22.51400 -11.73800 49.57700
H  21.38800 -10.29800 49.69600
H  22.78500 -10.47800 50.75800
H  26.58000 -10.22200 48.07100
H  25.55300 -11.46500 48.80900
H  26.84900 -9.74600 50.80400
H  27.97200 -10.58900 49.77200
H  26.77700 -11.53900 50.66300
H  29.65200 -5.22300 48.31500
H  29.36700 -6.86700 47.90000
H  28.65100 -6.25400 49.43200
H  27.17700 -3.25600 43.98100
H  26.50300 0.77800 46.89800
H  28.11500 0.35500 46.30500
H  27.71800 0.08000 47.87100
Mg 9.23200 48.33700 25.72300
C  7.27300 48.68900 28.48500
C  11.99300 49.54100 27.54100
C  11.24300 47.69600 23.06700
C  6.53200 47.57700 23.88100
N  9.61600 49.07500 27.77100
C  8.62900 49.06900 28.70400
C  9.14200 49.63100 30.07400
C  10.63600 50.14100 29.64000
C  10.78000 49.50300 28.27600
C  10.80100 51.74700 29.60200
C  9.17400 48.66400 31.27000
C  9.13100 49.33300 32.61000
H  8.63000 48.56000 33.82300
N  11.33200 48.67700 25.29300
C  12.22500 49.14600 26.21900
C  13.53900 49.01500 25.63000
C  13.42900 48.40600 24.32000
C  11.94000 48.25900 24.18800
C  14.86500 49.37800 26.35100
C  14.44300 48.12000 23.17900
O  14.14000 47.57100 22.09100
C  15.92100 48.33700 23.49900
N  8.95600 47.63200 23.70700
C  9.89200 47.41100 22.83100
C  9.31200 46.85800 21.51800
C  7.82600 47.29300 21.71600
C  7.73000 47.41200 23.22300
C  9.74600 47.66000 20.20500
C  6.94300 46.26200 20.94900
C  5.63300 46.83900 20.27300
N  7.22400 48.14900 25.99000
C  6.20500 47.89700 25.17000
C  4.96200 47.89200 25.92000
C  5.29000 48.26500 27.21300
C  6.69400 48.30900 27.21200
C  3.61600 47.50500 25.44000
C  4.83300 48.46700 28.59600
O  3.67100 48.38300 28.98500
C  6.06700 48.84000 29.44800
C  5.99500 47.69600 30.41400
O  6.10500 46.51700 30.18200
O  5.66600 48.24700 31.63000
C  5.09400 47.16700 32.51600
H  12.69100 50.05000 28.20900
H  11.76100 47.51500 22.12200
H  5.65000 47.45100 23.25000
H  8.45800 50.40100 30.42900
H  11.38900 49.63500 30.24300
H  10.09500 52.28400 30.23600
H  10.78100 52.03100 28.54900
H  11.77700 51.96300 30.03600
H  10.16900 48.22400 31.20800
H  8.44600 47.86400 31.14000
H  8.53300 50.24100 32.53800
H  10.18900 49.58400 32.68100
H  15.75900 48.78900 26.14300
H  14.71700 49.39700 27.43100
H  15.13300 50.37300 25.99700
H  16.58800 48.05900 22.68300
H  16.14100 47.74200 24.38600
H  16.15200 49.37200 23.75100
H  9.47300 45.79400 21.34300
H  7.65000 48.27400 21.27300
H  8.91300 47.82300 19.52200
H  10.42300 47.06000 19.59700
H  10.24800 48.60300 20.42400
H  6.71500 45.53000 21.72300
H  7.53000 45.79100 20.16100
H  4.75500 46.47200 20.80500
H  5.73400 46.54600 19.22800
H  5.47200 47.91600 20.31700
H  3.15300 46.67100 25.96600
H  3.72500 47.18800 24.40300
H  2.99900 48.38800 25.60600
H  6.07100 49.84200 29.87700
H  4.13100 46.93700 32.05900
H  5.10900 47.56600 33.53000
H  5.62600 46.21600 32.52700

