158

Mg 2.35000 -0.77300 44.38800
C  5.89200 -0.23700 44.06600
C  1.99700 2.08200 42.59900
C  -0.91700 -1.63800 43.98000
C  2.97700 -3.83500 45.86500
N  3.86800 0.58400 43.17300
C  5.23800 0.69200 43.35700
C  5.82000 2.01300 42.69300
C  4.49600 2.83500 42.36800
C  3.39200 1.78300 42.80700
C  4.45800 4.31600 42.90900
C  6.59100 1.72600 41.41200
C  7.66600 2.77300 40.96100
H  7.24300 3.49600 39.75400
N  0.76700 0.12800 43.42800
C  0.80900 1.34300 42.78200
C  -0.54200 1.68000 42.28400
C  -1.42000 0.65100 42.66900
C  -0.52900 -0.36300 43.36300
C  -0.77900 3.00300 41.50600
C  -2.90500 0.63200 42.41000
O  -3.42200 1.58100 41.82500
C  -3.76600 -0.43800 42.81800
N  1.21100 -2.62300 44.61200
C  -0.17000 -2.60600 44.58900
C  -0.69800 -3.95600 45.02100
C  0.53900 -4.58900 45.78700
C  1.72000 -3.64900 45.37300
C  -2.00700 -3.86700 45.87500
C  0.79000 -6.08000 45.48600
C  0.64000 -7.10200 46.65000
N  4.10900 -1.92000 44.88100
C  4.15000 -3.10700 45.54200
C  5.50400 -3.32900 45.87800
C  6.25400 -2.27900 45.30700
C  5.30500 -1.41600 44.70500
C  6.14200 -4.50200 46.59700
C  7.55200 -1.68000 45.20800
O  8.62500 -2.12000 45.66600
C  7.39500 -0.40400 44.27300
C  7.95900 0.81100 44.96600
O  7.71100 1.27600 46.06900
O  8.95300 1.32400 44.10700
C  9.51700 2.59600 44.57700
H  1.99500 3.09800 42.19900
H  -1.99000 -1.83800 43.95400
H  3.17200 -4.70000 46.50300
H  6.50300 2.49000 43.39600
H  4.39500 2.99000 41.29400
H  4.25700 5.15000 42.23600
H  5.38800 4.58500 43.41000
H  3.80400 4.21000 43.77500
H  5.94300 1.48400 40.57000
H  7.18600 0.81300 41.45200
H  8.68600 2.44600 40.75700
H  7.81800 3.52000 41.74000
H  0.11900 3.61500 41.42100
H  -1.52900 3.61800 42.00200
H  -1.07000 2.80200 40.47500
H  -4.80000 -0.23700 42.53600
H  -3.68300 -0.52300 43.90200
H  -3.43800 -1.32900 42.28200
H  -0.99600 -4.50100 44.12500
H  0.42900 -4.46500 46.86400
H  -2.62900 -4.75200 45.74300
H  -2.62500 -3.00400 45.62600
H  -1.77900 -3.84400 46.94100
H  1.77300 -6.11800 45.01500
H  0.09900 -6.40900 44.71000
H  1.52700 -7.72600 46.54100
H  -0.24900 -7.72300 46.54100
H  0.62700 -6.66100 47.64700
H  5.99500 -4.34400 47.66500
H  7.22900 -4.56200 46.53200
H  5.67700 -5.41600 46.22900
H  7.93700 -0.57000 43.34200
H  10.52500 2.75000 44.19200
H  9.63000 2.51100 45.65800
H  8.89900 3.48400 44.45300
Mg 46.91200 44.83700 42.80200
C  43.84300 43.39500 42.36500
C  48.40000 41.89600 41.67400
C  49.81500 46.55800 42.20400
C  45.25000 48.04700 43.28900
N  46.19900 42.87100 41.95900
C  44.91100 42.47400 42.09300
C  44.76800 40.90200 41.94200
C  46.26300 40.46700 41.85500
C  47.01800 41.83300 41.81900
C  46.82800 39.74700 43.07400
C  43.97500 40.43400 40.67200
C  44.07500 41.32900 39.43300
H  44.07900 40.75500 38.02100
N  48.82800 44.30000 42.14100
C  49.22200 42.99800 41.81300
C  50.63500 43.02200 41.41500
C  51.04300 44.38300 41.49300
C  49.88200 45.17300 41.92000
C  51.43200 41.75600 40.93500
C  52.32000 44.85900 40.98400
O  53.14200 44.07000 40.50100
C  52.77000 46.32400 41.00700
N  47.44500 47.03000 42.72000
C  48.74100 47.36100 42.60800
C  48.95300 48.84400 42.99100
C  47.52300 49.22800 43.55800
C  46.67000 48.04600 43.15000
C  49.97700 49.25100 43.89100
C  46.86100 50.53000 42.97400
C  46.58100 51.74000 43.87300
N  44.98800 45.58800 42.96500
C  44.46600 46.87100 43.18500
C  43.03000 46.74400 43.26300
C  42.71600 45.37100 42.96100
C  43.95000 44.75600 42.70500
C  42.20100 47.96100 43.68600
C  41.68500 44.43000 42.86900
O  40.46400 44.54000 43.08700
C  42.34400 43.08600 42.52400
C  42.06700 42.11600 43.61800
O  42.20300 42.27000 44.81500
O  41.57900 40.95200 43.13900
C  40.93700 39.95000 44.03500
H  48.82900 40.90700 41.50400
H  50.79200 47.04400 42.24900
H  44.75200 48.94300 43.66500
H  44.23100 40.52200 42.81100
H  46.32500 39.83700 40.96800
H  45.98800 39.15500 43.43900
H  46.94100 40.40300 43.93700
H  47.72400 39.21000 42.76400
H  42.98000 40.22400 41.06400
H  44.34300 39.45100 40.37500
H  44.96000 41.96000 39.52600
H  43.24700 42.03800 39.45200
H  52.06600 41.97400 40.07600
H  50.69800 41.01600 40.61700
H  52.15300 41.39700 41.67000
H  51.94800 46.91200 40.59700
H  53.54200 46.44000 40.24600
H  53.15100 46.66800 41.96800
H  49.06900 49.38500 42.05200
H  47.54300 49.31500 44.64500
H  49.65700 49.74600 44.80800
H  50.59600 49.93200 43.30700
H  50.43600 48.33100 44.25200
H  45.97400 50.43400 42.34800
H  47.56600 50.88400 42.22100
H  47.27000 52.55900 43.66800
H  46.70200 51.46800 44.92100
H  45.59300 52.15500 43.67200
H  42.53300 48.07900 44.71700
H  41.11500 47.87300 43.67700
H  42.59600 48.75200 43.04900
H  41.85600 42.78500 41.59800
H  41.44000 39.81000 44.99200
H  40.89600 39.01600 43.47500
H  39.89600 40.24100 44.17400

