158

Mg -2.49400 16.28400 26.57500
C  -2.86300 14.14700 29.16600
C  -3.57700 18.82400 28.49700
C  -2.00600 18.30600 23.88700
C  -1.99600 13.53400 24.40900
N  -3.15700 16.41600 28.57700
C  -3.16300 15.42500 29.44700
C  -3.62100 15.91000 30.82800
C  -3.95500 17.41800 30.58100
C  -3.59800 17.58800 29.13200
C  -5.40000 17.86100 30.84300
C  -2.61100 15.50300 32.07900
C  -2.68600 16.41600 33.28500
H  -1.48000 16.26600 34.34300
N  -2.65400 18.33300 26.27900
C  -3.14900 19.18200 27.17400
C  -3.20900 20.48900 26.56000
C  -2.49700 20.34700 25.32200
C  -2.29700 18.93400 25.13800
C  -3.69800 21.78200 27.28800
C  -2.02300 21.44700 24.36600
O  -1.41700 21.20600 23.31700
C  -2.26800 22.87400 24.65800
N  -2.26400 15.96900 24.32100
C  -2.03400 16.98800 23.50300
C  -1.86900 16.39800 22.06700
C  -1.44200 14.94300 22.29500
C  -1.97900 14.73700 23.72900
C  -3.13200 16.64000 21.14600
C  -0.04900 14.56200 22.21300
C  0.60100 14.77700 20.81200
N  -2.55800 14.28300 26.63800
C  -2.29400 13.22900 25.72300
C  -2.35200 11.94800 26.36500
C  -2.42000 12.28400 27.71400
C  -2.59500 13.67800 27.84600
C  -2.25500 10.50200 25.65600
C  -2.39400 11.65700 28.97300
O  -2.18300 10.49600 29.35000
C  -2.74100 12.87100 30.05600
C  -1.64000 12.83900 31.02600
O  -0.56400 13.37800 30.88800
O  -1.94600 12.00500 32.07300
C  -1.04100 12.04800 33.21900
H  -3.90500 19.69100 29.07400
H  -1.83500 18.92500 23.00400
H  -1.69700 12.71100 23.75700
H  -4.51600 15.31700 31.01400
H  -3.42700 18.21400 31.10700
H  -5.42200 18.83700 31.32700
H  -5.97800 17.18700 31.47400
H  -5.94200 17.86900 29.89700
H  -1.56000 15.45700 31.79100
H  -3.12500 14.60100 32.40900
H  -3.46700 16.06600 33.95900
H  -2.76400 17.47000 33.01800
H  -4.47100 22.40400 26.83700
H  -2.87000 22.47900 27.42200
H  -4.05100 21.49800 28.27900
H  -3.33600 23.05900 24.77800
H  -1.76600 23.46100 23.88800
H  -1.70600 23.09700 25.56500
H  -0.94200 16.88200 21.75900
H  -1.84900 14.24600 21.56200
H  -3.44500 17.65800 21.37500
H  -3.87900 15.87100 21.34400
H  -2.80300 16.59100 20.10800
H  -0.00900 13.50400 22.47300
H  0.51500 15.17300 22.91800
H  1.30700 15.59700 20.94000
H  -0.07100 15.11700 20.02400
H  1.12900 13.86800 20.52800
H  -3.06700 9.88800 26.04400
H  -1.33600 10.07000 26.05300
H  -2.24000 10.70700 24.58500
H  -3.74000 12.54000 30.34100
H  -1.56500 12.10700 34.17200
H  -0.30200 12.84600 33.15100
H  -0.59700 11.05200 33.24400
Mg -5.51800 25.58600 27.05000
C  -3.91400 27.05700 29.84900
C  -7.13000 23.47200 29.16000
C  -6.51300 24.01700 24.32100
C  -3.40200 27.49800 25.03500
N  -5.41900 25.26100 29.26500
C  -4.80900 26.09500 30.23600
C  -5.32300 25.79400 31.69000
C  -6.23700 24.52000 31.41200
C  -6.30200 24.39600 29.84000
C  -5.75400 23.19700 32.01200
C  -6.08600 26.96300 32.34200
C  -6.20800 26.99000 33.89600
H  -5.82800 25.81100 34.75100
N  -6.67100 23.97700 26.73900
C  -7.24600 23.28800 27.75200
C  -8.02100 22.19700 27.14400
C  -7.82000 22.27700 25.76500
C  -6.93300 23.42600 25.54300
C  -8.83400 21.24600 28.03000
C  -8.27800 21.30000 24.71900
O  -8.10200 21.41500 23.51000
C  -9.07400 20.12500 25.14000
N  -5.07700 25.75100 24.99300
C  -5.73800 25.11100 24.07200
C  -5.39400 25.54000 22.72300
C  -4.52900 26.78900 22.93800
C  -4.28200 26.63100 24.37500
C  -4.57200 24.39600 21.93500
C  -5.28200 28.12200 22.60100
C  -4.93400 28.66000 21.27600
N  -4.04000 27.05700 27.33000
C  -3.24000 27.71600 26.40100
C  -2.28100 28.50700 27.09700
C  -2.54900 28.29100 28.46300
C  -3.59900 27.43700 28.55900
C  -1.28900 29.46600 26.39600
C  -2.16500 28.68700 29.86200
O  -1.25600 29.42700 30.20000
C  -3.05300 27.96400 30.75700
C  -2.32800 27.14500 31.72700
O  -1.58900 26.20300 31.43100
O  -2.64900 27.44200 33.02800
C  -1.89800 26.74800 34.07200
H  -7.72200 22.96500 29.92500
H  -7.12900 23.60000 23.52100
H  -2.74200 28.08700 24.39500
H  -4.45600 25.62600 32.32800
H  -7.22500 24.63400 31.85800
H  -4.72900 23.33000 32.35700
H  -5.81300 22.27800 31.42900
H  -6.52400 22.97700 32.75100
H  -7.06900 26.99500 31.87200
H  -5.57500 27.88700 32.06800
H  -7.23000 27.14900 34.23900
H  -5.55800 27.83000 34.14100
H  -8.40900 20.27300 28.27800
H  -9.80300 21.09500 27.55600
H  -9.04700 21.74500 28.97500
H  -9.20800 19.48700 24.26700
H  -9.98300 20.47500 25.62900
H  -8.57800 19.49800 25.88200
H  -6.28600 25.83600 22.17100
H  -3.63600 26.80200 22.31400
H  -4.49300 23.55000 22.61700
H  -3.53200 24.67100 21.76100
H  -5.03900 23.98500 21.03900
H  -4.94300 28.86600 23.32100
H  -6.36000 28.01000 22.71800
H  -4.04200 28.23400 20.81600
H  -4.91400 29.74800 21.22100
H  -5.73100 28.43000 20.56900
H  -1.69700 29.99500 25.53500
H  -0.45000 28.85000 26.07400
H  -0.91500 30.20400 27.10600
H  -3.62400 28.79100 31.17900
H  -2.41300 25.78800 34.06100
H  -1.97300 27.31000 35.00300
H  -0.84000 26.58000 33.86900

