158

Mg 8.53400 3.99400 27.85500
C  9.80900 2.03800 30.49600
C  6.72500 5.83700 30.02700
C  7.43000 5.56400 25.19400
C  10.12100 1.59800 25.77600
N  8.27400 3.90600 30.04900
C  9.05000 3.16200 31.00000
C  8.77600 3.54600 32.40200
C  7.77100 4.81000 32.13900
C  7.59800 4.90000 30.65800
C  6.48700 4.67600 32.94000
C  10.07000 3.92000 33.28600
C  9.84600 3.60100 34.77400
H  10.92900 3.97400 35.72600
N  7.20800 5.52000 27.64600
C  6.56100 6.17600 28.62200
C  5.79000 7.19900 28.07100
C  5.87300 7.08100 26.64700
C  6.84600 6.01400 26.42300
C  5.05900 8.20400 28.94900
C  5.25300 7.85100 25.54900
O  5.50500 7.71600 24.36300
C  4.22400 8.79400 25.92500
N  8.63800 3.47900 25.84200
C  8.19200 4.46200 24.96500
C  8.68200 4.19600 23.53700
C  9.48600 2.90400 23.64900
C  9.48600 2.64500 25.16800
C  7.47600 4.17000 22.52400
C  10.88800 3.00000 22.97200
C  11.26500 2.25000 21.68800
N  9.84000 2.22700 28.01900
C  10.30400 1.35900 27.08200
C  10.97900 0.29900 27.67000
C  10.93400 0.60500 28.98400
C  10.10600 1.70700 29.23100
C  11.62000 -0.87500 26.95800
C  11.37800 0.20200 30.24000
O  12.13300 -0.70400 30.56900
C  10.65700 1.18800 31.34000
C  9.75400 0.43200 32.25300
O  8.64400 -0.03500 31.98900
O  10.31700 0.38000 33.44900
C  9.47200 -0.20900 34.53600
H  6.11000 6.42300 30.71300
H  7.13800 6.06700 24.27000
H  10.70500 0.96600 25.10300
H  8.19800 2.75100 32.87200
H  8.28100 5.68500 32.54200
H  5.68600 4.07300 32.51300
H  5.98700 5.62600 33.12800
H  6.63600 4.29500 33.95000
H  10.21300 5.00000 33.27000
H  10.98400 3.43100 32.95200
H  9.67100 2.52900 34.87200
H  9.04900 4.29000 35.05300
H  5.10500 8.13800 30.03600
H  4.01200 8.19500 28.64700
H  5.40700 9.20800 28.70800
H  3.82800 9.22800 25.00700
H  4.51900 9.58700 26.61200
H  3.53500 8.11100 26.42300
H  9.35800 4.99400 23.22800
H  9.08100 1.97200 23.25500
H  6.54600 3.91000 23.02900
H  7.65400 3.42300 21.75000
H  7.30800 5.17000 22.12600
H  11.69000 2.80100 23.68200
H  11.18200 4.03100 22.77400
H  10.32700 1.81000 21.34800
H  12.02100 1.51900 21.97000
H  11.51600 2.92700 20.87000
H  12.64000 -0.58500 26.70500
H  11.01500 -1.11300 26.08300
H  11.53200 -1.74100 27.61400
H  11.41400 1.83800 31.77900
H  9.12000 -1.22900 34.38000
H  8.62200 0.46700 34.63200
H  10.09100 -0.01100 35.41100
Mg 26.91700 50.70100 27.16200
C  24.68800 51.78300 29.74800
C  28.96600 49.48200 29.77800
C  28.93000 49.52100 24.81100
C  24.90700 52.05600 24.75700
N  26.88800 50.77500 29.58700
C  25.78800 51.13400 30.30900
C  25.96300 50.65400 31.85000
C  27.38200 49.96400 31.76500
C  27.79300 50.09000 30.27600
C  28.54400 50.69400 32.56100
C  24.80000 49.69000 32.37900
C  24.27200 50.11200 33.78400
H  25.22900 50.43800 34.96100
N  28.63800 49.73700 27.24600
C  29.35000 49.36400 28.38800
C  30.64600 48.83400 27.95100
C  30.65600 48.83500 26.58200
C  29.36700 49.37500 26.16700
C  31.68400 48.49600 28.95400
C  31.84000 48.34700 25.61900
O  31.70900 48.48400 24.39900
C  32.97800 47.62100 26.15500
N  26.96200 50.85800 25.05200
C  27.82500 50.16300 24.29400
C  27.54300 50.34800 22.81000
C  26.20100 51.03600 22.78800
C  25.97000 51.36100 24.25400
C  28.66300 51.09900 22.11800
C  25.03400 50.21400 22.22600
C  24.79300 48.79300 22.77900
N  25.19300 51.73000 27.23600
C  24.48300 52.16000 26.14900
C  23.25100 52.79700 26.63100
C  23.27400 52.57900 28.02500
C  24.51500 52.04000 28.34600
C  22.08700 53.34700 25.78400
C  22.51700 52.84300 29.27700
O  21.42500 53.36100 29.54100
C  23.41900 52.26400 30.40300
C  23.64400 53.38100 31.31100
O  24.27900 54.37500 30.94000
O  23.03700 53.14400 32.54400
C  23.08600 54.17900 33.58600
H  29.67300 49.12700 30.53000
H  29.57400 48.96700 24.12300
H  24.25700 52.56400 24.04100
H  26.12400 51.55700 32.43900
H  27.34400 48.91000 32.03800
H  28.76200 50.15500 33.48300
H  28.24200 51.71900 32.78000
H  29.49600 50.80800 32.04300
H  25.08600 48.64700 32.51400
H  23.86700 49.59900 31.82200
H  23.63500 49.28400 34.09700
H  23.51000 50.88300 33.67400
H  31.51500 48.54100 30.03000
H  32.51000 49.17600 28.74400
H  32.03400 47.46500 28.92400
H  33.58600 48.22300 26.83000
H  33.50900 47.47400 25.21400
H  32.75100 46.71500 26.71600
H  27.51000 49.33200 22.41500
H  26.25400 51.97400 22.23700
H  28.85500 50.49800 21.22900
H  29.53300 51.16700 22.77100
H  28.37000 52.05500 21.68500
H  25.03400 50.15100 21.13800
H  24.05500 50.56900 22.54900
H  25.04200 48.69300 23.83600
H  25.49200 48.17600 22.21400
H  23.80900 48.37200 22.57000
H  21.80500 52.43400 25.25900
H  22.40300 54.18200 25.15900
H  21.25900 53.64700 26.42500
H  22.87700 51.44300 30.87300
H  24.13200 54.25700 33.88200
H  22.43800 53.91700 34.42200
H  22.67900 55.14300 33.27900

