158

Mg 47.58900 33.85300 27.02700
C  46.17300 32.62600 29.88400
C  48.19400 36.94000 28.69500
C  48.86000 35.24900 24.06400
C  46.61500 31.09100 25.27300
N  47.29600 34.67900 29.07200
C  46.71400 33.93100 30.13200
C  47.02600 34.64500 31.47400
C  47.28600 36.05500 30.99000
C  47.71700 35.87300 29.53700
C  46.17100 37.12200 31.21500
C  48.16300 33.89100 32.14700
C  48.17800 33.92900 33.71600
H  47.23700 34.93300 34.35700
N  48.35700 35.75600 26.45800
C  48.49000 36.88800 27.28500
C  49.01000 37.98700 26.52800
C  49.20400 37.55000 25.23000
C  48.82200 36.13100 25.18000
C  49.44800 39.30900 27.17200
C  49.91700 38.24000 24.12400
O  50.26800 37.76500 23.05800
C  50.21100 39.69600 24.31400
N  47.74900 33.26300 24.97600
C  48.41500 33.93900 23.99400
C  48.37600 33.14600 22.65500
C  47.78700 31.72200 23.08500
C  47.26900 32.04200 24.51700
C  47.67600 33.87500 21.50900
C  48.80600 30.52000 23.02900
C  50.10000 30.63900 23.89400
N  46.59200 32.10100 27.45200
C  46.28900 31.02400 26.69700
C  45.58300 30.06700 27.47100
C  45.39700 30.68600 28.69800
C  46.10300 31.88300 28.69100
C  44.99800 28.78400 27.04300
C  44.83300 30.58400 30.02200
O  44.14000 29.67700 30.48700
C  45.20900 31.86900 30.76500
C  45.69900 31.57900 32.09400
O  46.58600 30.81800 32.43100
O  44.86800 32.15500 32.98300
C  44.90000 31.69100 34.38900
H  48.28300 37.83000 29.32200
H  49.39100 35.56100 23.16200
H  46.33200 30.27600 24.60400
H  46.16800 34.59800 32.14500
H  48.23500 36.44400 31.35900
H  45.27200 36.59000 31.52500
H  45.84100 37.58500 30.28500
H  46.44100 37.81500 32.01200
H  49.10000 34.32800 31.80100
H  48.18500 32.83400 31.87900
H  49.18600 34.15900 34.06200
H  48.05300 32.92700 34.12600
H  48.68000 40.08100 27.13600
H  50.42800 39.62800 26.81800
H  49.62700 39.15400 28.23600
H  49.38500 40.21200 24.80200
H  50.43000 40.09300 23.32300
H  51.16800 39.67400 24.83400
H  49.37800 32.96500 22.26900
H  46.90800 31.52000 22.47300
H  47.52000 34.95300 21.55400
H  46.67000 33.48800 21.34700
H  48.29800 33.67100 20.63800
H  49.08300 30.45300 21.97700
H  48.31900 29.56100 23.20300
H  50.33000 29.76000 24.49600
H  50.17500 31.59600 24.41000
H  50.92300 30.74300 23.18800
H  43.96700 28.73800 27.39500
H  45.54300 27.88900 27.34400
H  44.95900 28.60200 25.96900
H  44.32000 32.49500 30.84300
H  44.27300 32.31300 35.02800
H  45.94900 31.69500 34.68400
H  44.57800 30.65300 34.47100
Mg -11.96600 16.65700 42.06200
C  -8.83100 15.06900 41.50000
C  -10.70600 19.44700 40.66000
C  -15.05400 17.84000 42.04000
C  -13.17600 13.41600 43.04800
N  -9.99000 17.15900 41.01100
C  -8.86400 16.38400 41.05300
C  -7.68100 17.23300 40.51800
C  -8.23600 18.71400 40.62400
C  -9.72500 18.40700 40.78400
C  -7.55700 19.66300 41.72000
C  -7.18100 16.82700 39.12300
C  -5.69000 17.34700 38.88900
H  -5.63000 18.16600 37.64100
N  -12.75200 18.39300 41.52200
C  -12.05200 19.44900 40.99200
C  -12.80200 20.60400 40.88800
C  -14.11100 20.20900 41.38500
C  -14.00300 18.78600 41.66100
C  -12.19900 22.03500 40.55400
C  -15.31500 21.06300 41.50800
O  -15.23800 22.22000 41.18900
C  -16.63400 20.73300 42.03900
N  -13.85700 15.68800 42.49000
C  -14.96200 16.44700 42.39500
C  -16.26000 15.67200 42.73400
C  -15.60100 14.29900 43.32500
C  -14.14000 14.42400 42.93200
C  -17.33200 16.27700 43.69400
C  -16.16100 13.01400 42.68900
C  -16.29800 11.83600 43.67800
N  -11.28700 14.65500 42.25400
C  -11.82000 13.42900 42.68300
C  -10.79400 12.42800 42.73800
C  -9.64200 13.06200 42.26000
C  -9.98700 14.35500 42.00400
C  -10.87900 11.03900 43.30200
C  -8.24300 12.87600 42.07000
O  -7.54400 11.85700 42.08800
C  -7.66300 14.16700 41.48500
C  -6.48600 14.55200 42.40900
O  -6.55600 14.62700 43.64500
O  -5.32100 14.74400 41.64300
C  -4.07800 15.02500 42.36500
H  -10.21600 20.39700 40.43300
H  -16.07500 18.19100 41.87900
H  -13.53300 12.48600 43.49600
H  -6.90100 17.05900 41.26000
H  -8.22700 19.18600 39.64200
H  -8.36600 19.91700 42.40400
H  -7.28300 20.60100 41.23600
H  -6.63700 19.25400 42.13900
H  -7.73700 17.44300 38.41600
H  -7.27900 15.75300 38.97000
H  -5.05300 16.46700 38.80100
H  -5.29800 17.91300 39.73400
H  -12.21400 22.41100 39.53000
H  -11.19300 22.07300 40.97300
H  -12.79500 22.72400 41.15100
H  -17.21600 21.59900 42.35400
H  -16.60100 20.10200 42.92700
H  -17.22700 20.22200 41.28100
H  -16.68400 15.47900 41.74800
H  -15.69400 14.32400 44.41000
H  -17.17200 17.33800 43.88600
H  -17.52400 15.74200 44.62400
H  -18.23700 16.15600 43.09900
H  -15.54300 12.77100 41.82500
H  -17.14800 13.22700 42.27800
H  -16.33900 12.08400 44.73800
H  -15.60300 11.00200 43.58000
H  -17.30800 11.45700 43.51800
H  -11.44800 10.35500 42.67300
H  -11.39400 11.16000 44.25500
H  -9.87000 10.69400 43.52800
H  -7.30500 14.06400 40.46100
H  -3.85200 14.06900 42.83800
H  -4.22000 15.78900 43.12900
H  -3.17000 15.31600 41.83700

