158

Mg 42.26500 41.41600 26.98300
C  41.40300 43.64200 29.53800
C  42.67700 38.88300 29.20900
C  43.13800 39.58000 24.41800
C  41.51000 44.17900 24.71900
N  41.94100 41.22200 29.08200
C  41.66600 42.27600 29.99200
C  41.68200 41.80900 31.42000
C  42.01100 40.26800 31.29800
C  42.24800 40.08200 29.77800
C  43.29800 39.90600 32.11800
C  40.35200 41.99000 32.24800
C  40.44000 42.40500 33.68100
H  39.34400 41.99300 34.71600
N  42.94900 39.55500 26.84600
C  42.97600 38.61900 27.80800
C  43.37500 37.35400 27.30000
C  43.56900 37.49900 25.89700
C  43.22400 38.95500 25.62400
C  43.48400 36.17100 28.16900
C  44.03800 36.52100 24.89800
O  44.22200 36.76300 23.66100
C  44.28600 35.16200 25.41700
N  42.40000 41.92700 24.91200
C  42.71700 40.91000 24.10800
C  42.60200 41.36400 22.66600
C  41.79800 42.74800 22.77200
C  41.86600 42.96300 24.20100
C  43.97100 41.56300 22.05400
C  40.35300 42.78700 22.19400
C  39.35100 41.91200 22.87400
N  41.81400 43.52200 27.06700
C  41.61500 44.46600 26.08100
C  41.28100 45.76000 26.67900
C  41.18000 45.51200 28.04800
C  41.49900 44.11500 28.21400
C  41.15600 47.05200 25.97300
C  40.83300 46.03700 29.30300
O  40.44800 47.16100 29.65200
C  40.99000 44.89800 30.35400
C  41.98700 45.36500 31.38700
O  43.19500 45.05100 31.39100
O  41.22000 45.89200 32.46100
C  42.03200 46.09100 33.69300
H  42.83300 38.18400 30.03300
H  43.27900 39.05700 23.47000
H  41.13700 44.92000 24.00900
H  42.49800 42.42100 31.80600
H  41.21500 39.65600 31.72300
H  43.54400 40.80500 32.68300
H  44.04100 39.54900 31.40600
H  43.25500 39.06800 32.81400
H  39.85000 41.02500 32.32300
H  39.69900 42.63800 31.66400
H  40.59600 43.47600 33.55100
H  41.36600 41.98800 34.07700
H  44.51400 35.81700 28.14000
H  42.76800 35.45100 27.77100
H  43.32400 36.27500 29.24200
H  44.97000 35.08600 26.26200
H  44.55700 34.47600 24.61500
H  43.30700 34.90400 25.82200
H  42.04400 40.59000 22.13900
H  42.30000 43.54800 22.22800
H  44.73900 40.93200 22.50200
H  44.20200 42.60100 22.29600
H  43.88400 41.45700 20.97300
H  40.38800 42.52900 21.13500
H  40.00000 43.81700 22.16500
H  39.76300 41.46300 23.77800
H  38.98100 41.11400 22.23000
H  38.49500 42.50400 23.19800
H  40.11200 47.34700 25.87100
H  41.49000 47.13900 24.93900
H  41.69400 47.83900 26.50100
H  40.01000 44.63000 30.74900
H  42.99900 46.52800 33.44500
H  42.23000 45.10600 34.11600
H  41.56800 46.75300 34.42400
Mg 16.33600 51.28800 27.08200
C  18.42400 50.32100 29.70000
C  13.99900 52.25600 29.40500
C  14.49200 52.49800 24.62300
C  18.85200 50.27000 24.78600
N  16.32200 51.42600 29.33800
C  17.23200 50.89000 30.16000
C  16.80400 51.14400 31.60400
C  15.25100 51.18900 31.55100
C  15.14100 51.60000 29.98500
C  14.62200 49.80200 31.89000
C  17.55100 52.37900 32.24400
C  17.77500 52.46600 33.70400
H  16.93000 51.60400 34.61800
N  14.45900 52.26800 27.00900
C  13.71300 52.66500 28.07700
C  12.65200 53.50200 27.57300
C  12.68800 53.50500 26.10900
C  13.86700 52.69400 25.88900
C  11.63400 54.14100 28.43900
C  11.77900 54.02400 25.03500
O  11.99200 53.93300 23.83900
C  10.53100 54.87800 25.38100
N  16.56100 51.14800 24.93100
C  15.68500 51.79000 24.15600
C  16.13100 51.76300 22.65300
C  17.67600 51.49000 22.88000
C  17.72100 50.89700 24.26900
C  15.39800 50.67900 21.70400
C  18.71800 52.66700 22.81700
C  19.93900 52.36400 21.92400
N  18.26000 50.41000 27.14600
C  19.18900 50.06800 26.14400
C  20.34800 49.38300 26.82000
C  20.12400 49.58300 28.21300
C  18.83300 50.15500 28.33300
C  21.57800 48.73200 26.25100
C  20.72000 49.37000 29.53000
O  21.79000 48.79900 29.78400
C  19.62600 49.77400 30.55300
C  19.29000 48.65100 31.41500
O  18.87600 47.53100 30.95600
O  19.33400 48.90600 32.69500
C  18.94600 47.80700 33.55200
H  13.13800 52.47100 30.04100
H  13.94300 52.75700 23.71500
H  19.70900 49.97800 24.17500
H  17.12400 50.22400 32.09300
H  14.83100 51.97300 32.18000
H  15.37300 49.02400 32.02800
H  14.13800 49.47900 30.96800
H  13.99400 49.82800 32.78000
H  16.90800 53.21500 31.97200
H  18.49100 52.56500 31.72500
H  17.73500 53.49800 34.05300
H  18.80800 52.12900 33.79700
H  12.02200 55.13400 28.66600
H  11.65700 53.72400 29.44600
H  10.61600 54.11000 28.05100
H  10.75100 55.52500 26.22900
H  9.81000 54.10200 25.64200
H  10.15200 55.54900 24.61000
H  16.08100 52.75500 22.20300
H  18.07400 50.61000 22.37500
H  15.85100 49.68800 21.69900
H  15.31600 51.20100 20.75100
H  14.37700 50.39200 21.95600
H  19.10800 52.82000 23.82300
H  18.28200 53.57400 22.39900
H  19.89600 51.36500 21.49100
H  20.84000 52.34300 22.53700
H  20.04400 53.15600 21.18200
H  21.34500 48.55300 25.20200
H  21.83200 47.87600 26.87600
H  22.24900 49.58800 26.31900
H  20.00800 50.58500 31.17300
H  17.86000 47.78700 33.64300
H  19.32400 48.19800 34.49800
H  19.46100 46.89100 33.26500

