158

Mg -2.45100 17.20600 25.66100
C  -3.00500 15.01600 28.30000
C  -2.58300 19.81700 27.69200
C  -2.57100 19.18200 22.90400
C  -3.06600 14.51000 23.48800
N  -2.76100 17.34200 27.81400
C  -2.78700 16.34400 28.73900
C  -2.80100 16.89800 30.15900
C  -2.93300 18.42400 29.87600
C  -2.75900 18.54700 28.33700
C  -4.25400 19.03500 30.33600
C  -1.64800 16.43300 31.07100
C  -1.53400 17.26700 32.32100
H  -1.22700 16.61200 33.69100
N  -2.48800 19.25000 25.33700
C  -2.44000 20.15700 26.32300
C  -2.30600 21.47900 25.77500
C  -2.34500 21.32300 24.46200
C  -2.43700 19.83700 24.18100
C  -2.14500 22.73200 26.70300
C  -2.11600 22.47500 23.40000
O  -2.07900 22.26000 22.22900
C  -2.10200 23.93800 23.85100
N  -2.82200 16.89100 23.45800
C  -2.75300 17.87700 22.51900
C  -2.70900 17.39100 21.04000
C  -2.94800 15.89900 21.31500
C  -2.88600 15.70300 22.84200
C  -3.73200 18.08900 20.02700
C  -1.99900 14.92300 20.49900
C  -2.71100 13.73900 19.85500
N  -2.95200 15.07200 25.79000
C  -3.13400 14.14100 24.83400
C  -3.18700 12.82900 25.46800
C  -3.19600 13.14200 26.80700
C  -3.04300 14.53500 26.95500
C  -3.27600 11.38500 24.75400
C  -3.25400 12.52000 28.08500
O  -3.47000 11.40700 28.36700
C  -3.09700 13.68800 29.06800
C  -1.94500 13.32700 29.96100
O  -0.74300 13.35100 29.63200
O  -2.52100 13.05900 31.20700
C  -1.48900 12.81000 32.25900
H  -2.51000 20.68000 28.35800
H  -2.58900 19.92400 22.10400
H  -3.34400 13.74500 22.76000
H  -3.72900 16.53400 30.60000
H  -2.11500 18.99800 30.31100
H  -4.85300 18.34000 30.92400
H  -4.83400 19.35500 29.47000
H  -4.06900 19.94000 30.91400
H  -0.65800 16.45600 30.61400
H  -1.88600 15.43300 31.43300
H  -2.45500 17.84300 32.41200
H  -0.74600 17.99400 32.12600
H  -3.11300 23.22900 26.63400
H  -1.32800 23.40500 26.44100
H  -1.97400 22.43900 27.73800
H  -2.84800 24.19100 24.60400
H  -2.13200 24.67600 23.04900
H  -1.07800 23.99700 24.22100
H  -1.69500 17.65000 20.73600
H  -3.98800 15.67600 21.07600
H  -3.93000 19.07100 20.45800
H  -4.65400 17.51100 19.96400
H  -3.33000 18.23600 19.02400
H  -1.33800 14.55800 21.28500
H  -1.44700 15.41800 19.69900
H  -2.14700 13.51700 18.94900
H  -3.75900 13.94400 19.63400
H  -2.67600 12.87500 20.51800
H  -2.36000 11.22400 24.18700
H  -4.15500 11.53400 24.12700
H  -3.40200 10.62300 25.52300
H  -4.04700 13.63800 29.59900
H  -0.57200 13.36700 32.06400
H  -1.38900 11.77300 32.58100
H  -1.85600 13.15900 33.22500
Mg 27.25100 50.13500 27.19100
C  25.13700 51.04900 29.79600
C  29.55800 49.19300 29.61200
C  29.47900 49.83600 24.73500
C  24.98200 51.59900 24.89900
N  27.31000 49.97500 29.34500
C  26.26100 50.42200 30.18200
C  26.59100 50.13100 31.64000
C  28.10900 49.74400 31.60900
C  28.35600 49.62800 30.11100
C  29.06000 50.77600 32.25300
C  25.60300 49.03600 32.26400
C  25.00100 49.27400 33.63700
H  25.32900 48.29700 34.81400
N  29.25600 49.62100 27.15600
C  29.98500 49.15100 28.23100
C  31.31600 48.72200 27.72300
C  31.30500 48.88500 26.35100
C  30.01400 49.51400 26.02100
C  32.33800 48.05500 28.68300
C  32.43400 48.59300 25.35000
O  32.35900 48.95300 24.20000
C  33.66300 47.96200 25.85100
N  27.26000 50.67300 25.12300
C  28.28600 50.37000 24.32100
C  28.02700 50.76000 22.84200
C  26.44400 51.08200 22.86800
C  26.21900 51.12700 24.40500
C  28.81500 51.97900 22.34200
C  25.58000 49.96500 22.12600
C  24.27300 50.49800 21.43200
N  25.41600 50.90700 27.30800
C  24.64800 51.57500 26.28600
C  23.46500 52.14500 26.93900
C  23.61700 51.99600 28.33400
C  24.79500 51.22600 28.50300
C  22.36800 52.83200 26.12400
C  23.04300 52.39800 29.56400
O  22.00600 53.00300 29.86700
C  23.98800 51.64500 30.60700
C  24.51800 52.72500 31.45400
O  25.51800 53.32600 31.24200
O  23.69100 52.81500 32.56400
C  23.99300 53.95100 33.42800
H  30.18900 48.83500 30.42800
H  30.24300 49.76000 23.95800
H  24.26400 51.93700 24.14900
H  26.42200 51.04000 32.21600
H  28.21000 48.83300 32.19900
H  28.52400 51.58100 32.75600
H  29.61000 51.24100 31.43500
H  29.62600 50.21900 33.00000
H  26.13700 48.08800 32.33000
H  24.88500 48.83800 31.46800
H  23.92700 49.18400 33.47500
H  25.14300 50.30200 33.97300
H  32.47000 46.99100 28.48600
H  32.13700 48.10100 29.75300
H  33.24800 48.64400 28.57000
H  34.37100 47.70700 25.06200
H  33.49900 46.98100 26.29900
H  34.13200 48.59100 26.60800
H  28.24300 49.85600 22.27200
H  26.24400 52.07500 22.46500
H  28.93500 52.59900 23.23000
H  28.39000 52.52700 21.50100
H  29.78700 51.62800 21.99500
H  25.15000 49.29700 22.87300
H  26.20700 49.41000 21.42900
H  24.09800 51.49800 21.82900
H  23.45300 49.80700 21.62700
H  24.39800 50.61000 20.35500
H  21.49000 52.88200 26.76800
H  22.12700 52.26500 25.22500
H  22.71200 53.83700 25.88000
H  23.55000 51.01900 31.38400
H  24.58800 53.60600 34.27400
H  23.06300 54.29000 33.88200
H  24.35100 54.84900 32.92300

