158

Mg 9.35700 3.23900 27.23000
C  10.52800 1.69000 30.16000
C  7.33800 5.17300 29.28500
C  7.57000 4.04400 24.51300
C  10.82000 0.57300 25.46700
N  9.06000 3.43500 29.49700
C  9.62900 2.64500 30.48100
C  9.27700 3.14900 31.85600
C  8.07000 4.09600 31.57300
C  8.21400 4.31000 30.04500
C  6.69400 3.57100 31.92200
C  10.56000 3.81800 32.46900
C  10.37300 4.80100 33.66500
H  10.86500 4.15600 34.97700
N  7.84900 4.55000 26.96200
C  7.20000 5.33500 27.91000
C  6.24700 6.22600 27.28500
C  6.35200 5.96400 25.89800
C  7.29400 4.81000 25.69500
C  5.32400 7.13700 28.02100
C  5.66200 6.67000 24.74400
O  5.96600 6.36300 23.57900
C  4.51500 7.54400 24.97300
N  9.11200 2.42300 25.26900
C  8.32800 2.96100 24.28500
C  8.44700 2.20200 23.02600
C  9.73500 1.31400 23.28700
C  9.98300 1.46900 24.73300
C  7.28800 1.35200 22.50000
C  11.01100 1.67600 22.53200
C  11.67700 0.49500 21.89500
N  10.56700 1.59600 27.69300
C  11.07600 0.57700 26.86000
C  11.98100 -0.28700 27.60500
C  11.79800 0.14000 28.92500
C  10.92600 1.23000 28.88800
C  12.89100 -1.20800 27.06300
C  12.22000 -0.12600 30.25500
O  12.93100 -0.99900 30.71500
C  11.33400 0.82900 31.13900
C  10.44600 -0.03400 32.01300
O  9.37400 -0.55600 31.66500
O  11.06700 -0.14700 33.22700
C  10.28900 -0.72800 34.28700
H  6.66400 5.67200 29.98400
H  6.98300 4.24200 23.61400
H  11.25700 -0.29500 24.96900
H  9.12200 2.29400 32.51300
H  8.06700 5.01000 32.16700
H  6.80700 2.56400 32.32600
H  6.09100 3.44800 31.02200
H  6.19600 4.21800 32.64400
H  11.06400 4.31900 31.64300
H  11.09500 2.92400 32.79000
H  9.34200 5.14200 33.76100
H  10.98100 5.69100 33.50500
H  5.73500 8.14100 27.91300
H  5.33500 6.85500 29.07300
H  4.27800 7.05800 27.72700
H  3.70600 7.14000 25.58100
H  4.07700 7.55400 23.97500
H  4.85600 8.56500 25.14100
H  8.58900 2.90900 22.20800
H  9.44800 0.26400 23.24200
H  6.78900 0.95500 23.38400
H  7.83600 0.57300 21.97000
H  6.68900 1.98800 21.84800
H  11.75100 2.09300 23.21500
H  10.83400 2.32700 21.67600
H  11.93800 0.72700 20.86300
H  10.95700 -0.32100 21.84700
H  12.50600 0.11900 22.49500
H  12.28100 -1.96200 26.56600
H  13.61700 -1.59200 27.77900
H  13.34500 -0.54400 26.32700
H  12.09400 1.36000 31.71200
H  9.29400 -0.31100 34.44300
H  10.76800 -0.37600 35.20100
H  10.21600 -1.81500 34.31500
Mg 0.07700 42.52900 25.89800
C  2.51100 42.24200 28.33600
C  -2.31700 41.62900 28.21400
C  -2.25400 42.68100 23.39300
C  2.64800 42.86900 23.49200
N  0.18500 41.89000 27.98400
C  1.20900 42.04000 28.85200
C  0.85100 41.64500 30.35100
C  -0.71400 41.33400 30.19100
C  -0.96700 41.56200 28.64300
C  -1.22200 39.99300 30.78800
C  1.23200 42.77100 31.35800
C  1.53000 42.17200 32.74500
H  0.79700 40.85000 33.21800
N  -1.98300 42.14900 25.76200
C  -2.79400 41.83000 26.85400
C  -4.14200 41.60100 26.42600
C  -4.15300 41.98600 25.01100
C  -2.77900 42.33200 24.64800
C  -5.34800 41.24500 27.20800
C  -5.28800 41.95800 24.07100
O  -5.21200 42.39700 22.92900
C  -6.66100 41.53700 24.49100
N  0.20700 42.89000 23.80900
C  -0.94500 42.91500 23.01600
C  -0.55500 43.13600 21.52900
C  1.00800 43.52100 21.59200
C  1.34800 43.12700 23.04500
C  -0.92200 42.03100 20.58300
C  1.39200 45.03500 21.31300
C  0.52500 46.19900 21.85500
N  2.16000 42.53300 25.86700
C  3.03200 42.64600 24.85400
C  4.42400 42.56300 25.46500
C  4.22500 42.51400 26.76200
C  2.83400 42.43100 26.97900
C  5.74000 42.46500 24.70500
C  4.91300 42.40100 28.02800
O  6.12500 42.35600 28.34000
C  3.81600 42.18800 29.03600
C  4.08300 40.97400 29.84300
O  4.01500 39.85900 29.37100
O  4.42600 41.22500 31.15500
C  4.64500 40.02600 31.94200
H  -3.12600 41.27700 28.85800
H  -2.82200 42.79100 22.46700
H  3.40100 43.16300 22.75900
H  1.50100 40.79700 30.56900
H  -1.31200 42.08200 30.71200
H  -0.37100 39.39200 31.10700
H  -1.74700 39.34600 30.08600
H  -1.95800 40.11500 31.58300
H  0.47100 43.54400 31.46800
H  2.16300 43.29100 31.13200
H  1.25600 42.91600 33.49300
H  2.60100 42.02000 32.88100
H  -6.02100 42.09500 27.32100
H  -5.00200 40.89500 28.18100
H  -5.90300 40.39400 26.81300
H  -6.74500 40.46700 24.67700
H  -7.33500 41.72400 23.65500
H  -6.92700 42.23400 25.28600
H  -1.09700 44.03600 21.23800
H  1.64300 42.89900 20.96000
H  -1.41700 41.18600 21.06200
H  -0.02700 41.70300 20.05600
H  -1.64500 42.53200 19.93900
H  1.65900 45.22100 20.27300
H  2.35700 45.18200 21.79800
H  0.30500 46.95500 21.10200
H  1.00300 46.61800 22.74000
H  -0.40600 45.75900 22.21300
H  6.63400 42.50300 25.32700
H  5.81900 43.39400 24.14100
H  5.92100 41.52800 24.17900
H  3.91700 43.08800 29.64300
H  3.64100 39.63600 32.10700
H  5.18200 40.45700 32.78700
H  5.31400 39.27600 31.51900

