158

Mg 5.68100 54.70200 40.79800
C  5.10100 51.17200 40.89300
C  8.81300 54.18600 39.44300
C  5.83400 58.03400 39.91200
C  2.28600 54.98100 41.60200
N  6.71100 52.91100 40.12300
C  6.33800 51.57400 40.37800
C  7.53700 50.66100 40.06000
C  8.80400 51.65300 39.92900
C  8.10400 53.06000 39.93400
C  9.99800 51.55800 40.98500
C  7.47200 49.78300 38.74000
C  6.68400 50.29800 37.58700
H  7.46200 50.60100 36.22600
N  7.18700 55.93200 39.85500
C  8.38100 55.53000 39.39500
C  9.09100 56.63600 38.84500
C  8.20800 57.78800 38.90500
C  7.00400 57.31700 39.61000
C  10.41800 56.62900 38.12700
C  8.55700 59.13800 38.26700
O  9.61200 59.40800 37.62700
C  7.65800 60.35900 38.34500
N  4.25200 56.23700 40.65100
C  4.63400 57.55200 40.41100
C  3.38400 58.47100 40.67000
C  2.28300 57.52300 41.17000
C  2.96300 56.16200 41.16500
C  3.69300 59.58400 41.66900
C  0.94700 57.42000 40.36400
C  -0.32300 57.51200 41.19500
N  4.05700 53.41500 41.33100
C  2.80000 53.70100 41.70300
C  2.03100 52.50800 42.09400
C  3.00400 51.47100 41.86000
C  4.12900 52.09000 41.26000
C  0.65000 52.40300 42.68100
C  3.21400 50.05100 41.92200
O  2.53600 49.16500 42.42500
C  4.57400 49.80400 41.10300
C  4.32200 49.09700 39.90000
O  3.79400 49.60600 38.91300
O  4.64200 47.76500 40.03900
C  4.40100 46.91100 38.91900
H  9.88300 53.98200 39.36500
H  5.84900 59.10200 39.68200
H  1.27000 55.06600 41.99400
H  7.72200 50.05400 40.94700
H  9.25200 51.46200 38.95400
H  10.08900 52.37700 41.69800
H  10.92100 51.50900 40.40600
H  9.91300 50.65200 41.58300
H  7.12400 48.80400 39.07000
H  8.50800 49.80000 38.40200
H  6.30600 51.24400 37.97400
H  5.87000 49.59400 37.41800
H  10.29700 56.82200 37.06100
H  10.99800 55.71900 38.27600
H  11.03300 57.44900 38.49800
H  8.04800 61.23200 37.82200
H  7.52700 60.72000 39.36500
H  6.71100 60.21400 37.82500
H  3.13400 58.78100 39.65500
H  2.14300 57.77300 42.22200
H  3.19400 59.45200 42.63000
H  3.32800 60.43200 41.08900
H  4.74200 59.76400 41.90100
H  1.01900 56.46700 39.84000
H  0.76300 58.21600 39.64300
H  -0.77300 58.43800 40.83500
H  -0.06900 57.49300 42.25500
H  -0.98500 56.66100 41.03800
H  0.80000 52.01400 43.68800
H  0.16700 51.54400 42.21500
H  0.09400 53.33000 42.53900
H  5.28300 49.25500 41.72200
H  4.53800 45.89700 39.29400
H  5.12000 46.98300 38.10200
H  3.39900 46.93800 38.49100
Mg -12.68900 15.80400 42.47400
C  -9.66100 14.08800 42.15400
C  -11.08300 18.47000 41.05000
C  -15.81100 17.15100 41.64500
C  -14.25500 12.92100 43.39600
N  -10.54400 16.20700 41.76000
C  -9.50600 15.33000 41.62500
C  -8.23300 16.06100 41.07300
C  -8.65700 17.56300 41.12000
C  -10.18100 17.44300 41.30900
C  -7.96500 18.50800 42.14400
C  -7.78000 15.47200 39.69700
C  -6.39400 15.50300 39.32000
H  -6.14100 16.32100 38.11300
N  -13.34000 17.68800 41.47400
C  -12.45800 18.65600 41.02900
C  -13.26400 19.76100 40.61800
C  -14.66700 19.48900 40.97000
C  -14.66800 18.05900 41.35800
C  -12.65000 21.04900 40.03100
C  -15.84600 20.36700 40.82100
O  -15.72100 21.54000 40.35600
C  -17.20800 20.09900 41.26300
N  -14.72500 15.10600 42.34000
C  -15.85100 15.83000 42.16700
C  -17.16800 15.08500 42.44300
C  -16.56600 13.81600 43.21700
C  -15.09000 13.95800 42.94100
C  -18.34600 15.88900 43.11200
C  -17.17600 12.38100 42.63200
C  -17.94700 11.50100 43.68800
N  -12.05700 13.85800 42.87600
C  -12.81900 12.81600 43.32600
C  -11.98400 11.76600 43.64600
C  -10.69200 12.20200 43.20400
C  -10.79100 13.51700 42.74300
C  -12.28000 10.42600 44.24600
C  -9.28800 11.77900 43.05600
O  -8.62800 10.80300 43.45100
C  -8.58600 12.97400 42.31900
C  -7.38600 13.38900 43.01400
O  -7.35900 14.11500 44.05300
O  -6.31300 12.96900 42.30900
C  -4.99900 13.69500 42.68600
H  -10.44300 19.29300 40.72500
H  -16.79100 17.54800 41.37000
H  -14.73900 12.19600 44.05200
H  -7.49200 15.90000 41.85600
H  -8.43100 18.08900 40.19300
H  -7.81300 17.94900 43.06700
H  -8.65500 19.32600 42.35100
H  -7.01200 18.95000 41.85200
H  -8.37500 16.06500 39.00300
H  -8.16100 14.45100 39.73100
H  -5.98800 14.49600 39.22200
H  -5.73400 15.92300 40.07900
H  -12.56200 21.85800 40.75600
H  -13.21400 21.41700 39.17400
H  -11.62800 20.77000 39.77300
H  -17.75600 19.53000 40.51200
H  -17.69100 21.06000 41.44000
H  -17.14000 19.52300 42.18600
H  -17.51300 14.72500 41.47400
H  -16.87700 13.91800 44.25600
H  -18.11800 16.95200 43.02800
H  -18.53200 15.68500 44.16700
H  -19.32300 15.71000 42.66300
H  -16.38000 11.80200 42.16300
H  -17.79700 12.43700 41.73800
H  -17.44500 10.54300 43.82300
H  -18.98300 11.42800 43.35500
H  -17.96800 11.99900 44.65700
H  -13.03200 10.50300 45.03100
H  -11.40500 10.00600 44.74200
H  -12.49500 9.59200 43.57800
H  -8.35400 12.65000 41.30400
H  -4.30300 13.35800 41.91700
H  -4.63700 13.56400 43.70500
H  -5.14800 14.77300 42.62600

