158

Mg 46.64400 16.21600 28.39700
C  44.54300 16.17800 31.27300
C  48.83500 18.21900 30.32100
C  47.99800 17.24200 25.66500
C  44.17900 14.58500 26.65300
N  46.65700 17.13600 30.55700
C  45.70300 16.89200 31.51300
C  46.21600 17.40300 32.91800
C  47.56900 18.11500 32.59700
C  47.71400 17.82700 31.05600
C  47.62700 19.66800 32.92800
C  46.48700 16.19100 33.89300
C  46.26900 16.51400 35.43600
H  46.13200 17.98200 35.91900
N  48.31500 17.46300 28.00400
C  49.02100 18.19400 28.95900
C  49.99500 18.94700 28.25100
C  49.73600 18.82100 26.83100
C  48.70100 17.80000 26.73900
C  51.08800 19.69100 29.02100
C  50.39300 19.41800 25.58800
O  50.16200 19.03800 24.42900
C  51.32000 20.57000 25.78700
N  46.16200 15.84600 26.40400
C  46.89500 16.34500 25.43500
C  46.44600 15.93500 24.05800
C  45.49300 14.72200 24.37400
C  45.29800 14.95100 25.87000
C  45.80200 17.13400 23.33800
C  45.96600 13.25400 24.01400
C  45.20900 12.58700 22.87400
N  44.80000 15.44700 28.89100
C  43.90200 14.81500 28.07900
C  42.73200 14.42100 28.75400
C  42.93700 14.92800 30.02900
C  44.26300 15.50100 30.07900
C  41.52000 13.79800 28.21300
C  42.29000 15.06500 31.33700
O  41.21500 14.73900 31.77000
C  43.39700 15.91900 32.18700
C  42.91800 17.22900 32.75200
O  42.78500 18.26600 32.16200
O  42.55900 16.95200 34.02200
C  41.91300 18.10300 34.67900
H  49.60000 18.72200 30.91600
H  48.40500 17.70800 24.76500
H  43.51900 13.89800 26.11900
H  45.52000 18.15000 33.30000
H  48.52000 17.71400 32.95000
H  48.52500 19.90200 33.49900
H  46.80400 19.95800 33.58100
H  47.59000 20.20400 31.98000
H  47.51200 15.82700 33.82400
H  45.92800 15.30000 33.60600
H  47.12900 16.08400 35.94900
H  45.41100 15.99000 35.85800
H  51.85200 19.00800 29.39300
H  50.70900 20.24100 29.88300
H  51.59600 20.39500 28.36200
H  50.97600 21.38000 26.43100
H  51.41700 20.92200 24.76000
H  52.28700 20.14900 26.06200
H  47.32400 15.62300 23.49400
H  44.54200 14.88300 23.86500
H  46.60600 17.74900 22.93200
H  45.23400 17.63100 24.12400
H  45.03400 16.83000 22.62700
H  45.87800 12.53300 24.82700
H  46.98100 13.36700 23.63500
H  44.37100 13.23900 22.62700
H  44.80000 11.59600 23.07000
H  45.91000 12.43500 22.05300
H  41.35700 13.95100 27.14600
H  40.70300 14.42300 28.57400
H  41.47700 12.71100 28.27100
H  43.79800 15.30200 32.99100
H  41.86900 17.85300 35.73900
H  40.88200 18.17700 34.33600
H  42.65900 18.88200 34.52000
Mg -6.24000 25.00000 25.81800
C  -4.71700 25.97200 28.72300
C  -8.10100 22.67100 27.56100
C  -7.25300 23.65400 22.96900
C  -3.74600 26.84300 24.02400
N  -6.31300 24.28800 27.89100
C  -5.71900 24.99100 28.96900
C  -6.26800 24.47800 30.32100
C  -7.02200 23.09300 29.87800
C  -7.16300 23.29400 28.34000
C  -6.28500 21.74900 30.16800
C  -7.18500 25.53700 31.02200
C  -6.72200 25.88800 32.46900
H  -6.00900 24.82800 33.36000
N  -7.58700 23.44700 25.30200
C  -8.30300 22.68300 26.15500
C  -9.19400 21.79400 25.37900
C  -9.09600 22.24000 24.00800
C  -7.95500 23.15400 24.05500
C  -10.10000 20.82500 26.17300
C  -9.84700 21.83300 22.72600
O  -9.58300 22.23700 21.57900
C  -10.95400 20.80500 22.88700
N  -5.48900 25.10500 23.67500
C  -6.13000 24.48600 22.73700
C  -5.41700 24.81100 21.38600
C  -4.32600 25.85700 21.69900
C  -4.47100 25.94800 23.18600
C  -4.81700 23.57800 20.54400
C  -4.45200 27.32200 21.11400
C  -3.44600 27.74000 20.09500
N  -4.62800 26.22200 26.25300
C  -3.78800 27.02200 25.44300
C  -2.94100 27.87200 26.28600
C  -3.27900 27.48600 27.55900
C  -4.27400 26.49000 27.49700
C  -1.90300 28.89800 25.79400
C  -2.92300 27.62600 28.91600
O  -2.06400 28.39200 29.32300
C  -3.96800 26.80400 29.81200
C  -3.20500 26.07800 30.84300
O  -2.84900 24.89400 30.77100
O  -2.84500 26.96000 31.83200
C  -1.83700 26.51700 32.83500
H  -8.58900 21.90600 28.16800
H  -7.54200 23.26300 21.99100
H  -2.96600 27.51100 23.65300
H  -5.41200 24.23600 30.95000
H  -8.00600 23.02300 30.34200
H  -6.07600 21.23700 29.22800
H  -6.90800 21.17100 30.85000
H  -5.32400 21.89500 30.66200
H  -8.23900 25.38600 30.78900
H  -7.08300 26.49900 30.52000
H  -7.59700 26.17800 33.05100
H  -6.10000 26.78200 32.42300
H  -10.96600 20.71800 25.52000
H  -10.47800 21.29500 27.08100
H  -9.61900 19.85000 26.25600
H  -11.19800 20.29000 21.95800
H  -11.76300 21.25800 23.46000
H  -10.60900 19.96500 23.49000
H  -6.17400 25.26200 20.74400
H  -3.30400 25.55800 21.46400
H  -4.94300 22.62600 21.05900
H  -3.74700 23.77400 20.47700
H  -5.27100 23.58700 19.55400
H  -4.46700 28.07400 21.90300
H  -5.32600 27.46700 20.47900
H  -3.85600 28.12200 19.16000
H  -2.80800 26.86900 19.94700
H  -2.87700 28.50700 20.62100
H  -1.17100 28.30800 25.24200
H  -1.30500 29.33600 26.59300
H  -2.28600 29.65500 25.10900
H  -4.67100 27.45000 30.33700
H  -0.94100 26.16000 32.32700
H  -2.36100 25.74600 33.39900
H  -1.64300 27.40200 33.44200

