158

Mg 41.02800 8.09600 29.08200
C  42.64200 9.06900 32.01600
C  38.66600 6.68400 31.01000
C  39.50500 6.85400 26.21600
C  43.66900 9.30400 27.16100
N  40.69000 8.10200 31.28600
C  41.45500 8.45900 32.30400
C  40.69500 8.31700 33.67500
C  39.41600 7.53700 33.31500
C  39.60700 7.45200 31.77300
C  39.28300 6.08900 33.93300
C  40.32700 9.75300 34.21900
C  39.30400 9.93700 35.29300
H  39.75000 10.93700 36.40000
N  39.27100 6.95900 28.70500
C  38.43100 6.41400 29.67200
C  37.44200 5.67900 29.02900
C  37.57800 5.87800 27.65900
C  38.82700 6.59100 27.48700
C  36.36100 5.05800 29.79100
C  36.53500 5.59300 26.55400
O  36.74900 5.92000 25.38900
C  35.15900 4.95300 26.88700
N  41.45900 8.15800 26.89500
C  40.78400 7.52000 25.98300
C  41.50300 7.61300 24.64500
C  42.78000 8.52500 24.94400
C  42.66100 8.70000 26.44400
C  41.93400 6.20300 24.02400
C  43.01000 9.78200 24.02600
C  42.93900 11.15000 24.63200
N  42.85500 8.99300 29.42000
C  43.81500 9.44800 28.52300
C  44.94700 10.01200 29.29900
C  44.44200 9.98600 30.64900
C  43.25600 9.28400 30.67200
C  46.17500 10.75200 28.79100
C  44.79700 10.37800 32.04300
O  45.80700 10.89300 32.47600
C  43.57500 9.85500 32.96100
C  44.19000 9.06700 34.01900
O  44.95300 8.11200 33.80500
O  43.55200 9.31200 35.17700
C  43.84100 8.36800 36.30400
H  37.97400 6.14600 31.66100
H  39.14800 6.45600 25.26400
H  44.39000 9.70400 26.44500
H  41.22600 7.84700 34.50300
H  38.49100 8.08200 33.50400
H  39.54500 5.27800 33.25300
H  38.24000 5.94600 34.21400
H  39.80900 6.10300 34.88700
H  40.12600 10.41200 33.37400
H  41.26000 10.10600 34.65900
H  38.78400 9.09200 35.74400
H  38.49800 10.50500 34.82700
H  36.54700 5.09200 30.86400
H  36.27600 3.99600 29.56000
H  35.43700 5.61400 29.63200
H  35.13200 4.05300 27.50100
H  34.73700 4.56600 25.96000
H  34.49900 5.78100 27.14500
H  40.91400 8.03400 23.83100
H  43.63200 7.84500 24.92300
H  41.39800 6.05200 23.08700
H  41.74000 5.43300 24.77000
H  42.99300 6.05000 23.81500
H  42.27600 9.63300 23.23400
H  44.01700 9.73400 23.61100
H  42.53500 10.99400 25.63200
H  42.25700 11.78500 24.06700
H  43.88600 11.68900 24.61200
H  45.92900 11.45600 27.99600
H  46.79800 10.05600 28.23000
H  46.72900 11.25200 29.58600
H  43.08700 10.74800 33.35100
H  44.89600 8.43900 36.56900
H  43.59500 7.31900 36.14200
H  43.21000 8.76500 37.09900
Mg -6.50800 25.53600 26.22900
C  -5.26900 27.06100 29.01900
C  -7.91900 23.17000 28.18500
C  -7.70800 24.09000 23.43400
C  -4.96400 28.09300 24.16600
N  -6.46600 25.13000 28.29700
C  -6.12600 26.00700 29.27600
C  -6.69600 25.67300 30.59200
C  -7.40400 24.29600 30.31900
C  -7.26100 24.15400 28.81700
C  -7.10000 23.13700 31.26800
C  -7.59100 26.83700 31.11800
C  -7.59800 27.03900 32.67300
H  -7.23200 25.79700 33.67300
N  -7.54100 23.77800 25.86500
C  -8.10800 22.99800 26.81500
C  -9.02800 22.06200 26.16000
C  -8.90300 22.25800 24.78700
C  -8.04000 23.42600 24.65400
C  -10.07000 21.07300 26.80800
C  -9.53900 21.46600 23.60900
O  -9.42300 21.70600 22.40900
C  -10.37100 20.20400 23.90100
N  -6.32000 26.04000 24.16700
C  -6.99300 25.26900 23.20800
C  -6.83500 25.79000 21.78500
C  -6.31200 27.28600 22.18000
C  -5.85200 27.12600 23.63200
C  -5.64800 25.02400 21.01700
C  -7.47300 28.31800 21.98000
C  -7.32900 29.05100 20.64700
N  -5.32500 27.33800 26.50700
C  -4.75200 28.17900 25.61200
C  -3.96800 29.12600 26.35900
C  -4.03500 28.79300 27.77800
C  -4.95600 27.69900 27.76200
C  -3.39800 30.30900 25.70400
C  -3.69500 29.03300 29.17100
O  -2.93700 29.81500 29.69700
C  -4.52300 27.94100 30.02800
C  -3.54100 27.19000 30.91600
O  -2.65600 26.48300 30.49600
O  -3.77300 27.37900 32.26100
C  -2.85900 26.73200 33.24100
H  -8.51900 22.46900 28.76900
H  -8.11900 23.67200 22.51200
H  -4.56800 28.86600 23.50400
H  -5.81300 25.39200 31.16600
H  -8.47400 24.47100 30.42800
H  -6.53500 22.29800 30.86200
H  -7.95300 22.55100 31.61200
H  -6.42500 23.54200 32.02200
H  -8.63400 26.81900 30.80200
H  -7.38500 27.82300 30.70000
H  -8.56600 27.36300 33.05600
H  -6.88600 27.84200 32.86600
H  -11.05300 21.09900 26.33900
H  -10.34400 21.51500 27.76600
H  -9.68000 20.05700 26.86800
H  -11.41200 20.28600 24.21300
H  -9.81900 19.47300 24.49300
H  -10.53700 19.88100 22.87300
H  -7.79200 25.61900 21.29200
H  -5.53400 27.62400 21.49600
H  -5.04600 25.71700 20.42900
H  -6.15700 24.34500 20.33300
H  -4.95300 24.55800 21.71600
H  -7.33200 29.13200 22.69200
H  -8.51300 28.02100 22.11600
H  -8.30500 29.18100 20.18000
H  -6.80300 28.46300 19.89500
H  -6.81700 30.01000 20.72600
H  -2.76900 30.04000 24.85500
H  -2.84700 30.89500 26.43900
H  -4.18000 30.95600 25.30900
H  -5.22000 28.43700 30.70400
H  -3.45600 26.64800 34.14800
H  -2.04700 27.43300 33.44000
H  -2.66100 25.73900 32.83900

