158

Mg 24.84900 -5.41400 45.93900
C  26.96300 -3.25500 44.24700
C  22.31600 -4.41400 43.75500
C  23.02400 -8.14400 46.80500
C  27.71900 -6.86000 47.58900
N  24.73200 -4.00200 44.25400
C  25.71300 -3.23000 43.69100
C  25.24500 -2.69100 42.29900
C  23.66600 -2.80300 42.40700
C  23.53300 -3.73900 43.58600
C  22.95500 -1.42000 42.71700
C  25.96800 -3.57300 41.07400
C  26.86700 -2.80200 40.09400
H  26.30500 -2.76500 38.65500
N  22.87800 -6.25600 45.45300
C  21.99100 -5.59600 44.58800
C  20.65400 -6.23600 44.69600
C  20.69500 -7.25400 45.69600
C  22.16300 -7.29400 46.06500
C  19.50700 -5.71500 43.82600
C  19.61000 -8.22800 46.17400
O  18.49700 -8.33500 45.64400
C  19.88000 -9.18600 47.30100
N  25.39300 -7.27900 46.96000
C  24.45500 -8.22700 47.14800
C  24.90000 -9.38900 48.00600
C  26.36700 -8.93800 48.34600
C  26.55600 -7.64100 47.53800
C  24.08300 -9.77800 49.22600
C  27.47900 -9.95700 47.93700
C  28.20400 -10.74600 48.99300
N  26.96600 -5.08900 46.04000
C  27.97000 -5.62500 46.85900
C  29.10200 -4.85800 46.72400
C  28.81900 -3.92700 45.71100
C  27.48800 -4.06900 45.31000
C  30.29400 -5.05600 47.53200
C  29.39700 -2.84800 44.88900
O  30.46400 -2.26200 44.95300
C  28.21400 -2.37800 43.92000
C  28.05700 -0.93700 44.13000
O  27.40400 -0.42400 45.01800
O  28.74800 -0.23100 43.16000
C  28.76500 1.22600 43.29300
H  21.50200 -4.13500 43.08100
H  22.46000 -8.96500 47.25200
H  28.48400 -7.25100 48.26300
H  25.53000 -1.64000 42.34700
H  23.25200 -3.19700 41.47800
H  23.67100 -0.69400 43.10400
H  22.20400 -1.67200 43.46500
H  22.52500 -0.97300 41.82000
H  25.17300 -4.03900 40.49100
H  26.46000 -4.43000 41.53500
H  27.83000 -3.30100 40.19800
H  27.05500 -1.75600 40.33500
H  19.46000 -6.35900 42.94800
H  19.57800 -4.66400 43.54600
H  18.63700 -5.72100 44.48200
H  18.96500 -9.58500 47.73800
H  20.16200 -8.54400 48.13600
H  20.61700 -9.94700 47.04600
H  24.87900 -10.14000 47.21600
H  26.54800 -8.71600 49.39800
H  24.72700 -9.97900 50.08200
H  23.70300 -10.79100 49.09500
H  23.28900 -9.07500 49.47800
H  28.28500 -9.47600 47.38100
H  27.11200 -10.76100 47.29900
H  29.18800 -10.31900 49.18400
H  28.56500 -11.70900 48.63100
H  27.61200 -10.98000 49.87800
H  30.72400 -6.03600 47.32100
H  30.10700 -5.17700 48.59900
H  31.01000 -4.23900 47.45000
H  28.61700 -2.49100 42.91400
H  29.65300 1.54900 43.83600
H  27.87500 1.66300 43.74600
H  28.92400 1.59100 42.27900
Mg -10.03100 40.24200 39.30700
C  -8.79300 37.04000 38.34300
C  -6.93800 41.60100 38.34700
C  -11.52400 43.25500 38.87500
C  -13.31000 38.73300 39.49800
N  -8.19500 39.44200 38.47400
C  -7.92400 38.09800 38.14900
C  -6.53900 37.95000 37.36100
C  -5.83900 39.20100 38.05100
C  -7.07300 40.18300 38.31400
C  -4.92400 38.88600 39.25000
C  -6.75400 37.98000 35.83900
C  -6.15500 36.89800 34.90400
H  -7.15300 36.17000 33.91500
N  -9.34500 42.21300 38.84500
C  -8.02500 42.49800 38.53700
C  -7.96900 43.96200 38.40300
C  -9.25500 44.48100 38.54900
C  -10.11100 43.32100 38.72500
C  -6.64500 44.77500 38.05300
C  -9.57400 45.92400 38.44900
O  -8.71700 46.81000 38.27600
C  -10.97500 46.37400 38.89500
N  -12.21100 40.88700 39.46300
C  -12.44300 42.19500 39.13900
C  -13.95700 42.45000 39.10400
C  -14.49000 40.98800 39.22100
C  -13.33700 40.06900 39.53900
C  -14.56900 43.51300 40.07000
C  -15.31100 40.41000 38.01000
C  -16.78900 39.97800 38.40200
N  -10.93300 38.27000 39.23500
C  -12.20200 37.83300 39.40300
C  -12.18500 36.39700 39.36900
C  -10.91100 36.00300 38.93800
C  -10.19300 37.22500 38.78400
C  -13.34900 35.56400 39.71600
C  -10.01000 34.89900 38.56400
O  -10.23100 33.70100 38.64200
C  -8.69900 35.59400 38.11200
C  -7.55700 34.97300 38.84300
O  -7.01000 35.41100 39.82700
O  -7.16800 33.78300 38.28400
C  -6.01700 33.03200 38.87200
H  -5.93500 42.00400 38.18800
H  -12.09400 44.12700 38.54800
H  -14.23900 38.17300 39.36800
H  -6.06700 37.00600 37.63200
H  -5.17500 39.55100 37.26100
H  -5.17000 37.98000 39.80300
H  -4.97000 39.83400 39.78500
H  -3.92200 38.70800 38.85900
H  -6.21300 38.89300 35.59000
H  -7.79500 38.03600 35.52300
H  -5.79500 36.12400 35.58200
H  -5.38000 37.44500 34.36800
H  -6.49900 45.45700 38.89000
H  -6.86500 45.27200 37.10800
H  -5.75100 44.15200 38.06600
H  -10.94400 47.43300 39.15400
H  -11.16400 45.80100 39.80200
H  -11.65600 45.97000 38.14500
H  -14.25900 42.83200 38.12900
H  -15.14800 40.93200 40.08800
H  -14.93100 42.95400 40.93300
H  -15.34300 44.14200 39.63000
H  -13.79300 44.17200 40.46000
H  -14.73100 39.66800 37.46000
H  -15.34200 41.25500 37.32300
H  -16.81700 40.00400 39.49100
H  -16.88100 38.96800 38.00200
H  -17.49700 40.72900 38.05200
H  -13.95500 36.26100 40.29500
H  -13.12000 34.72000 40.36700
H  -13.72600 35.16600 38.77500
H  -8.54100 35.46300 37.04100
H  -5.10900 33.56100 38.58500
H  -6.09800 32.04400 38.41900
H  -6.08600 32.87600 39.94900

