158

Mg 36.62200 50.39300 25.78700
C  36.07300 48.15900 28.44700
C  35.92500 53.03700 27.86000
C  36.53000 52.39600 23.01500
C  37.08600 47.66600 23.64800
N  35.90300 50.56300 27.92500
C  35.93800 49.56500 28.83400
C  35.76200 50.10900 30.25000
C  35.42900 51.58200 29.97800
C  35.77300 51.77800 28.51400
C  33.92800 52.00000 30.29300
C  37.15800 49.94600 31.11700
C  36.98800 50.16000 32.59000
H  35.58500 50.27300 33.15900
N  36.38200 52.46000 25.49400
C  36.16900 53.40800 26.51400
C  36.31700 54.72300 25.94700
C  36.36200 54.62700 24.49100
C  36.46800 53.15500 24.25700
C  36.32200 55.96100 26.88300
C  36.39800 55.75900 23.48800
O  36.53600 55.53200 22.30200
C  36.47100 57.09100 23.90500
N  36.75600 50.05600 23.58500
C  36.62000 51.04000 22.68800
C  36.78100 50.54600 21.17500
C  37.17400 49.03900 21.46200
C  37.03700 48.85900 22.98300
C  35.47300 50.64000 20.37700
C  38.68400 48.90300 20.99100
C  39.13600 47.49200 20.45500
N  36.57800 48.30600 25.99200
C  36.87000 47.34600 25.00700
C  37.02400 46.03700 25.69600
C  36.57500 46.30300 27.01200
C  36.34400 47.68900 27.14200
C  37.42900 44.70100 25.15000
C  36.37800 45.70600 28.33800
O  36.45500 44.51600 28.63800
C  36.01500 46.88000 29.31500
C  34.73600 46.57000 29.93900
O  33.65600 46.87700 29.39000
O  34.88600 46.09700 31.17300
C  33.62600 45.96300 32.05000
H  35.72600 53.84100 28.57100
H  36.62800 52.97500 22.09400
H  37.09200 46.74500 23.06200
H  34.95000 49.50700 30.65900
H  36.09200 52.23200 30.54900
H  33.81600 52.49600 31.25700
H  33.20800 51.18200 30.31000
H  33.57600 52.67000 29.50900
H  37.84100 50.68000 30.68800
H  37.50200 48.91800 31.00400
H  37.51700 51.07400 32.86100
H  37.52400 49.30700 33.00500
H  37.22200 56.57100 26.81000
H  36.23400 55.64700 27.92300
H  35.43300 56.57700 26.74900
H  36.31600 57.85000 23.13800
H  37.42700 57.20000 24.41600
H  35.63300 57.27900 24.57500
H  37.56600 51.04100 20.60300
H  36.59000 48.34300 20.86000
H  35.08100 51.65100 20.48600
H  34.70700 49.88900 20.56700
H  35.67300 50.54200 19.31000
H  39.24000 49.19000 21.88400
H  38.85400 49.53200 20.11800
H  38.33700 46.75700 20.55100
H  39.98400 47.16600 21.05700
H  39.45700 47.56400 19.41500
H  37.61100 43.89700 25.86300
H  38.16900 44.88100 24.37000
H  36.54800 44.27900 24.66800
H  36.75600 46.90200 30.11500
H  33.05000 46.88500 31.96900
H  33.93900 45.91100 33.09200
H  33.14600 45.01700 31.80100
Mg -5.15200 23.72700 26.39300
C  -3.50600 25.55100 28.92300
C  -6.46200 21.76100 28.88200
C  -6.99800 22.27000 24.09000
C  -3.75500 25.83500 23.96800
N  -5.00000 23.64400 28.53400
C  -4.32500 24.58000 29.39300
C  -4.69500 24.34400 30.85200
C  -5.43500 22.95400 30.83800
C  -5.59600 22.77000 29.31400
C  -4.71300 21.74400 31.48200
C  -5.70400 25.48000 31.35600
C  -5.78600 25.81200 32.81300
H  -5.30100 24.72000 33.80400
N  -6.43200 22.10600 26.45700
C  -6.93100 21.38100 27.59200
C  -7.88400 20.36600 27.19700
C  -7.97500 20.47000 25.72200
C  -7.12500 21.63900 25.37300
C  -8.49900 19.26800 28.08200
C  -8.89500 19.74400 24.70800
O  -8.90600 19.94600 23.48700
C  -9.89600 18.78200 25.22400
N  -5.22200 23.93100 24.26800
C  -6.10800 23.18900 23.57900
C  -6.02300 23.52500 22.06400
C  -4.89500 24.67600 22.03000
C  -4.51300 24.79200 23.45600
C  -5.86700 22.20600 21.07200
C  -5.40200 25.95600 21.30900
C  -4.72000 26.51900 20.10800
N  -3.71400 25.22200 26.40300
C  -3.30200 26.01800 25.33100
C  -2.44400 27.07300 25.87700
C  -2.51000 26.91700 27.26600
C  -3.28600 25.80800 27.53700
C  -1.70800 28.06100 25.08000
C  -1.94800 27.42300 28.51700
O  -1.17400 28.33800 28.65000
C  -2.68000 26.64800 29.60300
C  -1.74600 26.09200 30.55300
O  -0.72900 25.44100 30.29900
O  -2.15600 26.41700 31.82000
C  -1.41200 25.70900 32.84900
H  -6.95400 21.17400 29.66000
H  -7.63200 21.92100 23.27200
H  -3.35300 26.53900 23.23700
H  -3.81400 24.36900 31.49400
H  -6.40700 23.02500 31.32600
H  -4.46400 21.03700 30.69000
H  -5.29200 21.27300 32.27600
H  -3.86700 22.10800 32.06400
H  -6.69400 25.20000 30.99500
H  -5.43500 26.43800 30.91200
H  -6.84100 25.76000 33.08300
H  -5.37100 26.80200 32.99900
H  -9.57100 19.46400 28.05100
H  -8.10400 19.41100 29.08800
H  -8.39400 18.24500 27.72100
H  -10.48100 19.38000 25.92200
H  -9.32000 17.98200 25.69000
H  -10.44700 18.28100 24.42800
H  -7.03000 23.86500 21.82300
H  -4.08900 24.32200 21.38800
H  -5.20000 21.53800 21.61700
H  -5.47600 22.47500 20.09100
H  -6.84000 21.73400 20.93800
H  -5.56200 26.75900 22.02800
H  -6.44000 25.80900 21.01100
H  -5.20200 26.35100 19.14500
H  -3.71900 26.08800 20.10700
H  -4.54100 27.56300 20.36700
H  -0.74400 27.69500 24.72600
H  -1.58000 28.93400 25.72000
H  -2.30100 28.39200 24.22800
H  -3.31800 27.39400 30.07700
H  -0.33000 25.75900 32.73500
H  -1.66400 24.66100 32.68600
H  -1.62000 26.11000 33.84100

