158

Mg 53.78200 23.78900 44.05900
C  50.97500 25.79300 43.54400
C  51.89500 20.99900 43.37100
C  56.58400 22.02100 44.11600
C  55.68600 26.80300 44.47600
N  51.64500 23.51900 43.28400
C  50.71200 24.45600 43.29500
C  49.36600 23.81100 43.23300
C  49.59200 22.26500 43.28600
C  51.14100 22.21800 43.29700
C  48.95700 21.49500 44.50100
C  48.46400 24.25400 42.02200
C  49.18100 24.65500 40.74300
H  48.92200 23.87800 39.41100
N  54.19300 21.81300 43.64500
C  53.29300 20.81900 43.50500
C  53.94600 19.60100 43.51000
C  55.35600 19.84100 43.48100
C  55.45400 21.31700 43.74400
C  53.22000 18.25800 43.54800
C  56.46300 18.86900 43.30700
O  56.18900 17.68800 43.11700
C  57.90100 19.16400 43.34500
N  55.86500 24.43600 43.92500
C  56.74100 23.42900 44.18800
C  58.15400 24.02100 44.49600
C  57.95800 25.57600 44.39600
C  56.41600 25.65900 44.22400
C  58.80000 23.50100 45.83100
C  58.55500 26.33900 43.15800
C  60.11300 26.26500 43.12900
N  53.47300 25.92000 43.96000
C  54.28600 26.95700 44.33400
C  53.47700 28.07800 44.68200
C  52.18500 27.69900 44.32500
C  52.20900 26.35000 43.91500
C  53.85900 29.37400 45.17100
C  50.90000 28.20400 44.25200
O  50.44800 29.30800 44.61900
C  50.00900 27.05800 43.59000
C  49.53600 27.51300 42.25900
O  50.23900 27.63300 41.28800
O  48.23100 27.81200 42.35200
C  47.73100 28.65500 41.22700
H  51.32400 20.06800 43.34600
H  57.44800 21.44800 44.45600
H  56.23400 27.62900 44.93300
H  48.89000 24.19000 44.13800
H  49.17600 21.71600 42.44100
H  48.29500 20.77800 44.01400
H  48.41700 22.13000 45.20300
H  49.68900 20.95400 45.10000
H  47.70100 24.96100 42.34700
H  47.86500 23.34800 41.92900
H  50.25300 24.52800 40.89400
H  48.88600 25.68500 40.54100
H  52.83700 17.99000 42.56300
H  52.32700 18.37700 44.16100
H  53.92400 17.52100 43.93500
H  58.42700 18.45700 42.70400
H  58.17200 19.16500 44.40100
H  58.02600 20.14200 42.88000
H  58.87400 23.67200 43.75600
H  58.19900 25.97600 45.38100
H  58.08100 23.11000 46.55100
H  59.44700 24.19500 46.36700
H  59.43000 22.63600 45.62100
H  58.21200 27.33000 43.45600
H  57.96000 26.14100 42.26600
H  60.35200 27.26000 43.50500
H  60.60400 26.04600 42.18100
H  60.42600 25.57400 43.91100
H  53.66500 30.18300 44.46700
H  54.93100 29.40700 45.36600
H  53.21500 29.50300 46.04100
H  49.16000 26.74600 44.19800
H  47.48500 27.98300 40.40500
H  48.49400 29.38900 40.96800
H  46.84900 29.18600 41.58800
Mg -2.40000 33.92100 27.68900
C  -4.09400 31.86200 29.95800
C  -1.31500 35.81000 30.26300
C  -1.28000 36.17700 25.43500
C  -3.96800 32.22800 25.08500
N  -2.72000 33.80700 29.83200
C  -3.36900 32.86800 30.57600
C  -3.17400 33.00600 32.09200
C  -2.29600 34.35500 32.15500
C  -2.07500 34.69700 30.66000
C  -2.97000 35.56200 33.00600
C  -2.55400 31.79700 32.83100
C  -3.15500 31.30400 34.17400
H  -2.14100 31.25300 35.33600
N  -1.33900 35.68700 27.85600
C  -0.86000 36.22000 28.98400
C  -0.00500 37.31600 28.63500
C  0.04400 37.41400 27.19600
C  -0.90800 36.46000 26.72100
C  0.69300 38.04100 29.68700
C  0.90900 38.30300 26.35000
O  0.83600 38.40900 25.12000
C  1.99800 39.09700 27.03300
N  -2.55700 34.07200 25.57800
C  -2.01700 35.13800 24.86500
C  -2.19500 34.93300 23.35800
C  -2.92800 33.56100 23.26800
C  -3.21900 33.28800 24.73700
C  -3.01900 36.10200 22.63400
C  -1.99200 32.40800 22.73900
C  -0.68200 31.92400 23.47900
N  -3.65100 32.27800 27.49900
C  -4.21800 31.68600 26.38300
C  -5.15800 30.70000 26.82500
C  -5.04900 30.65100 28.23100
C  -4.14600 31.66100 28.59000
C  -6.00600 29.89200 25.97100
C  -5.61200 30.02400 29.43500
O  -6.54100 29.18800 29.57700
C  -4.88000 30.69300 30.62800
C  -5.90600 31.06900 31.65900
O  -6.43400 32.17800 31.81300
O  -5.92600 29.97600 32.54300
C  -6.94700 30.05700 33.55100
H  -0.96700 36.42500 31.09600
H  -0.94800 36.92200 24.70800
H  -4.54600 31.69700 24.32500
H  -4.11600 33.15400 32.61900
H  -1.36000 34.17100 32.68300
H  -3.69500 35.93100 32.28100
H  -2.23000 36.29700 33.32200
H  -3.49600 35.12500 33.85500
H  -1.50800 32.00100 33.05900
H  -2.56100 31.06500 32.02300
H  -3.53000 30.29300 34.01500
H  -4.01500 31.87100 34.53000
H  0.47200 37.90000 30.74500
H  0.40000 39.08400 29.56300
H  1.73900 37.78200 29.52100
H  1.53900 39.72700 27.79400
H  2.46200 39.75000 26.29400
H  2.76600 38.47900 27.49900
H  -1.17500 34.85800 22.98200
H  -3.74700 33.68100 22.55800
H  -2.23900 36.83000 22.40700
H  -3.74900 36.59900 23.27300
H  -3.44800 35.79600 21.68000
H  -1.79200 32.72000 21.71400
H  -2.68200 31.56900 22.64500
H  -0.80900 30.84300 23.53500
H  -0.64900 32.29400 24.50400
H  0.29600 32.15000 23.05400
H  -5.72900 28.89100 26.30000
H  -5.79800 29.82000 24.90300
H  -7.04600 30.11800 26.20800
H  -4.04800 30.01800 30.82700
H  -7.56400 30.94500 33.40800
H  -6.45300 30.18000 34.51500
H  -7.53700 29.14100 33.55000

