158

Mg 49.17200 34.73400 26.69000
C  47.34500 33.65700 29.35200
C  49.02900 38.04100 27.87100
C  50.77300 35.93000 23.95000
C  48.28400 31.75000 25.03000
N  48.24400 35.65200 28.45200
C  47.76700 34.95600 29.52000
C  47.47500 35.88700 30.73900
C  47.65700 37.31700 30.05400
C  48.35600 37.01900 28.68400
C  46.39500 38.24100 29.99100
C  48.30400 35.60200 32.03500
C  47.52400 35.17400 33.26900
H  47.03200 36.29900 34.22300
N  49.96400 36.61000 26.12600
C  49.83900 37.82200 26.76200
C  50.80200 38.74500 26.17400
C  51.42500 38.08500 25.09200
C  50.73100 36.84900 25.00500
C  50.89500 40.13400 26.63100
C  52.47300 38.55500 24.11700
O  52.93100 37.87000 23.23200
C  52.93200 39.96400 24.24300
N  49.31200 33.99400 24.60200
C  50.10700 34.65400 23.70600
C  50.21100 33.79700 22.41100
C  49.58300 32.42800 22.83700
C  49.07300 32.68200 24.26900
C  49.64200 34.38100 21.12200
C  50.50200 31.26300 22.61800
C  49.95200 30.06400 21.72200
N  47.94200 33.05100 26.99700
C  47.75000 31.91600 26.32400
C  47.06300 30.92600 27.08100
C  46.87300 31.56800 28.29000
C  47.37700 32.88100 28.17800
C  46.61700 29.58700 26.65900
C  46.27200 31.41300 29.67600
O  45.66300 30.47500 30.13600
C  46.61000 32.79000 30.45300
C  47.48500 32.48900 31.58300
O  48.71300 32.38300 31.52700
O  46.72700 32.17800 32.64600
C  47.31900 31.34500 33.64200
H  48.87800 39.07800 28.17800
H  51.27400 36.33000 23.06600
H  48.17300 30.77700 24.54800
H  46.42300 35.77200 30.99700
H  48.40000 37.85300 30.64400
H  46.63800 39.04900 30.68100
H  45.53700 37.74200 30.44100
H  46.25000 38.63600 28.98500
H  48.88700 36.47300 32.33400
H  49.00000 34.79600 31.80200
H  48.18600 34.50500 33.82100
H  46.61600 34.61600 33.04000
H  50.38400 40.75600 25.89700
H  51.88800 40.55100 26.79800
H  50.33900 40.30600 27.55300
H  53.40900 40.07500 25.21700
H  52.23000 40.79600 24.18400
H  53.73100 40.18300 23.53400
H  51.29000 33.72100 22.27600
H  48.63800 32.23200 22.33200
H  48.64500 33.97300 20.95600
H  50.14800 34.17000 20.18000
H  49.58800 35.46200 21.25400
H  50.88300 30.88400 23.56700
H  51.37100 31.57400 22.03700
H  49.56600 30.51500 20.80800
H  49.20000 29.41900 22.17700
H  50.89400 29.53000 21.59300
H  47.40700 28.91000 26.33200
H  45.92700 29.69200 25.82100
H  46.10900 29.10000 27.49200
H  45.74900 33.40500 30.71300
H  47.25100 30.32900 33.25400
H  46.76000 31.52200 34.56000
H  48.36200 31.55700 33.87900
Mg -12.68900 15.80400 42.47400
C  -9.66100 14.08800 42.15400
C  -11.08300 18.47000 41.05000
C  -15.81100 17.15100 41.64500
C  -14.25500 12.92100 43.39600
N  -10.54400 16.20700 41.76000
C  -9.50600 15.33000 41.62500
C  -8.23300 16.06100 41.07300
C  -8.65700 17.56300 41.12000
C  -10.18100 17.44300 41.30900
C  -7.96500 18.50800 42.14400
C  -7.78000 15.47200 39.69700
C  -6.39400 15.50300 39.32000
H  -6.14100 16.32100 38.11300
N  -13.34000 17.68800 41.47400
C  -12.45800 18.65600 41.02900
C  -13.26400 19.76100 40.61800
C  -14.66700 19.48900 40.97000
C  -14.66800 18.05900 41.35800
C  -12.65000 21.04900 40.03100
C  -15.84600 20.36700 40.82100
O  -15.72100 21.54000 40.35600
C  -17.20800 20.09900 41.26300
N  -14.72500 15.10600 42.34000
C  -15.85100 15.83000 42.16700
C  -17.16800 15.08500 42.44300
C  -16.56600 13.81600 43.21700
C  -15.09000 13.95800 42.94100
C  -18.34600 15.88900 43.11200
C  -17.17600 12.38100 42.63200
C  -17.94700 11.50100 43.68800
N  -12.05700 13.85800 42.87600
C  -12.81900 12.81600 43.32600
C  -11.98400 11.76600 43.64600
C  -10.69200 12.20200 43.20400
C  -10.79100 13.51700 42.74300
C  -12.28000 10.42600 44.24600
C  -9.28800 11.77900 43.05600
O  -8.62800 10.80300 43.45100
C  -8.58600 12.97400 42.31900
C  -7.38600 13.38900 43.01400
O  -7.35900 14.11500 44.05300
O  -6.31300 12.96900 42.30900
C  -4.99900 13.69500 42.68600
H  -10.44300 19.29300 40.72500
H  -16.79100 17.54800 41.37000
H  -14.73900 12.19600 44.05200
H  -7.49200 15.90000 41.85600
H  -8.43100 18.08900 40.19300
H  -7.81300 17.94900 43.06700
H  -8.65500 19.32600 42.35100
H  -7.01200 18.95000 41.85200
H  -8.37500 16.06500 39.00300
H  -8.16100 14.45100 39.73100
H  -5.98800 14.49600 39.22200
H  -5.73400 15.92300 40.07900
H  -12.56200 21.85800 40.75600
H  -13.21400 21.41700 39.17400
H  -11.62800 20.77000 39.77300
H  -17.75600 19.53000 40.51200
H  -17.69100 21.06000 41.44000
H  -17.14000 19.52300 42.18600
H  -17.51300 14.72500 41.47400
H  -16.87700 13.91800 44.25600
H  -18.11800 16.95200 43.02800
H  -18.53200 15.68500 44.16700
H  -19.32300 15.71000 42.66300
H  -16.38000 11.80200 42.16300
H  -17.79700 12.43700 41.73800
H  -17.44500 10.54300 43.82300
H  -18.98300 11.42800 43.35500
H  -17.96800 11.99900 44.65700
H  -13.03200 10.50300 45.03100
H  -11.40500 10.00600 44.74200
H  -12.49500 9.59200 43.57800
H  -8.35400 12.65000 41.30400
H  -4.30300 13.35800 41.91700
H  -4.63700 13.56400 43.70500
H  -5.14800 14.77300 42.62600

