158

Mg 24.01400 -6.62300 46.70200
C  26.20000 -4.38000 45.09500
C  21.45500 -5.50200 44.83000
C  22.48600 -9.58500 47.13000
C  27.04000 -8.04700 48.08900
N  23.92800 -5.19700 45.19300
C  24.89900 -4.37100 44.68100
C  24.26800 -3.30700 43.78600
C  22.75500 -3.42400 44.02200
C  22.64300 -4.82700 44.76200
C  21.94400 -2.22500 44.75100
C  24.61600 -3.60600 42.28900
C  25.18400 -2.34700 41.52900
H  24.75600 -2.28300 40.07800
N  22.04900 -7.36400 46.23100
C  21.15800 -6.69100 45.49700
C  19.97700 -7.41900 45.46500
C  20.21300 -8.67300 46.20000
C  21.61400 -8.58800 46.58900
C  18.72000 -6.95500 44.74600
C  19.12000 -9.66000 46.51300
O  17.98600 -9.52200 46.05000
C  19.29100 -10.64400 47.66900
N  24.64200 -8.53800 47.60700
C  23.81100 -9.62100 47.62000
C  24.45100 -10.86300 48.32700
C  25.89200 -10.31700 48.68900
C  25.84600 -8.86700 48.11100
C  23.58000 -11.38200 49.45300
C  27.15300 -11.10900 48.25200
C  28.41500 -11.07900 49.14000
N  26.19700 -6.19600 46.81700
C  27.28700 -6.84300 47.41600
C  28.43500 -6.06300 47.23900
C  28.09900 -5.10300 46.22600
C  26.73300 -5.24300 45.99300
C  29.74500 -6.30500 47.86800
C  28.62800 -4.05900 45.38300
O  29.75000 -3.58600 45.16600
C  27.37000 -3.53600 44.57200
C  27.27900 -2.05700 44.76700
O  27.51300 -1.23600 43.86000
O  26.71300 -1.69000 45.99800
C  26.83500 -0.22600 46.23800
H  20.57300 -5.18400 44.27100
H  22.07500 -10.59400 47.05100
H  27.92900 -8.54000 48.48600
H  24.68100 -2.35700 44.12500
H  22.37800 -3.48300 43.00100
H  21.28700 -1.84100 43.97000
H  22.61800 -1.41700 45.03700
H  21.31800 -2.57500 45.57100
H  23.88100 -4.17800 41.72300
H  25.47900 -4.26300 42.18700
H  26.26600 -2.33900 41.65800
H  24.71300 -1.47500 41.98300
H  18.10700 -7.71100 44.25600
H  19.01000 -6.26000 43.95800
H  18.11100 -6.33400 45.40300
H  19.88400 -10.25000 48.49400
H  19.78400 -11.50800 47.22300
H  18.33600 -10.99400 48.06000
H  24.64000 -11.70200 47.65600
H  26.00000 -10.18900 49.76600
H  23.18900 -12.37700 49.24500
H  22.71600 -10.72000 49.50900
H  24.04400 -11.27300 50.43300
H  27.31500 -10.83900 47.20800
H  26.80400 -12.13900 48.31900
H  29.31800 -11.10700 48.53000
H  28.33800 -12.08400 49.55600
H  28.45200 -10.31500 49.91600
H  30.30000 -7.01800 47.25800
H  29.67900 -6.49800 48.93900
H  30.22100 -5.34800 47.65100
H  27.57700 -3.67900 43.51100
H  27.79000 0.24800 46.00900
H  26.80700 -0.03600 47.31100
H  25.98900 0.29800 45.79400
Mg 7.15400 54.30200 40.94900
C  6.87100 50.69700 41.00300
C  10.43700 53.75600 40.11300
C  7.30500 57.50300 40.08900
C  3.86900 54.45000 41.87700
N  8.46800 52.38600 40.55200
C  8.12900 51.06600 40.65600
C  9.39600 50.15900 40.47400
C  10.59200 51.16800 40.65300
C  9.84000 52.55800 40.50100
C  11.53500 51.04900 41.84200
C  9.39300 49.38600 39.08200
C  9.12000 50.30100 37.85000
H  7.72100 50.36400 37.20500
N  8.67400 55.52000 40.20800
C  9.89600 55.09100 39.83200
C  10.58300 56.14900 39.18200
C  9.80900 57.32100 39.21100
C  8.53000 56.83600 39.85900
C  11.99300 56.01200 38.55900
C  10.11800 58.79700 38.75900
O  11.27300 59.05200 38.41100
C  9.07700 59.92700 38.73300
N  5.81000 55.68900 40.83600
C  6.13000 57.03300 40.59900
C  4.95200 57.93400 40.99100
C  3.82500 56.94400 41.49800
C  4.51000 55.62800 41.36500
C  5.33000 59.09000 41.96400
C  2.47900 57.12800 40.70900
C  1.31400 57.84400 41.39500
N  5.58400 52.93900 41.28900
C  4.28300 53.12100 41.74300
C  3.69100 51.82700 42.18700
C  4.66700 50.90400 41.89100
C  5.80300 51.62500 41.32500
C  2.41000 51.68600 42.90200
C  4.93800 49.50500 41.95800
O  4.31600 48.68500 42.54000
C  6.33700 49.27600 41.30100
C  6.07900 48.47700 40.06100
O  5.92400 48.83400 38.90400
O  5.93700 47.19800 40.41500
C  5.36500 46.25700 39.45700
H  11.45300 53.46700 39.83600
H  7.29300 58.58600 39.94400
H  2.92300 54.70900 42.35500
H  9.35900 49.47200 41.31900
H  11.25700 51.11000 39.79100
H  12.57700 50.94600 41.54000
H  11.27300 50.33900 42.62700
H  11.44700 51.98200 42.39900
H  8.79300 48.47900 39.16100
H  10.43000 49.08500 38.92700
H  9.91900 49.97000 37.18600
H  9.22400 51.34100 38.16100
H  12.15700 54.96100 38.31800
H  12.81300 56.36000 39.18700
H  11.85200 56.61900 37.66400
H  8.17400 59.68000 38.17600
H  9.43800 60.83700 38.25400
H  8.73500 60.21600 39.72700
H  4.55600 58.37000 40.07400
H  3.61900 57.14500 42.54900
H  6.36100 59.40200 41.79700
H  5.04300 58.84800 42.98800
H  4.61500 59.89800 41.81300
H  2.11900 56.15500 40.37600
H  2.63400 57.69300 39.78900
H  1.58700 58.23000 42.37600
H  0.45600 57.18400 41.52200
H  0.92900 58.69200 40.82800
H  2.49600 52.21000 43.85400
H  2.00900 50.72500 43.22500
H  1.59200 52.17000 42.36900
H  7.08100 48.74300 41.89400
H  4.94700 45.40700 39.99700
H  6.11800 45.91400 38.74700
H  4.49400 46.65700 38.93900

