158

Mg 26.04400 50.30300 27.10700
C  24.09600 51.43400 29.84400
C  28.46200 49.32300 29.45300
C  27.95500 49.21600 24.56400
C  23.62900 51.44300 24.96300
N  26.26200 50.29300 29.40100
C  25.27000 50.83700 30.26200
C  25.63900 50.36500 31.72100
C  27.09100 49.82200 31.57400
C  27.28600 49.80900 30.05600
C  28.23500 50.51200 32.39700
C  24.52700 49.35400 32.39700
C  23.88700 49.82900 33.71100
H  24.93400 50.15800 34.87500
N  27.89000 49.47200 26.96500
C  28.77900 49.26800 28.05400
C  30.04700 48.71500 27.55500
C  29.95300 48.62500 26.08900
C  28.55000 49.07700 25.85400
C  31.11500 48.29200 28.48100
C  30.99500 48.12000 25.12900
O  30.70500 48.02900 23.92400
C  32.38700 47.73700 25.61300
N  25.90900 50.38100 25.06000
C  26.76500 49.76600 24.18900
C  26.36100 50.01300 22.68200
C  24.84600 50.22000 22.92400
C  24.70300 50.71300 24.43700
C  27.19200 51.13600 21.95000
C  23.91400 49.00400 22.61000
C  23.31200 48.09500 23.75200
N  24.32200 51.33600 27.27400
C  23.42500 51.70700 26.27800
C  22.26900 52.34100 26.85600
C  22.51600 52.28800 28.28300
C  23.76800 51.65600 28.47800
C  21.07500 52.97300 26.17100
C  21.98300 52.63200 29.59900
O  20.86500 53.10500 29.89400
C  23.00600 52.08600 30.69500
C  23.42200 53.10900 31.58900
O  24.54200 53.64900 31.58300
O  22.46400 53.33200 32.61100
C  22.82200 54.22800 33.75600
H  29.24900 48.99600 30.13500
H  28.50300 48.83800 23.69800
H  22.83200 51.54600 24.22400
H  25.64900 51.32600 32.23500
H  27.08500 48.78800 31.91800
H  28.83100 49.65200 32.70100
H  27.86200 51.00800 33.29300
H  28.90500 51.05100 31.72700
H  25.03100 48.44300 32.71800
H  23.79100 49.17000 31.61500
H  23.40300 48.97000 34.17700
H  23.16600 50.63600 33.57800
H  30.93900 47.25300 28.76200
H  31.13300 48.79800 29.44600
H  32.10100 48.32300 28.01700
H  32.80700 48.62900 26.07800
H  33.07600 47.57100 24.78500
H  32.26700 46.87000 26.26200
H  26.50700 49.05100 22.19200
H  24.41800 51.01400 22.31100
H  28.03900 51.61700 22.43900
H  26.43200 51.82900 21.58900
H  27.52300 50.57200 21.07800
H  24.28400 48.38500 21.79300
H  23.03100 49.40300 22.11100
H  23.75100 47.09800 23.70900
H  22.24500 47.95300 23.58400
H  23.43900 48.46300 24.77000
H  21.02100 52.54500 25.17000
H  21.12300 54.06100 26.21700
H  20.17400 52.66300 26.70000
H  22.42800 51.48400 31.39600
H  22.61800 55.27900 33.54900
H  23.89200 54.14400 33.94700
H  22.13400 54.04800 34.58200
Mg 9.31100 48.20800 26.08200
C  6.87000 48.71600 28.57300
C  11.52400 49.83500 28.11300
C  11.50400 48.03800 23.58700
C  6.65500 47.76000 23.77100
N  9.13400 49.26300 28.03900
C  8.17900 49.16400 28.92000
C  8.61700 49.44600 30.33000
C  9.93000 50.31300 30.04100
C  10.22800 49.73000 28.61300
C  9.88800 51.85000 30.10800
C  8.86000 48.18700 31.24300
C  8.05100 48.16900 32.54600
H  8.00700 46.77100 33.36000
N  11.32600 48.72100 25.92300
C  12.03700 49.40700 26.84700
C  13.39700 49.41400 26.37400
C  13.42400 48.80300 25.08100
C  12.06000 48.52700 24.77400
C  14.51600 49.82400 27.29000
C  14.58000 48.54200 24.15700
O  14.45300 48.25000 22.93700
C  16.02600 48.67700 24.64900
N  9.06700 48.15300 23.86200
C  10.14500 47.79400 23.13500
C  9.72800 47.20500 21.71100
C  8.12400 47.31600 21.79900
C  7.91700 47.75200 23.27100
C  10.39500 47.96400 20.50500
C  7.35500 46.05600 21.37700
C  6.71800 46.06600 19.95500
N  7.20000 48.09700 26.13300
C  6.28800 47.95600 25.14600
C  4.95300 47.92400 25.67400
C  5.16100 48.10100 27.10300
C  6.54900 48.19500 27.30000
C  3.74000 47.75000 24.90100
C  4.52200 48.28000 28.29600
O  3.32700 48.35100 28.63400
C  5.62400 48.60700 29.34800
C  5.56700 47.40100 30.22400
O  6.31100 46.43300 30.25400
O  4.48900 47.56700 31.08400
C  4.35900 46.47800 32.01500
H  12.17800 50.54000 28.63100
H  12.30000 47.71500 22.91300
H  5.81400 47.41300 23.16800
H  7.88300 50.15000 30.72100
H  10.85000 50.00900 30.54000
H  8.84800 52.13800 30.26400
H  10.26500 52.31700 29.19800
H  10.50700 52.11800 30.96300
H  9.91800 48.14200 31.50300
H  8.66800 47.27800 30.67300
H  7.02600 48.30900 32.20200
H  8.44200 49.03600 33.07900
H  14.12500 50.23500 28.22100
H  15.21700 50.56200 26.90100
H  15.01100 48.91800 27.64100
H  16.12500 48.14900 25.59800
H  16.24000 49.69100 24.98800
H  16.73900 48.36600 23.88600
H  10.01100 46.15200 21.71200
H  7.74500 48.09300 21.13500
H  10.87600 47.15900 19.94900
H  11.06800 48.75400 20.83900
H  9.53000 48.41200 20.01600
H  6.62000 45.90700 22.16800
H  8.02500 45.19700 21.35700
H  6.34300 47.07200 19.76700
H  5.87200 45.38600 19.85600
H  7.47300 45.82900 19.20500
H  3.79900 46.72200 24.54100
H  3.79800 48.48300 24.09600
H  2.83900 47.83600 25.50800
H  5.25900 49.48200 29.88600
H  3.50600 46.56200 32.68900
H  5.20200 46.42100 32.70400
H  4.34400 45.50600 31.52200

