158

Mg 7.57800 2.31000 27.50300
C  9.15900 1.28100 30.49800
C  5.66900 4.50900 29.28000
C  6.00800 3.17100 24.64600
C  9.15000 -0.32700 25.88500
N  7.46700 2.89700 29.65600
C  8.18300 2.29800 30.71400
C  7.73900 2.92300 32.06200
C  6.53600 3.88300 31.66800
C  6.50900 3.69800 30.11400
C  5.13100 3.58600 32.20300
C  8.96100 3.55600 32.87500
C  9.29900 2.92800 34.19800
H  9.85100 3.85700 35.27000
N  6.14100 3.71200 26.99000
C  5.57700 4.58300 27.88300
C  4.71400 5.53000 27.16900
C  4.82200 5.13000 25.79600
C  5.66400 3.98100 25.74300
C  4.07200 6.74700 27.76700
C  4.23400 5.76600 24.58700
O  4.48100 5.31600 23.47400
C  3.45200 7.05200 24.70000
N  7.59200 1.50200 25.59400
C  6.80600 2.01400 24.63100
C  6.88600 1.13200 23.35700
C  7.87400 0.03600 23.81000
C  8.25200 0.45800 25.17300
C  5.49400 0.65200 22.81800
C  9.14200 0.03900 22.77500
C  9.28000 -1.35300 22.17400
N  8.93300 0.80900 28.05100
C  9.45100 -0.22200 27.25200
C  10.43800 -0.99300 28.04600
C  10.37800 -0.41000 29.29100
C  9.38100 0.59700 29.30500
C  11.33000 -2.06700 27.55000
C  10.91200 -0.52100 30.62200
O  11.75300 -1.25700 31.10700
C  10.19100 0.65400 31.48600
C  9.62000 0.05000 32.72100
O  8.44800 -0.29200 32.82900
O  10.54900 -0.14000 33.78000
C  10.05600 -0.62800 35.07600
H  4.99900 5.21200 29.77900
H  5.58300 3.25100 23.64300
H  9.57800 -1.11000 25.25500
H  7.33000 2.03500 32.54300
H  6.62500 4.95400 31.85000
H  4.36000 3.93900 31.51800
H  4.99200 4.19300 33.09800
H  5.00700 2.51500 32.36200
H  8.75500 4.61700 33.01800
H  9.76900 3.58200 32.14400
H  10.12400 2.26300 33.94300
H  8.41200 2.40600 34.55900
H  2.99200 6.61100 27.73600
H  4.40500 7.70900 27.37700
H  4.23100 6.80200 28.84500
H  3.05500 7.31100 23.71800
H  4.16900 7.74400 25.14100
H  2.56900 6.98100 25.33500
H  7.30900 1.79900 22.60600
H  7.29200 -0.88600 23.82600
H  4.70500 0.94800 23.51000
H  5.43500 -0.43500 22.77100
H  5.34300 1.07400 21.82500
H  10.01300 0.46900 23.26800
H  8.95600 0.69200 21.92300
H  10.29700 -1.52500 21.82100
H  8.53700 -1.34300 21.37700
H  8.93500 -2.00900 22.97400
H  10.83400 -2.88100 28.07800
H  12.34000 -1.97000 27.94800
H  11.19900 -2.34800 26.50500
H  10.81700 1.44300 31.90200
H  9.42000 0.10300 35.57500
H  10.81700 -1.05500 35.73000
H  9.33600 -1.43900 34.96500
Mg 5.65200 52.93600 41.46600
C  4.49700 49.67400 40.95300
C  8.64200 52.01200 40.06900
C  6.45700 56.23800 41.14800
C  2.33900 53.74300 41.99800
N  6.43200 51.00300 40.52200
C  5.80900 49.82000 40.40300
C  6.72300 48.67400 39.94200
C  8.10400 49.42600 40.03700
C  7.74300 50.89800 40.10700
C  9.07700 49.07600 41.17200
C  6.46700 48.25200 38.47900
C  6.17600 49.29700 37.43600
H  5.69200 48.74700 36.06400
N  7.35000 53.98900 40.83000
C  8.50300 53.41500 40.29600
C  9.48100 54.46900 39.97900
C  8.79900 55.69900 40.28200
C  7.46700 55.36700 40.81500
C  10.92000 54.17400 39.57500
C  9.42000 57.12200 40.26000
O  10.48100 57.22000 39.73100
C  8.83200 58.28800 40.91300
N  4.57300 54.82800 41.75700
C  5.08400 56.07300 41.49200
C  4.02700 57.14600 41.50200
C  2.71300 56.32400 41.87600
C  3.23300 54.87800 41.91300
C  4.19500 58.29500 42.44500
C  1.57100 56.68100 40.89300
C  1.41900 55.87800 39.61000
N  3.88200 51.95000 41.68300
C  2.64600 52.38200 42.10300
C  1.68600 51.31000 42.31600
C  2.44300 50.18900 42.00500
C  3.69800 50.66300 41.54200
C  0.17000 51.42600 42.59000
C  2.35800 48.76600 41.73500
O  1.43200 47.96100 41.88600
C  3.69000 48.41600 41.08200
C  3.32300 48.00400 39.73100
O  2.93800 48.75600 38.81200
O  3.40700 46.68700 39.63600
C  3.05500 46.06400 38.34600
H  9.61500 51.62700 39.75400
H  6.48600 57.30700 40.92300
H  1.29600 54.01800 42.16900
H  6.69400 47.73900 40.50300
H  8.64900 49.43500 39.09400
H  8.82400 48.05300 41.44900
H  9.00000 49.66800 42.08400
H  10.08300 49.22100 40.77800
H  5.59600 47.60000 38.55300
H  7.24600 47.56500 38.14900
H  7.12000 49.84000 37.37800
H  5.44800 49.99300 37.85400
H  11.34400 53.34600 40.14400
H  11.59100 55.01100 39.76600
H  11.09200 53.99500 38.51400
H  9.60800 59.02800 41.11300
H  8.42300 57.94000 41.86100
H  8.09000 58.78500 40.28900
H  4.06100 57.48100 40.46600
H  2.37000 56.60800 42.87100
H  5.01900 58.10800 43.13300
H  3.24900 58.49700 42.94800
H  4.30200 59.23800 41.91000
H  1.53400 57.70900 40.53500
H  0.66100 56.45500 41.44900
H  2.40300 55.60700 39.22900
H  0.93600 56.46200 38.82700
H  0.84500 54.96500 39.77000
H  -0.19000 50.64800 43.26400
H  -0.41500 51.47500 41.67200
H  0.02700 52.39700 43.06500
H  4.28900 47.58900 41.46300
H  3.86200 45.35200 38.17200
H  3.00700 46.76900 37.51600
H  2.04800 45.64900 38.39200

