158

Mg 49.44200 34.99100 28.16800
C  47.28600 33.49900 30.44300
C  49.62600 37.83600 30.13700
C  51.24200 36.46300 25.77300
C  49.14100 32.09100 26.24200
N  48.53600 35.57200 29.97900
C  47.84300 34.73300 30.87100
C  47.97400 35.25600 32.35500
C  48.26200 36.81400 32.07500
C  48.81400 36.75400 30.65700
C  47.01800 37.76100 32.32800
C  49.18000 34.56700 33.12500
C  49.27400 34.69000 34.69200
H  48.24600 35.49600 35.40600
N  50.37900 36.88300 27.99300
C  50.28400 37.90600 28.89800
C  51.14100 38.96400 28.45800
C  51.65800 38.61100 27.12100
C  51.10300 37.25400 26.85000
C  51.32700 40.25500 29.29200
C  52.61300 39.33200 26.23200
O  53.00100 38.86800 25.18400
C  52.98400 40.73000 26.57000
N  49.95700 34.43300 26.13300
C  50.82400 35.16700 25.39300
C  51.32000 34.31600 24.20100
C  50.76200 32.88900 24.50600
C  49.87400 33.16400 25.69100
C  50.98700 34.91500 22.85800
C  51.88000 31.83200 24.79000
C  51.83900 30.58800 23.86000
N  48.29400 33.23100 28.17700
C  48.30800 32.16700 27.36500
C  47.57100 31.13300 27.90500
C  47.05500 31.61800 29.06200
C  47.50600 32.92700 29.21400
C  47.43600 29.74600 27.39900
C  46.16000 31.38500 30.13400
O  45.50200 30.44100 30.45600
C  46.17700 32.65700 31.14800
C  46.53600 32.25500 32.52500
O  47.47900 31.58800 32.84500
O  45.47200 32.60900 33.36500
C  45.69000 32.45200 34.80100
H  49.68200 38.74800 30.73500
H  51.89300 36.80200 24.96400
H  49.42900 31.15800 25.75300
H  47.01900 35.02600 32.82600
H  49.09100 37.20600 32.66500
H  46.56800 38.11000 31.39900
H  47.18300 38.68900 32.87500
H  46.28200 37.10400 32.79200
H  50.12000 35.02000 32.81000
H  49.15800 33.53000 32.78900
H  50.20900 35.21200 34.89400
H  49.27700 33.69100 35.12800
H  52.38900 40.49800 29.33700
H  50.93900 40.33500 30.30700
H  50.93400 41.08400 28.70400
H  51.99100 41.16300 26.68900
H  53.47800 41.13800 25.68800
H  53.70400 40.69500 27.38700
H  52.40300 34.42400 24.24800
H  50.20100 32.47500 23.66800
H  51.97000 35.03100 22.40200
H  50.41100 35.82000 23.05200
H  50.40800 34.23300 22.23500
H  51.90400 31.57000 25.84700
H  52.83800 32.32100 24.61300
H  51.44900 29.82600 24.53500
H  52.80500 30.30100 23.44200
H  51.10500 30.75600 23.07200
H  48.08100 29.05400 27.94000
H  47.91800 29.79500 26.42200
H  46.40900 29.38400 27.35900
H  45.18500 33.10300 31.22300
H  46.76900 32.43200 34.95200
H  45.25500 31.55500 35.24200
H  45.40000 33.34900 35.34900
Mg 17.13700 50.67700 26.30600
C  18.75600 49.50800 29.14900
C  14.58000 51.93300 28.18800
C  15.56100 51.81900 23.40100
C  19.69700 49.31600 24.24200
N  16.77800 50.74500 28.38200
C  17.60800 50.36200 29.42000
C  17.01000 50.79500 30.83800
C  15.52600 51.07900 30.42800
C  15.61000 51.29600 28.86200
C  14.47700 50.01100 30.92700
C  17.85200 51.82700 31.55500
C  18.20200 51.56200 33.04500
H  17.21900 50.84900 33.98300
N  15.33200 51.67600 25.85000
C  14.45900 52.20100 26.79100
C  13.47800 53.07700 26.10500
C  13.83500 53.10900 24.75500
C  14.94900 52.11100 24.65900
C  12.38200 53.76500 26.89600
C  13.35400 54.01800 23.53400
O  13.71200 53.87900 22.33900
C  12.38700 55.24600 23.87600
N  17.55100 50.57000 24.17900
C  16.74900 51.07700 23.16400
C  17.19700 50.53200 21.78200
C  18.68100 50.26400 22.07900
C  18.70400 50.06500 23.56200
C  16.29900 49.33200 21.29600
C  19.72900 51.25700 21.55900
C  19.87600 52.57600 22.30200
N  18.88200 49.61000 26.53200
C  19.85000 49.10400 25.63000
C  20.96900 48.50800 26.41100
C  20.52300 48.52800 27.76900
C  19.31500 49.26700 27.81800
C  22.20900 47.75000 25.84900
C  20.91500 48.15500 29.11000
O  21.86200 47.50500 29.60900
C  19.80100 48.84700 30.04500
C  19.16600 47.88300 31.01900
O  18.27900 47.04300 30.75200
O  19.78700 48.00300 32.27200
C  19.39100 47.16400 33.31800
H  13.92500 52.42500 28.90900
H  15.01600 51.96600 22.46600
H  20.50900 48.86300 23.67000
H  17.12400 49.94200 31.50700
H  15.24000 52.08300 30.73900
H  15.05300 49.25100 31.45500
H  13.79400 49.69700 30.13800
H  13.82500 50.51200 31.64200
H  17.22200 52.71600 31.52200
H  18.70800 51.96300 30.89400
H  18.35100 52.58800 33.38200
H  19.21700 51.18600 33.17600
H  11.51100 53.91100 26.25600
H  12.72400 54.76900 27.14900
H  12.02300 53.20800 27.76100
H  11.30800 55.08800 23.87200
H  12.59900 56.03100 23.14900
H  12.61600 55.82600 24.77000
H  17.13800 51.33200 21.04400
H  18.92800 49.32600 21.58200
H  16.87200 48.45600 20.99500
H  15.61500 49.71700 20.53900
H  15.63400 49.01400 22.09900
H  19.54600 51.59200 20.53800
H  20.68800 50.73900 21.57300
H  19.18000 52.54900 23.14100
H  19.65200 53.39700 21.62100
H  20.88000 52.75200 22.68700
H  21.95900 47.48700 24.82100
H  22.45300 46.77800 26.27700
H  23.02800 48.45200 26.01000
H  20.41900 49.54000 30.61500
H  19.49900 47.70600 34.25800
H  19.98800 46.27100 33.13500
H  18.33000 46.95000 33.44600

