158

Mg 8.27400 3.10000 27.77900
C  9.80200 1.91200 30.68000
C  6.72900 5.59000 29.48700
C  6.36200 3.68400 25.05400
C  10.06600 0.66300 26.01100
N  8.22300 3.62300 29.76800
C  8.91400 3.04900 30.81300
C  8.52000 3.73300 32.18100
C  7.59000 4.85100 31.72400
C  7.47700 4.68900 30.18000
C  6.27600 5.07000 32.57300
C  9.89500 4.09100 32.97100
C  9.76200 5.17300 34.03500
H  10.54900 4.96700 35.39900
N  6.78900 4.48800 27.34700
C  6.35900 5.48300 28.14900
C  5.31600 6.32100 27.44300
C  5.11400 5.66800 26.21400
C  6.06900 4.57200 26.14300
C  4.68700 7.47100 28.01400
C  4.10100 5.99400 25.17000
O  4.05500 5.40400 24.12400
C  3.18200 7.13600 25.27400
N  8.14700 2.23100 25.78200
C  7.22100 2.65800 24.89300
C  7.36400 1.80100 23.55400
C  8.73500 1.11800 23.82800
C  9.00000 1.33800 25.29700
C  6.16900 0.87700 23.25200
C  9.96200 1.56200 22.99900
C  10.91600 0.48700 22.62500
N  9.61600 1.61800 28.18500
C  10.14400 0.59500 27.36900
C  10.93900 -0.31400 28.15600
C  10.87200 0.24100 29.45300
C  10.04600 1.33200 29.44500
C  11.85700 -1.44400 27.75700
C  11.37500 0.08600 30.83400
O  12.25100 -0.62800 31.33500
C  10.57700 1.13000 31.70400
C  9.71400 0.33300 32.59400
O  8.56600 -0.00500 32.30200
O  10.43700 0.10800 33.81200
C  9.59100 -0.70700 34.71700
H  6.29300 6.36500 30.12000
H  5.77600 3.89500 24.15700
H  10.69200 -0.08700 25.52300
H  8.09400 2.87500 32.70000
H  8.19200 5.72600 31.97000
H  5.36500 5.37700 32.05900
H  6.41800 5.86100 33.30900
H  5.98900 4.15200 33.08600
H  10.66600 4.46800 32.29900
H  10.24800 3.19900 33.48900
H  8.68800 5.32600 34.14200
H  10.16000 6.08500 33.59000
H  3.65600 7.40000 28.35900
H  4.56500 8.31700 27.33700
H  5.26100 7.85900 28.85500
H  2.78500 7.11800 26.28900
H  2.42500 6.92300 24.51800
H  3.71800 8.07900 25.17200
H  7.41000 2.53800 22.75200
H  8.77900 0.06200 23.56200
H  6.32800 -0.13500 22.87800
H  5.45400 1.35900 22.58500
H  5.62100 0.78000 24.18900
H  10.60200 2.29200 23.49400
H  9.56100 2.03500 22.10300
H  10.82700 -0.42500 23.21500
H  11.90400 0.91400 22.79300
H  10.83800 0.25400 21.56300
H  12.84000 -1.19600 28.15800
H  11.88500 -1.59000 26.67700
H  11.55900 -2.40800 28.17000
H  11.26400 1.81400 32.20300
H  9.16900 -1.47400 34.06700
H  8.83100 -0.11400 35.22500
H  10.14100 -1.24800 35.48700
Mg -6.07600 24.89400 25.08500
C  -4.53700 26.15000 28.11700
C  -7.53500 22.48100 27.10600
C  -6.83600 23.31600 22.33900
C  -3.83900 27.10100 23.35600
N  -5.95400 24.37800 27.30900
C  -5.33900 25.05600 28.32300
C  -5.83900 24.62400 29.64000
C  -6.55800 23.20100 29.32800
C  -6.57600 23.26100 27.77900
C  -5.83700 21.95600 29.89900
C  -6.82000 25.69000 30.26300
C  -6.62500 25.96800 31.73600
H  -5.86900 24.92100 32.58500
N  -7.24700 23.30000 24.78600
C  -7.81500 22.49600 25.70600
C  -8.69500 21.56400 25.01400
C  -8.45400 21.73100 23.63400
C  -7.46000 22.83600 23.51900
C  -9.48100 20.57200 25.79300
C  -8.97100 20.87500 22.41100
O  -8.68700 21.10600 21.24500
C  -10.00600 19.77800 22.59700
N  -5.43700 25.16900 23.14100
C  -5.96200 24.39600 22.10700
C  -5.50700 24.80400 20.74200
C  -4.58500 26.04200 21.02100
C  -4.59100 26.14800 22.61300
C  -4.73100 23.66500 19.99700
C  -5.02300 27.37000 20.28200
C  -4.01400 27.97400 19.37200
N  -4.50300 26.37000 25.52000
C  -3.76700 27.19500 24.70500
C  -2.89100 28.01900 25.47200
C  -3.16300 27.64500 26.81200
C  -4.19900 26.69500 26.78400
C  -1.82200 28.96500 24.83900
C  -2.79400 27.89900 28.22100
O  -1.97200 28.62300 28.69000
C  -3.75600 26.97900 29.06700
C  -2.91200 26.32800 30.09800
O  -2.27200 25.31700 29.88000
O  -2.84800 27.13300 31.23100
C  -1.87500 26.75900 32.28100
H  -8.12900 21.81900 27.74000
H  -7.13400 22.66100 21.51700
H  -3.35300 27.85200 22.73000
H  -4.92800 24.44600 30.21200
H  -7.60500 23.19600 29.62800
H  -4.99900 22.17700 30.56000
H  -5.51100 21.41900 29.00800
H  -6.59400 21.35300 30.40200
H  -7.83200 25.30200 30.14800
H  -6.97900 26.60300 29.69000
H  -7.49100 26.16400 32.36800
H  -6.03800 26.87600 31.87000
H  -8.87100 19.68500 25.96500
H  -10.37100 20.22200 25.27000
H  -9.88300 21.05600 26.68300
H  -9.70600 19.00200 23.30200
H  -10.21700 19.37900 21.60500
H  -10.91600 20.27900 22.92600
H  -6.42400 25.06500 20.21400
H  -3.54900 25.81900 20.76500
H  -3.95700 23.98800 19.30000
H  -5.49100 23.03100 19.53900
H  -4.17100 22.96900 20.62000
H  -5.21300 28.08400 21.08400
H  -5.92700 27.21800 19.69100
H  -3.93500 29.04300 19.56800
H  -4.36500 27.87100 18.34500
H  -3.03500 27.50100 19.44400
H  -2.07200 30.02300 24.92100
H  -1.61800 28.67700 23.80800
H  -0.83400 28.76200 25.25200
H  -4.50400 27.60700 29.55100
H  -0.85300 27.01400 32.00000
H  -1.85200 25.67100 32.35500
H  -2.25400 27.14800 33.22500

