158

Mg 43.43700 3.31900 47.16800
C  41.49200 6.46900 47.00700
C  40.42400 1.67800 46.93800
C  45.17700 0.56400 46.55800
C  46.19000 5.45700 46.37200
N  41.19900 4.04400 46.70800
C  40.68000 5.31600 46.91700
C  39.17000 5.25300 47.19200
C  38.97900 3.70000 47.43500
C  40.26900 3.07200 46.92300
C  38.54300 3.25000 48.85800
C  38.41800 5.93200 46.03900
C  38.79700 5.47700 44.65200
H  39.71400 6.36300 43.71500
N  42.91200 1.35200 46.99900
C  41.63600 0.85700 46.89200
C  41.72500 -0.61400 46.77900
C  43.05400 -0.98200 46.76900
C  43.80600 0.31300 46.73600
C  40.44200 -1.47600 46.64100
C  43.56200 -2.43000 46.71700
O  42.86400 -3.40200 46.88200
C  45.04200 -2.71300 46.66000
N  45.46600 3.05400 46.52900
C  45.95500 1.76400 46.45500
C  47.48800 1.80900 46.24600
C  47.72400 3.38200 46.01900
C  46.33800 4.04400 46.26600
C  48.27500 1.10700 47.41100
C  48.21500 3.61800 44.56300
C  49.67600 3.77300 44.15400
N  43.84600 5.46600 46.99700
C  45.05800 6.15200 46.66900
C  44.79500 7.50800 46.67800
C  43.48300 7.65800 46.86200
C  42.92700 6.44000 46.95100
C  45.91800 8.52200 46.37800
C  42.42000 8.75300 47.11500
O  42.38100 9.96300 47.23000
C  41.16800 7.92300 47.06400
C  40.36800 8.16600 48.31700
O  40.56800 7.64700 49.46100
O  39.49300 9.15400 48.08900
C  38.58500 9.65800 49.16800
H  39.39500 1.32100 47.02100
H  45.76300 -0.35500 46.49700
H  47.05200 5.92100 45.88800
H  39.00400 5.79400 48.12300
H  38.18100 3.39800 46.75700
H  37.62900 2.68300 48.68400
H  38.34700 4.12300 49.48000
H  39.32000 2.61600 49.28400
H  38.63000 6.99900 46.11400
H  37.35800 5.69100 46.12100
H  37.82900 5.38700 44.16000
H  39.25200 4.48900 44.71900
H  40.27800 -2.22700 47.41400
H  40.55700 -2.12800 45.77500
H  39.55600 -0.86000 46.48900
H  45.52600 -2.08400 47.40700
H  45.42100 -2.43100 45.67800
H  45.19200 -3.75300 46.94800
H  47.75800 1.21400 45.37400
H  48.41500 3.74200 46.78100
H  48.93500 1.78900 47.94700
H  48.69200 0.12300 47.19500
H  47.59200 0.93200 48.24200
H  47.78700 4.51800 44.11900
H  47.77000 2.79900 43.99800
H  50.15500 3.49200 45.09200
H  50.05000 4.76800 43.91500
H  49.92700 3.13900 43.30400
H  46.57500 8.79900 47.20200
H  45.45300 9.44900 46.04400
H  46.55600 8.17100 45.56700
H  40.57900 8.31200 46.23300
H  38.22700 8.93300 49.89800
H  37.69300 9.95300 48.61600
H  39.01800 10.55800 49.60600
Mg 48.94700 45.02800 42.85900
C  45.84500 46.01000 41.50900
C  48.50600 42.02200 41.41900
C  52.25500 44.43600 43.36000
C  49.45500 48.17500 44.09300
N  47.37100 44.21000 41.57000
C  46.13200 44.67800 41.21300
C  45.29600 43.63400 40.45800
C  46.12100 42.34500 40.79800
C  47.43000 42.88000 41.30300
C  45.38700 41.37600 41.72500
C  45.08000 43.89700 38.97900
C  43.73500 43.64100 38.29100
H  43.69900 42.59100 37.21600
N  50.24600 43.32800 42.52600
C  49.82800 42.22900 41.87700
C  50.90600 41.30400 41.78100
C  51.98200 41.93800 42.53600
C  51.52800 43.30300 42.84200
C  50.87000 39.89000 41.11400
C  53.43700 41.37800 42.84100
O  53.68300 40.18100 42.48000
C  54.49500 42.22200 43.56900
N  50.70500 46.25600 43.42300
C  51.92500 45.77400 43.54500
C  52.92100 46.83100 43.96200
C  51.98700 48.05200 44.28200
C  50.65900 47.48000 43.92000
C  53.89700 46.45800 45.11300
C  52.33500 49.28600 43.41600
C  51.97700 50.63700 44.06300
N  47.89700 46.75900 42.82500
C  48.14100 47.91700 43.54700
C  46.97200 48.75200 43.50200
C  46.07400 48.08200 42.64000
C  46.67600 46.86400 42.28700
C  46.70700 50.08300 44.22800
C  44.76000 48.15200 42.10300
O  43.90900 49.08300 42.20400
C  44.53000 46.84300 41.21100
C  43.22900 46.17000 41.57400
O  42.27400 45.95400 40.85000
O  43.23300 45.72900 42.91000
C  41.93100 45.29300 43.35900
H  48.32200 40.99400 41.10200
H  53.34300 44.34200 43.34100
H  49.50500 49.09000 44.68700
H  44.36000 43.41900 40.97400
H  46.32400 41.69100 39.95000
H  45.38300 41.81600 42.72200
H  45.91500 40.44500 41.93000
H  44.34400 41.24000 41.43800
H  45.81200 43.21800 38.54100
H  45.47600 44.89400 38.78600
H  43.30200 44.51800 37.81000
H  43.09400 43.28600 39.09700
H  51.71300 39.25400 41.38600
H  50.88500 40.08000 40.04000
H  49.93000 39.39400 41.35300
H  54.83200 43.11600 43.04600
H  55.40500 41.62200 43.57900
H  54.25500 42.62700 44.55300
H  53.51300 47.03200 43.06900
H  51.94100 48.21400 45.35800
H  53.76300 47.14500 45.94900
H  54.95300 46.51800 44.85200
H  53.63100 45.45900 45.46100
H  51.63500 49.14900 42.59100
H  53.38600 49.25900 43.12800
H  51.39800 51.18000 43.31700
H  52.77000 51.34600 44.30200
H  51.42500 50.40800 44.97400
H  47.67400 50.57300 44.33900
H  46.22100 49.92400 45.19100
H  46.12700 50.71500 43.55600
H  44.44700 47.08600 40.15100
H  41.77100 44.26200 43.04300
H  41.07400 45.88200 43.03300
H  42.00600 45.24900 44.44500

