158

Mg 53.87100 23.45400 45.15600
C  51.57700 26.06400 44.30100
C  51.54100 21.25300 43.94400
C  56.32100 21.21000 45.14900
C  56.26300 25.96200 46.15700
N  51.72400 23.69300 44.25600
C  51.02200 24.83600 44.00700
C  49.60800 24.52200 43.50200
C  49.57900 22.90100 43.67500
C  51.04300 22.55700 44.04900
C  48.44100 22.39700 44.64800
C  49.39000 25.04500 42.06000
C  47.90200 25.18500 41.66400
H  47.50100 24.36200 40.39000
N  53.90100 21.48400 44.59800
C  52.87600 20.74700 44.05600
C  53.29700 19.36500 43.99400
C  54.72000 19.31600 44.30700
C  55.05800 20.68600 44.70200
C  52.43700 18.23500 43.40300
C  55.56000 18.04600 44.34900
O  55.15700 16.96700 43.87600
C  56.88500 17.94100 45.05000
N  56.02500 23.62700 45.33000
C  56.77900 22.50900 45.38400
C  58.22500 22.74400 45.76100
C  58.22000 24.24200 45.98300
C  56.77800 24.69400 45.75300
C  58.78700 21.95900 46.91900
C  59.17600 24.99800 44.98800
C  59.82600 26.34000 45.53900
N  53.96400 25.55300 45.30300
C  54.92300 26.37600 45.75500
C  54.37500 27.75100 45.78700
C  53.11000 27.65900 45.15600
C  52.92600 26.31900 44.84200
C  55.16500 28.95600 46.18900
C  51.95300 28.44500 44.79200
O  51.70100 29.69600 44.93500
C  51.07500 27.44000 44.05900
C  51.21500 27.79300 42.61900
O  51.92600 27.26300 41.77500
O  50.44100 28.89100 42.32400
C  50.16500 29.19500 40.98300
H  50.82800 20.45400 43.73100
H  57.10800 20.45400 45.17100
H  56.91700 26.74700 46.54300
H  48.92200 25.10900 44.11300
H  49.39100 22.43100 42.71000
H  47.98500 21.46200 44.32200
H  47.62400 23.11700 44.69300
H  48.73500 22.29100 45.69200
H  49.80500 24.25600 41.43400
H  49.82900 26.00500 41.78700
H  47.70500 26.23200 41.43300
H  47.27400 24.87400 42.49900
H  51.36800 18.42200 43.29500
H  52.48900 17.46200 44.17000
H  52.89600 17.88400 42.47900
H  57.65000 18.40900 44.43000
H  57.08600 16.87300 45.12600
H  56.92700 18.37700 46.04800
H  58.78500 22.39900 44.89200
H  58.53400 24.39600 47.01500
H  59.71900 22.37500 47.30000
H  58.87900 20.91700 46.61400
H  58.08300 21.84500 47.74400
H  58.64000 25.37100 44.11500
H  59.92800 24.26600 44.69500
H  60.88200 26.09000 45.64000
H  59.37700 26.66400 46.47700
H  59.73200 27.10400 44.76800
H  56.24500 28.80800 46.22400
H  54.71100 29.24800 47.13600
H  55.00400 29.68600 45.39500
H  50.00800 27.44200 44.28100
H  49.15500 29.60500 40.95300
H  50.32600 28.40000 40.25600
H  50.72400 30.10200 40.75100
Mg 17.09600 52.00200 26.55000
C  19.42200 50.76000 28.90500
C  15.06400 52.82200 29.12100
C  14.89500 53.22700 24.32000
C  19.28900 50.89700 24.02600
N  17.22400 51.80000 28.78600
C  18.29000 51.31300 29.50500
C  18.10700 51.57300 30.94800
C  16.57800 51.86800 31.02900
C  16.26300 52.20800 29.60200
C  15.80300 50.61500 31.43600
C  18.94400 52.79600 31.45200
C  19.11000 52.88000 32.98800
H  18.07400 52.24100 33.87400
N  15.16300 52.81800 26.66800
C  14.55900 53.13900 27.82000
C  13.30200 53.89700 27.61800
C  13.19000 54.00000 26.15900
C  14.44300 53.32400 25.63000
C  12.43900 54.46000 28.68700
C  12.17900 54.70600 25.30900
O  12.15800 54.55200 24.07500
C  11.19200 55.65400 25.86400
N  16.96600 51.84400 24.48100
C  16.05300 52.63800 23.81800
C  16.20200 52.44300 22.25900
C  17.68200 51.88000 22.11900
C  18.04500 51.55700 23.61400
C  15.15800 51.43200 21.70100
C  18.74800 52.88200 21.50300
C  20.04800 52.23500 21.06500
N  18.91800 51.05400 26.42500
C  19.70700 50.59000 25.34400
C  20.95200 49.97400 25.78200
C  20.88600 50.08500 27.17800
C  19.61900 50.66500 27.49700
C  21.96200 49.35800 24.83400
C  21.64500 49.85500 28.41000
O  22.73900 49.39900 28.59300
C  20.64700 50.25600 29.63800
C  20.39300 49.14100 30.56100
O  19.93500 48.07300 30.28800
O  20.88200 49.58000 31.80100
C  20.66200 48.60700 32.87600
H  14.38300 53.13900 29.91400
H  14.31700 53.79100 23.58600
H  19.91000 50.54100 23.20200
H  18.37500 50.69900 31.54000
H  16.37200 52.71300 31.68600
H  14.79000 50.46400 31.06400
H  15.78200 50.51500 32.52200
H  16.30800 49.76400 30.97800
H  18.45000 53.70100 31.10000
H  19.90900 52.84800 30.94800
H  19.36200 53.91500 33.22000
H  20.03000 52.33200 33.19500
H  11.65500 53.75700 28.96700
H  12.13000 55.48600 28.48500
H  12.98900 54.61500 29.61500
H  10.58500 56.17300 25.12200
H  11.63000 56.43800 26.48100
H  10.52300 54.97000 26.38800
H  16.13200 53.34700 21.65400
H  17.67900 51.06600 21.39500
H  15.57800 50.51000 21.29900
H  14.71400 52.05200 20.92200
H  14.40500 51.34400 22.48400
H  19.12100 53.66400 22.16400
H  18.32300 53.27100 20.57800
H  20.84000 52.46300 21.77900
H  20.40500 52.71100 20.15100
H  19.83300 51.16800 21.02100
H  22.17400 50.10600 24.06900
H  21.44600 48.51300 24.37900
H  22.87200 49.10700 25.37800
H  21.13600 51.07800 30.15900
H  20.20600 47.64600 32.63600
H  20.08100 48.98200 33.71800
H  21.64100 48.37900 33.29600

