158

Mg 47.80900 16.10700 28.57500
C  45.78600 15.57000 31.35800
C  50.06200 17.70900 30.64200
C  49.62900 16.94300 25.78900
C  45.35600 14.63500 26.50200
N  47.84600 16.69000 30.77000
C  47.02600 16.26900 31.72500
C  47.54600 16.61200 33.10400
C  48.75900 17.53300 32.81000
C  48.87700 17.31900 31.32800
C  48.43500 19.03000 33.03000
C  47.85800 15.42200 34.00100
C  47.07500 15.26900 35.36000
H  46.72400 16.60500 35.93400
N  49.61800 17.10400 28.23800
C  50.42400 17.66600 29.25700
C  51.65700 18.07000 28.69100
C  51.51000 17.89800 27.27400
C  50.19900 17.25500 27.03900
C  52.77000 18.65900 29.48300
C  52.47700 18.17100 26.13000
O  52.25600 17.77200 24.99700
C  53.72100 18.86600 26.36700
N  47.49400 15.90900 26.38200
C  48.42500 16.28800 25.48800
C  47.70300 16.28200 24.11200
C  46.62400 15.15600 24.38600
C  46.50200 15.13900 25.86700
C  47.15100 17.68200 23.71500
C  46.90300 13.80200 23.69200
C  47.44600 12.64500 24.53600
N  45.97100 15.24100 28.83800
C  45.05700 14.66800 27.87400
C  43.85900 14.26200 28.58500
C  44.07800 14.68200 29.89100
C  45.38100 15.25800 30.02400
C  42.63600 13.66100 28.02200
C  43.42700 14.67200 31.27300
O  42.31400 14.26300 31.61600
C  44.60500 15.28700 32.24300
C  44.08200 16.54200 32.89500
O  44.32500 17.70600 32.59300
O  43.14900 16.13100 33.80900
C  42.56100 17.21800 34.63100
H  50.71300 18.30900 31.28100
H  50.06800 17.28300 24.84900
H  44.64600 14.16500 25.81900
H  46.73600 17.25800 33.44200
H  49.68000 17.24000 33.31300
H  47.53700 19.29100 33.59100
H  48.31700 19.56000 32.08500
H  49.26600 19.45800 33.59100
H  48.92300 15.32700 34.21100
H  47.56500 14.55800 33.40400
H  47.69700 14.70800 36.05800
H  46.15600 14.69300 35.25400
H  52.69100 19.74600 29.47400
H  53.77300 18.40800 29.13700
H  52.79500 18.23300 30.48600
H  53.45400 19.75100 26.94500
H  54.21200 19.22300 25.46200
H  54.53400 18.23200 26.72300
H  48.35400 15.96800 23.29600
H  45.63300 15.43100 24.02600
H  46.07900 17.57000 23.55700
H  47.56800 18.02000 22.76600
H  47.36500 18.39800 24.50800
H  47.48400 13.83400 22.77100
H  45.99100 13.41100 23.24100
H  46.70500 11.90300 24.83500
H  47.93700 12.94000 25.46400
H  48.20900 12.20400 23.89500
H  42.83200 13.00200 27.17600
H  41.95100 14.46700 27.75900
H  42.10300 13.08900 28.78200
H  44.93600 14.49400 32.91300
H  41.47400 17.18900 34.54700
H  42.89500 18.23400 34.42100
H  42.81500 16.94800 35.65600
Mg -12.50100 38.33500 41.52300
C  -10.65800 35.58800 40.49300
C  -10.47000 40.31000 39.86500
C  -14.74200 40.55800 42.01300
C  -14.94300 35.78900 42.75600
N  -10.94700 37.93700 40.17700
C  -10.25300 36.76700 39.91600
C  -8.99500 37.00600 39.14100
C  -8.86300 38.62400 39.06700
C  -10.18100 38.97400 39.77000
C  -7.63300 39.26000 39.81100
C  -8.99500 36.34500 37.67100
C  -7.75200 35.49400 37.26300
H  -6.78700 36.13700 36.26900
N  -12.59600 40.24300 41.07000
C  -11.61700 40.93000 40.43700
C  -11.96800 42.32200 40.46900
C  -13.22100 42.47800 41.13900
C  -13.56600 41.04400 41.47900
C  -11.07600 43.49100 39.83700
C  -13.90300 43.72700 41.42200
O  -13.50200 44.71400 40.86000
C  -15.15000 43.83200 42.24900
N  -14.47100 38.21100 42.45300
C  -15.19700 39.36100 42.45700
C  -16.60300 39.06300 42.93700
C  -16.73900 37.53900 43.02600
C  -15.33500 37.14100 42.74200
C  -16.96200 39.78700 44.29200
C  -17.71600 36.92700 42.07700
C  -17.39200 36.95600 40.56700
N  -12.67500 36.19900 41.81400
C  -13.66100 35.32300 42.41900
C  -13.19500 33.97400 42.41400
C  -11.99000 34.05800 41.69600
C  -11.77300 35.38700 41.28200
C  -13.82300 32.78900 43.07400
C  -11.00400 33.23500 41.19400
O  -10.85600 32.03100 41.19900
C  -10.01700 34.19600 40.44300
C  -8.69600 34.09000 41.11900
O  -8.54000 34.55700 42.24000
O  -7.75700 33.45700 40.35600
C  -6.43500 33.07600 40.99400
H  -9.80000 40.88000 39.21800
H  -15.52700 41.31100 41.91700
H  -15.63600 35.06100 43.18300
H  -8.19200 36.49400 39.67300
H  -8.91400 38.97800 38.03700
H  -7.82600 39.75000 40.76500
H  -7.14100 39.93300 39.10800
H  -6.95900 38.44000 40.06100
H  -9.20400 37.09600 36.90900
H  -9.88400 35.71400 37.66600
H  -8.01900 34.45900 37.04800
H  -7.18900 35.32600 38.18100
H  -11.17000 44.38800 40.44900
H  -11.31800 43.81700 38.82500
H  -10.03800 43.17100 39.92700
H  -15.95300 43.25700 41.79000
H  -15.59600 44.82600 42.26500
H  -14.97300 43.63500 43.30700
H  -17.35200 39.39100 42.21700
H  -16.97900 37.25500 44.05100
H  -17.50000 40.63400 43.86600
H  -16.07700 40.23500 44.74400
H  -17.56400 39.22400 45.00500
H  -18.68800 37.38900 42.25000
H  -17.93300 35.90500 42.39000
H  -17.37800 35.98900 40.06400
H  -16.36600 37.32300 40.54000
H  -18.09700 37.63400 40.08600
H  -13.84600 32.93300 44.15400
H  -13.27300 31.89700 42.77100
H  -14.83400 32.51100 42.77600
H  -10.02000 33.87700 39.40000
H  -5.99100 32.20000 40.52000
H  -6.50800 32.96800 42.07600
H  -5.88200 33.98300 40.74900

