158

Mg 9.36300 4.93800 28.39300
C  10.75200 3.20900 31.11100
C  7.36700 6.59400 30.44200
C  8.10400 6.58900 25.75400
C  11.27400 2.97700 26.15100
N  9.32900 4.99000 30.62900
C  9.91200 4.18900 31.55700
C  9.40200 4.46500 32.96000
C  8.31700 5.59700 32.75800
C  8.26200 5.69000 31.17800
C  6.89200 5.33500 33.44500
C  10.60400 4.90300 33.82300
C  10.31500 5.88100 34.97500
H  11.01100 5.73600 36.34500
N  7.80100 6.34500 28.08700
C  7.12400 6.91000 29.08000
C  6.10600 7.76100 28.49000
C  6.42900 7.86700 27.07700
C  7.47400 6.90700 26.92200
C  5.09200 8.36400 29.41500
C  5.82700 8.71700 26.02300
O  6.22900 8.87800 24.91600
C  4.65900 9.51700 26.50900
N  9.45900 4.61300 26.18200
C  9.00500 5.61100 25.40900
C  9.35900 5.41300 23.97000
C  10.67600 4.49500 24.07600
C  10.48600 3.95300 25.54500
C  8.21300 4.98700 23.06100
C  11.99100 5.26000 23.80000
C  12.28000 6.48200 24.67400
N  10.61700 3.34200 28.55200
C  11.30700 2.62700 27.53900
C  12.06100 1.60800 28.17100
C  11.89600 1.83200 29.55500
C  11.04100 2.89900 29.71700
C  12.77200 0.37000 27.57000
C  12.24400 1.28500 30.83000
O  12.97800 0.30600 31.10100
C  11.51600 2.17500 31.95600
C  10.57900 1.23900 32.65300
O  9.85100 0.46300 32.01900
O  10.88900 1.11400 33.98200
C  10.04000 0.22100 34.66400
H  6.75600 7.28200 31.02900
H  7.92000 7.19900 24.86700
H  11.88700 2.40000 25.45500
H  9.02700 3.51300 33.33500
H  8.75100 6.53700 33.10000
H  6.15200 5.19400 32.65800
H  6.71000 6.20100 34.08200
H  6.97900 4.43300 34.05100
H  11.23200 5.46200 33.13000
H  11.12100 3.99900 34.14300
H  9.28300 6.09800 35.25000
H  10.64900 6.87600 34.68200
H  4.92700 7.80700 30.33700
H  4.12400 8.43000 28.91900
H  5.48100 9.33300 29.72800
H  4.31300 10.12400 25.67300
H  4.86700 10.27100 27.26900
H  3.85400 8.87900 26.87300
H  9.73400 6.39600 23.68600
H  10.60300 3.77200 23.26400
H  8.15100 3.98600 22.63300
H  8.18500 5.71400 22.24900
H  7.26100 5.05800 23.58600
H  11.91500 5.66500 22.79100
H  12.75500 4.48900 23.69900
H  11.48700 6.66300 25.40000
H  12.42100 7.31300 23.98300
H  13.22000 6.25700 25.17900
H  12.07800 -0.05200 26.84300
H  13.06800 -0.35000 28.33300
H  13.68200 0.65100 27.04200
H  12.25700 2.65600 32.59400
H  9.16500 0.63000 35.16800
H  10.62700 -0.19700 35.48200
H  9.82600 -0.63600 34.02600
Mg 41.82100 40.96100 26.37600
C  41.49100 43.40100 28.97600
C  43.03900 38.78000 28.78600
C  42.33500 38.82900 23.94900
C  41.44200 43.57300 24.04000
N  42.26100 41.14600 28.63900
C  41.93500 42.18000 29.46100
C  42.21000 41.88600 30.92300
C  42.86400 40.42500 30.82300
C  42.69800 40.04700 29.34500
C  44.36300 40.34400 31.37600
C  40.86300 41.95000 31.72000
C  40.72900 42.88800 32.99100
H  39.73800 42.52800 34.07400
N  42.52200 39.04400 26.35900
C  42.98500 38.34400 27.44600
C  43.24400 37.00000 26.98900
C  42.93000 36.94200 25.55100
C  42.55400 38.33500 25.22900
C  43.87100 35.88300 27.92300
C  42.86800 35.76900 24.60400
O  42.62300 35.85200 23.41400
C  43.19800 34.36800 25.01700
N  41.95200 41.17200 24.32100
C  42.15500 40.12100 23.50100
C  42.07700 40.51800 22.01400
C  41.93600 42.04400 22.07100
C  41.86600 42.31700 23.57800
C  43.37700 40.06300 21.32600
C  40.65800 42.51700 21.32100
C  40.62500 43.96200 20.87400
N  41.28600 43.00500 26.38500
C  41.09500 43.90300 25.40400
C  40.84800 45.19800 25.96100
C  40.91200 44.98400 27.27500
C  41.29400 43.65500 27.55400
C  40.65900 46.52900 25.26800
C  40.82800 45.69900 28.54200
O  40.53100 46.88900 28.75400
C  41.12800 44.78800 29.68600
C  42.17000 45.26400 30.61400
O  43.38600 45.14000 30.44000
O  41.57200 46.01600 31.61900
C  42.49000 46.58500 32.57400
H  43.43400 37.97800 29.41300
H  42.20400 38.10000 23.14700
H  41.37300 44.31300 23.24000
H  42.87000 42.67800 31.27500
H  42.27800 39.76000 31.45700
H  44.79200 41.34500 31.41900
H  44.97200 39.81600 30.64200
H  44.48500 39.97900 32.39600
H  40.43100 40.97700 31.95400
H  40.17500 42.39500 31.00100
H  40.43400 43.83500 32.53900
H  41.72200 43.17800 33.33500
H  43.12600 35.10500 28.09600
H  44.40500 36.26500 28.79300
H  44.68300 35.42700 27.35700
H  42.81800 33.68000 24.26100
H  42.71600 34.21500 25.98200
H  44.24400 34.21200 25.28000
H  41.21200 40.03900 21.55700
H  42.76000 42.58100 21.60000
H  43.54800 40.68100 20.44500
H  43.32200 39.02300 21.00400
H  44.21000 39.97400 22.02400
H  39.83900 42.49500 22.04100
H  40.35100 41.85100 20.51500
H  40.33800 44.13500 19.83600
H  41.59200 44.45500 20.97400
H  39.90300 44.54900 21.44200
H  40.45800 46.35200 24.21200
H  41.54600 47.16000 25.33400
H  39.78800 47.05100 25.66500
H  40.26500 44.70800 30.34700
H  42.05100 46.97100 33.49400
H  43.15800 47.30400 32.10000
H  43.10200 45.79000 32.99900

