158

Mg 48.11800 34.96600 27.86000
C  46.08400 33.25500 30.28700
C  48.43800 37.42100 30.07200
C  49.37200 36.70300 25.42900
C  47.42400 32.18800 25.67700
N  47.44000 35.23800 29.90800
C  46.73600 34.35600 30.76000
C  46.73100 34.87000 32.19400
C  47.10300 36.34500 31.96100
C  47.73800 36.33500 30.58600
C  45.87900 37.40000 32.04600
C  47.71300 34.10300 33.21300
C  47.69600 34.45100 34.66400
H  47.01500 35.64600 35.16200
N  48.88400 36.86400 27.81300
C  49.04600 37.74100 28.83600
C  49.58700 38.89400 28.31400
C  49.78200 38.78000 26.95100
C  49.30400 37.40900 26.62600
C  49.76100 40.17100 29.23000
C  50.32900 39.80200 25.94300
O  50.45800 39.55300 24.73500
C  50.99900 41.07800 26.38900
N  48.28900 34.53000 25.85800
C  48.97200 35.44500 25.07200
C  49.11400 34.93700 23.60400
C  48.52000 33.42800 23.66100
C  48.09300 33.33600 25.16900
C  48.46600 35.83700 22.50600
C  49.54600 32.24000 23.39300
C  49.06300 31.02000 22.60400
N  47.01500 33.04800 27.86200
C  46.81700 32.03900 26.91900
C  46.03500 30.95100 27.51000
C  45.69800 31.43600 28.79600
C  46.37400 32.71600 29.00000
C  45.68700 29.57500 26.92300
C  44.89400 31.08200 29.95000
O  44.31600 30.04100 30.24100
C  44.99400 32.37600 30.86000
C  45.22200 31.84000 32.16600
O  46.20300 31.20900 32.50700
O  44.18500 32.12400 32.99800
C  44.42900 31.83600 34.40100
H  48.56900 38.24300 30.77800
H  49.77200 37.21600 24.55200
H  47.29500 31.29200 25.06600
H  45.72200 34.79300 32.59900
H  47.85100 36.63700 32.69800
H  45.91300 38.12700 31.23500
H  45.92500 38.01300 32.94700
H  44.90900 36.90600 32.09900
H  48.73900 34.25300 32.87700
H  47.40100 33.07500 33.03100
H  48.73200 34.61900 34.95700
H  47.30700 33.66300 35.30800
H  50.78400 40.53300 29.33300
H  49.37800 39.99700 30.23600
H  49.09800 40.88800 28.74400
H  51.19600 41.25000 27.44800
H  50.46500 41.86400 25.85500
H  52.00900 41.00100 25.98600
H  50.16500 34.93200 23.31400
H  47.63000 33.35200 23.03600
H  48.02000 36.73000 22.94500
H  47.77500 35.32200 21.83800
H  49.25600 36.24100 21.87300
H  49.84700 31.97100 24.40600
H  50.34600 32.78600 22.89300
H  49.70900 30.91700 21.73200
H  48.03300 31.24800 22.32700
H  49.05000 30.05800 23.11600
H  45.56600 28.95100 27.80900
H  46.56700 29.27200 26.35500
H  44.83600 29.60200 26.24300
H  44.01800 32.85800 30.91900
H  44.42400 30.76600 34.60600
H  43.62800 32.24700 35.01600
H  45.33400 32.33900 34.74100
Mg -6.51600 24.92400 25.06300
C  -4.62400 26.22500 27.58100
C  -8.31300 23.00500 27.39500
C  -8.22300 23.48800 22.43300
C  -4.36200 26.47000 22.72300
N  -6.33500 24.60500 27.24500
C  -5.48600 25.25900 28.06900
C  -5.79800 24.93000 29.50100
C  -6.75200 23.64600 29.37300
C  -7.19200 23.73900 27.90000
C  -6.23400 22.24700 29.81200
C  -6.47500 26.11100 30.26100
C  -5.98600 26.31000 31.71600
H  -5.41300 25.07800 32.47900
N  -8.14600 23.48900 24.91100
C  -8.75300 22.86800 26.03600
C  -9.84700 22.14100 25.47700
C  -9.89100 22.30700 24.00000
C  -8.70100 23.09900 23.73100
C  -10.74800 21.51100 26.45900
C  -10.98000 21.90700 23.02200
O  -11.01500 22.37100 21.87300
C  -11.96500 20.87300 23.30200
N  -6.17000 24.85400 22.83800
C  -7.18600 24.36800 21.98100
C  -6.68300 24.62100 20.48700
C  -5.76500 25.82200 20.75200
C  -5.34000 25.65700 22.16400
C  -6.06800 23.39500 19.86600
C  -6.40800 27.21700 20.51600
C  -5.73500 28.02800 19.32900
N  -4.87500 26.13900 25.04800
C  -4.10700 26.69900 24.08500
C  -3.10900 27.61800 24.71900
C  -3.27000 27.43900 26.08000
C  -4.38200 26.58900 26.21900
C  -2.20100 28.46400 23.93100
C  -2.85400 27.87000 27.33300
O  -2.07100 28.76200 27.66400
C  -3.55400 26.95100 28.34800
C  -2.56000 26.08000 29.01500
O  -2.33800 24.91400 28.71400
O  -2.09000 26.68000 30.17000
C  -1.32600 25.90600 31.19200
H  -8.87700 22.48600 28.17300
H  -8.70100 22.94100 21.61800
H  -3.71400 26.82700 21.91900
H  -4.81100 24.74500 29.92500
H  -7.59700 23.80200 30.04300
H  -6.01300 21.73100 28.87700
H  -7.06100 21.67800 30.23600
H  -5.35900 22.25300 30.46200
H  -7.56400 26.10700 30.20600
H  -6.11100 26.97600 29.70700
H  -6.65400 26.77900 32.43800
H  -5.18600 27.04400 31.61700
H  -11.04800 20.58000 25.97900
H  -11.64600 22.12900 26.46800
H  -10.45500 21.20800 27.46400
H  -12.83300 21.38200 23.72000
H  -11.51400 20.14800 23.98000
H  -12.38500 20.37200 22.43000
H  -7.47300 25.05400 19.87400
H  -4.96300 25.70600 20.02300
H  -6.11600 22.48300 20.46100
H  -5.03400 23.57200 19.56900
H  -6.59500 23.20200 18.93200
H  -6.34900 27.92400 21.34300
H  -7.47300 27.06100 20.34100
H  -5.88400 29.10500 19.24900
H  -6.18300 27.56900 18.44800
H  -4.64900 27.93500 19.32000
H  -2.21700 28.42800 22.84100
H  -1.26500 28.10000 24.35400
H  -2.32500 29.51100 24.20700
H  -3.94500 27.67000 29.06800
H  -1.67200 24.87400 31.12600
H  -1.54000 26.35900 32.16100
H  -0.30400 25.90600 30.81600

