158

Mg 40.75900 8.37200 28.96800
C  42.73700 9.42400 31.67900
C  38.51300 7.06600 31.16100
C  39.12900 7.26900 26.33200
C  43.37200 9.50300 26.83700
N  40.70100 8.24900 31.13200
C  41.54000 8.78800 32.05600
C  40.99500 8.56800 33.47900
C  39.75200 7.55800 33.25700
C  39.61700 7.65600 31.75700
C  40.06500 6.10200 33.70000
C  40.67500 9.88500 34.19900
C  40.04900 9.77700 35.51100
H  40.84600 10.01900 36.81800
N  39.02800 7.48400 28.78400
C  38.23000 6.97600 29.79500
C  37.06300 6.33900 29.18800
C  37.21200 6.34900 27.79500
C  38.52300 6.97200 27.58400
C  35.90700 5.75300 30.01800
C  36.37200 5.70300 26.76700
O  36.58100 5.76600 25.55900
C  35.07400 5.05600 27.23700
N  41.17900 8.45400 26.91200
C  40.36100 7.89700 26.02700
C  40.98900 7.84000 24.57100
C  42.17300 8.86400 24.74700
C  42.26400 8.96700 26.27500
C  41.42200 6.42500 24.12800
C  42.08200 10.23800 24.09300
C  40.95200 11.26200 24.51200
N  42.75500 9.11100 29.14800
C  43.63100 9.64900 28.18200
C  44.77700 10.18400 28.82800
C  44.46700 10.08100 30.19800
C  43.17100 9.54800 30.37300
C  45.85500 10.78900 28.18200
C  45.03200 10.39900 31.49300
O  46.08500 10.92700 31.77300
C  43.91700 9.99500 32.53900
C  44.54200 8.95900 33.37400
O  44.60300 7.77000 33.07300
O  44.97000 9.44600 34.56500
C  44.77200 8.47800 35.66600
H  37.76900 6.54000 31.76200
H  38.70200 6.70600 25.49900
H  43.99600 10.05900 26.13400
H  41.75200 7.99500 34.01400
H  38.80800 7.82800 33.72900
H  41.10800 6.06700 34.01600
H  39.97600 5.45900 32.82500
H  39.35300 5.74100 34.44200
H  40.25000 10.62300 33.51700
H  41.68900 10.25900 34.34200
H  39.57800 8.79400 35.49600
H  39.16000 10.40100 35.60400
H  34.95000 6.15500 29.68600
H  36.00500 5.78900 31.10200
H  35.84500 4.68100 29.82900
H  34.48800 4.85600 26.34000
H  34.60000 5.91900 27.70400
H  35.09200 4.17700 27.88300
H  40.29400 8.28200 23.85600
H  43.17100 8.50300 24.49600
H  40.66400 6.00900 23.46500
H  41.62700 5.81400 25.00700
H  42.35100 6.53000 23.56700
H  41.80800 9.97600 23.07100
H  43.03700 10.76400 24.09100
H  40.51200 11.71400 23.62300
H  41.41500 12.05800 25.09500
H  40.10500 10.72600 24.94200
H  45.51600 11.53200 27.46000
H  46.68900 10.15600 27.88000
H  46.21100 11.47100 28.95300
H  43.60700 10.85100 33.13900
H  43.70100 8.27400 35.63800
H  45.02000 8.80400 36.67600
H  45.25700 7.51200 35.52600
Mg 17.09900 52.72500 26.30800
C  18.69800 51.03100 28.99900
C  14.66700 53.85900 28.50000
C  15.68200 54.05600 23.65100
C  19.61200 51.43800 24.19800
N  16.72500 52.42500 28.46600
C  17.52000 51.65800 29.35800
C  16.94200 51.79100 30.81400
C  15.53600 52.38700 30.50400
C  15.66500 53.05500 29.11300
C  14.37100 51.43400 30.50100
C  17.84200 52.63800 31.75600
C  17.99600 51.96400 33.14600
H  17.14000 52.35500 34.34600
N  15.44100 53.86200 26.07800
C  14.58600 54.28800 27.07800
C  13.57500 55.10000 26.54100
C  13.90200 55.25700 25.14200
C  15.06600 54.35400 24.88000
C  12.46800 55.72500 27.32700
C  13.15200 55.98400 24.06800
O  13.38200 55.94900 22.87200
C  11.98300 56.83600 24.44000
N  17.57400 52.72400 24.18800
C  16.73300 53.32400 23.29600
C  17.19100 53.01100 21.82100
C  18.61900 52.40100 22.05800
C  18.60100 52.12100 23.51200
C  16.26500 52.12300 21.00100
C  19.83200 53.36500 21.68500
C  20.58300 53.01400 20.34000
N  18.75000 51.45100 26.48600
C  19.70400 51.12800 25.54300
C  20.69600 50.22300 26.18100
C  20.35000 50.24600 27.57900
C  19.18900 50.96200 27.71200
C  21.96100 49.64300 25.50000
C  20.73700 49.67500 28.92600
O  21.66700 48.97400 29.22800
C  19.69600 50.26800 29.88200
C  19.05400 49.17000 30.56000
O  18.19200 48.44600 30.04400
O  19.51800 49.06800 31.88600
C  18.96500 48.10000 32.78800
H  13.90700 54.21900 29.19700
H  15.06000 54.39800 22.82100
H  20.32600 50.94900 23.53200
H  16.74600 50.78900 31.19800
H  15.33300 53.26000 31.12500
H  13.62400 51.73200 31.23700
H  14.67400 50.41300 30.73300
H  13.77700 51.31400 29.59500
H  17.40900 53.63100 31.87200
H  18.78200 52.84900 31.24500
H  19.06800 51.96300 33.34600
H  17.77700 50.89700 33.09400
H  11.48300 55.44500 26.95400
H  12.62000 56.80400 27.31800
H  12.44700 55.34900 28.35000
H  11.12200 56.23100 24.72300
H  11.69000 57.46600 23.60000
H  12.17100 57.42400 25.33800
H  17.26900 53.92700 21.23500
H  18.74900 51.45400 21.53400
H  15.78500 51.41900 21.68000
H  16.87200 51.59900 20.26200
H  15.54100 52.76900 20.50400
H  20.58000 53.46600 22.47100
H  19.36800 54.33000 21.47900
H  20.89300 53.98600 19.95600
H  19.84900 52.47600 19.74000
H  21.47000 52.39900 20.49100
H  22.28200 50.42400 24.81100
H  21.73000 48.72000 24.96700
H  22.65600 49.37300 26.29400
H  20.22100 50.91700 30.58200
H  19.45100 47.12500 32.75100
H  17.87600 48.10500 32.73800
H  19.18100 48.36400 33.82300

