158

Mg 16.97200 -1.74600 28.26800
C  15.66400 0.24800 30.63900
C  18.87400 -3.37300 30.60400
C  18.07600 -3.51300 25.72400
C  15.06900 0.21000 25.80100
N  17.29900 -1.53700 30.37200
C  16.55000 -0.67900 31.14800
C  16.96700 -0.75600 32.57200
C  18.16200 -1.80100 32.54400
C  18.10100 -2.34100 31.14900
C  19.54900 -1.23500 32.91200
C  15.81700 -1.13100 33.49300
C  15.92800 -0.58100 34.91900
H  17.32200 0.08900 35.34000
N  18.33100 -3.26000 28.20400
C  19.02800 -3.81500 29.28300
C  19.93800 -4.82500 28.75700
C  19.62200 -4.93100 27.32300
C  18.65300 -3.89600 26.99000
C  20.95200 -5.61600 29.65400
C  20.18700 -5.97100 26.41400
O  19.93400 -5.94800 25.21900
C  21.06900 -7.06300 26.85300
N  16.63200 -1.63800 26.05400
C  17.28800 -2.48600 25.23900
C  16.91000 -2.26400 23.76100
C  15.87200 -1.06200 23.85900
C  15.77700 -0.88000 25.38200
C  18.11800 -2.03600 22.81100
C  14.51000 -1.21800 23.09900
C  14.16900 -0.13000 22.06500
N  15.66200 -0.10200 28.22300
C  14.99700 0.62500 27.17800
C  14.35500 1.78600 27.76400
C  14.70100 1.72000 29.13700
C  15.32600 0.46800 29.32000
C  13.48000 2.85800 27.01900
C  14.47800 2.34500 30.39600
O  13.86300 3.41400 30.60500
C  15.08100 1.50400 31.42400
C  15.97500 2.45500 32.14900
O  17.14500 2.69000 31.84100
O  15.37400 2.94800 33.27400
C  16.16000 3.93800 34.00300
H  19.49900 -3.86200 31.35400
H  18.34000 -4.18400 24.90400
H  14.60500 0.88300 25.07800
H  17.35900 0.21000 32.89300
H  18.01800 -2.72700 33.10100
H  19.64100 -0.16200 32.74500
H  20.35400 -1.66500 32.31500
H  19.83100 -1.53500 33.92100
H  15.82100 -2.22100 33.50500
H  14.86100 -0.82400 33.06900
H  15.66100 -1.27700 35.71500
H  15.19600 0.22700 34.89100
H  21.20200 -4.88800 30.42600
H  21.72200 -5.92400 28.94800
H  20.42600 -6.47400 30.07200
H  21.10600 -7.88200 26.13400
H  20.48000 -7.48400 27.66800
H  22.07500 -6.70300 27.06800
H  16.34900 -3.16300 23.50400
H  16.34200 -0.14600 23.50100
H  18.90200 -2.66600 23.23200
H  18.44500 -0.99600 22.81400
H  17.81300 -2.20200 21.77800
H  13.65000 -1.28200 23.76500
H  14.49100 -2.14400 22.52300
H  13.83400 -0.66700 21.17800
H  15.12200 0.34100 21.82400
H  13.44200 0.61200 22.39400
H  13.81800 2.89100 25.98300
H  13.74800 3.86000 27.35600
H  12.40600 2.67900 26.97300
H  14.20700 1.23600 32.01800
H  16.62000 4.72700 33.40800
H  16.98700 3.51600 34.57500
H  15.40000 4.29200 34.69900
Mg 17.53600 51.21500 25.80600
C  19.35700 50.06000 28.62900
C  15.17300 52.41300 28.10700
C  15.47600 51.97900 23.25700
C  19.73700 49.51700 23.75000
N  17.22500 51.13300 28.10400
C  18.11700 50.67300 29.03300
C  17.62800 50.95200 30.47200
C  16.21200 51.55500 30.24400
C  16.20300 51.69900 28.72400
C  14.95900 50.66400 30.74900
C  18.57100 51.91000 31.15400
C  18.31500 52.22400 32.65000
H  17.27200 51.49500 33.39500
N  15.64500 52.13900 25.70300
C  14.87100 52.59100 26.73100
C  13.63500 53.20100 26.13100
C  13.75900 53.16400 24.69200
C  14.99300 52.40200 24.45900
C  12.51000 53.76100 26.87500
C  12.89400 53.74200 23.59800
O  13.23200 53.74400 22.45700
C  11.62500 54.41200 24.02400
N  17.58200 50.75800 23.85100
C  16.63900 51.22600 22.97500
C  16.99700 50.77600 21.54400
C  18.36700 50.07100 21.66200
C  18.54400 50.08800 23.14700
C  15.89300 49.94300 20.84100
C  19.61200 50.68900 20.85200
C  20.51100 49.61700 20.26300
N  19.27300 50.07700 26.08400
C  20.12100 49.50400 25.12800
C  21.23100 48.81800 25.81000
C  20.95600 49.08100 27.18900
C  19.73400 49.75000 27.29700
C  22.33200 48.16000 25.06100
C  21.45400 48.67700 28.53200
O  22.45600 48.10400 28.90000
C  20.41700 49.41000 29.46400
C  19.82900 48.31600 30.36200
O  19.22800 47.27900 30.00700
O  20.07600 48.67100 31.66200
C  19.66900 47.77600 32.77800
H  14.40500 52.94900 28.66900
H  14.88700 52.31200 22.40000
H  20.41900 49.07500 23.02100
H  17.52100 50.07700 31.11300
H  16.07100 52.50000 30.76800
H  14.64700 50.11700 29.86000
H  14.19100 51.30200 31.18700
H  15.22100 49.91100 31.49200
H  18.54900 52.77700 30.49400
H  19.58600 51.54000 31.00900
H  18.22300 53.30900 32.60800
H  19.20400 52.07600 33.26400
H  12.63300 53.94000 27.94400
H  11.65700 53.18000 26.52500
H  12.34100 54.76000 26.47300
H  11.91900 55.29700 24.58700
H  10.90800 53.79200 24.56200
H  11.23000 54.75000 23.06600
H  17.04700 51.72700 21.01300
H  18.12700 49.05000 21.36700
H  15.28300 49.61200 21.68200
H  16.35100 49.08900 20.34300
H  15.32200 50.57800 20.16300
H  20.09900 51.29400 21.61600
H  19.19200 51.34600 20.09100
H  19.82000 48.80500 20.04000
H  21.29600 49.22200 20.90800
H  20.95800 50.04300 19.36500
H  23.04800 47.78000 25.79000
H  22.78600 48.93600 24.44400
H  22.08300 47.31500 24.41900
H  20.83200 50.10100 30.19800
H  18.63700 47.98400 33.05800
H  20.26200 47.95600 33.67500
H  19.75900 46.73700 32.46000

