158

Mg 42.12300 41.31300 26.76600
C  41.48800 43.76400 28.95300
C  43.28800 39.27000 29.41900
C  42.72500 38.86800 24.60100
C  41.24500 43.48300 24.06400
N  42.27300 41.57300 28.90900
C  41.90800 42.62200 29.58300
C  41.86900 42.31900 31.09400
C  42.72200 40.99000 31.19000
C  42.90500 40.58700 29.75500
C  44.16500 41.08900 31.79000
C  40.37900 42.09000 31.56000
C  40.01900 42.76400 32.86600
H  39.96000 41.70700 34.05800
N  42.87900 39.33600 27.01500
C  43.28700 38.66100 28.15500
C  43.67100 37.30300 27.81700
C  43.58400 37.21100 26.40700
C  43.04000 38.51900 25.94100
C  44.10700 36.25600 28.83300
C  43.94100 36.06000 25.46100
O  43.76400 35.99700 24.22200
C  44.69200 34.88600 26.00000
N  42.11500 41.21500 24.63500
C  42.37200 40.08500 24.00500
C  42.21400 40.27700 22.45900
C  41.57300 41.71200 22.34800
C  41.58400 42.15900 23.80600
C  43.43500 39.89600 21.52300
C  40.27300 41.72800 21.53400
C  38.96800 41.40500 22.35400
N  41.54200 43.21200 26.41400
C  41.17500 44.04100 25.36100
C  40.85900 45.41500 25.87100
C  40.95900 45.27300 27.22500
C  41.35800 43.96200 27.50800
C  40.23000 46.51600 24.95500
C  40.71100 46.00900 28.43900
O  40.18500 47.11500 28.63000
C  41.03000 45.01800 29.61600
C  42.01600 45.75500 30.48100
O  43.14100 46.05900 30.09200
O  41.54200 45.85100 31.74200
C  42.23300 46.68700 32.67200
H  43.71500 38.69300 30.24200
H  42.92800 38.00900 23.95800
H  40.89600 44.17900 23.29800
H  42.30200 43.14200 31.66400
H  42.25100 40.12500 31.65900
H  44.21500 41.90500 32.51000
H  44.75700 41.15000 30.87700
H  44.37500 40.13100 32.26700
H  40.27000 41.02100 31.74400
H  39.79300 42.27800 30.66100
H  39.05400 43.26600 32.80100
H  40.79100 43.47100 33.16800
H  45.16200 36.04600 28.65700
H  43.52500 35.33500 28.84600
H  44.08400 36.65500 29.84700
H  44.16200 34.21500 26.67600
H  45.66000 35.24200 26.35400
H  44.90800 34.20700 25.17500
H  41.40100 39.55000 22.46400
H  42.40100 42.29200 21.94100
H  44.16400 39.28900 22.06000
H  43.92500 40.77500 21.10500
H  43.13000 39.18000 20.76000
H  40.22400 41.17400 20.59600
H  40.17500 42.74200 21.14800
H  39.09800 40.59400 23.07100
H  38.23200 40.95100 21.69000
H  38.65300 42.35500 22.78600
H  39.53900 46.11000 24.21600
H  40.97900 47.22500 24.60100
H  39.57300 47.11100 25.59000
H  40.16600 44.66700 30.18100
H  43.08400 47.26000 32.30500
H  42.35900 46.05500 33.55100
H  41.51200 47.48600 32.84100
Mg -11.56800 16.96400 40.81900
C  -8.24100 15.83600 40.61900
C  -10.36600 20.09300 39.61000
C  -14.65000 17.91800 40.26000
C  -12.61500 13.62500 41.08600
N  -9.54800 17.86700 40.17200
C  -8.28100 17.16700 40.21200
C  -7.06100 18.12600 39.88600
C  -7.80300 19.51500 39.74900
C  -9.35100 19.19400 39.98200
C  -7.48000 20.49300 40.92200
C  -6.26400 17.75300 38.64400
C  -4.78900 17.61000 38.82100
H  -4.23600 16.46800 37.99100
N  -12.40400 18.82100 40.14900
C  -11.78500 19.97000 39.69000
C  -12.75800 20.99700 39.44800
C  -14.02800 20.42800 39.67800
C  -13.77000 19.00300 39.99900
C  -12.41800 22.36000 39.00100
C  -15.46300 21.14800 39.55400
O  -15.57800 22.26200 39.10200
C  -16.70200 20.48300 40.00600
N  -13.36600 15.89000 40.64200
C  -14.50800 16.55000 40.58500
C  -15.82000 15.64000 40.54800
C  -15.11200 14.24300 40.92300
C  -13.60500 14.59300 40.94100
C  -17.02400 16.14400 41.50100
C  -15.48300 13.10200 39.96300
C  -15.10200 13.26600 38.49800
N  -10.71600 15.09700 40.97500
C  -11.23900 13.85500 41.11400
C  -10.09700 12.91800 41.47900
C  -8.89800 13.67700 41.24200
C  -9.31000 14.91900 40.86800
C  -10.22600 11.47000 41.87700
C  -7.42700 13.66900 41.38500
O  -6.72300 12.70700 41.72000
C  -6.96300 15.06500 40.92700
C  -6.27400 15.69000 42.09700
O  -6.72100 16.47800 42.93300
O  -4.95300 15.34100 42.08000
C  -4.23100 16.03800 43.09400
H  -10.02900 21.05500 39.21800
H  -15.69100 18.21000 40.11300
H  -12.94400 12.63200 41.39900
H  -6.39000 18.10200 40.74500
H  -7.60200 19.98800 38.78800
H  -6.53200 21.01600 40.79800
H  -7.45700 19.92000 41.84900
H  -8.27900 21.22000 41.06800
H  -6.50500 18.46400 37.85300
H  -6.62200 16.80400 38.24300
H  -4.59800 17.48700 39.88700
H  -4.27600 18.47800 38.40600
H  -13.06300 22.82800 38.25700
H  -11.42300 22.30300 38.56000
H  -12.39000 23.05100 39.84400
H  -17.07200 19.60300 39.48000
H  -17.53800 21.18000 40.06100
H  -16.41600 20.20000 41.01900
H  -16.19800 15.65300 39.52600
H  -15.38500 13.95600 41.93800
H  -16.73000 16.99700 42.11200
H  -17.27900 15.28000 42.11600
H  -17.93500 16.37600 40.95100
H  -16.56700 13.00400 40.01600
H  -15.06500 12.16100 40.32000
H  -15.98000 13.10300 37.87200
H  -14.32500 12.53800 38.26300
H  -14.67300 14.26400 38.41500
H  -10.80300 11.39300 42.79900
H  -9.21500 11.08300 42.00700
H  -10.69700 10.99500 41.01600
H  -6.23800 15.02700 40.11400
H  -4.33800 17.08300 42.80000
H  -3.17100 15.79500 43.02900
H  -4.54200 15.81700 44.11500

