158

Mg 48.73700 34.92500 27.06200
C  46.62600 33.87100 29.77400
C  49.15700 37.92500 28.85400
C  50.05600 36.27100 24.33600
C  47.79100 32.09600 25.22300
N  48.02400 35.72800 29.12600
C  47.36300 35.05400 30.06600
C  47.55700 35.72200 31.47200
C  47.90600 37.17500 31.02300
C  48.41800 36.98400 29.59000
C  46.78400 38.25900 31.25500
C  48.76700 35.03600 32.18800
C  48.63400 34.92100 33.73000
H  47.72100 35.93000 34.52200
N  49.37600 36.85600 26.62600
C  49.63700 37.90000 27.49700
C  50.19800 39.05700 26.79500
C  50.40500 38.61000 25.47300
C  49.95600 37.18400 25.47100
C  50.44200 40.41000 27.45500
C  51.00000 39.24800 24.23200
O  50.88600 38.79000 23.10000
C  51.70300 40.64900 24.34400
N  48.75900 34.27400 25.10300
C  49.46800 34.96700 24.16800
C  49.66300 34.22600 22.87900
C  49.22400 32.75500 23.22600
C  48.60300 33.03000 24.62100
C  48.93600 34.83800 21.59900
C  50.41500 31.69400 23.14700
C  51.53500 31.76000 22.06800
N  47.60800 33.32100 27.41200
C  47.24800 32.25900 26.56700
C  46.43700 31.29600 27.30400
C  46.17700 31.94400 28.48900
C  46.83000 33.16100 28.53300
C  45.89900 29.94500 26.86100
C  45.45400 31.79200 29.72800
O  44.87100 30.79900 30.14400
C  45.62200 33.08300 30.62900
C  45.98000 32.69100 31.96300
O  46.83000 31.86100 32.30900
O  45.07400 33.20600 32.87900
C  45.05900 32.82800 34.31300
H  49.38800 38.88000 29.33100
H  50.59800 36.50700 23.41800
H  47.63600 31.14700 24.70400
H  46.65600 35.64300 32.08100
H  48.65300 37.43600 31.77300
H  46.89200 38.97400 32.07100
H  45.78600 37.84100 31.38900
H  46.71700 38.89400 30.37200
H  49.76500 35.40900 31.96000
H  48.96900 34.01500 31.86500
H  49.62300 35.01200 34.18100
H  48.31500 33.91500 34.00000
H  51.38000 40.53000 27.99700
H  49.57000 40.64500 28.06400
H  50.35600 41.17800 26.68600
H  51.04000 41.51400 24.35500
H  52.40400 40.81100 23.52600
H  52.25100 40.66100 25.28600
H  50.72500 34.23000 22.63200
H  48.40500 32.38500 22.61000
H  49.02300 35.91300 21.75800
H  47.89700 34.51000 21.59200
H  49.45600 34.41500 20.73900
H  50.09400 30.66700 22.97100
H  50.93700 31.87100 24.08700
H  51.16200 32.39500 21.26500
H  51.68400 30.74000 21.71200
H  52.54000 32.03500 22.38800
H  45.73500 29.90000 25.78400
H  44.94700 29.83400 27.38000
H  46.55900 29.15900 27.22700
H  44.72300 33.69700 30.57600
H  44.43400 33.56100 34.82300
H  46.04000 32.70300 34.77300
H  44.59800 31.85100 34.45700
Mg -4.76200 25.14400 26.15100
C  -3.11400 26.49500 28.96700
C  -6.98000 23.67500 28.27600
C  -6.04600 23.52300 23.49800
C  -2.35200 26.58500 24.11200
N  -4.91100 24.91900 28.39400
C  -4.20700 25.65200 29.34000
C  -4.70300 25.37300 30.73500
C  -5.65100 24.13600 30.52300
C  -5.88400 24.23400 28.98100
C  -4.96600 22.80500 30.95400
C  -5.48200 26.59300 31.25100
C  -5.94400 26.60900 32.74600
H  -5.70400 25.42200 33.56600
N  -6.34200 23.90000 25.90100
C  -7.24500 23.50900 26.87000
C  -8.22500 22.59500 26.35400
C  -7.81600 22.45600 24.99600
C  -6.63600 23.30500 24.75000
C  -9.43200 22.04600 27.10400
C  -8.55400 21.62600 23.87400
O  -8.25000 21.62000 22.68300
C  -9.65500 20.50900 24.25900
N  -4.21100 25.01900 24.07900
C  -4.94900 24.28200 23.19500
C  -4.31700 24.44700 21.74600
C  -3.32700 25.63300 21.92700
C  -3.24000 25.73800 23.48000
C  -3.68400 23.18300 21.17400
C  -3.65100 27.00800 21.24500
C  -2.66400 27.54200 20.27300
N  -3.07000 26.36000 26.42500
C  -2.23900 26.91600 25.47500
C  -1.23800 27.70100 26.12100
C  -1.52800 27.58000 27.52000
C  -2.66400 26.79700 27.64800
C  -0.13900 28.37800 25.39600
C  -1.10400 27.91500 28.87500
O  -0.11400 28.53400 29.27500
C  -2.23600 27.27400 29.80400
C  -1.49100 26.40200 30.68900
O  -0.82300 25.41600 30.45000
O  -1.72900 26.81800 31.97700
C  -1.28800 25.93900 33.00200
H  -7.61300 23.37800 29.11500
H  -6.51200 23.15800 22.58000
H  -1.69900 27.23000 23.52100
H  -3.91000 25.10200 31.43200
H  -6.59600 24.38200 31.00800
H  -5.43700 22.39500 31.84700
H  -3.92200 22.93400 31.23800
H  -5.07100 22.03200 30.19200
H  -6.42000 26.75200 30.71900
H  -4.86900 27.46300 31.01600
H  -6.83000 27.21000 32.94800
H  -5.27300 27.38100 33.12200
H  -10.30700 22.09200 26.45600
H  -9.63800 22.58500 28.02900
H  -9.33200 21.02000 27.45900
H  -9.46800 20.13700 25.26700
H  -9.41000 19.66100 23.61900
H  -10.64600 20.95200 24.16900
H  -5.16900 24.58600 21.08100
H  -2.32500 25.25200 21.72900
H  -4.12900 22.98800 20.19800
H  -3.98300 22.30900 21.75300
H  -2.61800 23.17200 20.94600
H  -3.80400 27.64600 22.11500
H  -4.60300 26.98200 20.71600
H  -1.74500 26.97200 20.41100
H  -2.49200 28.56500 20.60600
H  -3.06300 27.53700 19.25800
H  0.61500 28.68100 26.12300
H  -0.49900 29.30900 24.95600
H  0.19900 27.79100 24.54300
H  -2.71700 28.07700 30.36400
H  -0.40900 26.33100 33.51500
H  -1.10800 24.92300 32.65000
H  -2.13500 25.83900 33.68000

