158

Mg 7.88000 3.77600 27.42400
C  9.36500 2.49700 30.28800
C  5.98400 5.84500 29.51400
C  6.52700 4.99200 24.70800
C  9.15500 1.11400 25.59300
N  7.62500 4.02700 29.70300
C  8.40300 3.48400 30.61700
C  8.31900 4.31000 31.88000
C  7.13500 5.29000 31.68100
C  6.85400 5.02600 30.17200
C  5.94400 5.19100 32.59600
C  9.59100 5.07000 32.35100
C  9.56100 5.62600 33.77500
H  10.49000 5.12300 34.92400
N  6.49800 5.20300 27.16400
C  5.81400 5.92400 28.11600
C  4.97300 6.91000 27.48300
C  5.09500 6.71600 26.04900
C  6.04900 5.56900 25.93300
C  4.10000 7.91800 28.26700
C  4.41400 7.35500 24.87700
O  4.59600 7.13800 23.66800
C  3.57500 8.57600 25.18300
N  7.80700 3.08500 25.44600
C  7.26900 3.77200 24.46700
C  7.61400 3.26100 23.02300
C  8.42100 2.05400 23.32800
C  8.46900 2.07500 24.88600
C  6.37500 3.16600 22.09900
C  9.80100 2.06900 22.64900
C  10.97000 2.88300 23.26700
N  9.12000 2.20700 27.78900
C  9.53600 1.16300 26.94200
C  10.45800 0.30400 27.69800
C  10.42500 0.80900 29.04700
C  9.59900 1.95000 28.99600
C  11.16600 -0.88900 27.20100
C  10.91900 0.58000 30.40000
O  11.73800 -0.27000 30.78400
C  10.27500 1.66200 31.24500
C  9.60800 1.10500 32.42600
O  8.44500 0.67700 32.37300
O  10.43100 1.14200 33.58900
C  9.88300 0.29900 34.66400
H  5.37800 6.49100 30.15300
H  6.06900 5.46200 23.83500
H  9.62500 0.31700 25.01200
H  8.05000 3.56400 32.62700
H  7.47200 6.32500 31.63900
H  5.46800 6.11600 32.92100
H  6.23600 4.71800 33.53400
H  5.18800 4.50700 32.21100
H  9.71700 5.80600 31.55800
H  10.48100 4.44200 32.31500
H  8.53200 5.59900 34.13300
H  9.94800 6.63500 33.63600
H  4.42500 8.95000 28.13800
H  4.17400 7.69200 29.33100
H  3.05900 7.83300 27.95600
H  3.14200 8.95300 24.25700
H  4.22300 9.33100 25.62800
H  2.75500 8.36300 25.86900
H  8.36300 3.93300 22.60400
H  7.86300 1.21400 22.91400
H  5.42000 3.38900 22.57500
H  6.34300 2.13700 21.74200
H  6.49500 3.86200 21.26900
H  9.76100 2.33600 21.59300
H  10.03200 1.00400 22.65800
H  11.85400 2.37500 23.65300
H  10.60700 3.70600 23.88300
H  11.40900 3.47300 22.46300
H  10.63100 -1.33100 26.36100
H  11.34900 -1.63800 27.97100
H  12.09100 -0.46900 26.80500
H  11.14300 2.21800 31.60000
H  9.12500 -0.41300 34.33900
H  9.62100 0.98100 35.47300
H  10.68900 -0.37100 34.96400
Mg 35.61800 2.22100 29.59500
C  33.29300 3.17700 32.24200
C  38.02300 2.46400 31.85300
C  37.69400 1.51800 27.05100
C  33.09500 2.83300 27.32500
N  35.52600 2.57400 31.86400
C  34.60000 3.04500 32.67900
C  35.16800 2.99800 34.13400
C  36.70300 3.07000 33.97000
C  36.77400 2.66700 32.44600
C  37.28100 4.51900 34.20000
C  34.65700 1.85900 34.99100
C  34.89500 1.98900 36.54800
H  35.26800 3.35200 37.16200
N  37.66600 1.91100 29.47700
C  38.48300 2.12800 30.54300
C  39.77200 1.80900 30.07400
C  39.69900 1.40800 28.72900
C  38.32600 1.56300 28.36200
C  40.99100 1.97200 30.98800
C  40.69600 0.86700 27.63100
O  40.34900 0.53800 26.45300
C  42.12400 0.72400 27.94900
N  35.47700 2.29000 27.49600
C  36.39400 1.75300 26.68400
C  35.99900 1.72000 25.16900
C  34.51800 2.06500 25.30700
C  34.34100 2.37700 26.81100
C  36.73100 2.66900 24.17700
C  33.60500 0.82300 24.87500
C  32.10600 0.87800 24.77600
N  33.61300 2.87400 29.71600
C  32.67600 3.07600 28.66400
C  31.40600 3.47100 29.21100
C  31.61500 3.45200 30.64800
C  32.97300 3.13600 30.90300
C  30.17900 3.93100 28.46400
C  31.02600 3.79800 31.92700
O  29.90800 4.29200 32.03600
C  32.03400 3.52300 33.02300
C  32.05300 4.74300 33.86800
O  32.77000 5.70700 33.65400
O  31.19600 4.69200 34.89700
C  30.99300 5.81600 35.82000
H  38.89600 2.58800 32.49800
H  38.24500 1.15900 26.17900
H  32.35600 3.02000 26.54300
H  34.79700 3.92200 34.57700
H  37.34300 2.36100 34.49400
H  36.56700 5.05500 34.82600
H  37.40800 5.17700 33.34100
H  38.24500 4.56500 34.70700
H  34.97100 0.89800 34.58400
H  33.57900 1.84300 34.82800
H  35.72200 1.33300 36.82000
H  34.11600 1.68100 37.24600
H  41.86600 1.52100 30.51900
H  40.77400 1.26200 31.78600
H  41.15200 3.00500 31.29500
H  42.59800 1.69600 27.80800
H  42.50400 0.11000 27.13200
H  42.18000 0.12300 28.85600
H  36.08700 0.71400 24.76100
H  34.13700 2.87700 24.68700
H  37.64000 3.01200 24.67000
H  36.31300 3.58100 23.74900
H  36.97900 2.04100 23.32200
H  33.83400 0.07300 25.63200
H  34.04800 0.39100 23.97800
H  31.81300 0.21500 25.59000
H  31.90800 0.42200 23.80600
H  31.62400 1.85400 24.71700
H  30.29100 3.95600 27.38000
H  29.82200 4.90800 28.79000
H  29.33100 3.24700 28.48100
H  31.78700 2.63200 33.59900
H  31.02400 5.31600 36.78800
H  29.99500 6.20000 35.61100
H  31.77500 6.57200 35.75400

