158

Mg 1.66600 -0.22000 43.49600
C  5.10500 0.33700 43.21600
C  1.07100 2.76000 42.05400
C  -1.50200 -1.01900 43.57500
C  2.47600 -3.57500 44.54300
N  2.95800 1.30600 42.64700
C  4.31200 1.35500 42.68600
C  4.86700 2.65600 41.99900
C  3.51600 3.56700 42.05800
C  2.40800 2.46900 42.20700
C  3.53200 4.60300 43.18000
C  5.43400 2.34400 40.58600
C  6.89800 2.89700 40.14400
H  6.96100 3.80300 38.90400
N  0.03200 0.71400 42.89200
C  -0.03500 1.97500 42.32100
C  -1.44100 2.36600 42.16600
C  -2.25600 1.34900 42.76500
C  -1.23300 0.26800 43.13300
C  -1.93800 3.77500 41.54100
C  -3.78500 1.36600 43.00500
O  -4.45400 2.25400 42.52700
C  -4.52800 0.34800 43.73700
N  0.58500 -2.14600 43.88500
C  -0.76900 -2.08300 44.00600
C  -1.26000 -3.44000 44.42400
C  0.06300 -4.16400 44.92500
C  1.12200 -3.32200 44.29400
C  -2.34200 -3.33800 45.47800
C  0.11100 -5.65700 44.60600
C  0.23300 -6.60000 45.77000
N  3.40900 -1.44500 43.82800
C  3.60200 -2.74800 44.28000
C  5.00000 -2.95900 44.43600
C  5.63900 -1.79600 43.99600
C  4.58200 -0.86400 43.68200
C  5.67000 -4.25200 44.73000
C  7.02100 -1.20100 43.77500
O  8.15000 -1.56000 44.11800
C  6.61300 0.24400 43.28300
C  7.23900 1.21200 44.12600
O  6.70900 1.88000 45.03800
O  8.49000 1.44200 43.65600
C  9.42400 2.24200 44.41000
H  0.96900 3.75600 41.61700
H  -2.53800 -1.36300 43.54600
H  2.84000 -4.51300 44.96900
H  5.63400 3.00200 42.69200
H  3.48300 4.19600 41.16800
H  3.82600 5.56400 42.75700
H  4.27600 4.36400 43.94000
H  2.51800 4.75100 43.55100
H  4.81000 2.85700 39.85400
H  5.32000 1.28600 40.35100
H  7.53400 2.01900 40.03000
H  7.38100 3.40000 40.98200
H  -2.90600 3.72700 41.04100
H  -1.19500 4.19000 40.86000
H  -2.02200 4.39600 42.43200
H  -5.41600 0.73900 44.23400
H  -3.84900 -0.02800 44.50300
H  -4.78400 -0.48500 43.08200
H  -1.66800 -3.96800 43.56200
H  0.19900 -3.93800 45.98300
H  -2.58900 -2.29400 45.67000
H  -2.03100 -3.77600 46.42700
H  -3.18900 -3.89900 45.08300
H  0.98700 -5.78800 43.97100
H  -0.69400 -5.94400 43.92900
H  1.12500 -7.21900 45.66500
H  -0.59800 -7.28800 45.61300
H  0.14600 -6.09200 46.73000
H  5.65500 -4.79400 43.78400
H  5.12700 -4.75600 45.52900
H  6.70800 -4.02000 44.96500
H  7.03200 0.35000 42.28200
H  9.63700 3.25100 44.05900
H  10.41800 1.80200 44.48100
H  9.07400 2.51100 45.40700
Mg 46.99500 24.67200 28.31700
C  47.30700 27.02700 30.59800
C  46.57300 22.34400 30.75900
C  46.94300 22.38100 26.00900
C  47.72600 27.09800 25.79900
N  46.67100 24.71500 30.43700
C  46.85300 25.80100 31.17100
C  46.63100 25.53400 32.67200
C  46.80600 24.02800 32.69300
C  46.69000 23.65200 31.23300
C  48.11000 23.60000 33.43200
C  45.40300 26.20900 33.31600
C  45.26900 25.87000 34.83000
H  45.25200 26.95700 35.86000
N  46.65700 22.69400 28.35000
C  46.54000 21.91700 29.48400
C  46.32400 20.55200 29.08000
C  46.42700 20.49700 27.65200
C  46.69900 21.90100 27.27100
C  45.86900 19.39800 30.02000
C  46.40200 19.24200 26.69300
O  46.39000 19.42600 25.47100
C  46.35800 17.80000 27.13200
N  47.18800 24.80400 26.18200
C  47.19300 23.63300 25.48200
C  47.47000 23.97700 23.93600
C  47.22600 25.49300 23.86200
C  47.47100 25.83500 25.33000
C  48.84600 23.57700 23.44200
C  45.88400 26.13600 23.38800
C  44.63300 25.49100 23.94200
N  47.62400 26.64800 28.16400
C  47.92100 27.50200 27.12300
C  48.19300 28.84500 27.63200
C  47.87500 28.76000 28.98700
C  47.59200 27.35500 29.28600
C  48.54400 29.98800 26.72700
C  47.81800 29.47200 30.26000
O  48.11800 30.57900 30.65100
C  47.41100 28.36500 31.31600
C  48.55300 28.34400 32.28500
O  49.64900 27.85500 32.08500
O  48.11300 28.74400 33.53100
C  49.01000 28.50400 34.70900
H  46.55900 21.68600 31.63100
H  46.82200 21.69700 25.16600
H  47.81800 27.86200 25.02400
H  47.52000 26.05500 33.02700
H  46.02800 23.56300 33.29700
H  48.98400 23.38300 32.81800
H  47.82500 22.72800 34.02000
H  48.37600 24.35800 34.16900
H  44.48300 25.84300 32.86000
H  45.45600 27.29500 33.24100
H  46.12500 25.24200 35.07700
H  44.35900 25.29800 35.01600
H  46.54800 18.58300 29.76700
H  44.86000 19.20900 29.65300
H  45.95100 19.67900 31.07000
H  47.35600 17.56700 27.50400
H  46.07400 17.12000 26.32900
H  45.60600 17.62500 27.90200
H  46.79300 23.51300 23.22000
H  48.04900 25.90600 23.27800
H  49.24400 22.90300 24.20100
H  49.52400 24.39500 23.20000
H  48.85600 23.10400 22.46000
H  45.95600 26.06400 22.30300
H  45.89000 27.20500 23.59800
H  44.02400 26.32000 24.30400
H  44.80900 24.72800 24.70000
H  44.10000 24.94300 23.16600
H  48.36500 30.96100 27.18600
H  48.01000 29.90300 25.78000
H  49.58400 29.91100 26.41100
H  46.49800 28.68000 31.82000
H  49.58300 27.58200 34.61400
H  48.26800 28.43000 35.50300
H  49.53000 29.43800 34.92400

