158

Mg 40.37700 8.57200 28.93800
C  42.48200 9.80400 31.56100
C  38.38400 7.05200 31.40300
C  38.52900 7.44100 26.48800
C  42.83700 9.66000 26.57100
N  40.48500 8.42300 31.16400
C  41.35900 9.13500 32.01700
C  40.87600 9.02200 33.51800
C  39.75200 7.86200 33.40100
C  39.51200 7.71200 31.91600
C  39.96300 6.58000 34.16800
C  40.28200 10.42300 34.02500
C  41.07900 11.12100 35.15700
H  40.42300 11.94900 36.22600
N  38.71200 7.35900 28.91200
C  37.96900 6.85500 30.00000
C  36.82300 6.10000 29.51400
C  36.84100 6.20400 28.03500
C  38.04400 7.06700 27.76200
C  35.72500 5.48100 30.36300
C  35.97100 5.54700 27.01300
O  36.01000 5.76700 25.82300
C  34.95400 4.44700 27.34600
N  40.69100 8.48700 26.80900
C  39.71100 8.09300 26.02600
C  40.08400 8.30200 24.53100
C  41.37600 9.05000 24.60000
C  41.65900 9.08600 26.05300
C  40.09400 7.05900 23.59700
C  41.42500 10.37900 23.91900
C  40.76500 11.58500 24.53900
N  42.26300 9.54900 28.97900
C  43.12700 9.84800 27.96100
C  44.28300 10.49200 28.52000
C  44.00400 10.54500 29.92200
C  42.83100 9.92100 30.18200
C  45.59700 10.76300 27.92300
C  44.61000 10.84100 31.18600
O  45.72700 11.27700 31.39600
C  43.60000 10.49300 32.28800
C  44.30500 9.69000 33.31900
O  44.85300 8.60600 33.14000
O  44.34100 10.32000 34.55200
C  44.79100 9.38700 35.59100
H  37.72700 6.70300 32.20300
H  37.88800 7.09700 25.67400
H  43.63700 9.95200 25.88700
H  41.65800 8.73000 34.22000
H  38.82800 8.30800 33.76800
H  39.14700 6.30600 34.83600
H  40.85600 6.75000 34.76900
H  40.04000 5.66900 33.57400
H  39.25200 10.44500 34.37900
H  40.27900 11.05200 33.13400
H  41.77800 11.86000 34.76600
H  41.63900 10.28000 35.56600
H  34.76000 5.96800 30.21800
H  35.80300 5.64300 31.43800
H  35.76900 4.44600 30.02500
H  35.39400 3.73700 28.04600
H  34.78200 3.96600 26.38300
H  34.06700 4.86900 27.81700
H  39.26700 8.87700 24.09500
H  42.14400 8.41100 24.16400
H  40.72600 7.38800 22.77200
H  39.12600 6.79000 23.17400
H  40.53900 6.16600 24.03700
H  40.99100 10.23800 22.92900
H  42.48600 10.62700 23.89000
H  41.40500 12.45000 24.36600
H  40.42600 11.56200 25.57500
H  39.86200 11.83400 23.98100
H  46.41700 10.27500 28.45000
H  45.75600 11.84100 27.93200
H  45.80200 10.74400 26.85300
H  43.38000 11.48900 32.67100
H  44.11400 8.55000 35.76100
H  44.78400 10.00700 36.48800
H  45.75700 8.91500 35.41200
Mg 6.69400 54.61100 40.74900
C  5.83900 51.14400 40.57100
C  9.82900 53.80300 40.00100
C  7.18700 57.82100 39.93600
C  3.19100 55.27600 40.83700
N  7.65300 52.64800 40.21000
C  7.22300 51.38900 40.22700
C  8.27800 50.36200 39.84500
C  9.56400 51.16100 40.19100
C  9.01600 52.65700 40.12800
C  10.21400 50.74200 41.57700
C  8.19700 49.81100 38.34000
C  7.38600 50.68700 37.27200
H  6.78400 50.02900 36.02800
N  8.34700 55.76900 40.27200
C  9.60400 55.21200 39.95000
C  10.49500 56.26600 39.67200
C  9.75300 57.49200 39.81500
C  8.38100 57.04100 40.00900
C  11.91500 55.98700 39.35900
C  10.37500 58.86500 39.68000
O  11.53900 58.98500 39.42000
C  9.54600 60.09000 39.73700
N  5.35900 56.35700 40.44300
C  5.85000 57.53800 40.08700
C  4.74500 58.54800 39.74000
C  3.46600 57.80200 40.33900
C  4.01500 56.35500 40.54300
C  5.03500 60.00400 40.24600
C  2.14800 57.83200 39.48300
C  0.86500 58.30100 40.21200
N  4.84900 53.48300 40.83600
C  3.51700 53.90300 41.02200
C  2.68100 52.71500 41.18800
C  3.52400 51.68400 41.05000
C  4.86700 52.17700 40.82700
C  1.20000 52.74900 41.41700
C  3.58400 50.25900 41.06700
O  2.71900 49.41400 41.22700
C  5.10300 49.86800 40.81100
C  5.10100 48.97400 39.53100
O  4.82800 49.36900 38.41600
O  5.39900 47.65700 39.93200
C  5.11800 46.57900 38.98100
H  10.86200 53.45000 39.95600
H  7.36200 58.76600 39.41700
H  2.13100 55.47500 41.00900
H  8.14100 49.42800 40.39000
H  10.35800 50.91800 39.48500
H  10.38600 51.65200 42.15200
H  11.16400 50.28800 41.29500
H  9.65400 50.10200 42.26000
H  7.81000 48.79600 38.43100
H  9.22300 49.59600 38.03900
H  8.17700 51.36400 36.94800
H  6.59100 51.29400 37.70500
H  12.21500 56.31800 38.36400
H  12.06200 54.92000 39.52500
H  12.59900 56.33700 40.13200
H  8.89600 60.13200 38.86400
H  10.29900 60.87800 39.76800
H  8.98300 60.12900 40.66900
H  4.73500 58.63500 38.65400
H  3.29400 58.23300 41.32500
H  6.07600 60.08000 40.56000
H  4.57200 60.44900 41.12700
H  4.92700 60.73500 39.44600
H  2.00000 56.91700 38.91000
H  2.38900 58.55500 38.70300
H  0.41000 59.15100 39.70400
H  1.11900 58.71000 41.19000
H  0.17700 57.47500 40.39200
H  0.65100 52.02700 40.81200
H  0.89000 53.78400 41.27500
H  0.97400 52.70600 42.48200
H  5.38100 49.26200 41.67400
H  4.94900 45.57600 39.37400
H  5.84700 46.50700 38.17400
H  4.21200 46.82700 38.42800

