158

Mg 50.63700 46.65500 42.80900
C  47.47100 47.87800 41.71000
C  49.91500 43.73100 41.06600
C  53.80300 45.75100 43.06900
C  51.21600 49.76100 44.22500
N  48.92900 45.95400 41.36800
C  47.72500 46.54300 41.21500
C  46.68900 45.58000 40.53900
C  47.42900 44.19400 40.60600
C  48.83300 44.64200 41.02800
C  46.82500 43.15400 41.56100
C  46.41500 46.00000 39.06200
C  45.03600 45.53800 38.68300
H  44.78900 44.36900 37.73000
N  51.65400 44.82900 42.33900
C  51.22300 43.79400 41.61600
C  52.29400 42.80700 41.47000
C  53.46100 43.44500 41.93400
C  53.00200 44.71500 42.53500
C  52.18900 41.47400 40.65300
C  54.87500 42.83600 41.87400
O  54.99600 41.75400 41.30000
C  56.07400 43.41300 42.42800
N  52.33400 47.61600 43.62000
C  53.56700 47.02500 43.55300
C  54.58100 47.92600 44.16000
C  53.76700 49.17100 44.58300
C  52.37600 48.93800 44.03700
C  55.26500 47.24900 45.30900
C  54.52600 50.52700 44.18600
C  55.01400 51.53800 45.27800
N  49.59900 48.49100 42.96900
C  49.98900 49.62700 43.66200
C  48.82200 50.58300 43.68900
C  47.87100 49.86400 42.93700
C  48.39400 48.70000 42.47900
C  48.81900 51.93000 44.24900
C  46.52100 49.95900 42.46400
O  45.65100 50.85200 42.61200
C  46.20700 48.69200 41.64300
C  44.91100 48.10400 42.00600
O  44.67100 47.38500 42.96800
O  43.97700 48.43400 41.07400
C  42.58000 47.87900 41.20900
H  49.63800 42.78900 40.58800
H  54.83900 45.46100 43.25900
H  51.52700 50.71200 44.66100
H  45.89600 45.54100 41.28600
H  47.49700 43.73300 39.62000
H  47.05100 42.15000 41.20200
H  45.75500 43.31800 41.43500
H  47.13600 43.20800 42.60500
H  47.05700 45.53800 38.31200
H  46.40400 47.09000 39.05500
H  44.46400 46.31300 38.17300
H  44.37000 45.35500 39.52700
H  52.84800 41.71700 39.81900
H  51.18900 41.18400 40.33200
H  52.72000 40.60500 41.04200
H  56.15700 44.47700 42.20400
H  56.98300 42.94200 42.05400
H  55.81900 43.29600 43.48100
H  55.26800 48.11600 43.33600
H  53.63800 49.16100 45.66500
H  54.91800 46.21600 45.32900
H  55.18700 47.74200 46.27800
H  56.32600 47.20900 45.06200
H  53.83400 51.11500 43.58300
H  55.48400 50.35000 43.69700
H  55.98400 51.96000 45.01100
H  55.04800 51.10200 46.27600
H  54.26400 52.32400 45.36400
H  49.55600 52.03800 45.04500
H  47.83700 52.05900 44.70200
H  48.88000 52.65700 43.43800
H  46.07200 48.92300 40.58700
H  42.76500 46.82400 41.00300
H  41.88100 48.33000 40.50500
H  42.15600 48.04000 42.20000
Mg 48.98600 35.18800 26.91500
C  46.85200 33.83900 29.52800
C  49.08500 38.10200 28.51100
C  50.34900 36.49100 24.10800
C  47.95600 32.34400 25.00500
N  48.23600 35.76400 28.85600
C  47.48900 35.13700 29.83900
C  47.65400 35.85900 31.18700
C  47.96000 37.29600 30.71800
C  48.41800 37.07100 29.28400
C  46.64900 38.23100 30.73200
C  48.84300 35.26900 32.08000
C  48.57700 35.26800 33.59100
H  47.61000 36.22300 34.18300
N  49.88100 36.98800 26.46500
C  49.73100 38.08200 27.24700
C  50.43500 39.17600 26.51900
C  50.77600 38.71500 25.18800
C  50.27900 37.33100 25.20200
C  50.71300 40.49800 27.19400
C  51.47700 39.38100 24.09200
O  51.57000 38.88500 22.96400
C  52.09800 40.77900 24.36200
N  49.16800 34.49100 24.82100
C  49.85800 35.17800 23.86000
C  49.76800 34.47800 22.50000
C  49.24800 33.08700 22.88400
C  48.81700 33.30800 24.35300
C  48.84900 35.14300 21.45200
C  50.23800 31.82600 22.73600
C  49.50000 30.59900 22.12800
N  47.72800 33.51800 27.15700
C  47.45800 32.44800 26.28900
C  46.55100 31.57200 26.92100
C  46.35700 32.04100 28.22600
C  46.99400 33.25900 28.27600
C  46.11200 30.23700 26.37200
C  45.67000 31.74100 29.50300
O  45.01000 30.80300 29.84900
C  45.91200 32.96900 30.31800
C  46.32700 32.62200 31.63900
O  47.42400 32.19300 31.98300
O  45.20500 32.64300 32.46300
C  45.58900 32.26000 33.86200
H  49.20300 39.03800 29.06100
H  50.68600 36.81100 23.12000
H  47.62900 31.52100 24.36600
H  46.67000 35.76700 31.64700
H  48.69300 37.75200 31.38400
H  45.71900 37.70100 30.93600
H  46.52800 38.68100 29.74700
H  46.71200 39.08300 31.40900
H  49.68200 35.96400 32.03800
H  49.17000 34.30700 31.68800
H  49.47000 35.50900 34.16600
H  48.25000 34.24000 33.74400
H  51.64700 40.37400 27.74300
H  50.07400 40.64000 28.06500
H  50.55200 41.42400 26.64300
H  51.23600 41.40600 24.58600
H  52.63700 41.12600 23.48000
H  52.76000 40.85000 25.22500
H  50.72900 34.35100 22.00300
H  48.27300 32.92400 22.42600
H  48.69900 36.20100 21.66800
H  47.84800 34.72300 21.35300
H  49.42600 35.06800 20.53100
H  50.69700 31.52400 23.67800
H  50.96900 32.17700 22.00800
H  50.08700 30.21500 21.29400
H  48.46400 30.79000 21.84700
H  49.51000 29.85900 22.92900
H  46.95400 29.76100 25.87000
H  45.30200 30.49300 25.68900
H  45.73200 29.58800 27.16100
H  44.98800 33.54100 30.39200
H  45.81700 31.19500 33.89700
H  44.78300 32.46700 34.56700
H  46.43000 32.83400 34.25300

