158

Mg 8.92800 2.95000 27.12600
C  10.23600 1.48100 30.04300
C  7.28800 5.17600 29.23900
C  7.52900 4.33100 24.43900
C  10.56000 0.66500 25.20600
N  8.62500 3.18200 29.51000
C  9.41300 2.55500 30.41900
C  9.19600 3.16700 31.83800
C  8.05200 4.28200 31.58300
C  7.94900 4.26900 30.03200
C  6.69900 4.14100 32.27400
C  10.53500 3.66500 32.52700
C  10.42600 4.33900 33.86700
H  11.16300 3.66900 35.03200
N  7.59000 4.43400 26.87200
C  7.01600 5.25300 27.86200
C  6.16400 6.30200 27.22800
C  6.27500 6.15100 25.82400
C  7.12500 4.92200 25.64200
C  5.19300 7.19600 28.00800
C  5.62100 6.94300 24.74900
O  5.79600 6.65900 23.53500
C  4.86600 8.22500 25.07400
N  9.15200 2.64900 25.06000
C  8.37100 3.28600 24.18100
C  8.57100 2.67000 22.78800
C  9.68100 1.61600 22.97600
C  9.85200 1.65100 24.49900
C  7.25200 2.10400 22.24000
C  11.11000 2.02300 22.31300
C  11.31900 1.26600 20.98400
N  9.95700 1.24200 27.48300
C  10.60400 0.45600 26.63300
C  11.38400 -0.55500 27.36800
C  11.28300 -0.17800 28.73100
C  10.43900 0.99100 28.71500
C  11.94700 -1.85000 26.89000
C  11.63800 -0.54100 30.14200
O  12.30600 -1.38300 30.64000
C  11.08700 0.57600 30.94600
C  10.27100 0.00900 32.10300
O  9.13500 -0.30700 32.06500
O  11.02800 0.01100 33.26800
C  10.36300 -0.26400 34.49400
H  6.95700 6.05700 29.79300
H  7.22400 4.76600 23.48500
H  11.25200 0.04300 24.63500
H  8.73000 2.50100 32.56400
H  8.41400 5.24200 31.95100
H  5.81100 4.02600 31.65300
H  6.42100 4.98300 32.90800
H  6.81700 3.33100 32.99500
H  11.07900 4.26000 31.79400
H  11.12100 2.75700 32.67300
H  9.34900 4.40200 34.02100
H  10.84200 5.34000 33.75100
H  4.19900 6.96900 27.62300
H  5.21500 8.27800 27.87400
H  5.22700 6.97300 29.07400
H  5.45700 8.87100 25.72400
H  3.91700 7.92200 25.51500
H  4.57100 8.84300 24.22600
H  8.81100 3.43100 22.04500
H  9.21100 0.69600 22.62700
H  6.42400 2.68100 22.65200
H  7.11400 1.05400 22.50000
H  7.22100 2.30100 21.16900
H  11.99700 1.78700 22.90100
H  11.07500 3.11300 22.31400
H  11.30600 2.08700 20.26800
H  10.49500 0.65400 20.61700
H  12.33000 0.86400 20.91500
H  11.53800 -2.71200 27.41800
H  13.02400 -1.90100 27.05300
H  11.71100 -2.06000 25.84700
H  11.90900 1.10000 31.43400
H  9.32000 -0.58100 34.49000
H  10.33900 0.70900 34.98400
H  10.97800 -0.93100 35.09800
Mg -9.97000 18.28300 42.62200
C  -6.64200 17.29500 42.52700
C  -9.05400 21.42400 41.64700
C  -13.22500 19.04000 41.81400
C  -10.82600 14.95100 42.93600
N  -8.12900 19.20200 42.04500
C  -6.86500 18.67400 42.15400
C  -5.75400 19.62500 41.75900
C  -6.54200 20.95100 41.95300
C  -8.02300 20.50400 41.81900
C  -6.27300 21.82000 43.26900
C  -5.09400 19.32600 40.43700
C  -6.02900 18.65700 39.46400
H  -5.41600 18.51500 38.07100
N  -11.00000 20.09800 42.03000
C  -10.42200 21.27600 41.74500
C  -11.46400 22.30300 41.48800
C  -12.73300 21.56900 41.61600
C  -12.37600 20.19100 41.87000
C  -11.15300 23.79900 41.17300
C  -14.05300 22.20600 41.48300
O  -14.06800 23.44700 41.36200
C  -15.26600 21.43900 41.58400
N  -11.85500 17.15700 42.49500
C  -13.02300 17.68800 42.10600
C  -14.11200 16.55600 41.90900
C  -13.41200 15.35100 42.70500
C  -11.89700 15.80700 42.59500
C  -15.48000 16.87800 42.52400
C  -13.79300 13.96300 42.05800
C  -13.75600 12.87800 43.04400
N  -8.91100 16.43600 42.82500
C  -9.42500 15.14800 43.04700
C  -8.38600 14.17100 43.19600
C  -7.22500 14.99800 43.07300
C  -7.62000 16.33800 42.83500
C  -8.52200 12.65000 43.13800
C  -5.77200 14.98300 42.94200
O  -4.96200 14.10000 42.88600
C  -5.30000 16.49700 42.73000
C  -4.59800 17.07800 43.85700
O  -3.47100 17.59400 43.75900
O  -5.33700 17.07100 45.02400
C  -4.74300 17.69200 46.19600
H  -8.76400 22.45500 41.43500
H  -14.15600 19.33500 41.32500
H  -11.16900 13.91700 43.02300
H  -4.95800 19.62400 42.50300
H  -6.40700 21.57100 41.06600
H  -7.14200 21.90200 43.92200
H  -5.89400 22.79200 42.95400
H  -5.52000 21.30400 43.86400
H  -4.28600 18.60500 40.56100
H  -4.73800 20.21100 39.91100
H  -6.93000 19.24000 39.27300
H  -6.16000 17.62700 39.79800
H  -11.87800 24.27800 40.51500
H  -10.27900 23.79300 40.52300
H  -11.00600 24.35800 42.09700
H  -15.23500 20.82400 42.48400
H  -15.40000 20.85400 40.67400
H  -16.06900 22.14700 41.78900
H  -14.26900 16.36100 40.84800
H  -13.73900 15.29900 43.74300
H  -15.57500 17.77300 43.13900
H  -15.77800 16.08700 43.21200
H  -16.18800 17.03800 41.71100
H  -13.06400 13.75500 41.27500
H  -14.79000 14.04700 41.62600
H  -13.32800 13.19800 43.99400
H  -13.17600 12.02300 42.69600
H  -14.73900 12.42900 43.19100
H  -9.30300 12.42300 42.41300
H  -8.92800 12.17400 44.03100
H  -7.65300 12.12500 42.74200
H  -4.59400 16.71300 41.92800
H  -3.69500 17.47700 46.40600
H  -5.35500 17.37400 47.04100
H  -5.00800 18.74500 46.10300

