158

Mg -2.19000 16.57300 26.10100
C  -2.62900 14.30500 28.86200
C  -2.76600 19.11800 28.25800
C  -2.49900 18.62600 23.51000
C  -1.78300 13.91500 24.03500
N  -2.75900 16.62700 28.31800
C  -2.89900 15.62200 29.26800
C  -3.29900 16.15900 30.65600
C  -3.14300 17.74500 30.37100
C  -2.96400 17.84800 28.82800
C  -4.43300 18.46600 30.81400
C  -2.42300 15.71900 31.90400
C  -2.24800 16.60700 33.09000
H  -2.42500 15.96700 34.49300
N  -2.38400 18.62900 25.95400
C  -2.53200 19.53300 26.97200
C  -2.74200 20.87500 26.41100
C  -2.73900 20.74400 25.02600
C  -2.54100 19.24400 24.75900
C  -3.10200 22.12900 27.21700
C  -2.95800 21.79100 23.93700
O  -2.89900 21.59200 22.71200
C  -3.04500 23.11800 24.31900
N  -2.01300 16.33100 24.08000
C  -2.22200 17.27600 23.16700
C  -2.32600 16.75100 21.66600
C  -2.05900 15.21600 21.95300
C  -1.92000 15.16600 23.41800
C  -3.68100 17.05500 20.91100
C  -0.89300 14.55600 21.11500
C  0.60200 14.84800 21.41500
N  -2.07600 14.58000 26.36100
C  -1.93800 13.56500 25.41200
C  -2.00000 12.30200 26.00700
C  -2.14900 12.56200 27.32600
C  -2.28000 13.90200 27.52100
C  -1.68500 11.02600 25.38500
C  -2.31500 11.88900 28.60400
O  -2.36900 10.71600 28.89000
C  -2.60000 13.04900 29.64200
C  -1.42200 12.97700 30.55400
O  -0.33700 13.53300 30.44200
O  -1.69500 12.00900 31.46400
C  -0.69800 11.73000 32.55300
H  -2.97100 19.89600 28.99600
H  -2.75500 19.22300 22.63200
H  -1.77100 13.08700 23.32300
H  -4.31400 15.86600 30.92200
H  -2.32400 18.20100 30.92800
H  -5.09300 17.79400 31.36300
H  -4.87200 19.01400 29.98000
H  -4.13400 19.28900 31.46400
H  -1.48300 15.40900 31.44800
H  -2.88700 14.78300 32.21500
H  -2.93200 17.45500 33.14300
H  -1.26800 17.08300 33.12100
H  -4.09600 22.47600 26.93700
H  -2.30100 22.85800 27.09900
H  -3.19000 21.77900 28.24600
H  -3.94100 23.12800 24.93900
H  -3.05700 23.69700 23.39500
H  -2.14900 23.35300 24.89300
H  -1.51700 17.16300 21.06400
H  -2.96500 14.64600 21.74700
H  -3.45400 17.65300 20.02900
H  -4.23700 17.79400 21.48700
H  -4.23700 16.14100 20.70100
H  -1.02000 14.93100 20.10000
H  -0.92500 13.47100 21.21600
H  0.83800 15.45900 22.28600
H  1.21100 15.32900 20.65000
H  1.00100 13.87300 21.69300
H  -1.41800 10.33400 26.18400
H  -0.85700 11.16000 24.68800
H  -2.47700 10.58000 24.78500
H  -3.56000 12.91200 30.13900
H  -1.22900 12.11100 33.42500
H  0.29900 12.17200 32.57300
H  -0.58100 10.70100 32.89400
Mg 8.68500 2.99500 27.69400
C  9.81900 1.60500 30.34500
C  6.76100 5.23000 29.42500
C  7.21500 4.08700 24.65000
C  10.19300 0.44700 25.63800
N  8.16900 3.26000 29.66300
C  8.85500 2.61300 30.63300
C  8.49200 3.22000 32.01200
C  7.45800 4.33400 31.71000
C  7.33100 4.25800 30.19500
C  6.07600 4.19800 32.37000
C  9.83400 3.82400 32.71300
C  10.21500 3.39600 34.12600
H  10.58600 4.40000 35.25700
N  7.25700 4.39800 27.13800
C  6.64800 5.35400 28.01400
C  5.96800 6.34400 27.25600
C  6.04800 5.99100 25.88400
C  6.88900 4.76500 25.87300
C  5.24500 7.49000 27.95100
C  5.36000 6.69100 24.72700
O  5.34800 6.25500 23.59900
C  4.72100 8.07400 24.93200
N  8.59000 2.21800 25.38100
C  8.03200 2.93200 24.42000
C  8.38700 2.47900 23.02200
C  9.45700 1.39400 23.30100
C  9.41800 1.34100 24.84800
C  7.06600 2.04600 22.11300
C  10.78600 1.56600 22.60700
C  10.82700 0.96000 21.16200
N  9.78200 1.21900 27.93800
C  10.37300 0.42100 27.04200
C  11.16100 -0.55100 27.83100
C  11.08400 -0.04700 29.22600
C  10.16900 1.01500 29.13800
C  11.94100 -1.65200 27.31900
C  11.40500 -0.24300 30.63900
O  12.19300 -0.98500 31.21200
C  10.60600 0.86900 31.43600
C  9.84200 0.11700 32.50600
O  8.78800 -0.45600 32.34000
O  10.45000 0.20600 33.76400
C  9.74100 -0.19600 34.93300
H  6.12400 5.86200 30.04800
H  6.95900 4.58100 23.71100
H  10.78600 -0.25300 25.04500
H  8.11500 2.43100 32.66200
H  7.89200 5.30700 31.93900
H  6.10300 3.54300 33.24000
H  5.27600 3.80400 31.74300
H  5.84600 5.21100 32.70000
H  9.83300 4.91300 32.66300
H  10.64000 3.61300 32.01100
H  11.08100 2.74000 34.03800
H  9.42800 2.69600 34.40800
H  5.19200 7.52200 29.03900
H  4.17800 7.45900 27.72800
H  5.58400 8.40900 27.47300
H  5.44800 8.78300 25.32700
H  3.74100 8.00200 25.40400
H  4.51900 8.51600 23.95700
H  8.74600 3.29500 22.39500
H  8.97200 0.46100 23.01200
H  7.12700 1.13400 21.52000
H  6.88300 2.83000 21.37800
H  6.23700 1.94600 22.81400
H  11.48000 1.07200 23.28600
H  10.87500 2.65000 22.67600
H  11.09600 1.84700 20.58900
H  9.87700 0.56600 20.80000
H  11.58500 0.18400 21.05400
H  11.62400 -1.91200 26.30900
H  11.58200 -2.45400 27.96400
H  13.01900 -1.49300 27.31200
H  11.30800 1.58000 31.87100
H  9.86100 0.71600 35.51800
H  10.10800 -1.03100 35.53000
H  8.71500 -0.41900 34.64000

