158

Mg 48.12700 16.36300 29.00500
C  46.13900 16.11300 31.88700
C  50.51200 17.84200 30.80500
C  49.77700 16.81400 26.12000
C  45.43900 14.95800 27.19600
N  48.24300 16.97500 31.15700
C  47.38400 16.74200 32.15000
C  47.82300 17.24300 33.43900
C  49.20900 18.01300 33.09000
C  49.34800 17.58800 31.59700
C  49.29900 19.53500 33.23200
C  47.92200 16.26800 34.64800
C  47.31400 16.84700 35.98200
H  47.05400 18.27500 36.22900
N  49.97500 17.19000 28.52400
C  50.77300 17.83700 29.43500
C  52.00800 18.18800 28.74100
C  51.82300 17.99900 27.36100
C  50.52200 17.25700 27.27500
C  53.12300 18.84800 29.41800
C  52.72400 18.39800 26.15600
O  52.43800 17.92700 25.06200
C  54.02900 19.20800 26.29400
N  47.63900 16.00700 26.94500
C  48.48600 16.21700 25.93300
C  48.08900 15.59500 24.61100
C  46.73600 14.86200 25.02900
C  46.60800 15.21000 26.52800
C  47.76000 16.53100 23.45000
C  46.86600 13.28900 24.90400
C  45.83300 12.71700 23.89600
N  46.18100 15.63300 29.40700
C  45.21800 15.15600 28.54700
C  44.05000 14.82200 29.29800
C  44.36600 15.13400 30.59400
C  45.67900 15.63800 30.64300
C  42.81100 14.10300 28.76500
C  43.89800 15.08100 31.90800
O  42.92400 14.58300 32.42700
C  45.02900 15.77000 32.81000
C  44.39600 16.95800 33.50500
O  44.34700 18.10400 33.15500
O  43.79000 16.45900 34.65700
C  42.70100 17.31100 35.27900
H  51.17800 18.46400 31.40800
H  50.37900 16.82300 25.20900
H  44.67700 14.44000 26.61100
H  47.07700 17.99800 33.68700
H  49.99900 17.53400 33.66900
H  49.38200 19.89200 32.20500
H  50.22800 19.60700 33.79700
H  48.37200 19.90300 33.67200
H  48.94300 16.02300 34.94000
H  47.32000 15.39700 34.38700
H  48.07200 16.54000 36.70100
H  46.42100 16.27300 36.23000
H  54.03400 18.33300 29.11500
H  53.10500 18.89800 30.50700
H  53.16400 19.85800 29.01000
H  54.14600 19.75600 27.22900
H  54.20200 19.75200 25.36600
H  54.78500 18.42800 26.38900
H  48.88600 14.89200 24.36800
H  45.82000 15.22200 24.56100
H  48.36300 16.56700 22.54200
H  47.92600 17.55900 23.77100
H  46.74200 16.39400 23.08600
H  46.80400 12.83000 25.89100
H  47.78500 13.08600 24.35500
H  46.48300 12.38400 23.08700
H  45.07300 13.41200 23.54000
H  45.37400 11.88300 24.42500
H  42.58000 13.19900 29.33000
H  42.98300 13.73000 27.75600
H  41.98900 14.81600 28.82900
H  45.26900 15.19800 33.70700
H  42.03500 16.76400 35.94600
H  42.01100 17.65200 34.50700
H  43.21100 18.12300 35.79700
Mg 36.03000 48.56900 24.05900
C  36.51700 46.77000 27.04400
C  34.33700 50.93200 25.77500
C  35.39700 49.98200 21.14600
C  37.37000 45.65800 22.26200
N  35.46500 48.74200 26.14500
C  35.93600 48.04200 27.29500
C  35.54600 48.65600 28.56100
C  34.71900 49.92500 28.09100
C  34.76000 49.83200 26.58300
C  33.29000 50.19000 28.70100
C  36.84300 49.07900 29.34400
C  36.85800 48.89600 30.89600
H  35.56000 49.14400 31.63000
N  35.08200 50.25200 23.47500
C  34.40800 51.12600 24.33800
C  34.03000 52.30100 23.59900
C  34.23700 51.99200 22.21400
C  34.95600 50.69900 22.18800
C  33.56300 53.51200 24.31500
C  33.80500 52.78300 20.98700
O  34.12400 52.50200 19.82800
C  33.18400 54.10000 21.28300
N  36.46600 47.99200 21.99000
C  36.11300 48.80200 21.03000
C  36.49500 48.29600 19.63600
C  37.25600 46.90000 19.97500
C  37.07600 46.83500 21.47800
C  35.28500 48.02300 18.61400
C  38.81500 46.94800 19.65500
C  39.26900 46.18300 18.44000
N  36.73100 46.68200 24.50000
C  37.20400 45.60700 23.66300
C  37.36600 44.41400 24.50700
C  37.17400 44.87400 25.83300
C  36.72300 46.20300 25.77000
C  37.57200 43.03400 24.02000
C  37.27100 44.42200 27.26700
O  37.65100 43.42700 27.79400
C  36.87800 45.68400 28.04400
C  35.75900 45.44100 28.97300
O  34.62500 45.34700 28.59700
O  36.21100 45.28700 30.28000
C  35.11600 45.01500 31.27800
H  33.84700 51.73800 26.32500
H  35.23600 50.42600 20.16200
H  37.70500 44.76000 21.73700
H  34.80000 48.09500 29.12400
H  35.28800 50.82900 28.31200
H  33.37200 49.74500 29.69200
H  32.50000 49.71200 28.12000
H  33.08300 51.25800 28.76100
H  37.12500 50.07500 29.00300
H  37.66900 48.50400 28.92600
H  37.65600 49.52900 31.28400
H  37.24300 47.88600 31.03300
H  34.14800 54.30200 23.84300
H  33.81900 53.48600 25.37400
H  32.48100 53.48500 24.19200
H  32.27400 53.80500 21.80700
H  33.05000 54.53300 20.29100
H  33.78500 54.76100 21.90800
H  37.25900 48.96200 19.23500
H  36.80900 46.06900 19.43000
H  34.48300 48.69000 18.93200
H  34.93400 46.99100 18.58600
H  35.48800 48.38700 17.60700
H  39.47100 46.63400 20.46700
H  39.22100 47.94900 19.50800
H  38.49700 45.92500 17.71500
H  39.76800 45.23100 18.62000
H  39.96000 46.88500 17.97400
H  37.56100 42.33700 24.85800
H  38.55800 42.85700 23.59000
H  36.84500 42.68800 23.28500
H  37.69500 45.99400 28.69400
H  35.60900 44.94200 32.24700
H  34.75600 43.99600 31.13600
H  34.22600 45.64400 31.26900

