158

Mg 40.43000 8.45400 29.65700
C  42.20500 9.54000 32.30600
C  38.38000 6.70100 31.89500
C  38.89600 7.01500 27.03100
C  42.94300 9.58900 27.47100
N  40.36900 8.15800 31.85700
C  41.08900 8.89500 32.78700
C  40.68000 8.56800 34.23500
C  39.64500 7.43000 34.07200
C  39.48400 7.36400 32.50300
C  40.14500 6.16100 34.75700
C  40.10900 9.89100 34.91300
C  40.91800 10.50500 36.08100
H  40.23800 11.48900 37.11600
N  38.70900 7.19600 29.54000
C  38.01800 6.59600 30.56300
C  36.94000 5.75400 29.99400
C  36.94500 6.12500 28.57800
C  38.23500 6.75700 28.28300
C  36.00100 4.72400 30.66500
C  35.94700 5.75100 27.51100
O  36.16100 5.86700 26.27900
C  34.64700 5.16600 27.88600
N  40.92100 8.27500 27.54600
C  40.11900 7.62500 26.71300
C  40.58600 7.81400 25.26200
C  41.67000 8.94100 25.33100
C  41.87500 8.97700 26.87100
C  41.07600 6.54900 24.58100
C  41.24600 10.27700 24.61800
C  39.93500 11.05100 25.06500
N  42.23900 9.43500 29.74000
C  43.17000 9.85600 28.86400
C  44.17100 10.60500 29.51700
C  43.86600 10.50600 30.82900
C  42.67700 9.75000 30.97600
C  45.25500 11.31800 28.84600
C  44.24800 10.91300 32.20100
O  45.20300 11.58300 32.57500
C  43.22600 10.31300 33.13900
C  44.04400 9.55700 34.17400
O  44.45900 8.39800 34.12400
O  44.05600 10.31400 35.34900
C  44.29900 9.44600 36.47800
H  37.74500 6.19700 32.62700
H  38.44900 6.52200 26.16600
H  43.72600 10.02000 26.84400
H  41.61500 8.30100 34.72700
H  38.72700 7.69900 34.59400
H  41.17600 6.24300 35.10300
H  40.03400 5.29000 34.11200
H  39.49400 5.84500 35.57200
H  39.06700 9.87500 35.23400
H  40.11800 10.68500 34.16600
H  41.70100 11.10600 35.61900
H  41.34100 9.63300 36.57900
H  34.97400 5.07600 30.75400
H  36.21800 4.40200 31.68300
H  35.79800 3.83800 30.06300
H  34.00000 5.04600 27.01700
H  34.23100 5.92500 28.54900
H  34.74500 4.14700 28.26200
H  39.71300 8.18900 24.72700
H  42.61100 8.57900 24.91600
H  41.54400 5.89400 25.31600
H  41.71100 6.94600 23.78900
H  40.27400 6.07200 24.01800
H  41.11500 9.87800 23.61300
H  42.04700 11.01700 24.63500
H  39.21900 10.89700 24.25800
H  40.12700 12.11700 25.18200
H  39.56000 10.64700 26.00600
H  45.02400 11.45900 27.79000
H  46.25200 10.90200 28.98800
H  45.19400 12.33200 29.24200
H  42.86900 11.17300 33.70500
H  43.94400 8.41500 36.47300
H  44.10500 9.93800 37.43000
H  45.37300 9.26900 36.53700
Mg 46.98300 45.71100 43.83200
C  43.60300 44.74700 43.48000
C  47.82700 42.45300 42.57100
C  50.07600 46.62000 43.25800
C  45.86200 48.99600 44.07000
N  45.87500 43.91700 43.10000
C  44.49700 43.73900 43.20200
C  44.07500 42.26800 42.95500
C  45.46400 41.57800 42.75500
C  46.46300 42.73500 42.75500
C  45.69800 40.43200 43.81400
C  42.98600 41.92200 41.78700
C  43.20700 42.54700 40.39600
H  43.02600 41.64400 39.17100
N  48.76200 44.61300 43.20000
C  48.88900 43.34600 42.81400
C  50.26800 43.01300 42.57800
C  51.00200 44.22200 42.70000
C  49.95800 45.20500 43.06600
C  50.78900 41.63500 42.25400
C  52.49500 44.41900 42.44500
O  53.19400 43.45000 42.14900
C  53.10300 45.81300 42.62100
N  47.78500 47.50300 43.57100
C  49.12300 47.62600 43.45100
C  49.53600 49.11200 43.50100
C  48.08700 49.81200 43.46500
C  47.18800 48.73400 43.78600
C  50.28800 49.48800 44.79800
C  47.72600 50.41700 42.04000
C  48.01500 51.97500 41.90500
N  45.12200 46.74300 43.95600
C  44.81600 48.07600 44.06400
C  43.35300 48.22600 44.14700
C  42.86300 46.92900 44.00600
C  43.92200 46.10100 43.78600
C  42.48700 49.48300 44.14700
C  41.62100 46.17000 43.92000
O  40.44000 46.57200 43.85700
C  42.02600 44.70900 43.48200
C  41.49100 43.74200 44.51800
O  40.75300 42.74400 44.38400
O  41.88600 44.15400 45.72600
C  41.29800 43.47700 46.87200
H  48.00500 41.42400 42.25200
H  51.11300 46.93500 43.38900
H  45.49300 50.02300 44.10500
H  43.72400 41.83800 43.89300
H  45.41400 41.17600 41.74300
H  46.74400 40.36200 44.11000
H  45.54500 39.49100 43.28600
H  45.17500 40.46400 44.77000
H  41.98500 42.07200 42.19000
H  43.03400 40.83400 41.74600
H  44.23100 42.91800 40.43200
H  42.54200 43.40900 40.34700
H  51.45700 41.69400 41.39500
H  49.93200 40.98500 42.07700
H  51.31600 41.19800 43.10100
H  53.16600 46.08700 43.67400
H  52.57500 46.54400 42.01000
H  54.15200 45.71200 42.34000
H  50.12000 49.49700 42.66500
H  48.08900 50.61900 44.19700
H  50.71600 48.59900 45.26000
H  49.75000 50.09300 45.52700
H  51.12000 50.11200 44.47300
H  46.63700 50.36900 42.02700
H  48.21300 49.95600 41.18100
H  47.16200 52.64800 41.82000
H  48.66300 52.01800 41.03000
H  48.74300 52.25000 42.66900
H  42.18300 49.73100 43.13000
H  43.07400 50.29800 44.57100
H  41.65600 49.33200 44.83600
H  41.57500 44.56600 42.50000
H  41.57400 42.44200 46.66900
H  40.21000 43.41900 46.86100
H  41.58000 43.89800 47.83700

