158

Mg 48.96700 35.21600 28.48400
C  46.68000 33.87800 30.95000
C  49.12700 38.01600 30.61800
C  50.15500 37.03700 25.96200
C  48.20800 32.58100 26.44300
N  48.01400 35.78800 30.63000
C  47.24300 35.04200 31.47000
C  47.27900 35.56900 32.89600
C  47.71100 37.08400 32.61200
C  48.37200 36.98700 31.18400
C  46.51100 37.98700 32.61600
C  48.11400 34.66800 33.84600
C  49.09500 35.44700 34.96400
H  48.55500 36.54500 35.85300
N  49.73000 37.13400 28.34800
C  49.70100 38.08700 29.30700
C  50.46500 39.18100 28.88200
C  50.75700 39.01100 27.50900
C  50.16700 37.70800 27.19100
C  50.87300 40.18100 29.86200
C  51.36400 39.80700 26.46400
O  51.45500 39.45800 25.29600
C  52.16400 41.03800 26.85900
N  49.12500 34.90000 26.47400
C  49.70500 35.77100 25.62700
C  49.67200 35.22400 24.14800
C  49.16500 33.72900 24.32900
C  48.80800 33.69000 25.83800
C  48.85700 36.03500 23.06400
C  50.27800 32.64300 24.15800
C  49.98000 31.44300 23.25500
N  47.81800 33.57000 28.62500
C  47.68000 32.54600 27.74700
C  46.90700 31.46000 28.24300
C  46.44900 32.03400 29.41100
C  47.05900 33.29100 29.66600
C  46.52700 30.23000 27.57500
C  45.52400 31.69300 30.53000
O  44.89400 30.71000 30.78200
C  45.53800 32.96600 31.46900
C  45.71700 32.61700 32.91300
O  46.63400 31.95800 33.33500
O  44.65100 33.03100 33.68500
C  44.48600 32.64000 35.07400
H  49.01400 38.93300 31.19900
H  50.58900 37.54500 25.09800
H  48.06400 31.66600 25.86500
H  46.23500 35.69700 33.18400
H  48.42200 37.51200 33.31900
H  45.92200 37.60300 31.78300
H  46.80800 39.03000 32.50300
H  46.09200 37.90800 33.62000
H  48.81500 34.08500 33.24800
H  47.49600 34.12400 34.56100
H  49.95300 35.91800 34.48400
H  49.46400 34.71600 35.68400
H  51.15600 39.64800 30.76900
H  50.08400 40.86900 30.16800
H  51.63200 40.89700 29.54800
H  52.43500 41.78600 26.11400
H  53.02300 40.79000 27.48300
H  51.43300 41.64400 27.39400
H  50.73700 35.26200 23.92000
H  48.21500 33.45200 23.87400
H  49.57200 36.22300 22.26300
H  48.32600 36.93600 23.36900
H  48.20400 35.23700 22.71100
H  50.48700 32.24300 25.15000
H  51.17500 33.05400 23.69500
H  49.08400 31.66400 22.67500
H  49.51300 30.57900 23.72700
H  50.76300 31.26200 22.51900
H  46.67600 29.41400 28.28300
H  47.13900 30.05400 26.69000
H  45.47300 30.42200 27.37200
H  44.60600 33.52900 31.43700
H  44.78100 33.49000 35.68800
H  45.17400 31.82500 35.29800
H  43.45500 32.40400 35.33800
Mg 1.53700 42.04600 25.58800
C  3.45600 42.28100 28.54200
C  -1.16000 41.04300 27.41600
C  0.01000 41.14800 22.69800
C  4.57800 42.28800 23.72500
N  1.25500 41.77700 27.82500
C  2.14800 42.04300 28.89800
C  1.39200 42.03200 30.21500
C  -0.09600 41.55300 29.86000
C  -0.07400 41.44700 28.25300
C  -0.37400 40.13800 30.37700
C  1.34300 43.47800 30.80400
C  1.66300 43.58500 32.27100
H  1.30200 42.32200 33.18200
N  -0.34900 41.28800 25.12000
C  -1.28900 40.90200 26.01800
C  -2.43900 40.31500 25.35100
C  -2.09800 40.32700 23.88300
C  -0.80300 41.00300 23.84200
C  -3.72200 39.85100 26.05200
C  -2.90600 39.85400 22.70500
O  -2.50800 39.79800 21.62100
C  -4.32000 39.48100 23.03300
N  2.17700 41.87700 23.55100
C  1.29400 41.61200 22.55300
C  1.97300 41.60800 21.19000
C  3.33600 42.23300 21.48900
C  3.37700 42.16700 23.03000
C  2.05400 40.17400 20.55200
C  3.45200 43.73400 21.02500
C  4.90800 44.30600 20.84000
N  3.59000 42.30400 25.96600
C  4.69100 42.33400 25.13000
C  5.85300 42.56400 25.94900
C  5.41200 42.47400 27.27300
C  4.02600 42.36000 27.24300
C  7.28900 42.80700 25.39900
C  5.87600 42.54800 28.61500
O  6.93300 42.73100 29.10600
C  4.67300 42.51400 29.47900
C  4.69300 41.37700 30.35800
O  4.57700 40.19400 30.07800
O  4.80000 41.83400 31.68900
C  5.21600 40.72500 32.59500
H  -2.11000 40.80300 27.89800
H  -0.62100 40.81900 21.87000
H  5.53900 42.46800 23.23900
H  1.89400 41.37900 30.92900
H  -0.99900 42.03600 30.23100
H  -0.34000 39.46200 29.52200
H  -1.37700 39.91500 30.74200
H  0.23700 39.76900 31.20000
H  0.39600 44.01000 30.71800
H  2.21400 44.03100 30.45100
H  1.08100 44.37000 32.75400
H  2.71400 43.81200 32.45200
H  -4.48900 40.56800 25.75800
H  -3.61600 40.00100 27.12600
H  -3.94400 38.80500 25.83900
H  -4.39100 38.49400 23.49000
H  -4.89500 39.40700 22.11000
H  -4.72600 40.30100 23.62600
H  1.49700 42.28900 20.48500
H  4.17900 41.72800 21.01800
H  1.92400 39.48000 21.38200
H  3.04100 39.99300 20.12600
H  1.24200 40.00200 19.84500
H  3.01200 44.37700 21.78700
H  2.90600 43.91500 20.10000
H  5.08100 44.70600 19.84100
H  5.78400 43.69000 21.04100
H  5.03800 45.15600 21.51000
H  7.18600 43.32700 24.44600
H  7.68800 41.81400 25.19100
H  7.95400 43.33000 26.08600
H  4.62200 43.37400 30.14500
H  4.36000 40.41200 33.19300
H  5.84200 40.97900 33.45100
H  5.74800 39.90000 32.12300

