158

Mg 17.33200 -0.42700 27.41700
C  16.12000 1.45000 29.95100
C  19.56500 -1.99100 29.48700
C  18.52800 -2.02200 24.73100
C  15.32800 1.45400 25.21700
N  17.96000 -0.07600 29.48600
C  17.10500 0.64100 30.41900
C  17.50600 0.20900 31.85700
C  18.75700 -0.70600 31.66900
C  18.80900 -0.95100 30.11500
C  20.09800 -0.18100 32.24400
C  16.33100 -0.49800 32.71300
C  16.21800 0.05800 34.11300
H  17.40500 0.65200 34.90200
N  18.71000 -1.89700 27.19200
C  19.63400 -2.37800 28.14200
C  20.51600 -3.32100 27.52800
C  20.23100 -3.42500 26.12900
C  19.11800 -2.40300 25.98600
C  21.43800 -4.11600 28.43100
C  20.76900 -4.38600 25.02300
O  20.24500 -4.41900 23.89900
C  21.84800 -5.28600 25.25600
N  17.03200 -0.31200 25.25500
C  17.56900 -1.09500 24.37700
C  17.01500 -0.98000 22.99500
C  15.86400 -0.05000 23.21700
C  16.04700 0.41600 24.66000
C  18.09800 -0.49600 21.95500
C  14.49000 -0.67000 22.91100
C  14.16200 -0.67000 21.35600
N  16.17900 1.26400 27.44900
C  15.33200 1.87100 26.51400
C  14.55500 2.89300 27.20400
C  14.77900 2.77700 28.52900
C  15.84200 1.80000 28.61600
C  13.59000 3.86400 26.52400
C  14.49900 3.21400 29.78300
O  13.88500 4.20000 30.16400
C  15.19000 2.30700 30.79900
C  15.83800 3.21000 31.70800
O  16.82300 3.85400 31.42400
O  15.10800 3.41200 32.82400
C  15.54600 4.27800 33.90900
H  20.10300 -2.48700 30.29700
H  18.87900 -2.51800 23.82400
H  14.55300 2.03000 24.70800
H  17.72800 1.18800 32.28200
H  18.52000 -1.61200 32.22600
H  20.49200 -0.88300 32.98000
H  20.04600 0.80200 32.71100
H  20.91000 -0.07100 31.52600
H  16.35800 -1.58600 32.64700
H  15.45900 -0.05500 32.23200
H  15.85800 -0.76200 34.73400
H  15.40400 0.78300 34.09500
H  21.77100 -3.50300 29.26800
H  22.33000 -4.49900 27.93500
H  20.87400 -4.96900 28.80900
H  21.50500 -5.87000 26.11000
H  22.69800 -4.65100 25.50700
H  22.19300 -5.93000 24.44700
H  16.58100 -1.92200 22.65900
H  15.99900 0.79800 22.54600
H  17.92000 0.50600 21.56400
H  18.10300 -1.19900 21.12300
H  19.10400 -0.53800 22.37400
H  13.72100 -0.01800 23.32600
H  14.40600 -1.73200 23.14200
H  13.50600 0.11900 20.98900
H  13.68400 -1.64900 21.31200
H  15.08100 -0.75300 20.77500
H  14.13400 4.66100 26.01700
H  12.82500 4.21500 27.21600
H  12.99900 3.17600 25.91900
H  14.41500 1.79700 31.37200
H  16.06800 3.64100 34.62300
H  14.64000 4.71900 34.32400
H  16.30400 5.03400 33.70100
Mg 35.52500 48.05300 25.11500
C  36.07500 46.01100 27.93800
C  33.93100 50.32400 27.01700
C  34.87900 49.66700 22.21200
C  36.90500 45.34800 23.17000
N  35.20600 48.21500 27.32800
C  35.59300 47.29700 28.33000
C  35.15200 47.90400 29.68100
C  34.30300 49.17900 29.35000
C  34.43300 49.22600 27.82600
C  32.84500 49.04900 29.88100
C  36.35500 48.13000 30.65600
C  36.00400 48.12600 32.17400
H  34.57600 47.91900 32.66400
N  34.65900 49.83400 24.71900
C  34.06800 50.62800 25.61400
C  33.72900 51.87300 24.95800
C  33.93900 51.70500 23.54500
C  34.52700 50.33700 23.44300
C  33.26700 53.06400 25.69600
C  33.67800 52.56200 22.38800
O  33.75100 52.13700 21.23200
C  33.24300 53.90800 22.62500
N  35.74300 47.50700 22.97700
C  35.48200 48.45400 22.03000
C  35.98500 47.96900 20.62500
C  36.55700 46.47600 20.92100
C  36.42400 46.39800 22.45500
C  34.87700 48.03200 19.54000
C  38.05700 46.38700 20.46300
C  38.98900 47.48800 21.16700
N  36.29000 46.09500 25.45200
C  36.82400 45.17300 24.54700
C  37.28700 44.03700 25.36200
C  36.93200 44.29800 26.68800
C  36.43700 45.56000 26.66000
C  37.95100 42.75100 24.87500
C  36.84900 43.65600 27.98500
O  37.24000 42.59100 28.36900
C  36.38500 44.82800 28.89400
C  35.23200 44.34500 29.67600
O  34.14400 44.04100 29.23700
O  35.59500 44.41800 31.03600
C  34.43100 43.95100 31.91300
H  33.32900 51.06100 27.55100
H  34.76600 50.24000 21.28900
H  37.49000 44.62900 22.59200
H  34.46300 47.19700 30.14300
H  34.68400 50.14800 29.67000
H  32.65800 49.79200 30.65600
H  32.65000 48.04800 30.26700
H  32.17100 49.27600 29.05500
H  36.89500 48.97600 30.23200
H  37.12600 47.36300 30.58000
H  36.45800 48.99400 32.65200
H  36.43800 47.24100 32.63900
H  32.18500 53.02500 25.57600
H  33.69700 53.98200 25.29300
H  33.43200 53.09300 26.77300
H  34.15000 54.42700 22.93200
H  32.34300 53.90000 23.24000
H  32.86600 54.37000 21.71200
H  36.80000 48.61500 20.29800
H  36.00800 45.69600 20.39400
H  34.08100 48.66100 19.94000
H  34.43600 47.05100 19.35800
H  35.15100 48.50000 18.59500
H  38.00600 46.65500 19.40800
H  38.40200 45.35300 20.45700
H  38.44700 47.96100 21.98600
H  39.35900 48.22300 20.45200
H  39.81900 46.98700 21.66700
H  38.42500 43.03600 23.93500
H  37.11400 42.07400 24.70400
H  38.68500 42.20900 25.47300
H  37.25700 45.17700 29.44700
H  34.55500 42.88600 32.11000
H  33.45000 44.37300 31.69500
H  34.76300 44.49500 32.79800

