158

Mg -10.10100 40.63600 42.89700
C  -9.43800 37.28300 41.87500
C  -7.12900 41.60800 41.51600
C  -11.16800 43.93200 42.95300
C  -13.36300 39.56100 43.69000
N  -8.52700 39.54400 41.77800
C  -8.47200 38.19500 41.45400
C  -7.12000 37.80300 40.76000
C  -6.36200 39.26000 40.89800
C  -7.36900 40.18400 41.45900
C  -5.02300 39.08500 41.67700
C  -7.31000 37.40400 39.22800
C  -6.65700 36.06000 38.94900
H  -5.73500 36.08200 37.72000
N  -9.30400 42.54300 42.33600
C  -7.99000 42.68700 41.82100
C  -7.74200 44.12700 41.66500
C  -8.92100 44.85300 42.07400
C  -9.87400 43.79000 42.46900
C  -6.41300 44.71500 41.14100
C  -9.11500 46.33500 42.03400
O  -8.20200 47.11600 41.70900
C  -10.43600 47.02900 42.51000
N  -11.99400 41.57000 43.25300
C  -12.09900 42.95500 43.29300
C  -13.60700 43.31400 43.71100
C  -14.16600 41.99300 44.24100
C  -13.14000 40.98000 43.68300
C  -13.76300 44.55500 44.62000
C  -15.63500 41.76300 43.61700
C  -15.74500 41.32900 42.13200
N  -11.22600 38.78800 42.94700
C  -12.49800 38.54100 43.27600
C  -12.72600 37.10300 43.40600
C  -11.50700 36.57300 42.85600
C  -10.66900 37.68100 42.52300
C  -13.96500 36.51000 43.77900
C  -10.89400 35.29800 42.43500
O  -11.22300 34.12200 42.48700
C  -9.59000 35.82300 41.75300
C  -8.56800 35.03400 42.44400
O  -8.03400 35.25400 43.49100
O  -8.23500 33.95600 41.65300
C  -7.26000 33.05600 42.28200
H  -6.09000 41.82200 41.25500
H  -11.66500 44.90100 42.86800
H  -14.29600 39.27800 44.18200
H  -6.55400 37.04200 41.29600
H  -6.06400 39.58300 39.90000
H  -4.73700 38.05800 41.90300
H  -5.07000 39.58900 42.64200
H  -4.18400 39.59800 41.20700
H  -6.98600 38.07500 38.43200
H  -8.38800 37.25200 39.18300
H  -7.43300 35.35600 38.65000
H  -6.02900 35.77900 39.79400
H  -6.44800 45.49500 40.38100
H  -5.97300 43.81900 40.70400
H  -5.63900 44.85200 41.89600
H  -10.31400 48.09000 42.29100
H  -10.72700 46.79600 43.53400
H  -11.18700 46.58700 41.85400
H  -14.13800 43.52200 42.78200
H  -14.30600 41.97300 45.32200
H  -12.76200 44.91600 44.85400
H  -14.28500 44.36700 45.55900
H  -14.32800 45.33900 44.11600
H  -16.10700 42.73900 43.50100
H  -16.19000 41.22400 44.38500
H  -14.74200 41.28300 41.70700
H  -16.29000 42.05500 41.53000
H  -16.17700 40.33000 42.19200
H  -13.81400 35.55100 44.27500
H  -14.75200 36.40600 43.03200
H  -14.51800 37.14400 44.47200
H  -9.62900 35.61500 40.68400
H  -7.59500 32.61100 43.21900
H  -6.36200 33.61700 42.54000
H  -6.94500 32.32800 41.53400
Mg -10.08500 18.41100 41.89700
C  -6.78500 17.66500 41.80200
C  -9.39500 21.74400 41.35000
C  -13.37300 19.01300 41.35600
C  -10.78000 15.04900 42.17800
N  -8.29900 19.46200 41.36700
C  -6.99500 19.00000 41.55100
C  -5.97000 20.07900 41.46700
C  -6.81700 21.39500 41.45900
C  -8.29700 20.83100 41.42200
C  -6.52300 22.38400 42.58200
C  -5.02800 19.88200 40.27100
C  -5.63600 19.11300 39.06500
H  -4.83400 19.21200 37.75800
N  -11.22800 20.14800 41.31100
C  -10.76400 21.40500 41.18400
C  -11.88700 22.31600 40.92500
C  -13.08400 21.55300 40.93400
C  -12.61000 20.18500 41.16700
C  -11.75400 23.76500 40.68100
C  -14.44200 22.13300 40.67000
O  -14.56900 23.32900 40.53200
C  -15.61300 21.18800 40.53800
N  -11.76700 17.25800 41.86300
C  -12.95100 17.71200 41.71200
C  -14.11600 16.69400 41.90400
C  -13.32300 15.39300 41.77500
C  -11.85200 15.89300 41.84200
C  -14.90500 16.92100 43.24400
C  -13.66100 14.50700 40.48400
C  -15.14300 14.10400 40.22800
N  -8.99600 16.66400 42.07100
C  -9.38800 15.34300 42.21600
C  -8.25300 14.45000 42.28700
C  -7.20500 15.39100 42.23900
C  -7.69100 16.67500 41.99800
C  -8.16900 12.98300 42.44000
C  -5.79200 15.48500 42.36500
O  -4.92500 14.60000 42.64200
C  -5.46100 16.94600 42.06100
C  -4.63600 17.52300 43.14100
O  -3.61000 18.09700 43.05500
O  -5.21100 17.20100 44.39500
C  -4.42300 17.51600 45.61600
H  -9.22400 22.81700 41.24600
H  -14.43600 19.05600 41.10800
H  -11.07200 14.01300 41.99200
H  -5.33900 20.01500 42.35400
H  -6.74000 21.90800 40.50000
H  -5.59200 22.18700 43.11200
H  -7.29300 22.50700 43.34400
H  -6.38500 23.29500 41.99900
H  -4.19300 19.32300 40.69200
H  -4.70600 20.84800 39.88100
H  -6.63200 19.53300 38.92300
H  -5.80100 18.07000 39.33600
H  -12.41500 24.16300 39.91100
H  -10.77600 24.07800 40.31800
H  -11.95300 24.35200 41.57800
H  -15.72700 20.76200 41.53400
H  -15.25400 20.48400 39.78700
H  -16.50900 21.59700 40.07000
H  -14.83900 16.92200 41.12100
H  -13.54000 14.89100 42.71900
H  -15.74000 17.57300 42.99000
H  -14.21900 17.39000 43.94800
H  -15.21100 15.95600 43.64700
H  -13.09200 13.58400 40.58900
H  -13.16900 14.97700 39.63200
H  -15.56600 14.53700 39.32100
H  -15.69100 14.49500 41.08500
H  -15.05900 13.02700 40.08700
H  -7.38100 12.37700 41.99200
H  -9.12000 12.53700 42.14700
H  -8.04400 12.90700 43.52000
H  -4.84400 16.93500 41.16200
H  -5.03900 17.98300 46.38500
H  -3.62400 18.20700 45.34600
H  -3.77400 16.75200 46.04500

