158

Mg 45.35900 5.51300 48.42700
C  43.03500 8.18000 47.44200
C  42.75900 3.33300 48.13300
C  47.63400 3.08500 48.58600
C  47.80400 7.97700 48.35200
N  43.21900 5.64700 47.69400
C  42.49100 6.86500 47.43300
C  41.05700 6.47300 47.08800
C  40.86700 5.11800 47.72400
C  42.33000 4.68000 48.04600
C  39.90500 4.95700 48.96200
C  40.79400 6.58100 45.51400
C  39.69900 7.57200 45.19000
H  38.77100 7.19000 43.98500
N  45.23700 3.54000 48.34300
C  44.06000 2.72300 48.29000
C  44.37500 1.31900 48.44500
C  45.81000 1.27000 48.60700
C  46.30800 2.65300 48.58900
C  43.34100 0.29300 48.26900
C  46.57100 0.02200 48.79400
O  45.95000 -1.02100 48.92800
C  48.04800 -0.05400 48.87300
N  47.43000 5.56200 48.31200
C  48.20000 4.40800 48.40700
C  49.73400 4.84800 48.56500
C  49.70300 6.42800 48.52000
C  48.24100 6.67400 48.43400
C  50.53300 4.20900 49.75300
C  50.52900 7.12300 47.39100
C  52.00500 7.39500 47.66000
N  45.35700 7.68100 48.15500
C  46.49900 8.51600 48.16600
C  46.22600 9.90700 47.77700
C  44.82400 9.84100 47.55500
C  44.37100 8.47400 47.75200
C  47.17100 11.08000 47.70500
C  43.63000 10.50900 47.22000
O  43.53900 11.67800 46.95200
C  42.39000 9.52700 47.16000
C  41.44400 9.89000 48.21500
O  41.63800 9.79500 49.44600
O  40.27700 10.27200 47.64400
C  39.21900 10.63400 48.59500
H  41.89600 2.66600 48.17500
H  48.40300 2.32000 48.70500
H  48.52200 8.79600 48.26600
H  40.53400 7.20900 47.69800
H  40.48900 4.63000 46.82600
H  39.58100 5.92100 49.35500
H  40.46500 4.41000 49.72100
H  38.97100 4.52900 48.59900
H  40.58300 5.69000 44.92300
H  41.67200 6.99600 45.02000
H  40.18900 8.50000 44.89800
H  39.08300 7.71200 46.07800
H  42.42200 0.57800 47.75800
H  43.08800 -0.13400 49.24000
H  43.76400 -0.52600 47.68700
H  48.27000 -1.10700 49.05000
H  48.27100 0.53400 49.76200
H  48.49900 0.20000 47.91300
H  50.23800 4.47100 47.67500
H  49.97100 6.84700 49.48900
H  50.94200 5.10100 50.22700
H  51.34500 3.60400 49.34900
H  50.07500 3.47600 50.41700
H  50.00100 8.00800 47.03500
H  50.52600 6.43900 46.54300
H  52.66200 6.83300 46.99600
H  52.33900 7.15400 48.66900
H  52.20200 8.46300 47.57200
H  46.77700 11.99900 47.27100
H  48.09000 10.89200 47.15100
H  47.35800 11.25800 48.76400
H  41.95400 9.51400 46.16100
H  38.65100 11.49700 48.24700
H  39.43800 10.70000 49.66100
H  38.45400 9.86200 48.50800
Mg 26.85700 50.32700 25.74900
C  24.74800 51.19600 28.49200
C  29.29800 49.26800 27.81700
C  28.69000 49.71600 23.07100
C  24.40000 51.85100 23.61400
N  26.92500 50.15700 27.90000
C  25.98500 50.49200 28.80600
C  26.46800 50.01600 30.19300
C  27.97100 49.53400 30.01200
C  28.07600 49.56700 28.44000
C  29.11100 50.32100 30.77000
C  25.47900 48.90600 30.90300
C  25.00000 49.18300 32.31500
H  25.95800 49.87800 33.31100
N  28.78400 49.52900 25.49000
C  29.63300 49.18600 26.43300
C  30.86800 48.81000 25.86500
C  30.79000 48.99100 24.45300
C  29.36200 49.43000 24.27500
C  32.07000 48.45300 26.71200
C  31.84900 48.66600 23.39100
O  31.64400 48.89600 22.20000
C  33.10000 48.00600 23.84000
N  26.67000 50.88600 23.69500
C  27.49300 50.30700 22.79800
C  27.08800 50.74400 21.37900
C  25.67600 51.24800 21.49700
C  25.50200 51.28800 23.04200
C  28.14600 51.72400 20.54000
C  24.69000 50.38800 20.65200
C  23.71100 51.16700 19.85100
N  25.00100 51.43100 25.91000
C  24.12600 51.92700 24.97700
C  22.95800 52.52400 25.60500
C  23.19100 52.30200 27.02300
C  24.45100 51.60900 27.11200
C  21.83500 53.23600 24.97100
C  22.60300 52.47300 28.38500
O  21.59400 53.03000 28.72000
C  23.53900 51.68600 29.31600
C  23.92500 52.35500 30.59000
O  24.75700 53.25200 30.73700
O  23.08300 51.93300 31.55100
C  23.29600 52.45700 32.85700
H  29.96100 48.86800 28.58800
H  29.20500 49.45800 22.14200
H  23.69300 52.31200 22.92100
H  26.34300 50.92000 30.78900
H  28.13400 48.47300 30.19700
H  29.68500 49.62000 31.37700
H  28.81700 51.15800 31.40400
H  29.85000 50.63600 30.03400
H  25.84500 47.90000 30.69900
H  24.60900 48.85200 30.24900
H  24.59100 48.30300 32.81200
H  24.08200 49.75300 32.17300
H  32.32200 47.41500 26.49600
H  31.81900 48.39000 27.77100
H  32.92100 49.10000 26.49800
H  33.80100 48.65300 24.36700
H  33.59400 47.71000 22.91500
H  32.94700 47.07500 24.38700
H  27.04000 49.92000 20.66700
H  25.72400 52.28600 21.16700
H  28.97400 52.02200 21.18200
H  27.80700 52.64100 20.05800
H  28.55300 51.09100 19.75100
H  24.20500 49.71600 21.36000
H  25.18300 49.65500 20.01300
H  22.76700 51.05400 20.38500
H  23.47900 50.67500 18.90700
H  23.94600 52.21600 19.66800
H  20.97000 53.28800 25.63200
H  21.63800 52.67100 24.05900
H  22.20700 54.24400 24.78900
H  22.95300 50.82600 29.63700
H  24.35200 52.41900 33.12300
H  22.65700 51.90000 33.54200
H  22.98100 53.49900 32.90300

