158

Mg 47.33400 16.92400 28.81800
C  45.71900 16.50500 31.89100
C  49.85600 18.59100 30.47400
C  48.72400 17.42600 25.91300
C  44.51400 15.59200 27.19200
N  47.73400 17.42600 30.99600
C  47.01300 17.04900 32.07700
C  47.62500 17.48000 33.32600
C  48.87600 18.36900 32.93900
C  48.84200 18.13500 31.40700
C  48.81700 19.84900 33.35800
C  47.99200 16.31000 34.16500
C  48.36000 16.67500 35.63800
H  48.43300 18.10700 36.21500
N  49.05400 17.85000 28.26900
C  50.02700 18.42400 29.06100
C  51.06200 18.89700 28.25600
C  50.77500 18.48700 26.88200
C  49.43300 17.89600 26.99500
C  52.24900 19.66000 28.77400
C  51.64300 18.70500 25.63700
O  51.24200 18.36600 24.53500
C  52.91900 19.37600 25.65400
N  46.57400 16.70800 26.74700
C  47.43700 16.93700 25.76100
C  46.74500 16.57400 24.40000
C  45.45100 15.89900 24.85300
C  45.53400 15.95300 26.33500
C  46.47500 17.78800 23.44600
C  45.33000 14.37700 24.43500
C  44.37300 14.13800 23.15100
N  45.47800 16.10600 29.43000
C  44.48200 15.54300 28.61700
C  43.38600 15.10300 29.48000
C  43.82700 15.43100 30.81700
C  45.10100 16.03100 30.70100
C  42.07800 14.47900 29.01300
C  43.47100 15.34400 32.17300
O  42.41700 14.96200 32.69200
C  44.66900 16.01600 32.99500
C  44.01700 17.08800 33.72400
O  43.81100 18.23500 33.22400
O  43.92400 16.77200 35.11000
C  43.77400 17.85900 36.08300
H  50.71600 18.99900 31.00900
H  49.23600 17.68800 24.98400
H  43.68400 15.12100 26.66200
H  46.80200 18.05000 33.75800
H  49.74700 17.93200 33.42800
H  48.68300 20.47000 32.47300
H  49.71800 20.16700 33.88400
H  48.00600 20.15900 34.01700
H  48.76500 15.68900 33.71200
H  47.26000 15.50500 34.22400
H  49.30600 16.14200 35.72300
H  47.62200 16.18500 36.27200
H  53.15300 19.40700 28.21900
H  52.45100 19.38700 29.81000
H  52.08200 20.73300 28.68300
H  53.64000 18.72300 26.14600
H  52.86900 20.34900 26.14200
H  53.22700 19.52100 24.61900
H  47.42400 15.89600 23.88200
H  44.64500 16.60300 24.64400
H  46.80300 18.76200 23.81000
H  45.43700 17.86100 23.12200
H  47.11600 17.58600 22.58800
H  45.11300 13.66300 25.22900
H  46.26200 13.93300 24.08600
H  43.84500 15.02000 22.78800
H  43.62600 13.39300 23.42500
H  44.87900 13.65800 22.31300
H  41.27700 14.70500 29.71600
H  42.42400 13.44600 29.01900
H  41.86700 14.86200 28.01500
H  45.21200 15.32600 33.64200
H  43.76500 17.41700 37.07900
H  42.90200 18.51200 36.06800
H  44.68400 18.43600 35.92000
Mg 28.53800 57.40100 41.76600
C  25.87000 55.39900 40.50700
C  30.69600 55.40500 40.08600
C  30.77500 59.71100 42.19000
C  25.96400 59.68200 42.69200
N  28.33100 55.64600 40.53300
C  27.19800 54.96100 40.15400
C  27.50500 53.85200 39.20900
C  29.00300 53.57000 39.45900
C  29.41300 54.95500 40.14500
C  29.43800 52.52400 40.40400
C  27.10300 54.26100 37.72000
C  26.46300 53.25300 36.81300
H  26.91500 53.22300 35.36600
N  30.56700 57.47100 41.32200
C  31.25000 56.55400 40.57400
C  32.69700 56.94100 40.54400
C  32.73900 58.21900 41.17400
C  31.36900 58.52600 41.64500
C  33.73900 56.03200 39.90500
C  34.03200 58.98600 41.36800
O  35.02900 58.56800 40.86400
C  34.05500 60.19500 42.20400
N  28.36100 59.39100 42.28700
C  29.46000 60.12400 42.50300
C  29.16000 61.52900 42.87000
C  27.61400 61.54300 43.00200
C  27.26700 60.08300 42.72600
C  29.80000 62.02700 44.19700
C  26.86200 62.55900 42.13300
C  25.72700 63.33700 42.74800
N  26.34400 57.45600 41.84100
C  25.50000 58.41400 42.27500
C  24.11500 57.96800 42.15600
C  24.21800 56.73900 41.46200
C  25.58500 56.54300 41.28100
C  22.81400 58.60000 42.72400
C  23.48000 55.69600 40.84900
O  22.28800 55.52300 40.70500
C  24.51600 54.74800 40.13800
C  24.37400 53.42500 40.74200
O  24.75500 53.07800 41.83400
O  23.75000 52.53500 39.85700
C  23.62000 51.08600 40.22800
H  31.41500 54.86100 39.47000
H  31.48400 60.54100 42.23400
H  25.14700 60.34200 42.99300
H  27.02300 52.92100 39.50800
H  29.56300 53.35700 38.54900
H  29.83800 52.88000 41.35300
H  30.14400 51.85100 39.91700
H  28.64700 51.81100 40.63500
H  28.04800 54.44700 37.20900
H  26.54200 55.19500 37.67800
H  25.37700 53.28200 36.90100
H  26.53400 52.29700 37.33100
H  33.74800 56.03500 38.81500
H  33.57000 54.97600 40.11600
H  34.72300 56.17300 40.35100
H  33.76500 60.99700 41.52500
H  35.00000 60.58900 42.57700
H  33.40100 59.93300 43.03500
H  29.47300 62.08200 41.98500
H  27.41400 61.70300 44.06100
H  30.68700 62.57300 43.87800
H  30.10600 61.21000 44.85100
H  29.23800 62.78000 44.74900
H  26.60300 62.15900 41.15200
H  27.65100 63.26600 41.87700
H  26.08000 64.36700 42.78900
H  25.41200 63.06800 43.75600
H  24.87700 63.40100 42.06800
H  22.67800 58.33500 43.77200
H  21.92800 58.24800 42.19500
H  22.76100 59.68300 42.61500
H  24.45000 54.78200 39.05100
H  24.39400 50.59200 40.81600
H  23.57200 50.50700 39.30600
H  22.70900 51.11100 40.82800

