158

Mg 48.90000 45.33300 42.86100
C  45.64600 45.15400 41.47200
C  49.24800 41.90700 42.03500
C  52.11500 45.47600 43.46800
C  48.42700 48.55100 43.43200
N  47.50900 43.73900 41.96900
C  46.28600 43.96300 41.36600
C  45.85200 42.68100 40.60500
C  46.72500 41.67600 41.32700
C  47.93500 42.45200 41.81200
C  46.05500 40.93500 42.56300
C  45.98200 42.89200 39.01000
C  44.71000 42.55400 38.13800
H  44.87100 41.77600 36.84200
N  50.46900 43.85800 42.79900
C  50.47300 42.55000 42.40700
C  51.75100 41.96100 42.56700
C  52.54200 42.91500 43.19300
C  51.71000 44.13400 43.20300
C  52.13500 40.58600 42.08900
C  53.94000 42.79100 43.79200
O  54.52300 41.73600 43.66200
C  54.64300 43.89400 44.56000
N  50.15500 46.84900 43.20100
C  51.46900 46.70800 43.53400
C  52.13200 48.05700 43.72100
C  50.93700 49.01700 44.00400
C  49.76200 48.09400 43.59400
C  53.31700 48.14500 44.79600
C  51.03100 50.34800 43.27000
C  50.86800 51.62800 44.13600
N  47.40600 46.67700 42.55700
C  47.28400 47.92700 42.93500
C  45.99000 48.45700 42.61700
C  45.29200 47.39700 42.00700
C  46.23500 46.32400 42.04500
C  45.50400 49.88800 42.82700
C  44.05100 47.04700 41.37800
O  43.05100 47.64700 40.98900
C  44.34400 45.57400 40.92800
C  43.16200 44.81000 41.35200
O  42.27100 44.33900 40.61600
O  43.22100 44.68500 42.74500
C  41.95700 44.21400 43.26700
H  49.30400 40.81700 42.07900
H  53.17900 45.66700 43.62500
H  48.29200 49.60900 43.66700
H  44.77800 42.62100 40.78000
H  46.92600 40.97100 40.52100
H  46.08400 39.85100 42.45600
H  44.99200 41.17100 42.51800
H  46.39500 41.26700 43.54400
H  46.74900 42.20200 38.65800
H  46.27900 43.92000 38.80300
H  44.24400 43.51200 37.90800
H  44.04900 41.96100 38.77000
H  52.97200 40.63000 41.39200
H  51.34500 39.96500 41.66700
H  52.46100 39.99400 42.94300
H  55.16500 44.50200 43.82200
H  55.35500 43.32700 45.15900
H  54.05400 44.52400 45.22600
H  52.58200 48.31800 42.76300
H  50.93900 49.13200 45.08800
H  53.13500 48.82900 45.62500
H  54.23500 48.43800 44.28700
H  53.40900 47.12900 45.17900
H  50.13800 50.31300 42.64600
H  51.89900 50.50700 42.63200
H  51.73800 52.26100 43.96100
H  50.73000 51.24000 45.14500
H  50.01100 52.19500 43.77100
H  45.49200 50.16100 43.88300
H  44.51400 50.05000 42.39900
H  46.27700 50.51100 42.37800
H  44.38200 45.65800 39.84200
H  42.02600 44.51400 44.31300
H  41.79500 43.13700 43.22200
H  41.09500 44.73900 42.85600
Mg 36.24900 49.22300 24.29800
C  36.68600 47.53100 27.37400
C  34.74400 51.81500 25.96800
C  35.71100 50.66600 21.36600
C  37.46100 46.41700 22.64000
N  35.70600 49.54500 26.47800
C  36.14800 48.85600 27.53300
C  35.74700 49.56200 28.86200
C  34.95000 50.85100 28.36600
C  35.12400 50.75400 26.84200
C  33.57300 51.12000 28.92100
C  37.07400 49.84200 29.69300
C  37.23000 49.12000 31.04400
H  35.93100 48.80600 31.82600
N  35.36100 51.01900 23.75400
C  34.90100 52.02900 24.56800
C  34.42700 53.18500 23.75400
C  34.58900 52.80700 22.36500
C  35.26900 51.45700 22.46900
C  33.85800 54.43100 24.33400
C  34.38700 53.59500 21.12200
O  34.77700 53.12500 20.04400
C  33.83100 54.94300 21.18200
N  36.45200 48.61800 22.25300
C  36.25700 49.42200 21.16500
C  36.63800 48.79800 19.88300
C  37.51300 47.66000 20.35500
C  37.12900 47.54100 21.83700
C  35.43200 48.36200 18.96000
C  38.99000 47.97600 20.23800
C  39.77900 46.70300 19.84200
N  36.94000 47.35500 24.79000
C  37.36200 46.32200 24.00900
C  37.74800 45.20700 24.86700
C  37.51100 45.63000 26.16700
C  37.00400 46.99200 26.14400
C  38.30900 43.80700 24.47600
C  37.51700 45.19100 27.60300
O  37.83500 44.17700 28.20000
C  36.98400 46.47500 28.46000
C  35.80200 46.00800 29.17700
O  34.65300 46.04900 28.83000
O  36.22400 45.33500 30.24400
C  35.18200 44.51200 30.90200
H  34.30800 52.67700 26.47800
H  35.63300 51.11300 20.37300
H  38.09800 45.61600 22.25900
H  35.02500 48.90700 29.35100
H  35.49300 51.76900 28.58700
H  33.61100 52.04500 29.49600
H  33.26300 50.27600 29.53600
H  32.92400 51.24100 28.05400
H  37.24000 50.88300 29.96900
H  37.91900 49.44700 29.13100
H  37.89000 49.70500 31.68400
H  37.88200 48.26400 30.86900
H  33.77400 54.47400 25.42000
H  32.85300 54.63700 23.96700
H  34.57400 55.22700 24.12700
H  33.37400 55.16900 20.21900
H  34.73400 55.52400 21.37000
H  33.13200 55.08500 22.00600
H  37.09000 49.51700 19.20000
H  37.26000 46.70400 19.89800
H  34.95800 49.27100 18.58900
H  34.81300 47.77100 19.63600
H  35.78600 47.72400 18.15100
H  39.37800 48.31400 21.19900
H  39.18900 48.77600 19.52500
H  39.30700 45.78100 20.18100
H  40.66900 46.62300 20.46700
H  40.05000 46.69300 18.78600
H  39.03900 43.81100 23.66600
H  37.56200 43.08400 24.15200
H  38.81500 43.43900 25.36800
H  37.81800 46.65200 29.13900
H  35.52200 43.73100 31.58200
H  34.56700 43.96500 30.18700
H  34.54800 45.12100 31.54600

