158

Mg 47.13200 44.19900 43.13800
C  43.73900 43.37900 42.74500
C  47.83100 40.84400 42.42900
C  50.36500 45.08600 42.79800
C  46.23000 47.67200 42.77000
N  45.87300 42.30900 42.70000
C  44.52400 42.19700 42.67900
C  44.09200 40.75900 42.54800
C  45.45600 39.98600 42.55100
C  46.44600 41.07500 42.49500
C  45.64700 38.85800 43.56800
C  43.13700 40.54300 41.32500
C  43.57500 41.20800 39.99400
H  43.23900 40.48200 38.67000
N  48.87700 43.14800 42.71400
C  48.90000 41.78100 42.41300
C  50.25600 41.40200 42.19100
C  51.07500 42.59400 42.32000
C  50.11100 43.69900 42.56600
C  50.71600 39.94700 41.92300
C  52.55100 42.63600 42.04600
O  53.21100 41.65100 41.62800
C  53.22800 43.90800 42.17700
N  48.14500 46.14100 42.63300
C  49.51700 46.17900 42.90900
C  50.00100 47.65500 42.97600
C  48.65300 48.43700 42.87300
C  47.58200 47.34800 42.68000
C  50.98700 47.96500 44.18400
C  48.57000 49.52300 41.74500
C  48.41400 50.96800 42.27100
N  45.44800 45.37200 42.96600
C  45.18700 46.68500 42.85600
C  43.74000 46.96100 42.81500
C  43.17900 45.65700 42.81400
C  44.23100 44.75900 42.86000
C  43.02100 48.30000 42.74700
C  41.93200 45.02300 42.71100
O  40.77800 45.46200 42.53000
C  42.23400 43.49600 42.79800
C  41.74200 43.15300 44.16700
O  40.91600 42.29600 44.30600
O  42.35300 43.79700 45.21200
C  42.02500 43.24800 46.54400
H  48.13100 39.80300 42.29800
H  51.38900 45.39000 43.02500
H  45.90300 48.71200 42.83600
H  43.51900 40.48100 43.43200
H  45.52500 39.52400 41.56700
H  44.85700 38.58300 44.26700
H  46.43400 39.09800 44.28300
H  45.92500 37.95400 43.02600
H  42.15000 40.90800 41.60800
H  43.05800 39.47300 41.13200
H  44.65400 41.34500 40.06100
H  43.02600 42.14000 39.86200
H  51.78600 39.75100 41.85900
H  50.14600 39.51800 41.09900
H  50.46600 39.36600 42.81000
H  52.76400 44.62600 41.50100
H  54.26600 43.82300 41.85600
H  53.19600 44.19200 43.22900
H  50.50400 47.82100 42.02300
H  48.55300 48.91500 43.84800
H  52.00700 47.95200 43.80000
H  50.97800 47.13800 44.89300
H  50.63700 48.85600 44.70500
H  47.85500 49.16400 41.00500
H  49.55500 49.59600 41.28300
H  49.16000 51.66500 41.88800
H  48.56700 51.04500 43.34800
H  47.36100 51.22200 42.15300
H  42.06100 48.27400 43.26300
H  42.77700 48.51200 41.70600
H  43.71000 49.03300 43.16500
H  41.68900 42.95300 42.02600
H  42.68300 42.39900 46.72500
H  41.03500 42.81500 46.68800
H  42.14800 44.02000 47.30400
Mg 48.04300 34.31800 27.22300
C  46.19100 32.93000 29.86900
C  48.40900 37.19400 29.14900
C  48.94800 36.07900 24.48300
C  47.13700 31.66500 25.15300
N  47.35200 35.01100 29.19800
C  46.75000 34.17700 30.17500
C  46.94500 34.74800 31.59200
C  47.33000 36.20300 31.25000
C  47.79400 36.13600 29.78100
C  46.21100 37.23200 31.41400
C  48.13000 33.89500 32.25300
C  48.05000 33.70900 33.74700
H  47.17000 34.75800 34.53300
N  48.68800 36.28900 26.95200
C  48.78400 37.34100 27.81600
C  49.31200 38.56300 27.17300
C  49.52100 38.21000 25.77700
C  49.03500 36.78100 25.72000
C  49.59400 39.89300 27.92400
C  50.00800 39.12600 24.59000
O  50.16000 38.71900 23.45800
C  50.51900 40.50500 24.82700
N  47.88900 33.98700 25.09800
C  48.43700 34.81600 24.19800
C  48.64300 34.25800 22.78500
C  47.99800 32.82900 22.96900
C  47.64300 32.80500 24.49300
C  48.13600 35.10500 21.56700
C  48.96700 31.72300 22.59100
C  50.26200 31.64200 23.40900
N  46.98500 32.57600 27.41600
C  46.75500 31.56600 26.51700
C  46.03500 30.52400 27.22500
C  45.63800 31.07400 28.50800
C  46.33800 32.33200 28.61900
C  45.85100 29.17500 26.70800
C  44.91400 30.82000 29.67100
O  44.23300 29.86900 29.99400
C  45.08000 32.13700 30.52000
C  45.29500 31.72300 31.90600
O  46.08800 30.86600 32.30600
O  44.46300 32.40400 32.73700
C  44.35700 31.95300 34.14400
H  48.62200 38.12400 29.68200
H  49.22500 36.66100 23.60200
H  46.70000 30.92300 24.48100
H  46.00600 34.66400 32.13900
H  48.25200 36.53200 31.72900
H  46.75800 38.16900 31.51600
H  45.50700 37.01700 32.21800
H  45.64600 37.36500 30.49200
H  49.01400 34.50000 32.05300
H  48.26200 32.94400 31.73700
H  49.06500 33.86700 34.11000
H  47.75900 32.67000 33.90300
H  50.34700 40.54300 27.47800
H  49.90400 39.60500 28.92900
H  48.59900 40.32000 28.05200
H  51.49400 40.41200 25.30500
H  49.74100 41.09500 25.31200
H  50.79700 40.88800 23.84500
H  49.72800 34.24800 22.67500
H  47.12700 32.59400 22.35900
H  47.38500 35.86800 21.77500
H  47.68900 34.45200 20.81700
H  49.00200 35.61500 21.14600
H  49.27000 31.99400 21.57900
H  48.47700 30.76900 22.39600
H  50.37500 32.45900 24.12200
H  51.11500 31.63800 22.73000
H  50.26700 30.70700 23.97000
H  45.45100 28.54800 27.50500
H  46.81800 28.80000 26.37100
H  45.09400 29.09900 25.92700
H  44.13600 32.66900 30.40000
H  44.06100 30.90400 34.14400
H  43.61500 32.59600 34.61800
H  45.34900 32.07000 34.58000

