158

Mg 48.28900 34.02400 26.61400
C  45.76500 32.89600 28.94000
C  48.40700 37.00800 28.39100
C  50.00600 35.33700 24.03900
C  47.16000 31.43000 24.49500
N  47.27100 34.76900 28.42800
C  46.52300 33.97500 29.36300
C  46.62900 34.58600 30.70400
C  47.12200 36.06900 30.44200
C  47.55700 35.97900 28.92600
C  46.08600 37.15400 30.64300
C  47.60300 33.77300 31.57800
C  47.63300 33.86400 33.10700
H  46.67100 34.75500 33.88900
N  49.10100 35.89900 26.27500
C  49.06800 36.97400 27.11600
C  49.87600 38.04800 26.60200
C  50.39400 37.55600 25.39800
C  49.88800 36.17300 25.21100
C  49.90800 39.42800 27.26700
C  51.32200 38.33200 24.41100
O  51.60200 37.91100 23.33200
C  51.91300 39.71600 24.76000
N  48.41100 33.56500 24.47100
C  49.45600 34.14300 23.74300
C  49.71300 33.34300 22.43100
C  48.79400 32.08600 22.61600
C  48.14800 32.33500 23.95700
C  49.49900 34.09300 21.12800
C  49.56700 30.75800 22.42800
C  50.22600 30.45900 21.05500
N  46.90500 32.42900 26.66200
C  46.57800 31.38100 25.79800
C  45.60000 30.46900 26.30900
C  45.29300 30.99000 27.56700
C  46.06500 32.25700 27.73200
C  45.02400 29.29400 25.73100
C  44.55800 30.76000 28.72100
O  43.74100 29.88000 28.94900
C  44.76100 32.04500 29.62500
C  44.96700 31.67100 31.13000
O  45.76700 30.88800 31.56700
O  43.96000 32.22200 31.81000
C  43.94600 31.93100 33.23600
H  48.53000 37.91900 28.98100
H  50.79400 35.61200 23.33400
H  46.82800 30.59600 23.87200
H  45.76400 34.67600 31.36200
H  47.97100 36.27900 31.09200
H  45.25000 36.74500 31.21100
H  45.67200 37.62400 29.75000
H  46.52300 38.00500 31.16500
H  48.58500 34.06100 31.20400
H  47.42100 32.71400 31.39100
H  48.62200 34.08800 33.50600
H  47.57400 32.85400 33.51400
H  50.76100 39.43300 27.94500
H  49.01200 39.79600 27.76700
H  49.90200 40.16500 26.46400
H  52.32500 39.60900 25.76300
H  51.18400 40.51000 24.59900
H  52.81900 39.88100 24.17600
H  50.75400 33.02100 22.46200
H  48.11500 32.12600 21.76400
H  48.73900 33.68100 20.46400
H  50.47100 34.00500 20.64200
H  49.25800 35.14900 21.25000
H  48.81400 29.97500 22.51600
H  50.37900 30.70800 23.15300
H  50.03900 31.38400 20.51000
H  49.81600 29.55500 20.60500
H  51.30500 30.33300 21.15000
H  44.47000 28.67400 26.43700
H  45.76600 28.58200 25.36900
H  44.43900 29.68800 24.90000
H  43.76200 32.48000 29.65300
H  44.90600 32.18700 33.68500
H  43.76300 30.89300 33.51400
H  43.13400 32.53200 33.64600
Mg 0.04900 43.61100 26.01400
C  2.44000 43.79700 28.65000
C  -2.29700 43.18700 28.32400
C  -2.15100 42.86300 23.49400
C  2.58600 44.01500 23.66600
N  0.08600 43.57600 28.24300
C  1.16400 43.59300 29.12700
C  0.68800 43.45800 30.61600
C  -0.89300 43.45500 30.48500
C  -1.05700 43.34100 28.93900
C  -1.54200 42.24200 31.21600
C  1.34200 44.65200 31.49500
C  0.83200 44.89400 32.99100
H  0.57300 43.66400 33.84700
N  -2.02700 43.01100 25.89600
C  -2.82000 42.95900 26.97300
C  -4.14100 42.81200 26.57500
C  -4.12200 42.68700 25.16400
C  -2.71800 42.83600 24.77000
C  -5.30200 42.80200 27.46200
C  -5.27000 42.58100 24.16300
O  -5.07800 42.38700 22.95500
C  -6.71000 42.74200 24.67300
N  0.10000 43.65200 23.94500
C  -0.85300 43.13100 23.13000
C  -0.46800 43.08000 21.63100
C  0.89300 43.81700 21.67900
C  1.23300 43.82800 23.19600
C  -0.62800 41.76400 20.91700
C  0.89600 45.22500 20.92600
C  1.60900 45.44600 19.64700
N  2.12300 43.92700 26.05200
C  3.01400 44.00500 24.99100
C  4.30100 44.23200 25.62100
C  4.17100 44.10500 26.99200
C  2.79100 43.94900 27.27000
C  5.58700 44.44800 24.94600
C  4.88900 43.94000 28.27800
O  6.07800 43.98200 28.52500
C  3.82900 43.94000 29.38900
C  4.14900 42.69900 30.16500
O  3.72800 41.57700 29.86400
O  4.94000 43.05300 31.24200
C  5.12700 42.08000 32.27900
H  -3.04100 43.12900 29.12100
H  -2.80800 42.65900 22.64600
H  3.34100 44.16200 22.89100
H  1.03400 42.43400 30.75900
H  -1.25800 44.40100 30.88400
H  -1.72200 41.41600 30.52800
H  -2.47500 42.55500 31.68300
H  -0.91500 41.81700 32.00100
H  1.34800 45.55900 30.89000
H  2.38500 44.36800 31.62800
H  0.05000 45.65200 33.01900
H  1.66200 45.48300 33.38200
H  -5.91500 43.69800 27.37300
H  -4.98700 42.51400 28.46500
H  -5.91500 42.00200 27.04800
H  -6.96200 43.70000 25.12700
H  -6.90100 41.86900 25.29700
H  -7.43300 42.68300 23.85900
H  -1.23500 43.73800 21.22500
H  1.68200 43.17200 21.29100
H  0.09200 41.03900 21.29600
H  -0.65000 41.92500 19.83900
H  -1.66000 41.48100 21.12400
H  1.52700 45.84100 21.56600
H  -0.14300 45.55200 20.89200
H  2.52900 44.86100 19.63300
H  1.84400 46.50500 19.75000
H  0.87700 45.16800 18.88900
H  5.52300 45.01200 24.01600
H  6.08700 43.50800 24.71200
H  6.02700 45.21700 25.58100
H  3.89100 44.85500 29.97700
H  5.85500 41.41000 31.82200
H  4.20800 41.56600 32.56100
H  5.57100 42.62800 33.11000

