158

Mg 0.54800 7.53000 25.26700
C  0.99600 9.40600 28.21000
C  1.19100 4.75600 27.21500
C  0.38300 5.74400 22.54300
C  0.74300 10.53100 23.43100
N  1.02600 7.15100 27.54200
C  0.96200 8.05500 28.52300
C  1.03800 7.36000 29.91300
C  1.29600 5.87700 29.55300
C  1.17000 5.93100 28.02300
C  2.63700 5.22500 30.05500
C  -0.24700 7.69200 30.71000
C  -0.14800 7.55100 32.25200
H  1.17700 7.01000 32.82700
N  0.37600 5.49700 24.96500
C  0.79500 4.57700 25.85100
C  0.51200 3.31900 25.17700
C  0.26600 3.59200 23.77500
C  0.37900 4.99400 23.69400
C  0.60300 1.97400 25.90400
C  -0.11900 2.62600 22.58500
O  -0.23500 2.96500 21.44300
C  -0.53700 1.20300 22.99300
N  0.72500 8.07200 23.22900
C  0.40700 7.14200 22.38400
C  0.32800 7.76300 20.98900
C  -0.01900 9.27000 21.38500
C  0.46200 9.32500 22.77800
C  1.49400 7.63900 20.03600
C  -1.47800 9.65300 21.26900
C  -1.82700 11.10000 20.70600
N  0.87800 9.61200 25.72000
C  0.98900 10.66400 24.85600
C  1.33800 11.87300 25.62600
C  1.40100 11.38500 26.95500
C  1.04300 10.05000 26.93600
C  1.35500 13.26100 25.07900
C  1.59600 11.83000 28.29800
O  1.93600 12.90700 28.72900
C  1.21400 10.59000 29.21900
C  2.44900 10.44200 30.16100
O  3.51700 9.85400 29.78800
O  2.24100 11.08300 31.32600
C  3.46800 11.03400 32.14300
H  1.45100 3.86100 27.78500
H  0.18000 5.26300 21.58400
H  0.81100 11.42000 22.80100
H  1.88900 7.85500 30.38200
H  0.52600 5.19400 29.91000
H  3.24900 5.99300 30.52700
H  3.21800 4.83900 29.21700
H  2.40500 4.32400 30.62400
H  -0.97300 6.96100 30.35600
H  -0.62400 8.67500 30.42500
H  -0.89200 6.83000 32.59200
H  -0.30000 8.47200 32.81300
H  1.09100 2.01900 26.87700
H  1.04800 1.20300 25.27500
H  -0.41900 1.65600 26.10900
H  0.34800 0.60400 23.20600
H  -0.95400 0.80300 22.06900
H  -1.28800 1.30500 23.77600
H  -0.51800 7.30000 20.48100
H  0.52500 9.86900 20.65400
H  2.26000 7.12900 20.62000
H  2.02700 8.56900 19.83900
H  1.18300 7.16000 19.10800
H  -2.03200 9.59100 22.20500
H  -1.98200 8.92100 20.63800
H  -2.17500 10.96200 19.68200
H  -0.95000 11.73500 20.83200
H  -2.66000 11.42200 21.33000
H  0.56000 13.26300 24.33300
H  2.31900 13.43000 24.59900
H  1.33900 13.92500 25.94300
H  0.29600 10.82100 29.76000
H  3.38000 11.73400 32.97300
H  4.36000 11.25600 31.55800
H  3.49400 10.02700 32.55900
Mg 9.48900 48.05900 25.63200
C  7.34200 48.29700 28.30600
C  11.92000 49.20100 27.67800
C  11.62500 47.89600 23.03200
C  6.77800 47.61100 23.53600
N  9.60500 48.79800 27.71500
C  8.63600 48.59400 28.70200
C  9.19700 48.85200 30.07900
C  10.58600 49.46500 29.76900
C  10.74800 49.16100 28.30300
C  10.70800 50.92200 30.15400
C  9.30800 47.55100 30.96800
C  10.21600 47.45100 32.24400
H  9.79500 46.44300 33.31300
N  11.52300 48.53100 25.37000
C  12.34800 48.85800 26.36900
C  13.73200 48.77500 25.89400
C  13.67500 48.35700 24.59700
C  12.23300 48.30400 24.21200
C  14.94700 49.05100 26.74600
C  14.76300 48.02100 23.55000
O  14.58100 47.61700 22.36200
C  16.17800 48.01700 24.09300
N  9.20400 47.83100 23.57000
C  10.28600 47.79300 22.69900
C  9.82200 47.56200 21.22300
C  8.25000 47.62100 21.35100
C  8.01700 47.63600 22.88400
C  10.39500 48.50400 20.17700
C  7.52900 46.52500 20.58700
C  6.45200 46.92900 19.61000
N  7.41100 47.98100 25.75800
C  6.43600 47.70600 24.84900
C  5.15400 47.64700 25.53100
C  5.47700 47.82000 26.88900
C  6.86100 48.12500 26.99500
C  3.76800 47.65100 24.95500
C  4.91300 47.98600 28.21500
O  3.76200 47.88100 28.60200
C  6.10000 48.16100 29.22600
C  6.14800 46.91500 30.00600
O  6.82500 45.93100 29.76100
O  5.64800 47.12300 31.20900
C  6.06700 46.15800 32.28800
H  12.80700 49.45000 28.26300
H  12.40200 47.72300 22.28400
H  5.91000 47.63000 22.87300
H  8.45500 49.53700 30.49000
H  11.24200 48.88200 30.41500
H  10.54700 51.54000 29.27100
H  11.71300 51.11000 30.53300
H  9.89000 51.13000 30.84300
H  9.56600 46.75100 30.27500
H  8.31100 47.44700 31.39600
H  10.11900 48.44500 32.68200
H  11.22900 47.23400 31.90400
H  14.86500 48.83500 27.81100
H  15.28300 50.07100 26.55900
H  15.72000 48.30100 26.57500
H  16.15200 47.22800 24.84500
H  16.44400 48.94200 24.60500
H  16.85400 47.77000 23.27500
H  10.18400 46.60000 20.85900
H  7.91200 48.57400 20.94300
H  10.88800 49.38300 20.59000
H  9.53800 48.94900 19.67000
H  11.03000 48.11400 19.38200
H  7.04100 45.93900 21.36700
H  8.17700 45.79200 20.10600
H  5.58300 46.31800 19.85500
H  6.95100 46.78100 18.65300
H  6.21700 47.98500 19.74400
H  3.03700 47.68100 25.76300
H  3.65300 46.79800 24.28700
H  3.67900 48.60700 24.44000
H  5.92800 49.08600 29.77800
H  6.47500 46.90500 32.96900
H  6.73400 45.36500 31.95000
H  5.26900 45.70500 32.87700

