158

Mg 24.65400 -7.91000 48.04800
C  27.19600 -6.01500 46.98600
C  22.70100 -6.65300 45.47600
C  22.50600 -10.33200 48.62300
C  27.07600 -9.78900 50.13700
N  24.99400 -6.58100 46.31000
C  26.05800 -5.70400 46.29400
C  25.77600 -4.67500 45.16200
C  24.25600 -4.73000 44.96600
C  23.90900 -6.04600 45.66200
C  23.48000 -3.46000 45.28300
C  26.53300 -4.93500 43.79800
C  26.88300 -3.66600 42.99200
H  26.18900 -3.50200 41.64200
N  22.82200 -8.35600 47.29400
C  22.11700 -7.69600 46.21400
C  20.86100 -8.31300 46.04400
C  20.85900 -9.51600 46.80700
C  22.08600 -9.44000 47.63100
C  19.82100 -7.60600 45.15400
C  19.83000 -10.49100 46.71600
O  18.79500 -10.32600 46.08600
C  19.94200 -11.82800 47.46200
N  24.79300 -9.87800 49.30300
C  23.63500 -10.60700 49.39800
C  23.91600 -11.86400 50.20100
C  25.34500 -11.67600 50.81500
C  25.76500 -10.37100 50.07200
C  22.80700 -12.39500 51.18900
C  26.41000 -12.78900 50.56200
C  27.31600 -12.94400 51.77100
N  26.73200 -7.94000 48.54400
C  27.54900 -8.75600 49.29900
C  28.89300 -8.21100 49.30900
C  28.75600 -7.12000 48.41200
C  27.44800 -7.04300 47.92500
C  30.08200 -8.80600 50.06300
C  29.55000 -6.01400 47.81600
O  30.74100 -5.83800 47.83600
C  28.51200 -5.22200 46.84200
C  28.27700 -3.88900 47.40100
O  27.35200 -3.50400 48.16000
O  29.26100 -3.02200 46.82200
C  29.17000 -1.67300 47.13000
H  22.03000 -6.24400 44.71800
H  21.85400 -11.18800 48.80600
H  27.79800 -10.04200 50.91600
H  25.95400 -3.73500 45.68400
H  24.10200 -4.83100 43.89200
H  24.16400 -2.80400 45.82000
H  22.63600 -3.77800 45.89400
H  23.11900 -2.89500 44.42200
H  25.97300 -5.60900 43.14900
H  27.46900 -5.43000 44.05400
H  27.96900 -3.57300 42.96100
H  26.41000 -2.86900 43.56600
H  19.82500 -6.56000 45.46200
H  18.80500 -7.89500 45.42400
H  19.95000 -7.72000 44.07800
H  20.83600 -12.34200 47.10900
H  19.01100 -12.35600 47.25600
H  19.95800 -11.71800 48.54700
H  23.94300 -12.66400 49.46100
H  25.22400 -11.53400 51.88900
H  22.08400 -11.61200 51.41700
H  23.20800 -12.67900 52.16200
H  22.27200 -13.25700 50.78900
H  26.96800 -12.45700 49.68600
H  25.92200 -13.73700 50.33200
H  26.58800 -12.78400 52.56600
H  28.13400 -12.24700 51.95400
H  27.65700 -13.97900 51.76500
H  29.77600 -8.74100 51.10700
H  30.93800 -8.15100 49.90100
H  30.22600 -9.86100 49.82900
H  28.99100 -5.25500 45.86400
H  30.16600 -1.24600 47.24700
H  28.65400 -1.44300 48.06200
H  28.78700 -1.07700 46.30200
Mg 46.88700 34.74100 28.95800
C  45.73300 32.54900 31.29000
C  47.18700 37.22500 31.31700
C  47.59700 36.94200 26.48400
C  46.23700 32.30500 26.44700
N  46.57700 34.79900 31.06000
C  46.15600 33.75500 31.84500
C  46.18700 34.13200 33.35700
C  46.17600 35.71200 33.12000
C  46.72200 35.95400 31.76600
C  44.75200 36.44500 33.23300
C  47.37900 33.43200 34.09100
C  48.20900 34.40100 35.00300
H  47.42100 35.15200 36.12300
N  47.43000 36.75700 28.95700
C  47.65800 37.56900 30.04900
C  48.26800 38.76800 29.61600
C  48.44100 38.70900 28.22100
C  47.81300 37.42300 27.82100
C  48.66600 39.80800 30.68500
C  49.01400 39.81100 27.30400
O  49.00100 39.80000 26.11600
C  49.64000 41.06200 27.89800
N  46.90000 34.68900 26.80300
C  47.27200 35.69700 26.03700
C  47.04600 35.41400 24.53900
C  46.64200 33.88700 24.52900
C  46.59800 33.57500 25.98600
C  45.98400 36.37500 23.89000
C  47.57400 32.89600 23.62300
C  47.69700 33.19400 22.09300
N  46.07600 32.83400 28.85800
C  45.83800 31.96500 27.77900
C  45.28000 30.71100 28.23500
C  45.09000 30.90600 29.62800
C  45.66100 32.19600 29.95500
C  44.98000 29.53500 27.26100
C  44.62400 30.34700 30.91700
O  44.12300 29.24600 31.20400
C  44.86500 31.50000 31.97300
C  45.33500 31.00700 33.30000
O  46.34300 30.38300 33.48800
O  44.34500 31.13400 34.23000
C  44.64700 30.78200 35.61600
H  47.34900 37.94000 32.12600
H  47.83800 37.65800 25.69500
H  46.15200 31.56300 25.65000
H  45.26200 33.79600 33.82700
H  46.73600 36.36900 33.78600
H  44.84000 37.26200 33.94900
H  44.04300 35.64800 33.45700
H  44.24000 36.92100 32.39700
H  48.06000 32.89700 33.43000
H  46.96600 32.73500 34.82100
H  48.71900 35.03400 34.27800
H  49.03100 33.87100 35.48500
H  49.66700 40.16300 30.44000
H  48.72100 39.29900 31.64700
H  47.98300 40.63900 30.86600
H  48.84300 41.60300 28.40800
H  49.81300 41.69900 27.03100
H  50.58400 40.84600 28.39800
H  47.95700 35.40600 23.94100
H  45.60600 33.81000 24.20100
H  45.39900 36.93300 24.62100
H  45.34100 35.73200 23.29000
H  46.39200 37.11700 23.20400
H  47.18600 31.87700 23.63800
H  48.57800 32.99600 24.03400
H  46.90300 33.89300 21.83100
H  47.49900 32.22400 21.63900
H  48.73400 33.45700 21.88400
H  45.78500 29.41500 26.53600
H  44.13400 29.91000 26.68400
H  44.79200 28.65500 27.87600
H  43.93300 32.05700 32.07800
H  43.71200 30.57900 36.13800
H  45.17800 31.53200 36.20200
H  45.24400 29.87200 35.55200

