158

Mg 24.69700 2.16200 29.09100
C  26.78300 1.44600 31.92400
C  22.02700 1.94100 31.05500
C  23.01000 2.39500 26.30800
C  27.63600 1.44900 27.06400
N  24.48800 1.90900 31.22700
C  25.42100 1.81500 32.23700
C  24.81400 2.17700 33.60300
C  23.28500 1.88000 33.28600
C  23.26000 1.96700 31.75600
C  22.71500 0.57100 33.89800
C  25.23500 3.52000 34.24300
C  26.16500 3.38000 35.44700
H  26.06800 4.41700 36.61400
N  22.80000 2.28900 28.74200
C  21.80400 2.12200 29.70900
C  20.55100 2.19600 28.97900
C  20.80500 2.40400 27.53400
C  22.26000 2.42000 27.48300
C  19.20900 2.21400 29.60900
C  19.86600 2.81700 26.46400
O  20.28400 3.25700 25.38900
C  18.34500 2.96400 26.73900
N  25.31500 2.02000 26.92200
C  24.37500 2.19900 26.01800
C  24.93500 2.29500 24.56100
C  26.47800 2.25400 24.83800
C  26.52300 1.86300 26.34500
C  24.31700 1.41500 23.48700
C  27.34000 3.41200 24.42100
C  27.55400 4.48300 25.50500
N  26.77800 1.58600 29.39800
C  27.78700 1.32500 28.45300
C  29.02700 0.97500 29.08500
C  28.70300 1.08900 30.50700
C  27.30000 1.38800 30.60400
C  30.38100 0.74700 28.48400
C  29.23000 0.94600 31.90000
O  30.34100 0.59400 32.31800
C  28.02100 1.35600 32.83800
C  27.80000 0.40500 33.93900
O  27.02800 -0.51400 34.05000
O  28.42300 1.01200 35.06100
C  28.32800 0.28000 36.32900
H  21.17600 1.72400 31.70400
H  22.49600 2.48500 25.34900
H  28.59700 1.30700 26.56600
H  25.12800 1.42400 34.32500
H  22.63000 2.65000 33.69400
H  22.67900 0.67200 34.98300
H  23.38300 -0.28600 33.80000
H  21.76100 0.22500 33.50000
H  24.35100 4.15200 34.32300
H  25.79100 3.98000 33.42600
H  27.19300 3.41500 35.08700
H  26.02000 2.40100 35.90400
H  18.66700 3.14500 29.44600
H  19.26800 2.01700 30.67900
H  18.60500 1.43100 29.14900
H  18.32500 3.83900 27.38900
H  17.86600 2.09800 27.19400
H  17.84000 3.33900 25.84900
H  24.66400 3.32100 24.31200
H  26.94200 1.42000 24.31100
H  23.79100 0.58100 23.95200
H  25.15200 0.97700 22.94000
H  23.64500 1.89500 22.77500
H  26.80400 3.96300 23.64800
H  28.33900 3.12000 24.09600
H  27.07500 4.17900 26.43500
H  27.06000 5.43300 25.30000
H  28.60300 4.77200 25.57200
H  30.52400 1.56000 27.77300
H  30.39800 -0.24700 28.03500
H  31.10500 0.87600 29.28800
H  28.27500 2.29900 33.32000
H  28.35500 -0.80300 36.20600
H  27.39200 0.58000 36.80200
H  29.18600 0.65800 36.88600
Mg 17.45900 51.72200 26.38000
C  19.41100 50.23400 28.98300
C  15.00500 52.31500 28.65600
C  15.44300 52.50600 23.86200
C  19.93000 50.72600 24.11200
N  17.33300 51.34300 28.63100
C  18.15000 50.71100 29.49000
C  17.68300 50.99800 30.91000
C  16.16300 51.29100 30.75200
C  16.18000 51.76700 29.28300
C  15.17600 50.20200 31.14200
C  18.56400 52.11600 31.48800
C  18.94200 52.00700 33.04600
H  17.94300 51.26800 33.92900
N  15.57900 52.32700 26.29500
C  14.72000 52.55400 27.31400
C  13.44600 53.02100 26.86200
C  13.55800 53.17000 25.49300
C  14.95900 52.67300 25.15300
C  12.14800 53.22900 27.76200
C  12.47900 53.68000 24.50100
O  12.87700 54.00200 23.39200
C  11.07500 53.93400 24.84300
N  17.63600 51.60600 24.32100
C  16.68400 52.03000 23.43700
C  17.19200 51.95300 22.00200
C  18.68100 51.57500 22.12500
C  18.78300 51.33700 23.64000
C  16.35500 51.06200 21.04000
C  19.55600 52.79700 21.68700
C  20.88300 52.47500 21.10500
N  19.20100 50.59400 26.47500
C  20.09100 50.26300 25.44400
C  21.27500 49.62300 25.98200
C  21.04200 49.59600 27.32600
C  19.78900 50.25800 27.57400
C  22.46800 49.15700 25.17700
C  21.53700 49.10500 28.60700
O  22.62300 48.61600 28.86700
C  20.57900 49.65500 29.70600
C  20.07100 48.57600 30.57500
O  19.23500 47.74100 30.29900
O  20.57800 48.71100 31.86100
C  20.03400 47.83500 32.97400
H  14.23700 52.40400 29.42700
H  14.77900 52.81700 23.05300
H  20.80000 50.70700 23.45200
H  17.87000 50.12100 31.53000
H  15.79500 52.14300 31.32300
H  14.43400 49.96200 30.38100
H  14.83500 50.47800 32.14000
H  15.76300 49.30800 31.35100
H  17.98700 52.99100 31.18900
H  19.50100 52.02500 30.93900
H  19.01300 53.02400 33.43100
H  19.87400 51.44400 33.09400
H  11.42200 52.47400 27.46200
H  11.80500 54.26400 27.76000
H  12.38500 53.11900 28.82000
H  10.58800 53.01300 25.16600
H  10.72100 54.23900 23.85900
H  10.84100 54.59500 25.67700
H  17.14100 52.93700 21.53600
H  19.11900 50.70200 21.64100
H  15.45400 50.71300 21.54500
H  16.95600 50.23900 20.65300
H  15.88600 51.61800 20.22800
H  19.80700 53.28900 22.62700
H  19.00300 53.56500 21.14700
H  21.59600 52.80000 21.86400
H  20.97800 53.15100 20.25600
H  21.06300 51.48700 20.68100
H  22.18300 48.76900 24.19900
H  22.87000 48.37600 25.82200
H  23.17400 49.91200 24.83100
H  21.14600 50.30800 30.36900
H  20.00000 48.41300 33.89700
H  20.76700 47.04800 33.15100
H  19.10200 47.36300 32.66200

