158

Mg 30.05500 57.09500 39.25400
C  27.53900 54.76900 38.51600
C  32.43000 54.72100 38.17400
C  32.35200 59.51900 39.18000
C  27.56700 59.50600 39.62500
N  29.92100 54.89000 38.59600
C  28.79600 54.18800 38.25700
C  29.25000 52.77000 37.81100
C  30.82700 52.71300 37.94600
C  31.11600 54.22000 38.19600
C  31.33600 51.84300 39.14000
C  28.79400 52.37100 36.39200
C  29.15900 53.46000 35.31400
H  28.05800 53.83700 34.29700
N  32.11400 57.13400 38.76500
C  32.85800 56.08500 38.41400
C  34.23700 56.55700 38.14700
C  34.30700 57.92400 38.55800
C  32.90600 58.24400 38.93500
C  35.28600 55.68300 37.51900
C  35.56100 58.78400 38.84100
O  36.66400 58.25800 38.60600
C  35.59000 60.17500 39.46500
N  29.99000 59.14400 39.61200
C  31.07500 59.94600 39.44000
C  30.71900 61.44700 39.71400
C  29.15800 61.33500 39.60500
C  28.88100 59.88100 39.72000
C  31.31600 61.92200 41.10000
C  28.74700 62.08600 38.25300
C  27.79700 63.22200 38.50600
N  27.90800 57.07600 39.34600
C  27.05900 58.18600 39.44400
C  25.68200 57.74800 39.34800
C  25.82400 56.39500 38.98100
C  27.16300 56.04300 38.95300
C  24.33300 58.52600 39.43200
C  25.12900 55.24800 38.60300
O  23.90400 55.05900 38.53000
C  26.20900 54.22100 38.21600
C  25.88900 52.96100 39.01300
O  26.18100 52.86400 40.20100
O  25.21700 52.01500 38.22800
C  24.64400 50.92700 38.99900
H  33.18200 54.00300 37.84000
H  33.11200 60.28900 39.02900
H  26.79600 60.27900 39.63900
H  28.76000 52.09900 38.51700
H  31.34600 52.43400 37.02900
H  32.34000 51.42000 39.13300
H  30.65600 50.99500 39.22400
H  31.12600 52.40000 40.05300
H  27.72800 52.15300 36.45700
H  29.27400 51.46400 36.02500
H  30.02800 53.16200 34.72700
H  29.39200 54.33300 35.92400
H  34.84900 55.06900 36.73200
H  35.74800 55.19400 38.37700
H  35.95500 56.37300 37.00300
H  36.57100 60.42900 39.86600
H  34.77500 60.10400 40.18500
H  35.29800 60.79900 38.62000
H  31.13500 62.06300 38.91700
H  28.66800 61.80700 40.45700
H  31.43600 63.00600 41.11200
H  32.25800 61.41600 41.31100
H  30.60500 61.71100 41.89900
H  28.26400 61.33600 37.62700
H  29.55700 62.27600 37.54800
H  26.72500 63.03300 38.43900
H  27.90000 63.89800 37.65700
H  28.08500 63.75500 39.41200
H  24.44000 59.40900 38.80200
H  24.25000 58.95000 40.43300
H  23.49200 57.99900 38.98300
H  26.14500 53.97400 37.15600
H  25.27400 50.03700 38.99800
H  23.67800 50.64000 38.58200
H  24.46900 51.29400 40.01100
Mg 35.99600 48.81000 24.27200
C  36.34400 47.09500 27.30700
C  34.75100 51.53500 25.93900
C  35.69500 50.40000 21.26600
C  37.27900 45.95400 22.58200
N  35.43900 49.18200 26.33700
C  35.69300 48.37400 27.46400
C  35.48900 49.17300 28.79000
C  34.69800 50.48100 28.29000
C  34.98100 50.40500 26.77300
C  33.25100 50.64400 28.71400
C  36.77700 49.43700 29.59000
C  36.74800 49.09100 31.13500
H  35.38400 49.00100 31.91600
N  35.43200 50.74000 23.66500
C  34.93300 51.71000 24.50300
C  34.51900 52.81400 23.70800
C  34.89100 52.55100 22.37700
C  35.36800 51.18100 22.35700
C  33.87700 54.02600 24.31600
C  34.72600 53.48300 21.17300
O  35.20700 53.13900 20.09800
C  34.01400 54.82400 21.25600
N  36.15500 48.12100 22.13100
C  36.07300 49.04400 21.21800
C  36.25400 48.30400 19.85800
C  37.07200 47.02500 20.22000
C  36.80300 47.00100 21.69800
C  34.89400 48.03200 19.20200
C  38.50100 47.08000 19.67500
C  39.74100 47.24600 20.69500
N  36.54700 46.87200 24.80300
C  37.10700 45.85600 24.00200
C  37.70100 44.87100 24.85400
C  37.41700 45.33000 26.18300
C  36.60400 46.49300 26.06200
C  38.44600 43.69400 24.34500
C  37.53300 45.02600 27.63900
O  38.09300 44.09100 28.24800
C  36.87000 46.18100 28.37300
C  35.82900 45.72100 29.38000
O  34.67600 45.50600 29.13900
O  36.45200 45.55100 30.55700
C  35.59400 44.82100 31.57000
H  34.41000 52.40200 26.50900
H  35.51100 50.81100 20.27100
H  37.70800 45.07000 22.10600
H  34.81200 48.60700 29.43000
H  35.13100 51.38000 28.72900
H  32.92800 49.92600 29.46800
H  32.58800 50.51000 27.85900
H  33.03600 51.63600 29.11100
H  37.13400 50.45600 29.44000
H  37.55500 48.72800 29.30600
H  37.32100 49.88200 31.62000
H  37.31800 48.20100 31.40100
H  34.46800 54.91300 24.54100
H  33.49500 53.82300 25.31700
H  33.02900 54.29000 23.68500
H  32.93800 54.68300 21.35500
H  34.16900 55.35800 20.31900
H  34.34100 55.52200 22.02700
H  36.77600 48.99200 19.19300
H  36.52500 46.18100 19.80000
H  34.01800 48.19300 19.83000
H  34.73700 47.04800 18.76000
H  34.81400 48.68500 18.33300
H  38.67300 47.83200 18.90600
H  38.69300 46.16800 19.10900
H  40.36900 46.35600 20.72600
H  39.37000 47.61500 21.65200
H  40.25900 48.14700 20.36700
H  38.94600 43.93500 23.40600
H  37.97700 42.71100 24.29800
H  39.17800 43.43300 25.10800
H  37.70700 46.61300 28.92200
H  35.33000 43.79000 31.33500
H  34.67800 45.36000 31.81300
H  36.15700 44.81200 32.50400

