158

Mg 48.58000 34.97400 26.82400
C  46.97700 33.43500 29.45300
C  49.41100 37.68400 28.69100
C  49.77500 36.51400 24.00900
C  47.62000 32.20800 24.78300
N  48.23900 35.50200 28.83700
C  47.59600 34.70200 29.76500
C  47.85300 35.34800 31.20500
C  48.24600 36.81500 30.79700
C  48.79300 36.63900 29.34800
C  47.15400 37.94000 31.02300
C  49.00800 34.52800 31.94700
C  48.70100 34.22200 33.37600
H  47.65400 34.97800 34.22400
N  49.52000 36.77300 26.35600
C  49.76500 37.77700 27.34600
C  50.26600 38.96100 26.68500
C  50.50900 38.65000 25.31100
C  49.93000 37.25000 25.17800
C  50.61400 40.25100 27.37700
C  51.07200 39.50200 24.17800
O  51.18000 39.03300 23.06300
C  51.52200 40.91100 24.50200
N  48.42700 34.59900 24.76900
C  49.05100 35.29600 23.82300
C  48.97500 34.66500 22.44100
C  48.71000 33.16300 22.73900
C  48.15100 33.31200 24.14000
C  48.09700 35.52600 21.46500
C  49.88000 32.14400 22.79500
C  49.94600 30.95200 21.71800
N  47.50700 33.14600 26.96600
C  47.27300 32.08100 26.11500
C  46.43500 31.04200 26.81000
C  46.32300 31.57900 28.12200
C  46.96000 32.77900 28.19300
C  45.90800 29.70300 26.27300
C  45.68100 31.33200 29.40100
O  45.08200 30.37400 29.71700
C  46.08200 32.56800 30.27600
C  46.50600 32.00300 31.57800
O  47.54500 31.42100 31.83000
O  45.38500 32.03300 32.42300
C  45.55400 31.14700 33.61300
H  49.50900 38.58900 29.29500
H  50.19200 36.85700 23.06000
H  47.46900 31.41900 24.04300
H  46.98300 35.34300 31.86100
H  49.02500 37.15300 31.48100
H  46.98000 38.52400 30.11900
H  47.47800 38.76000 31.66400
H  46.24700 37.57800 31.50900
H  49.94600 35.08300 31.91500
H  49.20100 33.53900 31.53200
H  49.68500 34.29400 33.84100
H  48.39500 33.19400 33.57200
H  50.12000 41.05600 26.83300
H  51.68200 40.37100 27.55400
H  50.15400 40.22200 28.36500
H  50.69200 41.57300 24.75000
H  51.99700 41.43500 23.67200
H  52.27300 40.87600 25.29100
H  49.96600 34.56600 21.99800
H  47.94700 32.73100 22.09000
H  48.62600 35.86600 20.57500
H  47.80100 36.45200 21.95900
H  47.27500 34.88700 21.14400
H  49.94700 31.56000 23.71300
H  50.80500 32.70300 22.65300
H  49.10300 31.04000 21.03300
H  49.93600 30.01800 22.28000
H  50.89100 30.99600 21.17600
H  46.79100 29.34700 25.74100
H  45.05900 29.68600 25.59000
H  45.71600 29.02500 27.10500
H  45.20800 33.20700 30.40400
H  46.30100 31.52400 34.31100
H  45.77400 30.11300 33.34500
H  44.60400 31.15100 34.14800
Mg 30.01100 57.57900 40.98000
C  27.29300 55.70900 39.78400
C  32.11500 55.44500 39.51100
C  32.40900 59.76000 41.67900
C  27.64200 59.97000 42.21200
N  29.73500 55.91700 39.67000
C  28.52400 55.18100 39.43100
C  28.87000 54.04200 38.54100
C  30.32200 53.72000 39.03100
C  30.74100 55.10600 39.45500
C  30.53100 52.65300 40.14700
C  28.62500 54.11200 36.96000
C  27.24900 53.59100 36.48000
H  26.31600 54.63100 35.80500
N  32.01300 57.62500 40.60500
C  32.69900 56.63600 39.93700
C  34.10100 56.92500 39.99600
C  34.26000 58.17900 40.67200
C  32.85800 58.54500 41.03400
C  35.14300 55.99500 39.28800
C  35.52400 58.89400 40.90700
O  36.52900 58.31900 40.54200
C  35.65600 60.07900 41.64100
N  29.97100 59.70800 41.67200
C  31.19700 60.29400 41.88800
C  30.96400 61.76000 42.43200
C  29.45900 61.72600 42.74200
C  28.96100 60.46500 42.18800
C  31.91400 62.03800 43.58300
C  28.67900 63.10100 42.40800
C  27.75600 63.64200 43.42800
N  27.90800 57.91600 41.02800
C  27.09900 58.88000 41.60400
C  25.72400 58.49800 41.32800
C  25.76700 57.25800 40.65700
C  27.12200 56.97300 40.44200
C  24.54800 59.24800 41.90800
C  24.93200 56.19500 40.06400
O  23.72000 56.11500 40.02500
C  25.92300 55.16000 39.44000
C  25.64600 53.88000 40.18900
O  26.19900 53.53000 41.21800
O  24.73800 53.13900 39.41500
C  24.24600 51.98300 40.07300
H  32.76800 54.57200 39.45200
H  33.17900 60.44500 42.04000
H  26.98900 60.70400 42.68900
H  28.18300 53.24200 38.81800
H  30.88100 53.48600 38.12500
H  29.62000 52.06700 40.26800
H  30.70500 53.29400 41.01100
H  31.40200 52.08400 39.82200
H  29.36500 53.55400 36.38800
H  28.76700 55.15200 36.66600
H  26.65300 53.33600 37.35600
H  27.39500 52.69100 35.88200
H  34.77700 55.04700 38.89300
H  36.01300 55.77900 39.90700
H  35.43200 56.50600 38.37000
H  35.06200 60.77700 41.05000
H  36.72300 60.29900 41.61800
H  35.27900 59.96800 42.65800
H  31.20100 62.41300 41.59200
H  29.40200 61.58700 43.82200
H  32.66100 62.72700 43.18700
H  32.48000 61.18400 43.95400
H  31.42800 62.53700 44.42100
H  28.04400 62.87700 41.55100
H  29.39400 63.84100 42.04900
H  28.27200 64.45100 43.94600
H  27.58400 62.95000 44.25200
H  26.85600 63.88500 42.86300
H  24.89900 60.02300 42.58800
H  23.79000 58.54600 42.25700
H  24.06400 59.69600 41.04000
H  25.68300 54.99700 38.39000
H  23.95700 52.26000 41.08600
H  25.01900 51.22300 40.18500
H  23.33700 51.70000 39.54300

