158

Mg 0.07400 7.43400 26.21300
C  1.18100 9.59900 28.68200
C  -0.01300 5.05000 28.59000
C  -0.48300 5.21900 23.79900
C  0.88100 9.95000 23.75700
N  0.65900 7.35100 28.38400
C  0.80200 8.34100 29.23200
C  0.67000 7.91700 30.67500
C  0.74100 6.40800 30.56700
C  0.44700 6.24800 29.08600
C  2.12700 5.82100 31.01300
C  -0.70700 8.51400 31.20900
C  -0.82700 8.31900 32.67400
H  0.40700 8.03100 33.63500
N  -0.36100 5.46300 26.24300
C  -0.37500 4.60500 27.34500
C  -0.79700 3.33000 26.96000
C  -1.00600 3.33400 25.48800
C  -0.60400 4.69100 25.07200
C  -0.83600 2.16800 27.98800
C  -1.45500 2.24800 24.53800
O  -1.35900 2.30400 23.35400
C  -1.99700 0.95300 25.00700
N  0.18300 7.57800 24.05600
C  -0.22000 6.51700 23.32300
C  -0.07100 6.87000 21.86200
C  0.14600 8.37300 21.90500
C  0.51400 8.70200 23.30200
C  1.06000 6.06400 21.08800
C  -1.16800 9.17600 21.42900
C  -0.99400 10.06400 20.20900
N  0.95300 9.35200 26.17700
C  1.16500 10.23100 25.15200
C  1.62000 11.43400 25.69600
C  1.60500 11.26000 27.10700
C  1.26600 9.96700 27.32000
C  1.86900 12.78000 24.96300
C  1.78500 11.87800 28.40200
O  2.11800 13.05600 28.71800
C  1.48400 10.80100 29.47200
C  2.65200 10.70400 30.40100
O  3.64800 10.05000 30.25700
O  2.42300 11.60900 31.44800
C  3.42100 11.43200 32.48900
H  0.06000 4.25000 29.33000
H  -0.78600 4.58500 22.96300
H  1.05700 10.69700 22.98000
H  1.52400 8.39600 31.15500
H  -0.06700 5.96600 31.14900
H  2.88300 6.57700 31.22500
H  2.46100 5.17700 30.19900
H  1.93600 5.19600 31.88500
H  -1.50500 7.98500 30.68900
H  -0.77700 9.57200 30.95600
H  -1.59000 7.63000 33.03900
H  -1.26700 9.23500 33.06800
H  -1.22100 1.16300 27.81400
H  -1.49500 2.52400 28.77900
H  0.15100 2.17800 28.45200
H  -2.59700 0.54800 24.19200
H  -2.58800 1.14100 25.90400
H  -1.17400 0.30500 25.30800
H  -0.95300 6.55300 21.30600
H  0.88500 8.73300 21.19000
H  1.74500 6.85400 20.78100
H  0.71000 5.62400 20.15400
H  1.57000 5.44700 21.82800
H  -1.52600 9.90000 22.16100
H  -2.04300 8.55700 21.22900
H  -1.86500 9.96700 19.56100
H  -0.09400 9.91600 19.61300
H  -0.90900 11.07500 20.60800
H  2.58500 12.70500 24.14400
H  2.22700 13.53800 25.66000
H  0.91200 13.13700 24.58300
H  0.55600 11.05400 29.98400
H  3.36000 10.54800 33.12400
H  3.13700 12.25800 33.14100
H  4.43400 11.62700 32.13500
Mg -11.88200 37.42300 41.49700
C  -9.29300 35.23800 41.09600
C  -9.73100 39.97000 40.29900
C  -14.47300 39.48300 41.35700
C  -13.86000 34.75400 42.53000
N  -9.72500 37.59200 40.76500
C  -8.92500 36.51700 40.63200
C  -7.64300 36.80900 39.76100
C  -7.72300 38.46300 39.77600
C  -9.11900 38.72400 40.30000
C  -6.67600 39.18000 40.69800
C  -7.68600 36.18500 38.37100
C  -6.41700 35.44500 37.93400
H  -5.45500 36.14000 37.05100
N  -12.08800 39.46400 40.91900
C  -11.08000 40.32400 40.55000
C  -11.68100 41.63600 40.34300
C  -13.08400 41.52900 40.70300
C  -13.27700 40.17600 41.09500
C  -10.94800 42.87200 39.83100
C  -14.09400 42.69000 40.60100
O  -13.77300 43.83200 40.26500
C  -15.59500 42.50700 40.89700
N  -13.90400 37.15100 41.69900
C  -14.82500 38.19900 41.67000
C  -16.26800 37.65700 42.02500
C  -15.97100 36.21500 42.48900
C  -14.49200 35.97100 42.16700
C  -17.11400 38.52300 43.04400
C  -16.93200 35.07000 41.93300
C  -17.58800 34.16500 43.02800
N  -11.59800 35.43700 41.88700
C  -12.47700 34.46900 42.35500
C  -11.72000 33.24100 42.61200
C  -10.46000 33.45800 42.07500
C  -10.46800 34.83700 41.55900
C  -12.09900 32.06500 43.30800
C  -9.20900 32.90700 41.89100
O  -8.76400 31.90300 42.35600
C  -8.38900 33.91600 41.08400
C  -7.05100 34.00900 41.76900
O  -6.07100 33.31700 41.49100
O  -7.13600 34.93300 42.77600
C  -5.94400 35.11500 43.57100
H  -9.06500 40.78600 40.00800
H  -15.37100 40.09500 41.46100
H  -14.53800 33.94600 42.81200
H  -6.71400 36.48200 40.22700
H  -7.70600 38.72000 38.71700
H  -5.89900 39.52500 40.01500
H  -6.18000 38.63200 41.49900
H  -7.11700 39.99700 41.26900
H  -7.94000 36.97400 37.66400
H  -8.55500 35.53900 38.25000
H  -6.88200 34.61100 37.40800
H  -5.89700 35.01100 38.78800
H  -11.28300 43.79800 40.30000
H  -11.35300 43.06700 38.83800
H  -9.86800 42.78200 39.71800
H  -15.76900 41.94200 41.81200
H  -15.95900 41.96700 40.02300
H  -16.11000 43.46700 40.93800
H  -16.86500 37.59500 41.11500
H  -16.13300 36.27900 43.56500
H  -17.57800 39.29000 42.42400
H  -16.45800 39.05100 43.73600
H  -17.94700 37.95200 43.45400
H  -16.43100 34.35400 41.28100
H  -17.70200 35.45500 41.26400
H  -17.38500 33.12300 42.78000
H  -18.65700 34.37000 42.96800
H  -17.24500 34.40700 44.03400
H  -12.87500 31.52500 42.76400
H  -12.57600 32.42900 44.21800
H  -11.27900 31.36200 43.45600
H  -8.25200 33.75200 40.01500
H  -5.08900 34.47500 43.35500
H  -6.28400 34.97800 44.59800
H  -5.57400 36.12600 43.39900

