158

Mg 53.46500 24.98300 43.92900
C  50.86700 27.19400 43.33500
C  51.34500 22.46500 42.77300
C  56.05100 22.89000 43.90000
C  55.56400 27.75400 44.10300
N  51.45600 24.87600 42.90300
C  50.53100 25.87400 42.96700
C  49.15500 25.37800 42.49300
C  49.26900 23.82200 42.51700
C  50.79700 23.74700 42.70400
C  48.48200 23.06900 43.63100
C  48.65100 25.93600 41.12600
C  49.58200 26.21300 39.95500
H  49.42000 25.49100 38.66500
N  53.64900 22.97100 43.58300
C  52.65400 22.08400 43.14600
C  53.23700 20.74400 42.91500
C  54.60200 20.75500 43.22000
C  54.84000 22.22000 43.58200
C  52.48400 19.46600 42.43900
C  55.51700 19.60700 43.23400
O  55.18700 18.45700 42.78400
C  56.88300 19.68200 43.97500
N  55.45600 25.28700 43.89400
C  56.38300 24.26900 43.91800
C  57.80200 24.89100 43.94900
C  57.60400 26.41200 43.78600
C  56.11800 26.48000 43.90800
C  58.65000 24.42300 45.17400
C  58.15300 27.03800 42.47600
C  59.01400 28.30500 42.69700
N  53.34100 27.07500 43.83200
C  54.22600 28.09700 44.10400
C  53.55900 29.39600 44.29800
C  52.20700 29.06700 44.05700
C  52.18000 27.63200 43.66700
C  54.15900 30.70300 44.52800
C  50.88800 29.59700 44.01700
O  50.47500 30.69000 44.33300
C  50.02700 28.45300 43.38100
C  49.64200 28.96700 41.97700
O  50.42300 29.18800 41.04300
O  48.31500 29.30600 41.96500
C  47.90100 30.05500 40.71300
H  50.68800 21.63000 42.51900
H  56.92500 22.23600 43.94500
H  56.21100 28.63400 44.09200
H  48.43400 25.74800 43.22200
H  48.96200 23.41100 41.55400
H  47.78200 23.73000 44.14100
H  49.14400 22.63400 44.37900
H  47.90400 22.31200 43.10000
H  48.01500 26.76900 41.42300
H  47.92200 25.21600 40.75200
H  50.47800 25.67000 40.25800
H  49.71700 27.25500 39.66700
H  53.05700 18.79800 41.79500
H  51.46600 19.59200 42.06900
H  52.49900 18.94200 43.39400
H  57.39400 18.71900 44.00900
H  56.75100 20.07500 44.98300
H  57.48000 20.34700 43.35200
H  58.30200 24.42600 43.09900
H  58.00500 26.92800 44.65800
H  58.08400 23.66200 45.71000
H  58.99600 25.30200 45.71900
H  59.49000 23.86300 44.76400
H  57.33900 27.36400 41.82900
H  58.81300 26.30700 42.00900
H  59.18300 28.46800 43.76100
H  58.57500 29.10700 42.10300
H  59.95100 28.09900 42.17900
H  53.99600 31.19900 43.57100
H  55.23300 30.75400 44.70500
H  53.64400 31.28600 45.29200
H  49.10600 28.28400 43.93900
H  46.93100 30.52700 40.87100
H  47.82100 29.32700 39.90600
H  48.55600 30.80600 40.27000
Mg -12.04200 37.94000 42.79800
C  -10.55300 35.05200 41.90500
C  -9.72700 39.74400 41.22700
C  -14.12300 40.56100 43.03100
C  -14.72400 35.95600 44.21100
N  -10.28000 37.43900 41.84800
C  -9.89500 36.19000 41.38400
C  -8.75100 36.19500 40.29300
C  -8.32000 37.68400 40.45700
C  -9.47400 38.37500 41.24400
C  -6.89600 37.86900 41.15500
C  -9.36300 36.00600 38.90300
C  -8.33100 35.55500 37.83700
H  -7.73500 36.61200 36.91300
N  -11.97300 39.88700 42.08700
C  -10.86000 40.50700 41.57100
C  -11.12900 41.84000 41.37200
C  -12.46900 42.15700 41.80800
C  -12.91300 40.82500 42.37900
C  -10.20400 42.66000 40.64300
C  -13.30700 43.45300 41.63700
O  -12.75100 44.34900 41.08500
C  -14.69800 43.60300 42.03500
N  -14.19200 38.26700 43.56900
C  -14.78400 39.43000 43.58800
C  -16.03100 39.44500 44.48900
C  -16.39800 37.88100 44.55000
C  -15.00400 37.35100 44.14400
C  -15.84700 40.02100 45.86900
C  -17.65600 37.58900 43.59800
C  -18.30000 36.30800 43.84100
N  -12.49100 35.90900 43.13800
C  -13.55000 35.26700 43.78300
C  -13.20300 33.83500 43.89800
C  -11.99000 33.66900 43.19600
C  -11.76000 35.01200 42.66300
C  -13.96200 32.71200 44.62900
C  -10.96600 32.79400 42.78700
O  -10.80800 31.62100 42.93400
C  -10.09200 33.61900 41.72700
C  -8.61300 33.39400 42.03400
O  -7.85400 32.76000 41.32000
O  -8.15500 34.29800 42.97500
C  -6.76200 34.25100 43.37600
H  -8.91200 40.30700 40.76800
H  -14.67900 41.46400 43.29000
H  -15.50300 35.39900 44.73600
H  -8.00400 35.46700 40.61000
H  -8.25900 38.12200 39.46000
H  -6.96600 37.76000 42.23700
H  -6.49800 38.85600 40.91700
H  -6.16700 37.17900 40.73100
H  -9.82200 36.93200 38.55900
H  -10.20500 35.31800 38.97200
H  -8.74500 34.64200 37.41100
H  -7.43500 35.25000 38.37900
H  -9.19100 42.25900 40.63600
H  -10.19500 43.55000 41.27300
H  -10.57700 43.09200 39.71500
H  -15.25300 42.75900 41.62600
H  -15.12700 44.56700 41.76300
H  -14.57000 43.59600 43.11800
H  -16.85000 40.03700 44.08100
H  -16.65600 37.58700 45.56700
H  -16.57700 39.81000 46.65000
H  -15.95500 41.10500 45.83500
H  -14.87800 39.72300 46.27000
H  -17.31400 37.61000 42.56300
H  -18.34200 38.43300 43.53100
H  -19.33300 36.32500 43.49400
H  -18.24100 35.98300 44.88000
H  -17.85700 35.48600 43.27900
H  -14.62000 32.17100 43.94800
H  -14.61700 33.13400 45.39200
H  -13.43800 31.91400 45.15400
H  -10.42300 33.27000 40.75000
H  -6.17800 34.88900 42.71300
H  -6.39500 33.22500 43.39400
H  -6.58500 34.72500 44.34100

