158

Mg 50.16900 45.16700 42.32600
C  46.83400 44.97600 41.13800
C  50.47100 41.70900 41.42200
C  53.55300 45.49100 42.39600
C  49.72200 48.54000 42.74100
N  48.81300 43.53800 41.48400
C  47.52500 43.73800 41.13400
C  46.87900 42.29900 40.73800
C  48.03200 41.29600 40.92500
C  49.20800 42.22700 41.31600
C  47.70600 40.20700 41.95300
C  46.34700 42.15300 39.26100
C  47.00100 42.99200 38.15500
H  47.02200 42.31200 36.67900
N  51.72000 43.77800 42.19400
C  51.68300 42.42000 41.76600
C  53.08000 41.90000 41.72900
C  53.93000 42.92200 42.28500
C  53.06600 44.13700 42.32400
C  53.46100 40.49500 41.31400
C  55.41700 42.85900 42.54200
O  55.93700 41.74100 42.48000
C  56.20900 43.90800 43.08700
N  51.43700 46.82300 42.49900
C  52.76000 46.71600 42.43300
C  53.44100 48.11200 42.62600
C  52.23200 49.05800 42.91100
C  51.06900 48.11000 42.72700
C  54.62300 48.16600 43.61800
C  52.18000 50.41900 41.99300
C  52.06800 51.79500 42.70100
N  48.50700 46.55200 42.15600
C  48.50400 47.91800 42.29100
C  47.23400 48.40700 41.97800
C  46.53400 47.29500 41.48000
C  47.38300 46.19400 41.58900
C  46.76600 49.90700 42.16600
C  45.26700 46.90300 40.93200
O  44.27100 47.55300 40.65700
C  45.39900 45.31700 40.79800
C  44.39100 44.86900 41.76900
O  43.27500 44.56800 41.43700
O  44.98200 44.72400 43.02100
C  43.98900 44.26000 44.00000
H  50.63600 40.65800 41.17400
H  54.61500 45.54500 42.15100
H  49.69800 49.63100 42.72000
H  46.04400 42.04000 41.38800
H  48.34500 40.71000 40.06100
H  48.21500 39.26400 41.75300
H  46.67400 39.90100 41.78400
H  48.08200 40.47700 42.94000
H  45.27500 42.33200 39.18200
H  46.36100 41.09000 39.01800
H  48.05100 43.19500 38.36400
H  46.49100 43.94500 38.01500
H  54.24800 40.47900 40.56000
H  52.56900 40.06800 40.85600
H  53.92800 39.92500 42.11600
H  56.48200 44.69000 42.38000
H  57.19800 43.55800 43.38000
H  55.66000 44.29500 43.94600
H  53.83700 48.26800 41.62200
H  52.13200 49.33300 43.96100
H  54.62400 47.34600 44.33700
H  54.53000 49.10900 44.15600
H  55.54300 48.10200 43.03700
H  51.36600 50.33200 41.27300
H  53.10900 50.37700 41.42400
H  53.01200 52.27400 42.43800
H  51.95200 51.71700 43.78200
H  51.16400 52.33300 42.41700
H  46.43600 49.96900 43.20300
H  45.98100 50.24900 41.49200
H  47.66700 50.51200 42.06400
H  45.18600 44.98900 39.78000
H  43.29100 45.08600 44.13700
H  44.41400 43.93600 44.94900
H  43.38500 43.40800 43.68900
Mg -11.72500 38.89500 42.17300
C  -10.26600 35.96600 40.98000
C  -9.33200 40.73600 40.49900
C  -13.52200 41.64700 42.66300
C  -14.67100 36.91200 42.94500
N  -10.11000 38.40500 40.89900
C  -9.54400 37.18200 40.73400
C  -8.17700 37.23700 40.04200
C  -7.76900 38.72900 40.06400
C  -9.13600 39.34000 40.57100
C  -6.57200 39.17900 41.03700
C  -8.46600 36.73800 38.58400
C  -7.45800 35.68800 38.00400
H  -6.39000 36.24700 37.01600
N  -11.45400 40.89700 41.68100
C  -10.38100 41.48300 40.99000
C  -10.45300 42.91100 41.09900
C  -11.65100 43.17200 41.82800
C  -12.32100 41.87100 42.03300
C  -9.43800 43.92000 40.51700
C  -12.20000 44.51900 42.35800
O  -11.55600 45.43900 42.00700
C  -13.37300 44.74400 43.25500
N  -13.83500 39.19700 42.64700
C  -14.19800 40.47200 42.97700
C  -15.65700 40.51900 43.40400
C  -16.11800 38.98000 43.35400
C  -14.81100 38.27200 42.94700
C  -15.80300 41.16200 44.79700
C  -17.32200 38.59300 42.48300
C  -17.15500 38.07400 41.03400
N  -12.32000 36.84400 42.15600
C  -13.51700 36.22800 42.47600
C  -13.34300 34.80000 42.32400
C  -12.03500 34.64100 41.81000
C  -11.53800 35.88000 41.61300
C  -14.40400 33.76800 42.70100
C  -11.00700 33.66600 41.36600
O  -11.03800 32.45300 41.37900
C  -9.74400 34.49400 40.91700
C  -8.76500 34.19600 42.03700
O  -7.71000 33.53700 41.97800
O  -9.16400 34.89100 43.10300
C  -8.13200 34.79800 44.16100
H  -8.42600 41.31000 40.29100
H  -14.11200 42.51300 42.97200
H  -15.54600 36.28200 43.11700
H  -7.48800 36.48000 40.41700
H  -7.61200 39.07600 39.04300
H  -5.69700 39.43900 40.44100
H  -6.22200 38.28000 41.54500
H  -6.75100 40.06100 41.65100
H  -8.50100 37.60500 37.92400
H  -9.47300 36.32700 38.50500
H  -8.04600 34.90400 37.52700
H  -6.92500 35.09600 38.74600
H  -8.41800 43.54000 40.57800
H  -9.40500 44.86300 41.06200
H  -9.65800 44.14100 39.47300
H  -13.15400 45.77100 43.54700
H  -13.33700 44.06300 44.10600
H  -14.34800 44.81000 42.77300
H  -16.15100 41.11700 42.63800
H  -16.36300 38.73700 44.38700
H  -14.95500 40.99000 45.46000
H  -16.67300 40.70200 45.26300
H  -15.93700 42.24100 44.72400
H  -17.92600 39.48900 42.33900
H  -17.79400 37.86200 43.13900
H  -17.68800 37.13000 41.14900
H  -16.16600 37.85100 40.63600
H  -17.75400 38.68000 40.35400
H  -13.94100 32.84100 42.36200
H  -15.36500 33.98000 42.23400
H  -14.63100 33.66900 43.76300
H  -9.39600 34.17600 39.93500
H  -8.28300 35.69600 44.75900
H  -7.12400 34.86100 43.75100
H  -8.14800 33.87700 44.74400

