158

Mg 37.12200 49.17100 24.98200
C  37.53700 47.27000 27.97200
C  35.81500 51.67000 26.89400
C  36.20500 50.74000 22.18500
C  38.29900 46.36800 23.20000
N  36.51700 49.33000 27.13000
C  36.95100 48.54200 28.18800
C  36.68200 49.15800 29.58500
C  36.04600 50.59600 29.15800
C  36.14000 50.51900 27.63100
C  34.61500 50.83500 29.64900
C  37.99500 49.41700 30.40400
C  37.87400 49.67400 31.95400
H  36.53600 49.63600 32.64400
N  36.13500 51.04700 24.56200
C  35.83000 51.95500 25.52500
C  35.29800 53.10300 24.83100
C  35.30600 52.83900 23.43000
C  35.89500 51.49000 23.33400
C  34.87000 54.35100 25.57600
C  34.87300 53.76600 22.24400
O  34.92900 53.38800 21.06900
C  34.51500 55.17900 22.43300
N  37.18300 48.65900 23.02600
C  36.74400 49.42600 22.01900
C  36.96900 48.84000 20.62300
C  37.69200 47.50100 20.97200
C  37.75300 47.49800 22.46200
C  35.70700 48.71600 19.75300
C  39.16800 47.41500 20.36900
C  40.11300 48.47200 20.89500
N  37.75300 47.20000 25.44000
C  38.22600 46.22300 24.58500
C  38.69800 45.10500 25.41000
C  38.32800 45.46200 26.70100
C  37.78000 46.74600 26.69700
C  39.24800 43.82100 25.01000
C  38.38000 45.03800 28.10600
O  38.73200 43.99000 28.61500
C  37.63000 46.14800 28.97300
C  36.24700 45.68300 29.35300
O  35.36300 45.26500 28.62600
O  36.15400 45.80400 30.71700
C  34.86500 45.46800 31.34700
H  35.40400 52.46200 27.52400
H  35.95400 51.27300 21.26500
H  38.83300 45.54200 22.72400
H  35.97600 48.58400 30.18500
H  36.73200 51.33300 29.57500
H  34.21300 49.99100 30.21000
H  34.05200 51.08100 28.74900
H  34.64700 51.76500 30.21700
H  38.58800 50.23000 29.98500
H  38.50300 48.47700 30.19200
H  38.27800 50.68000 32.06600
H  38.51100 48.93400 32.43900
H  35.63700 55.10400 25.39700
H  35.00100 54.20600 26.64800
H  33.87100 54.64800 25.25500
H  34.37900 55.67200 21.47100
H  35.35100 55.71600 22.88200
H  33.67200 55.07700 23.11600
H  37.71200 49.36400 20.02100
H  37.32600 46.51400 20.68900
H  35.21700 47.78800 20.05000
H  35.81600 48.64400 18.67100
H  34.97000 49.48200 19.99300
H  39.08100 47.52000 19.28800
H  39.61500 46.43500 20.54000
H  40.99600 48.02100 21.34800
H  39.72400 49.05300 21.73000
H  40.41000 49.17700 20.11800
H  39.40100 43.71100 23.93600
H  38.70500 42.91100 25.26800
H  40.23000 43.73100 25.47400
H  38.28000 46.43300 29.80000
H  34.99400 44.42400 31.63200
H  33.91800 45.49400 30.80700
H  34.81100 46.03900 32.27400
Mg 1.53700 42.04600 25.58800
C  3.45600 42.28100 28.54200
C  -1.16000 41.04300 27.41600
C  0.01000 41.14800 22.69800
C  4.57800 42.28800 23.72500
N  1.25500 41.77700 27.82500
C  2.14800 42.04300 28.89800
C  1.39200 42.03200 30.21500
C  -0.09600 41.55300 29.86000
C  -0.07400 41.44700 28.25300
C  -0.37400 40.13800 30.37700
C  1.34300 43.47800 30.80400
C  1.66300 43.58500 32.27100
H  1.30200 42.32200 33.18200
N  -0.34900 41.28800 25.12000
C  -1.28900 40.90200 26.01800
C  -2.43900 40.31500 25.35100
C  -2.09800 40.32700 23.88300
C  -0.80300 41.00300 23.84200
C  -3.72200 39.85100 26.05200
C  -2.90600 39.85400 22.70500
O  -2.50800 39.79800 21.62100
C  -4.32000 39.48100 23.03300
N  2.17700 41.87700 23.55100
C  1.29400 41.61200 22.55300
C  1.97300 41.60800 21.19000
C  3.33600 42.23300 21.48900
C  3.37700 42.16700 23.03000
C  2.05400 40.17400 20.55200
C  3.45200 43.73400 21.02500
C  4.90800 44.30600 20.84000
N  3.59000 42.30400 25.96600
C  4.69100 42.33400 25.13000
C  5.85300 42.56400 25.94900
C  5.41200 42.47400 27.27300
C  4.02600 42.36000 27.24300
C  7.28900 42.80700 25.39900
C  5.87600 42.54800 28.61500
O  6.93300 42.73100 29.10600
C  4.67300 42.51400 29.47900
C  4.69300 41.37700 30.35800
O  4.57700 40.19400 30.07800
O  4.80000 41.83400 31.68900
C  5.21600 40.72500 32.59500
H  -2.11000 40.80300 27.89800
H  -0.62100 40.81900 21.87000
H  5.53900 42.46800 23.23900
H  1.89400 41.37900 30.92900
H  -0.99900 42.03600 30.23100
H  -0.34000 39.46200 29.52200
H  -1.37700 39.91500 30.74200
H  0.23700 39.76900 31.20000
H  0.39600 44.01000 30.71800
H  2.21400 44.03100 30.45100
H  1.08100 44.37000 32.75400
H  2.71400 43.81200 32.45200
H  -4.48900 40.56800 25.75800
H  -3.61600 40.00100 27.12600
H  -3.94400 38.80500 25.83900
H  -4.39100 38.49400 23.49000
H  -4.89500 39.40700 22.11000
H  -4.72600 40.30100 23.62600
H  1.49700 42.28900 20.48500
H  4.17900 41.72800 21.01800
H  1.92400 39.48000 21.38200
H  3.04100 39.99300 20.12600
H  1.24200 40.00200 19.84500
H  3.01200 44.37700 21.78700
H  2.90600 43.91500 20.10000
H  5.08100 44.70600 19.84100
H  5.78400 43.69000 21.04100
H  5.03800 45.15600 21.51000
H  7.18600 43.32700 24.44600
H  7.68800 41.81400 25.19100
H  7.95400 43.33000 26.08600
H  4.62200 43.37400 30.14500
H  4.36000 40.41200 33.19300
H  5.84200 40.97900 33.45100
H  5.74800 39.90000 32.12300

