158

Mg 43.71000 4.40100 47.42400
C  41.58200 7.08200 46.90600
C  41.00900 2.20300 47.11700
C  45.85600 1.80200 47.24300
C  46.44900 6.58700 47.26400
N  41.55600 4.64600 46.88800
C  40.85900 5.87100 46.72400
C  39.36000 5.56500 46.34800
C  39.30500 4.02100 46.53900
C  40.69800 3.58400 46.77400
C  38.25300 3.57600 47.66200
C  39.07700 5.98900 44.87600
C  37.85300 6.89100 44.59500
H  37.21200 6.64100 43.21000
N  43.43400 2.37000 47.27600
C  42.26000 1.65900 47.34400
C  42.50400 0.24500 47.20600
C  43.89100 0.09900 47.21100
C  44.47200 1.48000 47.19200
C  41.41500 -0.69600 47.20100
C  44.63000 -1.19600 47.03600
O  44.07300 -2.26700 46.76100
C  46.11800 -1.36200 47.14600
N  45.79100 4.19300 47.25600
C  46.44000 3.03700 47.30000
C  47.94100 3.16100 47.56600
C  48.15200 4.68500 47.51000
C  46.75200 5.19700 47.29400
C  48.71800 2.36500 48.72100
C  49.20500 5.13900 46.37800
C  50.68100 5.28500 46.73000
N  43.94000 6.42700 47.25200
C  45.10700 7.13800 47.16200
C  44.75300 8.51900 47.06400
C  43.36600 8.56600 47.02700
C  42.94400 7.24900 47.07900
C  45.72800 9.67800 46.83400
C  42.23000 9.43000 46.88800
O  42.19500 10.62900 46.89600
C  41.00500 8.49300 46.82000
C  40.07800 9.06000 47.88100
O  40.00800 8.66800 49.04200
O  39.16700 9.94600 47.27800
C  38.14600 10.62200 48.08300
H  40.16700 1.55800 46.85900
H  46.55000 0.96900 47.36800
H  47.17800 7.40000 47.23700
H  38.79500 6.15800 47.06600
H  38.86700 3.56900 45.64900
H  37.55000 4.37500 47.89600
H  38.85300 3.34000 48.54000
H  37.79400 2.67800 47.24800
H  39.10200 5.13300 44.20300
H  39.90100 6.66100 44.63800
H  38.06900 7.95900 44.64000
H  37.12900 6.67700 45.38000
H  41.72300 -1.64400 46.76000
H  40.55600 -0.41400 46.59300
H  41.12100 -0.78900 48.24700
H  46.51600 -0.82000 46.28800
H  46.43400 -2.39900 47.26100
H  46.38100 -0.95400 48.12200
H  48.42800 2.81800 46.65300
H  48.49000 5.02500 48.48800
H  49.34600 1.62300 48.22800
H  48.05900 1.92100 49.46700
H  49.48600 3.03200 49.11300
H  48.95400 6.16400 46.10700
H  49.11100 4.45000 45.53900
H  50.97900 4.27500 47.01100
H  50.80300 5.83300 47.66400
H  51.25300 5.76800 45.93800
H  45.09000 10.54500 47.00300
H  46.08000 9.76200 45.80600
H  46.50800 9.82200 47.58200
H  40.64700 8.59000 45.79500
H  37.82400 9.95500 48.88300
H  37.24500 10.65400 47.47100
H  38.59700 11.55500 48.41900
Mg 9.14600 47.89500 27.48900
C  7.08400 47.34500 30.28300
C  11.54700 48.91400 29.66000
C  11.12700 48.53800 24.88800
C  6.52200 47.28700 25.46100
N  9.27000 48.13300 29.70800
C  8.35700 47.69600 30.67900
C  8.95700 47.97400 32.07200
C  10.32500 48.65100 31.83300
C  10.38100 48.65600 30.28900
C  10.61400 50.03800 32.53200
C  8.93300 46.72100 33.09000
C  9.87600 46.60100 34.28900
H  9.28600 45.96700 35.61200
N  11.11000 48.68000 27.25800
C  11.94300 48.87900 28.26300
C  13.30600 49.10200 27.74800
C  13.20900 49.10500 26.31600
C  11.78800 48.75800 26.04900
C  14.48200 49.39300 28.59100
C  14.24900 49.37500 25.29000
O  13.99200 49.37500 24.10800
C  15.65000 49.51300 25.72600
N  8.85900 47.96200 25.48900
C  9.84200 48.07200 24.62900
C  9.49400 47.59100 23.20100
C  7.91900 47.33700 23.40500
C  7.77300 47.48300 24.90400
C  9.79200 48.66500 22.09100
C  7.38700 46.08300 22.71800
C  5.94400 46.08200 22.07800
N  7.14200 47.39600 27.71400
C  6.12700 47.24700 26.78700
C  4.82100 47.06100 27.45500
C  5.14800 47.05100 28.86700
C  6.57300 47.27200 28.94700
C  3.52700 46.87600 26.90300
C  4.62600 46.85300 30.21000
O  3.53900 46.65600 30.68100
C  5.85700 47.00300 31.18100
C  5.97600 45.80200 31.97600
O  6.66100 44.86800 31.68000
O  5.41000 45.94400 33.21100
C  5.49800 44.76700 34.15400
H  12.33400 49.26500 30.33000
H  11.71300 48.51500 23.96700
H  5.61900 47.23600 24.84900
H  8.26200 48.73200 32.43500
H  10.99500 47.85700 32.16300
H  10.85100 50.71300 31.70900
H  11.50100 50.09700 33.16400
H  9.85700 50.34200 33.25500
H  9.08600 45.77400 32.57400
H  7.88600 46.71400 33.39600
H  10.13600 47.62200 34.56500
H  10.62300 45.83500 34.08000
H  15.36100 48.78400 28.37900
H  14.09600 49.24700 29.60000
H  14.64400 50.46000 28.43200
H  15.66000 50.40700 26.35000
H  16.29100 49.46700 24.84600
H  15.98000 48.61000 26.24000
H  10.03700 46.67300 22.97500
H  7.38100 48.13300 22.89100
H  10.75300 48.45100 21.62200
H  9.90400 49.64200 22.56200
H  9.02200 48.85600 21.34400
H  7.42600 45.30000 23.47600
H  8.03300 45.74500 21.90800
H  5.33200 45.27300 22.47800
H  5.98400 45.94100 20.99800
H  5.48600 47.01900 22.39400
H  2.74900 47.15800 27.61200
H  3.39300 45.82400 26.64700
H  3.44000 47.34400 25.92200
H  5.62400 47.79600 31.89200
H  6.14600 43.92700 33.90300
H  4.51400 44.41600 34.46400
H  6.02100 45.20500 35.00400

