158

Mg 16.31600 51.53700 26.90000
C  18.28800 50.34200 29.52700
C  13.98400 52.48600 29.11900
C  14.43700 52.55700 24.25600
C  18.94500 50.66900 24.70900
N  16.18700 51.47300 29.05300
C  17.12600 50.98400 29.92000
C  16.66900 51.22400 31.39900
C  15.14800 51.57800 31.31300
C  15.09600 51.86100 29.76100
C  14.04900 50.45600 31.68100
C  17.60300 52.38200 32.01500
C  17.93500 52.33300 33.57000
H  17.02500 51.40500 34.46000
N  14.42100 52.40000 26.69100
C  13.65900 52.76300 27.74400
C  12.59100 53.52100 27.21700
C  12.60900 53.48000 25.83500
C  13.82200 52.74300 25.47700
C  11.64700 54.23600 28.08200
C  11.68200 54.12100 24.86700
O  11.81500 53.99900 23.67000
C  10.56900 55.04200 25.35500
N  16.66100 51.59800 24.83000
C  15.67300 52.02200 23.88500
C  16.34900 52.21000 22.53900
C  17.73100 51.60600 22.70700
C  17.81700 51.29400 24.19200
C  15.50800 51.80300 21.28100
C  18.88800 52.44900 22.11100
C  20.03100 51.73400 21.29800
N  18.22100 50.58300 27.00500
C  19.19900 50.32900 26.09400
C  20.38800 49.67100 26.70600
C  20.04900 49.77400 28.06600
C  18.75100 50.27800 28.21200
C  21.72600 49.23700 26.01400
C  20.58000 49.51500 29.32500
O  21.70800 49.10900 29.65000
C  19.46800 49.89400 30.37900
C  19.17500 48.54000 30.95300
O  19.14200 47.42800 30.40200
O  18.92600 48.66300 32.34400
C  18.11900 47.56600 32.86800
H  13.18200 52.82400 29.77900
H  13.81200 53.02600 23.49300
H  19.73000 50.38100 24.00800
H  16.59400 50.35200 32.04800
H  15.01500 52.43200 31.97600
H  13.41800 50.59700 32.55800
H  14.55900 49.49500 31.75900
H  13.40900 50.53400 30.80300
H  17.05500 53.32300 31.96600
H  18.56100 52.36400 31.49500
H  17.96200 53.35700 33.94200
H  18.93800 51.92600 33.69600
H  11.72700 54.11700 29.16200
H  10.70100 53.71800 27.92400
H  11.34100 55.24100 27.78800
H  9.96900 55.43100 24.53200
H  10.77700 55.98100 25.86800
H  9.93800 54.48800 26.05000
H  16.55200 53.28100 22.51200
H  17.80700 50.59300 22.31200
H  15.47500 52.65100 20.59700
H  14.46300 51.54400 21.45100
H  16.03100 51.00100 20.75900
H  19.40600 52.87100 22.97200
H  18.42200 53.24700 21.53300
H  20.43800 52.47000 20.60400
H  19.77700 50.78300 20.83000
H  20.84300 51.54600 22.00100
H  22.47500 48.90500 26.73300
H  22.13900 50.09300 25.47800
H  21.53000 48.39800 25.34600
H  19.86100 50.55700 31.15000
H  17.64200 47.91300 33.78500
H  18.63600 46.62800 33.06900
H  17.21600 47.43800 32.27100
Mg -6.13800 25.71600 25.37200
C  -4.43400 27.10900 28.21400
C  -7.45100 23.54900 27.59400
C  -7.34100 24.12600 22.68100
C  -4.17800 27.72000 23.35800
N  -6.03200 25.44000 27.69600
C  -5.28700 26.12500 28.59400
C  -5.63200 25.80100 29.99600
C  -6.39500 24.41000 29.78900
C  -6.57100 24.40400 28.26200
C  -5.76000 23.16100 30.43300
C  -6.40800 26.85800 30.78900
C  -5.82800 27.23000 32.14400
H  -6.59200 26.41100 33.23200
N  -7.31800 24.12300 25.19800
C  -7.90000 23.42900 26.24300
C  -9.05400 22.70000 25.72500
C  -8.95300 22.76800 24.28500
C  -7.85400 23.72200 23.95000
C  -10.07700 22.04600 26.57400
C  -9.63900 21.95000 23.28000
O  -9.50600 22.04600 22.06400
C  -10.61300 20.84300 23.69500
N  -5.84700 25.90600 23.37300
C  -6.45400 25.12600 22.43500
C  -6.06600 25.53600 20.98500
C  -5.17000 26.79200 21.23700
C  -5.03900 26.80500 22.74500
C  -5.36500 24.44100 20.05000
C  -5.65700 28.16500 20.73000
C  -5.78100 28.52500 19.19900
N  -4.65700 27.17300 25.70400
C  -3.93300 27.88200 24.74600
C  -3.00700 28.76300 25.43600
C  -3.26900 28.58800 26.77800
C  -4.20300 27.60100 26.90300
C  -2.06500 29.78700 24.76700
C  -2.93600 29.06900 28.06600
O  -2.21200 29.95100 28.46300
C  -3.61800 28.09500 29.03800
C  -2.67300 27.35800 29.89000
O  -1.96500 26.46300 29.53900
O  -2.59900 27.85600 31.17900
C  -1.86400 27.24900 32.26500
H  -8.09100 22.96700 28.26000
H  -7.82800 23.58600 21.86600
H  -3.47900 28.35100 22.80600
H  -4.64400 25.58200 30.40200
H  -7.43800 24.36700 30.10200
H  -6.32600 22.92600 31.33400
H  -4.73200 23.27300 30.77900
H  -5.85500 22.30900 29.75900
H  -7.38100 26.40800 30.98800
H  -6.54400 27.74800 30.17500
H  -6.03100 28.29200 32.27800
H  -4.76000 27.05100 32.26800
H  -9.95700 20.96300 26.55200
H  -11.08000 22.27100 26.21300
H  -10.00000 22.32700 27.62400
H  -10.02000 20.07400 24.19000
H  -10.95500 20.34700 22.78600
H  -11.42200 21.17700 24.34500
H  -7.02600 25.84900 20.57300
H  -4.13800 26.75900 20.88700
H  -6.07900 23.92200 19.41000
H  -4.83200 23.90900 20.83700
H  -4.67900 24.85300 19.30900
H  -5.16700 29.04400 21.14900
H  -6.71600 28.19100 20.98500
H  -5.64700 27.62200 18.60300
H  -5.02800 29.27000 18.94100
H  -6.76000 28.94600 18.97000
H  -1.45400 29.29900 24.00800
H  -1.43700 30.04300 25.62000
H  -2.67700 30.53900 24.26900
H  -4.25600 28.77000 29.60900
H  -2.46200 26.75100 33.02800
H  -1.27200 28.01800 32.76100
H  -1.10400 26.55900 31.89800

