158

Mg 0.43900 7.87900 26.30100
C  1.34900 9.74900 29.04400
C  0.36200 5.11000 28.36700
C  0.11200 5.98700 23.56000
C  1.16200 10.65700 24.34300
N  0.92600 7.44800 28.44000
C  1.10400 8.43600 29.40300
C  1.09400 7.80900 30.78700
C  1.18500 6.27000 30.58100
C  0.85200 6.25900 29.00400
C  2.60400 5.63200 30.81700
C  -0.23000 8.20500 31.55300
C  -0.35200 7.90600 33.04100
H  0.85500 7.28300 33.77600
N  0.07000 5.84500 26.03800
C  -0.01300 4.90200 26.98900
C  -0.46300 3.68600 26.37400
C  -0.65300 3.97700 24.94800
C  -0.15200 5.29800 24.78300
C  -0.71500 2.39000 27.06400
C  -1.28800 3.09600 23.85100
O  -1.41300 3.44800 22.66100
C  -1.81700 1.77300 24.13300
N  0.67800 8.26400 24.26300
C  0.47600 7.29500 23.32100
C  0.75700 7.80500 21.85300
C  1.09100 9.30700 22.12300
C  1.02400 9.42700 23.69700
C  1.81800 7.01300 21.03400
C  0.19900 10.38600 21.35800
C  -1.24100 10.36100 21.72600
N  1.11300 9.84000 26.58400
C  1.15700 10.92200 25.66200
C  1.36900 12.20000 26.36800
C  1.53500 11.70400 27.73300
C  1.26600 10.35400 27.75400
C  1.51500 13.57100 25.78400
C  1.78000 12.15100 29.04100
O  1.88600 13.36500 29.37600
C  1.58500 10.93700 29.96100
C  2.86900 10.97000 30.77900
O  3.83600 10.17000 30.62500
O  2.66600 11.81500 31.85700
C  3.58500 11.53300 32.99800
H  0.30400 4.19900 28.96600
H  0.03700 5.38300 22.65300
H  1.54600 11.50600 23.77400
H  1.93500 8.24200 31.32700
H  0.42000 5.69900 31.10700
H  3.16100 5.29800 29.94200
H  2.42000 4.70800 31.36400
H  3.18400 6.22200 31.52600
H  -1.07400 7.60300 31.21700
H  -0.53600 9.24000 31.39700
H  -1.16200 7.21100 33.25800
H  -0.60000 8.83700 33.55100
H  -1.77600 2.25300 27.27200
H  -0.22300 2.35500 28.03700
H  -0.31000 1.56600 26.47600
H  -0.91000 1.17300 24.20900
H  -2.24200 1.33200 23.23200
H  -2.45800 1.62900 25.00300
H  -0.21900 7.71600 21.37800
H  2.12200 9.55800 21.87200
H  2.60000 7.71600 20.75000
H  1.44100 6.52400 20.13600
H  2.31000 6.17100 21.52200
H  0.53600 10.42900 20.32200
H  0.49600 11.37500 21.70800
H  -1.57300 11.39200 21.84100
H  -1.37600 9.83500 22.67100
H  -1.86800 9.97600 20.92200
H  1.79700 14.29500 26.54900
H  0.61600 13.83700 25.22700
H  2.31500 13.61700 25.04500
H  0.70900 11.05200 30.60000
H  4.22000 12.40300 32.83300
H  4.16400 10.60900 32.98200
H  2.98700 11.69800 33.89400
Mg 47.91500 16.53900 28.66000
C  45.89100 16.48800 31.38700
C  50.24400 18.46200 30.34200
C  49.82700 16.74800 25.84100
C  45.40600 14.75400 26.83700
N  47.94500 17.48200 30.57400
C  47.06700 17.21800 31.56900
C  47.54500 17.89300 32.91800
C  48.83800 18.71400 32.46200
C  49.05100 18.12500 31.06600
C  48.84600 20.30000 32.52900
C  47.77700 16.88000 34.07800
C  47.27500 17.21700 35.45800
H  47.26000 18.71500 35.75200
N  49.82800 17.44900 28.15700
C  50.57200 18.16300 29.01900
C  51.83000 18.50400 28.43100
C  51.80600 17.90200 27.06000
C  50.49700 17.34100 26.97100
C  52.95600 19.16700 29.18900
C  52.82200 17.99900 25.83400
O  52.47800 17.54600 24.72200
C  54.08700 18.83800 25.96000
N  47.67600 15.84400 26.66900
C  48.61200 16.04400 25.69900
C  48.17100 15.33400 24.38500
C  46.92600 14.56700 24.81100
C  46.59300 15.04700 26.18700
C  47.75200 16.35300 23.23700
C  47.11500 12.96000 24.80800
C  46.22600 12.15300 23.93100
N  45.93300 15.83700 28.94300
C  45.03900 15.15400 28.13200
C  43.84900 14.85700 28.97700
C  44.17000 15.35800 30.28500
C  45.40100 15.93500 30.18700
C  42.56100 14.25200 28.49000
C  43.64500 15.51300 31.63700
O  42.56400 15.17700 32.10000
C  44.82000 16.23600 32.51000
C  44.29200 17.40700 33.24400
O  44.20100 18.49400 32.71200
O  43.80700 17.03700 34.44800
C  43.15300 18.14200 35.23800
H  50.98800 19.12900 30.78200
H  50.37000 16.60600 24.90400
H  44.71500 14.16600 26.22900
H  46.85600 18.62300 33.34300
H  49.67200 18.36500 33.07000
H  48.13300 20.72000 33.23800
H  48.71000 20.75400 31.54700
H  49.81100 20.58300 32.95100
H  48.80100 16.50800 34.07000
H  47.18200 15.99100 33.86700
H  47.97000 16.71700 36.13200
H  46.30900 16.71300 35.51000
H  53.87200 18.62100 28.96500
H  53.00000 18.98100 30.26200
H  53.07200 20.21000 28.89500
H  54.85400 18.44900 26.63100
H  53.88800 19.79900 26.43400
H  54.48200 18.78000 24.94600
H  48.96900 14.69600 24.00400
H  46.03300 14.76100 24.21700
H  48.24000 17.31400 23.39700
H  46.69300 16.61000 23.26300
H  48.02000 15.98000 22.24800
H  47.02400 12.70800 25.86400
H  48.15900 12.73400 24.59100
H  46.81100 11.25500 23.73200
H  45.89600 12.58900 22.98900
H  45.35800 11.84000 24.51100
H  42.47100 13.21700 28.81800
H  42.59000 14.30500 27.40200
H  41.76100 14.95000 28.73600
H  45.19500 15.53300 33.25400
H  42.13000 17.81500 35.41900
H  43.05200 19.04900 34.64100
H  43.71300 18.22100 36.17100

