158

Mg 25.94800 -0.76900 29.14700
C  28.04700 -1.05300 31.94100
C  23.24900 -0.77200 31.29000
C  23.96700 -0.74200 26.53400
C  28.74700 -1.26700 27.07000
N  25.70600 -1.00500 31.43900
C  26.69200 -1.07800 32.31800
C  26.10300 -1.07400 33.79800
C  24.52800 -1.01700 33.50400
C  24.43800 -0.95400 31.96100
C  23.62700 -2.19900 34.04800
C  26.75100 -0.04100 34.78300
C  25.81800 0.64600 35.86400
H  26.49800 1.22900 37.14900
N  23.98600 -0.68800 28.97100
C  23.01100 -0.54100 29.92600
C  21.73200 -0.29600 29.34000
C  21.87500 -0.30100 27.91400
C  23.29400 -0.59600 27.76000
C  20.46900 -0.43500 30.13700
C  20.86600 -0.12200 26.79600
O  21.07700 -0.17600 25.59300
C  19.46700 0.11900 27.17100
N  26.33100 -0.77800 27.04700
C  25.30500 -0.91400 26.25000
C  25.80300 -0.88600 24.80100
C  27.36000 -1.08200 24.91100
C  27.54800 -1.16000 26.41100
C  25.15000 -2.07500 23.87800
C  28.13100 0.11100 24.34300
C  28.53300 -0.02500 22.85200
N  28.01200 -0.98000 29.47000
C  28.98200 -1.19700 28.49100
C  30.29000 -1.27400 29.18700
C  29.98100 -1.21100 30.54400
C  28.59200 -1.08600 30.65700
C  31.57100 -1.63600 28.46400
C  30.47500 -1.21700 31.86500
O  31.58700 -1.35300 32.27100
C  29.26800 -1.11500 32.87100
C  29.26800 -2.27500 33.92000
O  28.87600 -3.37600 33.67600
O  29.68100 -1.84200 35.09800
C  29.42100 -2.60500 36.31500
H  22.49800 -0.68400 32.07800
H  23.41300 -0.66500 25.59600
H  29.60000 -1.45900 26.41700
H  26.31700 -2.10400 34.08500
H  24.17200 -0.03800 33.82600
H  24.16200 -3.03400 34.50000
H  22.98500 -2.68800 33.31500
H  22.98600 -1.84600 34.85500
H  27.10000 0.80900 34.19700
H  27.55000 -0.44700 35.40300
H  25.02000 -0.03800 36.15300
H  25.28300 1.37200 35.25200
H  19.55800 -0.28700 29.55600
H  20.34000 0.38600 30.84200
H  20.48500 -1.24100 30.87000
H  19.09800 -0.79500 27.63500
H  18.95200 0.21600 26.21500
H  19.38200 1.04200 27.74400
H  25.60300 0.13100 24.46300
H  27.64900 -2.06300 24.53300
H  24.95100 -1.60600 22.91500
H  24.31000 -2.58500 24.34900
H  25.79500 -2.91000 23.60200
H  29.01100 0.30100 24.95800
H  27.59100 1.05700 24.36700
H  28.11300 0.66600 22.12100
H  28.31400 -1.02500 22.47900
H  29.59800 0.18200 22.74600
H  31.29300 -1.89100 27.44200
H  31.84400 -2.59200 28.91100
H  32.43200 -0.98300 28.60700
H  29.56400 -0.14100 33.26000
H  30.27100 -3.20600 36.64000
H  28.56700 -3.25900 36.14000
H  29.11900 -1.88700 37.07700
Mg 26.21800 51.13400 25.30700
C  24.16700 52.52000 27.76400
C  28.37600 50.12000 27.79900
C  28.20900 50.15800 22.86600
C  24.04000 52.63000 22.89500
N  26.26000 51.32600 27.44200
C  25.26800 51.84800 28.27700
C  25.52500 51.63500 29.79200
C  26.97200 51.04900 29.73200
C  27.25500 50.79400 28.21900
C  28.04100 51.97300 30.15300
C  24.53100 50.64800 30.57100
C  24.01300 51.02400 31.91700
H  25.08200 51.45400 32.91600
N  28.07000 50.25900 25.32400
C  28.75800 49.90900 26.45700
C  29.99500 49.34700 26.05300
C  29.99500 49.33600 24.62700
C  28.72600 49.97300 24.17700
C  31.11100 49.08400 27.04700
C  31.11500 49.08400 23.73500
O  31.10300 49.43400 22.55800
C  32.30900 48.34700 24.17100
N  26.02900 51.24000 23.14500
C  26.98100 50.72900 22.41600
C  26.67600 50.73300 20.87900
C  25.31000 51.53500 20.92600
C  25.05400 51.81900 22.40600
C  27.84200 51.23100 19.93000
C  24.05500 50.78300 20.34900
C  23.19200 51.50000 19.20500
N  24.47300 52.40000 25.20300
C  23.74300 52.89100 24.23900
C  22.55700 53.53400 24.77000
C  22.71800 53.43100 26.14000
C  23.90600 52.79600 26.36700
C  21.46700 54.14300 24.10100
C  22.07800 53.71700 27.39000
O  20.97300 54.24100 27.59900
C  22.94800 53.12000 28.52100
C  23.35800 54.12400 29.54700
O  24.40100 54.73300 29.67100
O  22.26600 54.45700 30.32900
C  22.57600 55.14700 31.58400
H  28.94500 49.73500 28.64800
H  28.92000 50.00100 22.05200
H  23.47900 52.96800 22.02200
H  25.48500 52.59900 30.30000
H  27.06000 50.16700 30.36700
H  28.79300 52.14500 29.38300
H  28.50000 51.57200 31.05600
H  27.67500 52.95000 30.46700
H  24.97000 49.65100 30.60100
H  23.61000 50.57700 29.99200
H  23.39800 50.18100 32.23100
H  23.43400 51.92900 31.73400
H  31.41200 48.03700 27.05300
H  30.88500 49.41300 28.06200
H  32.06700 49.55600 26.82100
H  32.89100 47.98300 23.32400
H  32.06100 47.55200 24.87400
H  32.87100 49.01700 24.82100
H  26.49300 49.75800 20.42800
H  25.34600 52.43800 20.31700
H  28.05700 50.51600 19.13600
H  28.79600 51.25100 20.45600
H  27.60800 52.23700 19.58100
H  23.39300 50.53300 21.17800
H  24.38000 49.87100 19.84800
H  22.18400 51.36500 19.59800
H  23.34300 50.80200 18.38200
H  23.33500 52.53300 18.88700
H  21.76300 55.11900 23.71500
H  20.70100 54.34000 24.85100
H  21.26800 53.45600 23.27900
H  22.37900 52.38500 29.09100
H  22.71900 56.21800 31.44000
H  23.40900 54.67800 32.10800
H  21.64500 55.05200 32.14200

