158

Mg 0.96200 7.31700 27.06800
C  1.31000 9.78800 29.49600
C  1.29300 5.02100 29.49900
C  0.79400 4.95500 24.55200
C  1.18400 9.74700 24.56700
N  1.31600 7.39000 29.29000
C  1.24700 8.50400 30.05400
C  1.11400 8.10300 31.61200
C  1.43600 6.61000 31.56300
C  1.33800 6.30300 30.03400
C  2.67900 6.00800 32.27200
C  -0.38000 8.44900 32.03500
C  -0.68800 8.58900 33.54000
H  0.39600 8.57600 34.59100
N  1.10700 5.30300 26.97700
C  1.17600 4.56900 28.13100
C  1.14300 3.23100 27.72600
C  1.16600 3.07700 26.33900
C  1.02800 4.47400 25.90700
C  1.30800 2.18200 28.73000
C  1.22100 1.90200 25.37000
O  1.31400 2.06600 24.16500
C  1.26500 0.46700 25.85600
N  1.08300 7.36300 24.83000
C  0.84300 6.25100 24.03700
C  0.41500 6.66700 22.63800
C  0.63100 8.21800 22.56900
C  0.97300 8.47000 24.03100
C  1.09800 5.82300 21.56000
C  -0.56300 9.02200 22.00200
C  -0.26000 10.46300 21.53100
N  1.18900 9.31100 27.00200
C  1.34800 10.13400 25.90700
C  1.55100 11.46500 26.38000
C  1.61100 11.36400 27.80800
C  1.38800 10.04300 28.09100
C  1.83000 12.64800 25.48700
C  1.85200 12.14900 28.97300
O  2.03100 13.34500 29.13100
C  1.57200 11.12700 30.13900
C  2.76700 11.14000 31.02100
O  3.92900 10.88400 30.69400
O  2.30700 11.38500 32.31800
C  3.31300 11.62600 33.43000
H  1.28500 4.26400 30.28600
H  0.70400 4.30500 23.68000
H  1.21500 10.52100 23.79600
H  1.84400 8.61000 32.24300
H  0.67000 6.04900 32.09800
H  2.48100 5.25200 33.03200
H  3.31900 6.76500 32.72600
H  3.28800 5.62500 31.45300
H  -0.92700 7.60300 31.62000
H  -0.67300 9.31900 31.44800
H  -1.40600 7.79400 33.74300
H  -1.22200 9.54000 33.56100
H  1.82700 1.31200 28.32700
H  0.40000 1.95400 29.28800
H  2.01800 2.48400 29.49900
H  2.29900 0.39700 26.19400
H  1.04200 -0.21700 25.03800
H  0.53200 0.46300 26.66300
H  -0.64700 6.42100 22.64000
H  1.35200 8.54000 21.81700
H  0.39400 5.12600 21.10600
H  1.88900 5.19500 21.97100
H  1.45900 6.56000 20.84300
H  -1.19100 9.19300 22.87600
H  -1.18000 8.40400 21.35000
H  -0.77700 10.64200 20.58800
H  0.80300 10.62200 21.34900
H  -0.65300 11.22200 22.20800
H  0.87300 12.87400 25.01800
H  2.50800 12.35900 24.68400
H  2.19200 13.54400 25.99100
H  0.70400 11.49900 30.68300
H  3.21200 10.74900 34.06900
H  3.14200 12.48500 34.07900
H  4.32500 11.65900 33.02500
Mg 42.07900 40.71300 26.39100
C  41.57600 43.26900 28.80900
C  42.98300 38.61600 28.80500
C  42.71400 38.51300 23.92900
C  41.48500 43.20900 23.81700
N  42.49100 41.03200 28.60800
C  41.99300 42.03600 29.35900
C  42.11000 41.69600 30.86200
C  42.90300 40.34900 30.79000
C  42.75700 39.91800 29.29700
C  44.41000 40.55600 31.27600
C  40.66400 41.43500 31.59500
C  40.60800 42.14000 32.92300
H  39.87200 41.38500 34.02900
N  42.79000 38.76000 26.42100
C  43.12100 37.99700 27.46500
C  43.36900 36.63400 27.04700
C  43.23600 36.63200 25.61900
C  42.91300 38.02100 25.24800
C  43.66100 35.46500 28.03200
C  43.40500 35.44500 24.73100
O  43.16700 35.48500 23.56000
C  43.78100 34.11400 25.23300
N  42.20500 40.82000 24.17100
C  42.39400 39.76100 23.37500
C  42.28200 40.03200 21.89000
C  41.97700 41.55400 21.89200
C  41.79900 41.88800 23.34700
C  43.46500 39.49300 20.99200
C  40.75100 41.89700 20.94500
C  40.78500 41.52400 19.38400
N  41.49300 42.73500 26.26300
C  41.32100 43.56200 25.17400
C  40.97800 44.91600 25.63300
C  40.95200 44.78400 27.08500
C  41.36800 43.47700 27.39800
C  40.52300 46.12600 24.81000
C  40.77400 45.49100 28.37000
O  40.42900 46.70300 28.63500
C  41.01900 44.44000 29.54300
C  41.98100 45.12300 30.45900
O  43.16300 45.23400 30.25400
O  41.35400 45.77700 31.50300
C  42.20100 46.31500 32.55700
H  43.13100 37.97400 29.67700
H  42.91100 37.89100 23.05400
H  41.23000 43.94300 23.05000
H  42.63900 42.49500 31.38100
H  42.55800 39.55600 31.45400
H  44.64900 41.61700 31.35200
H  45.07400 40.03100 30.58800
H  44.49900 40.15500 32.28500
H  40.64700 40.35700 31.75000
H  39.87100 41.81400 30.95100
H  40.16300 43.13400 32.88900
H  41.62900 42.23600 33.29300
H  43.01100 34.62800 27.77700
H  43.67500 35.71700 29.09200
H  44.66000 35.12300 27.75900
H  43.92300 33.46800 24.36700
H  43.01900 33.60200 25.82100
H  44.74600 34.23100 25.72500
H  41.38900 39.50000 21.56300
H  42.92600 41.97100 21.55400
H  44.17700 39.08800 21.71100
H  43.95600 40.31500 20.47200
H  43.11300 38.69900 20.33400
H  40.59700 42.97600 20.91000
H  39.82700 41.45500 21.31900
H  40.24400 40.59900 19.18600
H  41.80600 41.49900 19.00200
H  40.30100 42.32600 18.82600
H  40.74400 46.95500 25.48100
H  39.46500 46.00800 24.57400
H  41.10000 46.11500 23.88500
H  40.08300 44.29200 30.08200
H  42.87700 47.00700 32.05400
H  42.68400 45.48100 33.06500
H  41.66700 47.01000 33.20400

