158

Mg 40.55000 8.83500 29.77700
C  42.25000 10.34700 32.57600
C  38.23700 7.67500 32.10900
C  38.90000 7.55800 27.23300
C  43.05400 9.96400 27.78100
N  40.38100 8.92500 32.14100
C  41.10900 9.61900 33.00800
C  40.53900 9.50800 34.40900
C  39.21900 8.66300 34.26700
C  39.26400 8.40700 32.72500
C  39.29600 7.46800 35.22800
C  40.36200 10.89200 35.15400
C  39.37400 10.82400 36.38600
H  39.60900 11.84800 37.57800
N  38.80600 7.79200 29.76000
C  37.96200 7.41300 30.73700
C  36.88000 6.74800 30.12700
C  36.98700 6.72000 28.68800
C  38.27000 7.32000 28.50000
C  35.82200 6.07300 31.08000
C  36.04000 6.29100 27.55700
O  36.31400 6.38500 26.38100
C  34.73100 5.82400 27.99700
N  41.04800 8.58600 27.92500
C  40.17800 8.02800 26.98700
C  40.82700 7.95000 25.62300
C  42.12100 8.69600 25.77400
C  42.09400 9.16800 27.28600
C  40.89300 6.58800 24.92400
C  42.34400 9.82000 24.60900
C  41.58100 11.04900 24.85300
N  42.28200 9.91300 30.03100
C  43.13200 10.37300 29.13500
C  44.14800 11.24200 29.73300
C  43.79200 11.29100 31.10100
C  42.70300 10.47800 31.22400
C  45.26600 11.83700 29.03100
C  44.21200 11.72400 32.37800
O  45.19200 12.39500 32.69400
C  43.11100 11.15700 33.33900
C  43.76100 10.50400 34.55200
O  44.33300 9.42900 34.54900
O  43.71600 11.40000 35.59700
C  44.33100 10.86900 36.75600
H  37.47400 7.30000 32.79300
H  38.47600 7.06300 26.35600
H  43.87700 10.09900 27.07500
H  41.26300 8.86500 34.91000
H  38.34600 9.22300 34.60500
H  39.99500 7.57500 36.05700
H  39.65900 6.57400 34.71900
H  38.34500 7.31600 35.73700
H  40.11400 11.76500 34.55100
H  41.32400 11.14500 35.59900
H  39.29700 9.81800 36.80000
H  38.47700 11.13000 35.84800
H  35.37900 5.18000 30.63800
H  35.00400 6.77100 31.25700
H  36.30200 5.65400 31.96400
H  34.69900 4.85600 28.49700
H  34.06700 5.87200 27.13400
H  34.35600 6.57300 28.69400
H  40.28000 8.59300 24.93400
H  43.00700 8.06300 25.72300
H  40.11000 6.45500 24.17800
H  40.75500 5.76900 25.63100
H  41.83500 6.33600 24.43800
H  41.92100 9.53500 23.64500
H  43.39800 10.00600 24.40400
H  41.01800 11.55100 24.06600
H  42.24100 11.83100 25.22800
H  40.74100 10.80600 25.50300
H  45.14700 11.80000 27.94800
H  46.11300 11.16700 29.17800
H  45.44800 12.79500 29.51800
H  42.58000 12.03500 33.70600
H  44.61400 9.81700 36.72200
H  43.65300 10.95400 37.60500
H  45.16900 11.48000 37.09100
Mg 9.50500 48.61400 25.74700
C  7.37100 48.86000 28.55800
C  11.95300 49.98700 27.60400
C  11.38800 48.43900 23.01400
C  6.69200 47.76700 23.92600
N  9.63400 49.25800 27.80000
C  8.68800 49.16800 28.80900
C  9.34400 49.53700 30.12900
C  10.63100 50.32900 29.67300
C  10.77100 49.81300 28.29500
C  10.49600 51.90600 29.68100
C  9.58600 48.34100 31.13200
C  9.02400 48.74900 32.53300
H  9.40800 47.74000 33.69200
N  11.53100 49.06600 25.39700
C  12.33000 49.69200 26.26500
C  13.62700 49.82500 25.64400
C  13.51600 49.16900 24.34300
C  12.09500 48.89100 24.17400
C  14.81800 50.40400 26.33100
C  14.55100 48.84500 23.41700
O  14.16100 48.31700 22.37800
C  16.00500 49.03800 23.67800
N  9.07600 48.30700 23.63800
C  10.04300 48.26400 22.72500
C  9.56700 47.59800 21.44500
C  8.19300 47.05800 21.85500
C  7.90700 47.80200 23.21900
C  9.64300 48.38800 20.08400
C  8.11900 45.47600 21.90800
C  8.25600 44.83000 23.32200
N  7.50700 48.31600 26.14700
C  6.45800 47.98000 25.28600
C  5.12100 47.91100 25.98000
C  5.49500 48.18200 27.28400
C  6.93500 48.42900 27.33000
C  3.73400 47.62700 25.38900
C  4.96900 48.27200 28.63400
O  3.83500 48.16600 29.10100
C  6.21700 48.56000 29.54800
C  6.28900 47.25800 30.21700
O  6.75800 46.19900 29.76500
O  5.87400 47.24100 31.54800
C  6.07900 45.99800 32.34700
H  12.82700 50.24000 28.20800
H  11.89900 48.13100 22.09900
H  5.90200 47.18300 23.44900
H  8.57500 50.21100 30.50700
H  11.46900 50.10600 30.33300
H  9.61000 52.22100 30.23300
H  10.60000 52.36000 28.69600
H  11.35100 52.28100 30.24300
H  10.64600 48.09000 31.17100
H  9.03800 47.45900 30.80200
H  7.95000 48.56600 32.50200
H  9.10100 49.82600 32.67700
H  15.56900 50.88600 25.70500
H  15.35100 49.73700 27.00900
H  14.46700 51.15900 27.03400
H  16.27100 50.06900 23.44100
H  16.49300 48.43900 22.91000
H  16.35800 48.66800 24.64100
H  10.28700 46.78400 21.35300
H  7.48200 47.35000 21.08200
H  9.26800 49.40500 20.19700
H  9.19600 47.80300 19.28000
H  10.70500 48.43400 19.84300
H  8.80900 45.06800 21.17000
H  7.15400 45.19200 21.48800
H  8.91200 45.37200 24.00200
H  8.70800 43.84100 23.24900
H  7.23600 44.82100 23.70700
H  3.42100 46.72400 25.91400
H  3.56500 47.63200 24.31200
H  3.09900 48.38300 25.85100
H  6.05700 49.40900 30.21200
H  5.83200 46.17500 33.39400
H  7.13000 45.74000 32.21600
H  5.42400 45.14900 32.15400

