158

Mg 36.22800 48.69600 24.21000
C  36.39400 46.88500 27.35800
C  34.78400 51.31900 25.85900
C  35.42100 49.94400 21.31400
C  37.23800 45.69300 22.71100
N  35.54700 48.98300 26.34900
C  35.82700 48.15400 27.44500
C  35.45500 48.97300 28.81600
C  34.85600 50.32400 28.30300
C  35.01900 50.21700 26.76800
C  33.36700 50.42200 28.67700
C  36.68600 49.25800 29.65100
C  36.69000 48.56700 30.95100
H  35.41800 48.58700 31.85300
N  35.34600 50.47800 23.66100
C  34.79400 51.41300 24.46700
C  34.39900 52.52200 23.65000
C  34.59200 52.17500 22.27500
C  35.17700 50.84900 22.34100
C  33.79900 53.78800 24.25300
C  34.12700 52.92300 21.03100
O  34.31400 52.44100 19.89800
C  33.53100 54.28500 21.06000
N  36.13600 47.86800 22.28300
C  35.89500 48.66600 21.17300
C  36.30600 48.00900 19.78600
C  37.24900 46.83300 20.37100
C  36.78800 46.72800 21.89500
C  35.04200 47.61100 18.98100
C  38.79600 47.17900 20.21000
C  39.39500 48.36300 20.92800
N  36.81700 46.73600 24.83200
C  37.26200 45.67100 24.10700
C  37.73100 44.62500 24.97200
C  37.34700 45.03900 26.27700
C  36.80100 46.29400 26.17500
C  38.34700 43.34400 24.56800
C  37.21900 44.62000 27.71000
O  37.62500 43.64500 28.31000
C  36.64600 45.84500 28.46700
C  35.50400 45.50100 29.35900
O  34.32700 45.45600 29.04300
O  36.05800 45.12000 30.57100
C  35.15900 44.54400 31.53600
H  34.49200 52.20100 26.43300
H  35.26900 50.39200 20.33000
H  37.71800 44.92500 22.10100
H  34.67700 48.49800 29.41400
H  35.21200 51.24600 28.76300
H  32.81200 50.10300 27.79500
H  33.10000 51.43100 28.99400
H  33.05100 49.75700 29.48000
H  36.86600 50.30800 29.88200
H  37.54600 48.81400 29.14800
H  37.55900 49.07500 31.37100
H  37.06100 47.54300 30.90800
H  32.78000 53.94700 23.90100
H  34.47900 54.60300 24.00700
H  33.65900 53.68300 25.32900
H  34.25200 55.08400 21.23500
H  32.64000 54.43200 21.67100
H  33.10100 54.37400 20.06300
H  36.94900 48.77100 19.34500
H  37.05400 45.91900 19.81000
H  34.20400 48.16600 19.40500
H  34.88600 46.54000 19.11200
H  35.24000 47.86900 17.94100
H  39.05300 47.12700 19.15200
H  39.29700 46.33200 20.67800
H  39.97800 48.89500 20.17700
H  40.01300 47.91000 21.70300
H  38.54500 48.90200 21.34700
H  39.07000 43.06200 25.33400
H  38.91300 43.46700 23.64500
H  37.50500 42.65200 24.59100
H  37.52700 46.20200 29.00000
H  35.55100 44.87500 32.49700
H  35.23100 43.45700 31.48700
H  34.15400 44.96500 31.52700
Mg 10.01200 47.64300 26.26000
C  7.96500 47.95500 29.08900
C  12.60600 49.10600 28.11200
C  11.91800 47.44800 23.57000
C  7.08100 47.05000 24.35400
N  10.19300 48.42100 28.40900
C  9.28700 48.30700 29.38600
C  9.75100 48.91500 30.72500
C  11.21800 49.39400 30.31800
C  11.39900 48.98000 28.82300
C  11.52200 50.96100 30.56200
C  9.61500 48.12500 32.07500
C  10.35000 48.63200 33.34100
H  10.85800 47.49200 34.29300
N  11.98300 48.13900 25.84800
C  12.91400 48.63400 26.78300
C  14.21000 48.62100 26.14500
C  14.02900 48.07600 24.82700
C  12.65800 47.84500 24.66600
C  15.41300 49.11900 26.89300
C  15.09700 47.83000 23.80100
O  14.84700 47.32300 22.69800
C  16.47600 48.07400 24.19800
N  9.49100 47.40000 24.24200
C  10.47900 47.32700 23.31500
C  9.91100 46.66400 22.05300
C  8.41200 46.33500 22.44300
C  8.31800 46.95000 23.74000
C  10.08600 47.59900 20.85200
C  8.06100 44.82400 22.41500
C  8.69600 43.97600 23.55100
N  7.97400 47.49300 26.54000
C  6.86900 47.30200 25.70600
C  5.60500 47.26600 26.50400
C  6.07100 47.44200 27.82200
C  7.43200 47.60200 27.80200
C  4.16200 47.04000 26.15900
C  5.59700 47.40500 29.20800
O  4.41400 47.20400 29.57800
C  6.80600 47.66500 30.10200
C  7.01000 46.43500 30.91100
O  7.70300 45.47600 30.68300
O  6.26800 46.59000 32.05300
C  6.42400 45.60800 33.06400
H  13.40100 49.69200 28.57900
H  12.43600 47.25600 22.62800
H  6.15300 46.67100 23.92100
H  9.13100 49.80800 30.81000
H  12.01200 48.90100 30.88000
H  11.91200 51.42900 29.65800
H  12.27000 50.96400 31.35500
H  10.63400 51.48200 30.91900
H  9.85700 47.07900 31.88500
H  8.56300 48.17800 32.35500
H  9.66300 49.24000 33.93000
H  11.22900 49.12200 32.92200
H  15.23600 49.17300 27.96700
H  15.74800 50.07700 26.49600
H  16.18800 48.35200 26.90600
H  17.17800 47.83800 23.39800
H  16.62600 47.37900 25.02400
H  16.58900 49.13400 24.42300
H  10.59600 45.83500 21.87200
H  7.65600 46.71300 21.75500
H  9.85500 47.14900 19.88600
H  11.16000 47.76800 20.92500
H  9.52500 48.52000 21.01200
H  8.51000 44.51600 21.47000
H  6.98600 44.64400 22.39500
H  7.90000 43.51700 24.13700
H  9.35500 44.55100 24.20100
H  9.29500 43.12300 23.23400
H  3.66200 46.28400 26.76400
H  4.07000 46.79900 25.10000
H  3.55700 47.93800 26.28700
H  6.55900 48.54600 30.69300
H  7.47400 45.64600 33.35300
H  6.14000 44.68600 32.55600
H  5.78500 45.70100 33.94200

