158

Mg 2.85300 -1.81200 44.27600
C  6.39300 -1.21800 43.79300
C  2.25600 0.86800 42.17100
C  -0.20800 -2.93400 43.84300
C  3.78500 -5.07400 45.44400
N  4.20000 -0.42500 42.99500
C  5.59200 -0.34300 43.04400
C  6.16600 0.68800 42.09700
C  4.84800 1.54100 41.80400
C  3.68700 0.65200 42.42000
C  4.79100 2.93600 42.47900
C  6.83500 -0.03800 40.87900
C  8.29100 0.28000 40.65400
H  8.66500 0.68100 39.24500
N  1.14300 -0.99200 43.39400
C  1.07400 0.10900 42.52900
C  -0.26600 0.33300 42.10700
C  -1.03000 -0.66000 42.71200
C  -0.03400 -1.62000 43.33500
C  -0.62800 1.50300 41.11800
C  -2.51300 -0.76900 42.53700
O  -3.04600 -0.08900 41.65600
C  -3.32600 -1.77500 43.33900
N  1.97200 -3.86700 44.38300
C  0.62900 -3.91600 44.38500
C  0.06700 -5.10500 45.17500
C  1.35800 -5.90400 45.51100
C  2.49500 -4.91800 45.07600
C  -0.75300 -4.74900 46.41700
C  1.57300 -7.13300 44.71500
C  1.27000 -8.43200 45.52100
N  4.66000 -2.85200 44.68200
C  4.87000 -4.13200 45.28300
C  6.26900 -4.26700 45.65900
C  6.84700 -3.12400 45.12900
C  5.86500 -2.35100 44.44100
C  6.94600 -5.35600 46.51200
C  8.16700 -2.52600 45.02600
O  9.23500 -2.90600 45.56000
C  7.97200 -1.24200 44.14200
C  8.34100 0.00400 44.98300
O  7.86800 0.31300 46.04400
O  9.19400 0.73400 44.22800
C  9.26200 2.11800 44.78700
H  2.06200 1.62100 41.40400
H  -1.19800 -3.35400 43.65300
H  3.99200 -6.05000 45.88800
H  6.92200 1.21700 42.67700
H  4.74100 1.66800 40.72700
H  4.02300 3.01000 43.24900
H  4.43100 3.62800 41.71800
H  5.71300 3.28900 42.94100
H  6.37100 0.15700 39.91200
H  6.61700 -1.10600 40.84900
H  8.89800 -0.62200 40.72800
H  8.65600 1.05800 41.32400
H  -1.39200 1.27300 40.37500
H  0.24100 1.80400 40.53300
H  -1.02400 2.35600 41.66700
H  -2.90300 -1.60300 44.32900
H  -3.16000 -2.75500 42.89200
H  -4.36600 -1.47300 43.21400
H  -0.60200 -5.56900 44.45000
H  1.40000 -6.13400 46.57600
H  -0.89800 -5.56800 47.12100
H  -1.74200 -4.50100 46.03000
H  -0.32000 -3.87500 46.90200
H  2.58600 -7.23100 44.32600
H  0.89700 -7.10100 43.86000
H  2.12900 -9.10400 45.52400
H  0.50700 -8.82100 44.84800
H  0.77300 -8.25200 46.47400
H  7.35400 -5.94900 45.69200
H  6.22500 -5.89200 47.12800
H  7.65700 -4.84300 47.15900
H  8.68600 -1.43700 43.34200
H  8.33000 2.66700 44.65400
H  9.87400 2.86000 44.27500
H  9.57400 1.87600 45.80300
Mg 47.09700 24.77600 28.84100
C  47.86800 27.25800 31.32500
C  45.94100 22.73800 31.37600
C  46.66600 22.48600 26.55900
C  48.53800 26.95200 26.45200
N  46.87600 24.98500 31.13300
C  47.33100 26.03700 31.92900
C  46.89300 25.77800 33.39800
C  46.69100 24.21900 33.43400
C  46.43600 23.96700 31.89100
C  47.88100 23.37400 34.01600
C  45.73900 26.65100 33.92500
C  45.85200 27.48900 35.23700
H  46.54100 26.73500 36.40800
N  46.22800 22.90200 28.88300
C  45.78300 22.26200 30.03800
C  45.22600 21.00100 29.62400
C  45.49500 20.89100 28.21200
C  46.20200 22.08900 27.83600
C  44.62300 19.99300 30.60000
C  45.19800 19.77500 27.20700
O  45.46300 19.80800 26.01700
C  44.41900 18.65900 27.67200
N  47.40400 24.80200 26.69500
C  47.34100 23.63200 26.06000
C  48.17800 23.62100 24.79200
C  48.51600 25.12000 24.58900
C  48.16300 25.68900 25.98100
C  49.44800 22.66200 24.75800
C  47.63800 25.86100 23.46900
C  48.38700 26.41900 22.23800
N  48.08300 26.65500 28.85700
C  48.36100 27.49200 27.76900
C  48.92000 28.74000 28.28800
C  48.60200 28.70700 29.64000
C  48.14100 27.39900 29.93500
C  49.64500 29.80400 27.52400
C  48.69900 29.45300 30.85900
O  49.12000 30.58200 30.99900
C  48.20500 28.55500 31.98500
C  49.27800 28.34900 33.03400
O  50.21600 27.60900 33.05700
O  49.06700 29.33500 33.97700
C  49.83400 29.13500 35.20700
H  45.54800 22.08300 32.15600
H  46.64200 21.65800 25.84700
H  49.11200 27.48000 25.68800
H  47.79100 26.02800 33.96300
H  45.82300 23.98200 34.04900
H  48.65800 23.94500 34.52400
H  48.34500 22.75100 33.25100
H  47.39100 22.67800 34.69700
H  44.88700 26.04000 34.22200
H  45.32900 27.34400 33.19000
H  44.84300 27.80500 35.50200
H  46.38100 28.38800 34.92000
H  43.89600 19.33400 30.12700
H  44.12800 20.55100 31.39400
H  45.52500 19.61100 31.07900
H  44.94300 18.28600 28.55200
H  44.27300 17.97600 26.83500
H  43.45000 19.10700 27.88700
H  47.57300 23.24200 23.96800
H  49.59600 25.20800 24.47200
H  49.25800 21.74800 24.19400
H  49.66500 22.35900 25.78200
H  50.32500 23.18800 24.38000
H  47.08800 26.65300 23.97600
H  46.91900 25.17800 23.01600
H  48.76200 25.62100 21.59700
H  49.25100 26.97800 22.59800
H  47.77700 27.15900 21.72000
H  49.26100 30.80000 27.74500
H  49.26800 29.71900 26.50500
H  50.68100 29.51800 27.70200
H  47.30400 29.04200 32.35800
H  50.91800 29.16200 35.09000
H  49.45600 28.26500 35.74500
H  49.72000 29.91600 35.95800

