158

Mg -0.03400 7.47300 25.83700
C  1.12200 9.37700 28.64600
C  -0.20000 4.82500 27.91600
C  -0.95700 5.65700 23.17300
C  0.20500 10.27000 23.91800
N  0.65700 7.07100 27.94400
C  0.98400 8.01000 28.91400
C  0.82700 7.43200 30.32300
C  0.69300 5.89200 30.08900
C  0.38100 5.87300 28.55000
C  1.85700 4.91800 30.35900
C  -0.45200 8.04100 30.99300
C  -0.54700 8.09200 32.55500
H  0.65800 7.96800 33.37900
N  -0.42000 5.50100 25.61000
C  -0.45400 4.55800 26.52100
C  -0.85200 3.28500 25.89100
C  -1.11900 3.56400 24.53900
C  -0.88200 4.96000 24.38400
C  -0.74400 1.94000 26.53700
C  -1.43100 2.61500 23.34600
O  -1.79300 3.00600 22.23400
C  -1.61100 1.11600 23.62600
N  -0.26800 7.93100 23.82500
C  -0.66300 7.03900 22.97000
C  -0.83800 7.55300 21.57100
C  -0.48100 9.07700 21.74300
C  -0.12800 9.14600 23.16900
C  -0.09200 6.73300 20.50500
C  -1.57300 10.04800 21.34000
C  -2.82100 10.03900 22.11600
N  0.50600 9.43100 26.15800
C  0.60200 10.47700 25.24900
C  1.02100 11.69600 25.86400
C  1.16400 11.37500 27.20600
C  0.93600 9.90400 27.33900
C  1.28600 13.03600 25.13200
C  1.52900 11.89800 28.54700
O  1.83700 12.96900 29.03100
C  1.29900 10.61000 29.58100
C  2.42000 10.62600 30.47100
O  3.51900 10.10300 30.27100
O  2.02700 11.38100 31.56200
C  2.96300 11.63600 32.66100
H  -0.44700 3.90600 28.45200
H  -1.49000 5.23300 22.31900
H  0.15200 11.12200 23.23700
H  1.63700 7.71800 30.99400
H  -0.16400 5.48700 30.62600
H  2.41600 4.72000 29.44500
H  1.51000 3.97600 30.78500
H  2.46700 5.40200 31.12200
H  -1.27700 7.47000 30.56600
H  -0.60200 9.03800 30.57900
H  -1.31300 7.41900 32.93900
H  -0.87100 9.12900 32.65300
H  0.06100 1.37800 26.06200
H  -1.69100 1.40200 26.48800
H  -0.59800 2.02500 27.61400
H  -2.18200 1.05600 24.55300
H  -0.68600 0.55200 23.73900
H  -2.17000 0.72200 22.77700
H  -1.90200 7.46000 21.34800
H  0.48700 9.27400 21.28300
H  0.75300 6.26400 21.01000
H  0.39400 7.30400 19.71300
H  -0.81600 6.07200 20.02800
H  -1.91500 9.92200 20.31200
H  -1.19900 11.07100 21.29900
H  -3.77500 10.04000 21.59000
H  -2.80400 10.88700 22.80100
H  -2.86600 9.18000 22.78500
H  1.22700 12.79400 24.07100
H  2.31200 13.34100 25.33900
H  0.62500 13.84400 25.44500
H  0.42600 10.93500 30.14500
H  3.31100 12.66500 32.57000
H  3.73300 10.86600 32.68900
H  2.41500 11.63800 33.60400
Mg 16.52300 -1.91400 27.85100
C  15.47500 0.31200 30.37400
C  18.79200 -3.31500 30.12000
C  17.71000 -3.72800 25.35900
C  14.43300 0.02400 25.59200
N  17.11100 -1.42300 29.94000
C  16.49500 -0.51600 30.83300
C  16.96900 -0.85100 32.26400
C  18.16400 -1.75400 32.06700
C  18.11000 -2.15400 30.61600
C  19.54700 -1.07700 32.31900
C  15.88300 -1.43500 33.21800
C  15.41300 -0.50900 34.29900
H  16.45300 0.37000 35.10600
N  17.88800 -3.36900 27.83700
C  18.65800 -3.84200 28.85600
C  19.26200 -5.13100 28.50100
C  19.05000 -5.26000 27.12000
C  18.21600 -4.10500 26.71700
C  20.04500 -6.14200 29.38700
C  19.52600 -6.41600 26.17400
O  19.30200 -6.31800 25.00200
C  20.34700 -7.48200 26.72100
N  16.33800 -1.62200 25.72400
C  16.93300 -2.57800 24.91100
C  16.45700 -2.34800 23.46500
C  15.29500 -1.33900 23.61600
C  15.35300 -1.00600 25.10800
C  17.55300 -2.00600 22.44300
C  13.87300 -1.83400 23.12000
C  12.87400 -2.56400 24.07500
N  15.24400 -0.11900 27.91600
C  14.43800 0.44000 26.93500
C  13.60400 1.42700 27.51000
C  13.93100 1.32500 28.89700
C  14.98600 0.44400 29.05200
C  12.63600 2.32900 26.74600
C  13.56300 1.92200 30.17500
O  12.75600 2.82600 30.49400
C  14.56000 1.24900 31.20600
C  15.39200 2.27400 31.94700
O  16.58200 2.58400 31.83300
O  14.59000 2.80300 32.94700
C  15.15500 3.94500 33.57500
H  19.27600 -3.89100 30.91100
H  18.19100 -4.28200 24.55000
H  13.83600 0.53800 24.83600
H  17.30000 0.15600 32.51900
H  18.12300 -2.68900 32.62600
H  19.37500 -0.15400 32.87300
H  20.25300 -0.99500 31.49300
H  20.04100 -1.77000 33.00000
H  16.17800 -2.44000 33.51900
H  14.97500 -1.69300 32.67400
H  14.94000 -1.20700 34.98900
H  14.54200 0.10500 34.07000
H  19.47800 -7.06000 29.54200
H  20.19800 -5.68700 30.36500
H  21.08600 -6.32100 29.11600
H  21.33600 -7.18600 27.07200
H  20.63100 -8.06500 25.84500
H  19.67900 -7.95900 27.43800
H  16.08500 -3.34300 23.22200
H  15.51100 -0.42000 23.07300
H  18.54500 -2.14400 22.87200
H  17.27100 -0.99600 22.14700
H  17.56000 -2.56700 21.50800
H  14.07900 -2.56700 22.34100
H  13.39300 -0.99700 22.61300
H  13.20700 -2.49000 25.11000
H  12.70000 -3.55600 23.65800
H  11.88400 -2.11000 24.04100
H  12.53600 1.93600 25.73400
H  13.03300 3.33600 26.62100
H  11.67000 2.27200 27.24600
H  13.97900 0.64700 31.90400
H  15.25600 4.76100 32.85900
H  16.06800 3.79600 34.15200
H  14.39400 4.44000 34.17900

