158

Mg 35.65500 3.00300 30.41400
C  33.08700 3.92700 32.76700
C  37.77400 2.81700 33.20000
C  38.09000 2.45900 28.29800
C  33.31400 3.21700 27.74700
N  35.41000 3.42900 32.80300
C  34.28700 3.58800 33.46700
C  34.46900 3.65400 34.99200
C  36.02000 3.47700 35.11800
C  36.44200 3.19500 33.65900
C  36.75600 4.75100 35.79000
C  33.58500 2.61900 35.76100
C  33.97900 2.26500 37.16800
H  34.55700 3.40600 38.04400
N  37.68900 2.77900 30.67200
C  38.33200 2.55200 31.86800
C  39.68500 2.17400 31.56100
C  39.81400 2.06100 30.14800
C  38.56200 2.44200 29.64400
C  40.85300 1.84600 32.52700
C  41.00600 1.65300 29.26100
O  41.03000 1.84000 28.02000
C  42.18900 1.00800 29.97700
N  35.66000 2.98100 28.26400
C  36.86700 2.74600 27.70600
C  36.74400 2.82100 26.15000
C  35.13100 2.81700 26.01500
C  34.67100 2.98900 27.44300
C  37.43200 4.04900 25.51200
C  34.66900 1.51400 25.29400
C  33.75400 1.76100 24.06800
N  33.67200 3.50600 30.26300
C  32.89500 3.51000 29.06600
C  31.53400 3.84100 29.51800
C  31.58100 4.04100 30.89500
C  32.91200 3.87300 31.34500
C  30.37400 3.80500 28.55300
C  30.79100 4.38500 32.03100
O  29.58900 4.69800 32.13500
C  31.71900 4.24100 33.24900
C  31.69400 5.44600 34.07800
O  32.35900 6.46300 33.78900
O  30.99600 5.35700 35.23500
C  31.19000 6.45000 36.25700
H  38.46400 2.69300 34.03800
H  38.84300 2.26100 27.53200
H  32.54700 3.16800 26.97100
H  34.15600 4.66800 35.23800
H  36.42600 2.67500 35.73500
H  37.46900 4.47100 36.56600
H  36.01900 5.47600 36.13500
H  37.39600 5.21400 35.03900
H  33.83900 1.72600 35.19000
H  32.51400 2.80600 35.68600
H  34.66500 1.42100 37.24700
H  33.01300 1.98700 37.58700
H  41.77300 2.41500 32.39100
H  40.91400 0.76800 32.67400
H  40.50300 2.26200 33.47200
H  41.97600 0.30100 30.77900
H  42.77300 1.84100 30.37000
H  42.87100 0.55000 29.26100
H  37.25600 1.96300 25.71500
H  34.66600 3.64900 25.48700
H  36.68000 4.73900 25.13000
H  38.05500 3.77700 24.66000
H  37.99900 4.68500 26.19200
H  34.03100 0.99400 26.00900
H  35.47100 0.82200 25.03600
H  34.33100 1.39700 23.21800
H  33.42700 2.79500 23.96300
H  32.84100 1.17900 24.19700
H  30.63000 4.52200 27.77300
H  29.38300 3.86700 29.00300
H  30.44100 2.88700 27.97000
H  31.28300 3.45100 33.85900
H  31.56600 7.39000 35.85500
H  31.79700 6.19400 37.12500
H  30.19300 6.61400 36.66700
Mg -10.17600 17.20400 40.66300
C  -6.60100 16.93900 40.48400
C  -9.93800 20.55200 39.91400
C  -13.45200 17.20700 40.25300
C  -10.22000 13.54000 40.30700
N  -8.47100 18.55100 40.09500
C  -7.07100 18.23100 40.23500
C  -6.35700 19.57800 39.91500
C  -7.39600 20.64300 40.24700
C  -8.73000 19.89800 40.13100
C  -7.21200 21.28400 41.67200
C  -5.93200 19.57000 38.42200
C  -4.43700 19.41200 38.26700
H  -3.89200 18.33200 37.26700
N  -11.59300 18.68300 40.08600
C  -11.26100 19.97900 39.81200
C  -12.53500 20.68400 39.38300
C  -13.63000 19.79800 39.57200
C  -12.97700 18.50600 40.01800
C  -12.56600 22.07800 38.94500
C  -15.16300 20.01800 39.36900
O  -15.57000 21.18300 39.12500
C  -16.18300 18.97300 39.58400
N  -11.58600 15.66400 40.46400
C  -12.86000 15.93200 40.41400
C  -13.72100 14.68600 40.45800
C  -12.71200 13.51800 40.16400
C  -11.40900 14.27800 40.26900
C  -14.49400 14.58300 41.77400
C  -12.94900 12.94400 38.69000
C  -12.82900 11.37300 38.58400
N  -8.69800 15.55000 40.62100
C  -8.92100 14.18600 40.42400
C  -7.64700 13.54400 40.43000
C  -6.64800 14.58300 40.48800
C  -7.38400 15.77100 40.58200
C  -7.46000 12.04600 40.15100
C  -5.24900 14.95000 40.55000
O  -4.21000 14.29700 40.72400
C  -5.19700 16.50500 40.68600
C  -4.52900 16.80000 41.96100
O  -4.78000 16.34400 43.05900
O  -3.75800 17.87600 41.72400
C  -3.45600 18.66700 42.87000
H  -9.74300 21.62600 39.88300
H  -14.53800 17.32000 40.22400
H  -10.37200 12.50300 39.99900
H  -5.51000 19.77000 40.57300
H  -7.29600 21.43100 39.50100
H  -7.47400 22.33300 41.53000
H  -6.31800 20.97100 42.21100
H  -8.03300 20.93300 42.29700
H  -6.25900 20.56000 38.10600
H  -6.52800 18.83600 37.88000
H  -4.04700 18.99200 39.19500
H  -3.90700 20.29600 37.91300
H  -11.64900 22.46300 38.49800
H  -12.81800 22.75300 39.76300
H  -13.20400 21.95300 38.07000
H  -17.14100 19.27200 39.15800
H  -16.32200 19.00800 40.66500
H  -15.90700 18.07100 39.03800
H  -14.47000 14.85800 39.68500
H  -12.77500 12.67900 40.85600
H  -14.77000 13.54900 41.98200
H  -15.45900 15.07600 41.89700
H  -13.77500 14.82000 42.55800
H  -12.32400 13.50400 37.99400
H  -13.95600 13.19700 38.35800
H  -13.75600 10.81800 38.44100
H  -12.35500 10.98000 39.48300
H  -12.07500 11.22000 37.81200
H  -6.47600 11.71000 40.47800
H  -7.53000 12.03100 39.06300
H  -8.30000 11.52200 40.60700
H  -4.49500 16.75500 39.89100
H  -2.81200 19.48100 42.53700
H  -2.91400 18.02400 43.56300
H  -4.40700 18.96100 43.31500

