158

Mg 46.67200 25.02700 27.78200
C  47.89600 26.97200 30.57700
C  45.65400 22.72700 29.95300
C  45.66400 23.32300 25.12300
C  47.65700 27.55900 25.83100
N  46.76100 24.95200 30.03100
C  47.22500 25.81300 30.94700
C  46.86800 25.39900 32.45700
C  46.42900 23.95300 32.14000
C  46.25300 23.86500 30.62000
C  47.32600 22.80600 32.65000
C  45.83600 26.37800 33.15700
C  46.35300 26.96700 34.47800
H  45.36500 27.11100 35.56700
N  45.79000 23.21700 27.65400
C  45.44300 22.38700 28.63800
C  44.97400 21.20000 28.05900
C  44.90500 21.34800 26.65500
C  45.44200 22.63100 26.37700
C  44.56500 20.00000 28.88200
C  44.42900 20.34200 25.58200
O  44.54100 20.50000 24.40100
C  43.95400 18.92800 25.99300
N  46.91200 25.27400 25.75200
C  46.35900 24.46100 24.85100
C  46.50300 24.96600 23.36500
C  46.99800 26.44100 23.57900
C  47.26600 26.42000 25.13800
C  47.49600 23.99200 22.48300
C  46.08300 27.65400 23.15500
C  46.77900 28.72100 22.33300
N  47.65300 26.79600 28.09300
C  47.99800 27.71900 27.14900
C  48.64200 28.84300 27.71700
C  48.62600 28.68200 29.07100
C  48.03700 27.33900 29.25200
C  49.30500 29.92200 26.96700
C  49.01300 29.20300 30.37800
O  49.53000 30.24600 30.71300
C  48.54400 28.13000 31.41400
C  49.59700 27.58900 32.40100
O  50.34200 26.66800 32.15400
O  49.58400 28.34000 33.58400
C  50.53200 27.92700 34.66500
H  45.13000 21.99800 30.57400
H  45.35200 22.68300 24.29500
H  47.70700 28.45100 25.20300
H  47.82500 25.27100 32.96200
H  45.51300 23.71000 32.68000
H  48.32000 23.22600 32.80100
H  47.25700 21.95200 31.97600
H  47.05800 22.57200 33.68000
H  44.89500 25.88500 33.40300
H  45.58700 27.20100 32.48800
H  46.90000 27.89000 34.28900
H  47.16400 26.27500 34.70300
H  43.51500 19.77700 28.69700
H  44.62900 20.19200 29.95300
H  45.25900 19.20200 28.61800
H  42.97400 18.89500 26.46800
H  44.71400 18.49400 26.64200
H  43.79800 18.31800 25.10400
H  45.56100 24.94700 22.81600
H  48.01900 26.58000 23.22300
H  47.29700 24.23800 21.44000
H  47.21900 22.96400 22.71700
H  48.53300 24.20500 22.74300
H  45.60000 28.25900 23.92200
H  45.28000 27.14500 22.62100
H  46.19300 28.98400 21.45200
H  47.72400 28.35900 21.92800
H  47.00100 29.56800 22.98200
H  50.23300 30.19300 27.47000
H  48.76300 30.84400 26.75700
H  49.43800 29.56700 25.94500
H  47.73600 28.50100 32.04500
H  50.86900 26.91100 34.45800
H  49.98100 28.06200 35.59600
H  51.43300 28.53400 34.57700
Mg 31.44000 58.44500 40.60700
C  28.51300 56.73800 39.39700
C  33.36100 55.85400 39.47400
C  34.23500 60.26300 41.33100
C  29.35700 61.22500 41.04900
N  31.00300 56.61000 39.56500
C  29.74000 56.08800 39.08700
C  29.88700 54.79300 38.41300
C  31.33800 54.33400 38.85800
C  31.94900 55.63500 39.42000
C  31.31800 53.18700 39.85800
C  29.67800 55.07500 36.86700
C  28.60300 54.18200 36.27800
H  27.63400 54.77200 35.22800
N  33.45500 58.08700 40.48000
C  34.05900 56.93800 40.07700
C  35.47000 57.05700 40.19800
C  35.76800 58.33700 40.73000
C  34.44800 58.96600 40.91500
C  36.40100 55.92900 39.69300
C  37.14400 58.87300 41.09500
O  38.11000 58.16900 40.98600
C  37.36600 60.15500 41.73100
N  31.75400 60.50600 41.10400
C  33.00100 60.94400 41.43500
C  32.86300 62.48000 41.47700
C  31.32000 62.79100 41.74600
C  30.76800 61.38600 41.34700
C  33.60500 63.11500 42.72300
C  30.74600 63.89500 40.87800
C  29.62400 64.87500 41.43000
N  29.37400 58.83800 40.38500
C  28.67000 60.03900 40.62700
C  27.28300 59.83300 40.26500
C  27.11300 58.49200 39.92600
C  28.45500 57.96700 39.95200
C  26.15200 60.92800 40.22500
C  26.25300 57.52400 39.48000
O  25.03000 57.55400 39.35200
C  27.13300 56.24500 39.02400
C  26.63600 55.13100 39.90400
O  27.05600 54.90500 41.03700
O  25.59000 54.41300 39.31900
C  24.71100 53.49200 40.08300
H  33.88200 54.89400 39.46200
H  35.06200 60.91900 41.61200
H  28.60800 62.00500 41.20100
H  29.28200 53.98000 38.81400
H  31.97600 54.03500 38.02600
H  30.44300 53.29100 40.49800
H  32.18200 53.04500 40.50700
H  31.28200 52.31400 39.20600
H  30.61800 54.94200 36.33200
H  29.38300 56.11900 36.76400
H  27.99100 53.63100 36.99200
H  29.12500 53.36000 35.78600
H  36.28500 56.05700 38.61700
H  36.09000 54.91800 39.95600
H  37.47200 55.94500 39.89500
H  38.36200 60.15200 42.17500
H  36.68600 60.28700 42.57200
H  37.35900 60.99000 41.03000
H  33.09400 62.86200 40.48300
H  31.01800 62.99400 42.77300
H  34.43600 63.73700 42.39000
H  34.09400 62.36300 43.34200
H  33.07800 63.74400 43.44100
H  30.56500 63.46400 39.89400
H  31.54100 64.60900 40.65700
H  28.70800 64.65400 40.88200
H  30.13800 65.82700 41.29300
H  29.47400 64.67800 42.49100
H  25.87100 61.18400 41.24600
H  25.31200 60.39300 39.78000
H  26.41300 61.79300 39.61500
H  26.96600 56.08100 37.96000
H  24.98500 52.44900 39.92800
H  23.68000 53.52700 39.73300
H  24.73400 53.71900 41.14900

