158

Mg -1.68400 17.80300 26.85100
C  -2.64700 15.80800 29.53100
C  -2.67000 20.56500 28.61100
C  -1.00200 19.71500 24.07500
C  -1.68200 14.91300 24.79200
N  -2.63600 18.12400 28.76100
C  -2.69700 17.19100 29.80700
C  -2.95800 17.79400 31.10100
C  -3.40500 19.21100 30.72500
C  -2.90800 19.31900 29.25300
C  -4.92100 19.51000 30.81800
C  -1.76100 17.89100 32.00600
C  -1.95200 17.36100 33.44500
H  -0.70900 17.13600 34.38100
N  -1.69800 19.87200 26.48000
C  -2.16500 20.80300 27.31000
C  -2.15700 22.09300 26.67600
C  -1.42000 21.89700 25.46300
C  -1.26100 20.44700 25.29100
C  -2.74100 23.37000 27.29900
C  -0.95200 23.00900 24.44000
O  -0.35400 22.70700 23.39600
C  -1.00100 24.42000 24.92700
N  -1.40200 17.41600 24.81300
C  -1.06500 18.32300 23.83700
C  -0.98700 17.69500 22.41600
C  -0.76300 16.19400 22.77600
C  -1.31400 16.12200 24.24800
C  -2.16600 18.01000 21.43500
C  0.65800 15.66100 22.76600
C  1.75500 16.63800 23.30000
N  -2.00300 15.77700 27.06300
C  -2.01500 14.76400 26.19900
C  -2.35900 13.50600 26.85700
C  -2.49500 13.87300 28.16700
C  -2.34000 15.26300 28.29100
C  -2.37800 12.14400 26.30300
C  -2.82000 13.34600 29.46300
O  -3.17800 12.19700 29.79400
C  -2.85500 14.59800 30.39800
C  -1.64700 14.31900 31.29700
O  -0.49600 14.62400 30.92200
O  -1.98900 13.84000 32.58800
C  -0.83000 13.68200 33.42500
H  -2.93200 21.39900 29.26500
H  -0.85500 20.37200 23.21500
H  -1.75800 13.96000 24.26300
H  -3.81800 17.21100 31.43100
H  -2.93800 20.06400 31.21800
H  -5.14800 20.42000 30.26200
H  -5.22100 19.58900 31.86300
H  -5.46500 18.70700 30.32100
H  -1.37400 18.90900 32.04000
H  -0.97800 17.35600 31.46700
H  -2.41900 16.37800 33.37100
H  -2.64000 18.05400 33.92800
H  -3.27400 23.96100 26.55400
H  -1.88300 23.99900 27.53900
H  -3.44200 23.22000 28.12000
H  -0.54100 24.47300 25.91400
H  -2.04900 24.70800 25.00700
H  -0.40000 25.04000 24.26200
H  -0.08000 18.11000 21.97700
H  -1.26700 15.49400 22.10900
H  -2.78600 18.78500 21.88600
H  -2.72600 17.12200 21.14300
H  -1.80600 18.35500 20.46600
H  0.88400 15.54600 21.70500
H  0.76200 14.72600 23.31700
H  2.59500 15.99300 23.55400
H  1.46800 17.22900 24.17000
H  2.15100 17.22100 22.46800
H  -1.67000 11.96000 25.49500
H  -3.41100 11.90700 26.05000
H  -2.10700 11.48100 27.12500
H  -3.77700 14.65400 30.97700
H  -0.42300 12.67100 33.42200
H  -1.21400 13.86500 34.42900
H  -0.02600 14.40400 33.28400
Mg 36.12600 49.25000 25.48300
C  35.96700 47.41500 28.53900
C  35.38300 52.08100 27.33500
C  35.98600 50.93200 22.59300
C  36.33000 46.22600 23.73000
N  35.77400 49.70700 27.71900
C  35.73600 48.78600 28.75300
C  35.64300 49.56600 30.15300
C  35.20400 50.99400 29.60600
C  35.46900 50.95900 28.14500
C  33.72000 51.35500 29.83900
C  36.89900 49.42500 31.05200
C  36.64300 48.95500 32.50900
H  35.24300 49.29200 33.14400
N  35.83500 51.25600 25.06600
C  35.56600 52.26200 25.93700
C  35.54200 53.54000 25.16600
C  35.79700 53.23100 23.80000
C  35.92300 51.78400 23.76700
C  35.41700 54.85700 25.83400
C  36.00400 54.17200 22.61700
O  36.33700 53.83300 21.49300
C  35.64500 55.55400 22.72700
N  35.85600 48.65100 23.48900
C  35.84800 49.58900 22.53600
C  35.92500 48.86400 21.16100
C  36.38000 47.38200 21.53100
C  36.09900 47.40700 23.00900
C  34.59900 48.98900 20.43000
C  37.97800 47.16400 21.33700
C  38.26300 46.29800 20.11900
N  36.08100 47.28900 25.97200
C  36.22500 46.16300 25.14300
C  36.27600 44.97700 25.94500
C  36.12000 45.42100 27.28800
C  36.13300 46.82400 27.27300
C  36.31000 43.54200 25.43600
C  36.08000 45.04200 28.68600
O  36.15100 43.91400 29.21800
C  35.99900 46.30700 29.56000
C  34.69100 46.14200 30.33200
O  33.56500 46.25400 29.84200
O  34.89600 45.80500 31.63300
C  33.56600 45.54100 32.30200
H  35.15200 52.96200 27.93700
H  36.00100 51.38900 21.60200
H  36.45200 45.31400 23.14200
H  34.79900 49.12300 30.68200
H  35.82800 51.74400 30.09200
H  33.28200 50.68300 30.57800
H  33.00900 51.30900 29.01500
H  33.67900 52.38100 30.20500
H  37.45700 50.36100 31.08700
H  37.51400 48.68700 30.53800
H  37.39700 49.50200 33.07500
H  36.79800 47.89600 32.71600
H  36.31500 55.45400 25.67200
H  35.54300 54.77800 26.91300
H  34.50500 55.35000 25.49900
H  34.56300 55.61300 22.84000
H  35.86900 56.08900 21.80300
H  36.13500 56.04200 23.56900
H  36.68000 49.31500 20.51800
H  35.71000 46.76000 20.93700
H  34.24900 48.00900 20.10500
H  34.63400 49.74200 19.64300
H  33.82600 49.21700 21.16500
H  38.50800 46.73400 22.18700
H  38.47000 48.11600 21.13900
H  38.81200 45.38100 20.33400
H  38.82700 46.89800 19.40400
H  37.35000 45.98500 19.61300
H  37.17400 43.51800 24.77100
H  35.44100 43.33400 24.81200
H  36.37300 42.82600 26.25500
H  36.88800 46.35200 30.18900
H  32.80300 46.29000 32.09300
H  33.80200 45.47800 33.36500
H  33.27700 44.51800 32.06000

