158

Mg 25.33100 1.60100 30.10100
C  27.52500 1.28600 32.99100
C  22.87900 2.34000 32.42500
C  23.08100 1.34300 27.68200
C  27.81700 0.61800 28.09100
N  25.23300 1.58100 32.48400
C  26.25200 1.70500 33.30400
C  25.83500 2.16900 34.69500
C  24.35200 2.37000 34.56500
C  24.07800 2.01500 33.05800
C  23.48400 1.45300 35.42500
C  26.67500 3.43600 35.07100
C  27.40200 3.23500 36.44800
H  26.82600 4.03000 37.62500
N  23.28600 1.84400 30.00500
C  22.49600 2.25300 31.01600
C  21.11600 2.35200 30.52400
C  21.13600 1.99200 29.16300
C  22.50100 1.71900 28.88400
C  19.96200 2.70800 31.43300
C  19.94200 1.97200 28.13500
O  20.07000 1.44100 27.01300
C  18.63900 2.42200 28.57600
N  25.40700 1.02400 28.12400
C  24.35500 1.07500 27.29200
C  24.79200 0.86200 25.87300
C  26.39300 0.86200 25.93900
C  26.60400 0.87300 27.51100
C  24.18100 -0.32400 25.10900
C  27.06000 2.09100 25.24300
C  27.38800 3.34700 26.06600
N  27.30800 1.06300 30.34200
C  28.22200 0.67400 29.48200
C  29.54100 0.51000 30.08400
C  29.24800 0.75300 31.49500
C  27.87100 1.01800 31.58200
C  30.79300 0.24200 29.28400
C  29.89000 0.84100 32.81300
O  31.07600 0.69000 33.13900
C  28.74200 1.11900 33.85300
C  28.66100 -0.04000 34.75800
O  28.47800 -1.18900 34.49900
O  28.92900 0.37800 36.01600
C  29.13100 -0.64700 37.08300
H  22.13500 2.67900 33.14800
H  22.44000 1.23000 26.80500
H  28.70900 0.42100 27.49400
H  26.13900 1.29000 35.26300
H  24.07000 3.41100 34.72600
H  22.94900 2.14400 36.07700
H  24.13300 0.83000 36.04100
H  22.87100 0.72300 34.89700
H  26.06300 4.29000 35.36000
H  27.31700 3.61800 34.20800
H  28.38300 3.66100 36.24100
H  27.51200 2.20500 36.78600
H  20.24800 3.17800 32.37400
H  19.43200 1.76600 31.57100
H  19.31900 3.35500 30.83700
H  17.86200 2.07400 27.89400
H  18.61800 3.48500 28.81600
H  18.47900 1.86900 29.50200
H  24.43200 1.78300 25.41300
H  26.82000 -0.05800 25.54100
H  23.39500 -0.68800 25.77000
H  24.91800 -1.11600 24.97800
H  23.75300 0.02700 24.16900
H  26.46200 2.49700 24.42700
H  27.98100 1.71700 24.79700
H  27.52400 3.15900 27.13100
H  26.54900 4.03800 25.98600
H  28.26800 3.81500 25.62500
H  31.70400 0.44500 29.84600
H  30.84200 0.84000 28.37300
H  30.81700 -0.81600 29.02200
H  29.05400 1.97500 34.45100
H  28.74500 -0.37300 38.06400
H  30.20900 -0.67800 37.24000
H  28.67500 -1.61500 36.87500
Mg 16.64700 51.31400 27.09700
C  18.74300 50.15300 29.74200
C  14.39100 52.16300 29.31900
C  14.88500 52.36000 24.49200
C  19.15200 50.19100 24.88900
N  16.63200 51.25000 29.22600
C  17.56000 50.77800 30.16900
C  17.20900 51.05900 31.61600
C  15.70600 51.43800 31.48400
C  15.49900 51.61900 29.91400
C  14.64900 50.56000 32.16900
C  18.04500 52.23900 32.17800
C  18.37200 52.26600 33.67000
H  17.19600 51.79100 34.56300
N  14.89400 52.22500 26.89700
C  14.08100 52.50400 27.98000
C  12.98700 53.27900 27.55400
C  13.00400 53.33300 26.08500
C  14.27500 52.61300 25.75300
C  12.01600 53.96400 28.44700
C  12.02100 53.83400 25.01600
O  12.21100 53.77200 23.81000
C  10.80700 54.67500 25.52700
N  17.00800 51.21100 24.91900
C  16.09400 51.81400 24.04100
C  16.59700 51.86700 22.62900
C  17.98100 51.15800 22.75600
C  18.13400 50.92200 24.27400
C  15.66800 51.19300 21.59900
C  19.22800 51.87100 22.15900
C  19.68800 51.27100 20.80900
N  18.45600 50.29500 27.22200
C  19.31200 49.81600 26.26800
C  20.33800 49.05700 26.82900
C  20.20500 49.22800 28.22000
C  19.07600 49.99600 28.38100
C  21.45400 48.48600 26.02500
C  20.81100 48.89900 29.53500
O  21.81200 48.25100 29.74000
C  19.85200 49.53000 30.59300
C  19.32000 48.50700 31.53300
O  18.44000 47.70400 31.31700
O  20.07200 48.53300 32.71100
C  19.76700 47.43000 33.65600
H  13.62900 52.39200 30.06600
H  14.30700 52.83500 23.69600
H  19.96400 49.93700 24.20400
H  17.39500 50.18200 32.23600
H  15.66000 52.43900 31.91200
H  14.06800 50.01100 31.42800
H  13.96700 51.19200 32.73800
H  15.22000 49.89700 32.81900
H  17.53900 53.19900 32.07400
H  18.94700 52.32300 31.57200
H  18.59700 53.31100 33.88000
H  19.27200 51.67600 33.84100
H  11.10000 53.38000 28.53900
H  11.81200 55.00300 28.18900
H  12.39000 53.97200 29.47100
H  11.17700 55.60600 25.95500
H  10.27300 54.13800 26.31100
H  10.15800 54.88200 24.67700
H  16.76200 52.88700 22.28100
H  17.87400 50.16300 22.32300
H  15.00300 51.94300 21.17200
H  15.12800 50.48000 22.22200
H  16.15700 50.53000 20.88500
H  20.05900 51.74100 22.85200
H  19.23900 52.95700 22.06600
H  20.17600 52.08900 20.27900
H  18.87200 50.88100 20.20000
H  20.45900 50.52900 21.01500
H  21.08100 48.10500 25.07400
H  21.92800 47.70100 26.61400
H  22.09400 49.35800 25.88700
H  20.33200 50.21700 31.29000
H  20.13500 46.50500 33.21400
H  18.68600 47.36300 33.78100
H  20.32000 47.78400 34.52600

