158

Mg 16.88200 -1.18200 27.63300
C  15.97300 0.87900 30.27500
C  19.19700 -2.64400 29.79400
C  18.15100 -2.71900 25.02800
C  14.77600 0.72200 25.54700
N  17.50800 -0.90600 29.74300
C  16.91600 -0.01500 30.67800
C  17.47800 -0.25500 32.08500
C  18.74500 -1.13000 31.78600
C  18.48500 -1.61500 30.37200
C  20.23700 -0.52500 32.09000
C  16.39500 -0.89200 32.96000
C  16.10900 -0.14300 34.18300
H  17.26900 0.50500 34.79900
N  18.31600 -2.70800 27.55500
C  19.11500 -3.17600 28.54700
C  19.81900 -4.32800 27.97400
C  19.52900 -4.38600 26.61000
C  18.59100 -3.24800 26.25100
C  20.49400 -5.41000 28.87100
C  19.83400 -5.49200 25.58700
O  19.36500 -5.38000 24.49900
C  20.80900 -6.61500 25.90400
N  16.41600 -1.07700 25.61500
C  17.21300 -1.73700 24.71700
C  16.89400 -1.42600 23.27900
C  15.59500 -0.56800 23.43900
C  15.52200 -0.31900 24.92300
C  18.08500 -0.69400 22.55100
C  14.20000 -1.20000 22.86700
C  13.85000 -0.86400 21.44400
N  15.63600 0.46900 27.84700
C  14.80900 1.08800 26.93000
C  14.01800 2.09100 27.51500
C  14.54500 2.16200 28.80100
C  15.53200 1.13700 28.92200
C  12.92300 2.84200 26.77200
C  14.44700 2.85600 30.04700
O  13.78800 3.85700 30.39200
C  15.34700 2.00700 31.11600
C  16.33400 2.91600 31.70500
O  17.45300 3.08200 31.32100
O  15.85600 3.52300 32.82900
C  16.87900 4.36700 33.53000
H  20.02400 -3.04900 30.38000
H  18.49800 -3.24300 24.13500
H  14.23400 1.31200 24.80500
H  17.82500 0.72800 32.40500
H  18.61900 -2.03100 32.38600
H  20.61500 -1.30000 32.75600
H  20.14500 0.45300 32.56400
H  20.86400 -0.61700 31.20300
H  16.74700 -1.89400 33.20600
H  15.45500 -1.14100 32.46800
H  15.57900 -0.75100 34.91600
H  15.39100 0.63300 33.91800
H  19.86600 -6.30000 28.91500
H  20.49700 -4.99500 29.87900
H  21.52300 -5.60300 28.56800
H  21.83100 -6.24700 26.00000
H  20.72200 -7.30900 25.06800
H  20.37300 -7.17100 26.73300
H  16.56100 -2.34300 22.79300
H  15.87700 0.39300 23.00800
H  18.88700 -0.48800 23.26000
H  17.82900 0.26300 22.09800
H  18.41500 -1.38400 21.77500
H  13.39500 -0.89400 23.53500
H  14.17700 -2.27900 23.02000
H  14.32200 0.10500 21.28100
H  12.77900 -0.83300 21.24700
H  14.35300 -1.54800 20.76000
H  12.09800 2.81500 27.48500
H  12.53500 2.35600 25.87800
H  13.24600 3.85000 26.51000
H  14.89000 1.51500 31.97500
H  17.05500 5.31700 33.02600
H  17.87600 3.92600 33.52700
H  16.49000 4.50000 34.54000
Mg 25.99000 50.57900 27.06500
C  23.52200 51.42200 29.43400
C  28.19700 49.97600 29.45100
C  28.39900 50.37800 24.57800
C  23.62000 51.43300 24.53000
N  25.78200 50.69700 29.16000
C  24.74300 51.01600 29.97000
C  25.03300 50.77800 31.49100
C  26.56800 50.57000 31.42900
C  26.86700 50.33500 29.90700
C  27.48100 51.65700 32.15700
C  24.20900 49.53400 31.99700
C  23.53800 49.66100 33.38100
H  24.19900 50.51000 34.51100
N  27.94300 50.13000 27.05800
C  28.75100 49.90900 28.16600
C  30.15300 49.77600 27.79100
C  30.19600 49.82800 26.43200
C  28.80100 50.08100 25.95000
C  31.21400 49.55900 28.85000
C  31.48100 49.65300 25.54400
O  31.46400 49.74300 24.32600
C  32.78200 49.40500 26.18700
N  25.98200 50.89000 24.88300
C  27.12600 50.76400 24.11600
C  26.90800 51.19400 22.65000
C  25.30800 51.26600 22.60400
C  24.92900 51.12700 24.09800
C  27.59800 52.51000 22.21500
C  24.67600 50.13500 21.73100
C  24.10200 50.43000 20.34300
N  23.97200 51.31600 26.96900
C  23.14700 51.57800 25.86000
C  21.85700 51.93900 26.36900
C  22.00900 51.94000 27.76000
C  23.30700 51.55400 28.08600
C  20.74500 52.26700 25.47300
C  21.28700 52.22300 29.02200
O  20.13900 52.54800 29.22100
C  22.30300 51.91800 30.20300
C  22.60500 53.08800 31.12400
O  23.14700 54.12400 30.81200
O  22.02500 52.82200 32.36100
C  22.03900 54.00100 33.25100
H  28.86100 49.73500 30.28400
H  29.20500 50.31900 23.84400
H  22.92800 51.65800 23.71600
H  24.69700 51.66900 32.02200
H  26.82100 49.62300 31.90600
H  28.40500 51.24200 32.56000
H  26.89400 51.95700 33.02500
H  27.52900 52.38000 31.34300
H  24.89200 48.68600 31.95000
H  23.45700 49.50000 31.20900
H  23.46900 48.63000 33.72900
H  22.53500 49.99100 33.11100
H  30.77700 49.52000 29.84800
H  31.95800 50.35300 28.89800
H  31.72900 48.61400 28.67200
H  32.74100 48.42700 26.66600
H  33.10100 50.28600 26.74500
H  33.57400 49.12800 25.49200
H  27.35200 50.46200 21.97600
H  24.94100 52.23400 22.26300
H  28.30500 52.28500 21.41700
H  28.02500 52.85600 23.15600
H  26.95600 53.31500 21.85900
H  23.78900 49.77000 22.24900
H  25.27900 49.25600 21.50000
H  24.29800 49.64000 19.61800
H  24.56500 51.38800 20.10700
H  23.03600 50.65800 20.33900
H  19.83900 52.45500 26.05000
H  20.56900 51.43000 24.79800
H  21.07000 53.18400 24.98300
H  21.89900 51.12900 30.83900
H  22.73500 54.82600 33.10000
H  22.26700 53.69900 34.27300
H  21.00200 54.33500 33.28200

