158

Mg 25.08500 1.02700 29.18300
C  27.32100 0.41400 31.79700
C  22.55400 1.50100 31.53700
C  22.90100 0.92000 26.73600
C  27.63700 0.04300 26.92400
N  25.02800 1.19900 31.43000
C  26.07000 0.87500 32.30700
C  25.64300 1.21800 33.75400
C  24.08600 1.37500 33.67200
C  23.85100 1.41600 32.09000
C  23.30000 0.22100 34.29300
C  26.36400 2.46200 34.15200
C  27.28600 2.40100 35.35100
H  26.99900 3.47000 36.57100
N  23.04000 1.33500 29.13200
C  22.18700 1.53900 30.17500
C  20.86200 1.63000 29.62100
C  20.91200 1.35800 28.19600
C  22.29900 1.21400 27.94600
C  19.63800 1.72400 30.50200
C  19.73900 1.15600 27.20500
O  19.95800 0.78700 26.01300
C  18.32100 1.43000 27.62600
N  25.23400 0.56900 27.10900
C  24.20500 0.77800 26.29400
C  24.52700 0.52100 24.73000
C  26.08300 0.34000 24.83900
C  26.33800 0.37400 26.37200
C  23.74200 -0.61000 24.00400
C  26.92400 1.44700 24.11300
C  27.80900 1.00500 22.93300
N  27.08300 0.39500 29.31100
C  27.99000 0.02100 28.30500
C  29.27200 -0.42800 28.89500
C  29.07700 -0.16400 30.29800
C  27.75000 0.28900 30.45300
C  30.47700 -0.91800 28.23500
C  29.70000 -0.20700 31.56400
O  30.82800 -0.44400 31.90900
C  28.64100 0.27800 32.57900
C  28.49800 -0.75900 33.60600
O  28.03000 -1.88800 33.41000
O  29.00700 -0.31000 34.83900
C  29.03500 -1.38300 35.76800
H  21.74800 1.69200 32.24800
H  22.22600 1.01100 25.88200
H  28.49900 -0.10500 26.27100
H  25.86400 0.54600 34.58400
H  23.69200 2.27300 34.14700
H  22.65300 -0.30000 33.58800
H  22.76500 0.57500 35.17500
H  23.97800 -0.58400 34.57500
H  25.61400 3.23800 34.30500
H  26.94100 2.82200 33.30100
H  28.33800 2.54400 35.10100
H  27.16700 1.54200 36.01100
H  19.88800 1.56500 31.55100
H  18.88200 0.99900 30.20100
H  19.25800 2.74600 30.49400
H  17.73800 1.53700 26.71100
H  18.34700 2.39800 28.12700
H  18.04500 0.58600 28.25800
H  24.29200 1.48600 24.28200
H  26.47500 -0.60700 24.46600
H  23.01300 -1.04000 24.69100
H  24.43400 -1.34300 23.58900
H  23.14900 -0.22300 23.17600
H  27.53600 2.06900 24.76600
H  26.35800 2.17100 23.52700
H  27.54100 1.35000 21.93400
H  27.81000 -0.08200 22.84100
H  28.85500 1.26500 23.09500
H  30.58000 -0.63700 27.18700
H  30.49500 -2.00400 28.33200
H  31.32700 -0.50700 28.78000
H  28.91100 1.22000 33.05600
H  28.01500 -1.33500 36.15000
H  29.67300 -1.12700 36.61400
H  29.36300 -2.30300 35.28400
Mg 35.09000 1.66600 29.51900
C  32.98300 2.58800 32.14000
C  37.59800 1.54700 31.52300
C  37.00900 1.53400 26.74800
C  32.32800 2.15500 27.31300
N  35.24700 2.13000 31.55200
C  34.34400 2.40400 32.48300
C  34.88900 2.50800 33.91400
C  36.35800 2.22500 33.71100
C  36.45300 1.97200 32.17900
C  37.31100 3.30600 34.37600
C  34.20300 1.59300 34.92600
C  33.57600 2.31500 36.16000
H  34.39800 3.43200 36.86600
N  36.96300 1.30500 29.20500
C  37.91500 1.25400 30.17400
C  39.14000 0.74400 29.62500
C  38.94000 0.81400 28.22200
C  37.59100 1.23700 27.99800
C  40.26600 0.35500 30.49100
C  39.94500 0.55900 27.12400
O  39.68400 0.75600 25.95400
C  41.37400 0.11000 27.53100
N  34.70200 1.91300 27.33000
C  35.70700 1.83100 26.41400
C  35.19000 1.95900 24.93200
C  33.63300 1.67200 25.19300
C  33.53900 1.91900 26.71700
C  35.50700 3.36300 24.27800
C  33.25800 0.18500 24.86300
C  31.94200 -0.00400 24.05300
N  33.06200 2.28200 29.63400
C  32.13000 2.43500 28.70400
C  30.84600 2.85000 29.28600
C  31.20400 2.98700 30.63100
C  32.51400 2.59900 30.77800
C  29.53500 3.05900 28.60700
C  30.70000 3.23900 31.94900
O  29.61100 3.62800 32.31700
C  31.82900 3.11000 32.96000
C  31.99900 4.42100 33.64500
O  32.56500 5.38800 33.15900
O  31.22900 4.46600 34.77500
C  31.16900 5.75300 35.41300
H  38.47500 1.50300 32.17200
H  37.71200 1.56200 25.91300
H  31.42200 2.19600 26.70600
H  34.77100 3.56700 34.14300
H  36.58300 1.32700 34.28600
H  37.96400 2.94400 35.17000
H  36.86500 4.27200 34.61500
H  37.97700 3.68100 33.59800
H  34.96200 0.92100 35.32800
H  33.44400 0.97400 34.44800
H  33.49100 1.57000 36.95100
H  32.60900 2.70300 35.84100
H  40.55600 -0.69200 30.40400
H  40.13900 0.66000 31.53000
H  41.06000 0.98400 30.08900
H  41.04300 -0.86800 27.87800
H  41.90900 0.83400 28.14600
H  41.98500 -0.11100 26.65500
H  35.62100 1.29800 24.18000
H  33.00700 2.43700 24.73400
H  35.80400 3.99700 25.11300
H  34.61600 3.83200 23.86200
H  36.34200 3.35300 23.57700
H  33.15300 -0.43000 25.75700
H  34.07500 -0.25200 24.28900
H  31.21400 -0.54400 24.65900
H  32.07300 -0.47600 23.07900
H  31.58700 1.02300 23.97300
H  29.45800 2.82600 27.54500
H  29.12100 4.06200 28.70900
H  28.83700 2.33500 29.02800
H  31.55900 2.39200 33.73400
H  32.16800 6.14700 35.60100
H  30.57500 5.63300 36.31900
H  30.65700 6.49300 34.79800

