158

Mg 7.69200 3.24200 27.40500
C  8.86600 1.93800 30.42200
C  5.40600 5.10900 28.89900
C  6.65200 4.03000 24.40600
C  9.63200 0.46100 25.77400
N  7.14800 3.37300 29.41400
C  7.84500 2.89000 30.47300
C  7.21200 3.47200 31.78700
C  5.94400 4.24000 31.27800
C  6.19900 4.31100 29.75300
C  4.66000 3.63200 31.79200
C  8.21000 4.29500 32.59200
C  7.98400 4.11000 34.18500
H  9.28700 3.72200 34.94900
N  6.39000 4.71000 26.74900
C  5.45300 5.30500 27.51200
C  4.73200 6.18900 26.75300
C  5.01800 5.88700 25.39300
C  6.11200 4.86500 25.46800
C  3.78800 7.30000 27.35600
C  4.46200 6.57800 24.13400
O  4.86700 6.27300 23.02000
C  3.33400 7.57300 24.23500
N  8.05800 2.22700 25.30600
C  7.43400 2.86800 24.28700
C  7.72500 2.15900 22.93200
C  8.72800 1.04700 23.34100
C  8.78100 1.19300 24.89500
C  6.47500 1.61100 22.17100
C  10.14700 1.22600 22.65400
C  10.42400 0.25400 21.47300
N  8.96200 1.51100 27.95500
C  9.70800 0.62200 27.21900
C  10.60000 -0.10600 28.18300
C  10.33600 0.44200 29.43100
C  9.35800 1.39300 29.20900
C  11.63100 -1.04600 27.74700
C  10.73200 0.37900 30.77500
O  11.54900 -0.29200 31.38600
C  9.72900 1.38400 31.50700
C  8.88800 0.52300 32.40100
O  7.75200 0.05700 32.19800
O  9.52500 0.42500 33.64500
C  8.72900 -0.30500 34.56600
H  4.62100 5.67800 29.40200
H  6.18400 4.38100 23.48400
H  10.24500 -0.36600 25.40800
H  6.92100 2.60000 32.37200
H  5.95500 5.24500 31.69900
H  4.83300 2.79300 32.46700
H  3.99000 3.40100 30.96400
H  4.21100 4.38700 32.43700
H  8.03400 5.35500 32.40900
H  9.22200 4.08800 32.24700
H  7.30400 3.29900 34.44600
H  7.65900 5.07900 34.56500
H  4.06600 7.30700 28.41000
H  2.80400 6.87900 27.14900
H  3.94500 8.26400 26.87200
H  2.75000 7.73300 23.32900
H  3.78400 8.51900 24.53400
H  2.62200 7.22900 24.98500
H  8.27500 2.83400 22.27700
H  8.31900 0.04200 23.24500
H  5.57100 1.95200 22.67500
H  6.60900 0.53200 22.09500
H  6.36800 2.06700 21.18700
H  10.90600 1.02000 23.40900
H  10.40500 2.23800 22.34000
H  9.47800 -0.14300 21.10600
H  11.01700 -0.57100 21.86800
H  10.96700 0.77200 20.68300
H  11.24000 -2.06300 27.76500
H  12.56100 -1.07400 28.31400
H  11.76000 -0.85200 26.68200
H  10.31700 2.10800 32.07200
H  8.28200 -1.24900 34.25600
H  8.05100 0.37500 35.08100
H  9.41300 -0.78100 35.26900
Mg 48.28900 16.42800 28.28400
C  46.13700 16.22200 31.10200
C  50.46300 18.11800 30.45500
C  50.14900 17.29700 25.69400
C  45.78200 15.11200 26.44900
N  48.28500 17.10900 30.53300
C  47.37400 16.77800 31.46900
C  47.82200 17.12200 32.93900
C  49.14000 17.94000 32.67400
C  49.34400 17.67400 31.13200
C  48.84900 19.44100 33.06100
C  48.03900 15.86500 33.79600
C  47.29100 15.71300 35.07500
H  47.13600 16.98400 35.91400
N  50.06000 17.56400 28.09500
C  50.79100 18.05600 29.13100
C  52.06800 18.66400 28.59500
C  51.99900 18.36600 27.21400
C  50.69400 17.80000 26.93100
C  53.12500 19.24100 29.51400
C  53.07600 18.70000 26.13200
O  52.90100 18.43400 24.96000
C  54.45300 19.16300 26.49500
N  47.91700 16.37100 26.33000
C  48.87100 16.64200 25.45600
C  48.48900 16.16100 24.01900
C  47.06900 15.46500 24.23300
C  46.88300 15.63300 25.76800
C  48.51500 17.34200 22.99500
C  46.95100 13.95700 23.75700
C  45.60300 13.40200 23.23100
N  46.47300 15.55400 28.65300
C  45.50700 15.06900 27.79200
C  44.30200 14.73100 28.45700
C  44.51300 15.26500 29.70300
C  45.86100 15.68800 29.82100
C  43.02000 14.19500 27.77900
C  43.82200 15.46600 30.96500
O  42.64700 15.35400 31.35500
C  44.97400 15.97500 31.96300
C  44.45000 17.06800 32.73400
O  44.09800 18.15800 32.33600
O  44.25400 16.58900 34.01900
C  43.48300 17.42800 34.84300
H  51.14200 18.50100 31.22000
H  50.77900 17.32700 24.80200
H  44.93900 14.81100 25.82400
H  47.04800 17.69900 33.44400
H  49.93700 17.64800 33.35700
H  49.32900 19.74200 33.99200
H  47.77600 19.58500 33.19300
H  49.15500 20.04500 32.20600
H  49.10100 15.66600 33.94200
H  47.61900 15.02800 33.23900
H  47.84300 14.92400 35.58500
H  46.28400 15.30200 35.00800
H  52.83000 19.46100 30.54000
H  53.48500 20.19500 29.12900
H  53.99500 18.58500 29.54500
H  54.88600 18.87500 27.45300
H  54.37200 20.25000 26.48500
H  55.08100 18.83500 25.66700
H  49.22900 15.49800 23.56900
H  46.29100 16.13500 23.86700
H  49.38200 17.27100 22.33800
H  48.83100 18.23200 23.53900
H  47.62900 17.45400 22.37000
H  47.14500 13.29000 24.59700
H  47.77900 13.76000 23.07600
H  44.98600 14.21800 22.85700
H  45.08800 12.89800 24.04800
H  45.63600 12.54800 22.55400
H  42.87800 13.13100 27.96700
H  42.99100 14.36100 26.70200
H  42.17500 14.60600 28.33200
H  45.09500 15.05100 32.52800
H  42.44700 17.24000 34.56000
H  43.63000 18.50700 34.87800
H  43.58200 17.04200 35.85700

