158

Mg 26.04300 -0.90000 29.28500
C  28.00200 -0.89100 32.25800
C  23.26300 -0.58500 31.29800
C  24.20700 -0.66100 26.58700
C  28.90400 -1.16400 27.45700
N  25.69800 -0.84500 31.53800
C  26.64300 -0.76800 32.52200
C  26.02000 -0.53500 33.90800
C  24.49300 -0.46100 33.59700
C  24.45500 -0.59000 32.06600
C  23.68000 -1.57700 34.21200
C  26.54300 0.77600 34.59600
C  25.94400 1.17000 35.92000
H  26.89500 1.30400 37.13800
N  24.02900 -0.65000 28.98800
C  23.03500 -0.68800 29.92500
C  21.76600 -0.66700 29.34800
C  21.99600 -0.47000 27.90600
C  23.46200 -0.64800 27.72300
C  20.52900 -0.56300 30.21000
C  20.98200 -0.32700 26.79500
O  21.30700 -0.09500 25.58300
C  19.48800 -0.29900 27.11600
N  26.45500 -1.17000 27.26100
C  25.54800 -0.84500 26.34400
C  26.18000 -0.71700 24.93000
C  27.67300 -0.73800 25.25800
C  27.68000 -1.09600 26.76400
C  25.71500 -1.92600 24.03000
C  28.46200 0.55800 24.90700
C  29.84100 0.37800 24.15500
N  28.05400 -1.11600 29.72000
C  29.10400 -1.28600 28.86200
C  30.36100 -1.30300 29.60000
C  30.00100 -1.20800 30.93500
C  28.56300 -1.07000 30.92800
C  31.71100 -1.38300 28.96500
C  30.51500 -1.19500 32.33700
O  31.65400 -1.52900 32.73400
C  29.24000 -0.89400 33.22900
C  29.08000 -1.84800 34.37500
O  28.62900 -2.95300 34.28100
O  29.52600 -1.25200 35.55700
C  29.41300 -2.12500 36.72700
H  22.40500 -0.47900 31.96600
H  23.79500 -0.68600 25.57600
H  29.80700 -1.15800 26.84400
H  26.41200 -1.29100 34.58800
H  24.09500 0.49300 33.94200
H  24.17800 -2.29800 34.86000
H  23.11800 -2.18100 33.50000
H  22.98400 -1.26300 34.99000
H  26.46500 1.62500 33.91600
H  27.58500 0.57300 34.84300
H  25.04200 0.59100 36.12000
H  25.45600 2.13600 35.78500
H  19.82500 -1.31600 29.85700
H  20.20800 0.46600 30.04500
H  20.47400 -0.72900 31.28600
H  18.96200 0.22900 26.32100
H  19.25100 0.26700 28.01700
H  19.18700 -1.33100 27.29700
H  25.82700 0.25500 24.58600
H  28.19100 -1.50600 24.68400
H  26.58600 -2.41600 23.59500
H  25.04500 -1.63900 23.21900
H  25.20100 -2.70200 24.59600
H  28.72400 1.12700 25.79900
H  27.87800 1.15700 24.20800
H  29.70700 0.33000 23.07400
H  30.18600 -0.63400 24.36900
H  30.65100 1.06800 24.38900
H  31.78200 -2.32700 28.42600
H  32.37700 -1.34600 29.82700
H  31.91800 -0.61600 28.21800
H  29.36100 0.12900 33.58400
H  30.12000 -1.78200 37.48200
H  29.61900 -3.17200 36.50500
H  28.38700 -1.92600 37.03600
Mg 35.12100 49.20600 24.87900
C  35.24600 47.40100 27.85400
C  33.92800 51.85000 26.44900
C  34.79800 50.62600 21.78600
C  36.35800 46.26000 23.24800
N  34.57100 49.57900 26.91400
C  34.86300 48.71500 27.97100
C  34.52700 49.44500 29.29800
C  34.00400 50.80400 28.84500
C  34.17100 50.75200 27.34400
C  32.54100 51.11700 29.29300
C  35.83400 49.45500 30.24400
C  35.61900 49.09200 31.72600
H  34.20500 49.25100 32.29500
N  34.39900 50.95100 24.23400
C  34.14500 51.97700 25.06600
C  33.99300 53.19500 24.25900
C  34.08400 52.80300 22.92900
C  34.43700 51.35500 22.89800
C  33.66500 54.54400 24.87700
C  33.88000 53.70200 21.76400
O  33.83200 53.24700 20.62100
C  33.64600 55.20400 21.83300
N  35.57000 48.54000 22.78200
C  35.27900 49.29200 21.75600
C  35.50900 48.57700 20.38800
C  36.22900 47.27800 20.87700
C  36.07000 47.34400 22.36000
C  34.22200 48.26200 19.65200
C  37.72200 47.01600 20.44100
C  38.70300 48.07700 20.98700
N  35.66100 47.23800 25.38800
C  36.10000 46.13200 24.64700
C  36.29400 45.03300 25.55200
C  35.95700 45.44500 26.76800
C  35.65800 46.85000 26.63400
C  36.84600 43.70400 25.16700
C  35.89200 45.10800 28.18400
O  36.21200 44.08100 28.75500
C  35.53100 46.37700 28.94100
C  34.40100 45.93100 29.66600
O  33.27500 45.93000 29.15500
O  34.61200 45.56600 30.93900
C  33.39000 45.20700 31.66000
H  33.59200 52.78400 26.90300
H  34.97300 51.25200 20.90700
H  36.48300 45.27600 22.79300
H  33.72900 48.87900 29.77900
H  34.64000 51.63000 29.16400
H  32.15100 50.36600 29.97900
H  31.85900 51.37300 28.48200
H  32.70500 52.01600 29.88900
H  36.34100 50.42000 30.23600
H  36.50800 48.73500 29.77900
H  36.32200 49.61400 32.37500
H  35.90600 48.06800 31.96400
H  34.41300 55.23900 24.49500
H  33.86200 54.54100 25.94900
H  32.64000 54.79600 24.60700
H  34.33700 55.68600 22.52500
H  32.59400 55.36200 22.07000
H  33.81100 55.70700 20.88000
H  36.15200 49.19000 19.75600
H  35.69100 46.40200 20.51300
H  33.35700 48.87500 19.90200
H  33.91000 47.21700 19.66700
H  34.34200 48.54000 18.60500
H  37.71500 47.05600 19.35100
H  37.98900 46.09100 20.95300
H  39.48600 47.61500 21.58900
H  38.27000 48.90400 21.55000
H  39.34200 48.56700 20.25300
H  37.60800 43.42000 25.89200
H  37.31100 43.93500 24.20800
H  35.94500 43.10200 25.04200
H  36.36500 46.67900 29.57400
H  32.91200 44.26600 31.38700
H  32.58600 45.94300 31.67500
H  33.73400 45.23400 32.69400

