158

Mg 24.09100 -5.79100 45.10800
C  26.38500 -3.52000 43.74300
C  21.78900 -4.38000 43.05600
C  22.26200 -8.53100 45.45700
C  26.79800 -7.34700 46.70900
N  24.09700 -4.06200 43.65900
C  25.13800 -3.32700 43.20800
C  24.75200 -2.50100 41.99800
C  23.20100 -2.51500 42.14800
C  23.02900 -3.77700 42.95900
C  22.44300 -1.22700 42.63000
C  25.32800 -2.94300 40.64100
C  26.10000 -1.92800 39.77600
H  25.78900 -1.89500 38.22600
N  22.17600 -6.31800 44.60500
C  21.35600 -5.56700 43.72800
C  20.09400 -6.31400 43.52500
C  20.21100 -7.52800 44.25400
C  21.52500 -7.47000 44.85900
C  19.02900 -5.87300 42.53200
C  19.07400 -8.55200 44.38300
O  18.09100 -8.40800 43.65800
C  19.10300 -9.71900 45.28300
N  24.49600 -7.59800 45.91000
C  23.58500 -8.60800 45.97200
C  24.11400 -9.86100 46.60100
C  25.46800 -9.41200 46.99800
C  25.65100 -8.05500 46.54500
C  23.26700 -10.56300 47.78700
C  26.66200 -10.36900 46.68400
C  27.43800 -10.87900 47.91500
N  26.15100 -5.45300 45.31800
C  27.09400 -6.14100 46.05900
C  28.29100 -5.40900 45.98600
C  28.04100 -4.41700 45.10200
C  26.76000 -4.50000 44.61700
C  29.60900 -5.75000 46.56800
C  28.72100 -3.28500 44.54300
O  29.82800 -2.84800 44.64300
C  27.63100 -2.70800 43.48000
C  27.40100 -1.26300 43.73600
O  26.63500 -0.76500 44.64100
O  28.16900 -0.52300 42.85600
C  28.11800 0.93800 42.91000
H  21.04800 -3.99500 42.35200
H  21.75600 -9.49400 45.55200
H  27.53600 -7.97300 47.21600
H  25.17600 -1.50700 42.14300
H  22.75600 -2.61700 41.15800
H  21.61800 -0.96700 41.96700
H  23.18600 -0.43300 42.71200
H  21.95300 -1.44600 43.57800
H  24.46900 -3.32000 40.08600
H  25.85400 -3.88700 40.78500
H  27.15700 -2.11400 39.96300
H  25.92200 -0.92500 40.16600
H  18.04600 -5.90400 43.00300
H  18.98200 -6.52900 41.66300
H  19.17800 -4.87000 42.13200
H  18.10500 -10.09600 45.50400
H  19.72500 -9.48000 46.14500
H  19.56400 -10.57400 44.78800
H  24.09900 -10.67100 45.87100
H  25.30100 -9.27800 48.06600
H  23.09400 -11.62100 47.58900
H  22.27200 -10.13000 47.89300
H  23.76700 -10.37400 48.73600
H  27.42400 -9.89600 46.06600
H  26.30500 -11.28400 46.21000
H  27.35000 -10.17900 48.74700
H  28.48600 -10.75700 47.64400
H  27.16800 -11.87800 48.25800
H  29.37400 -6.40600 47.40600
H  30.23600 -4.89100 46.80800
H  30.19700 -6.34500 45.86900
H  27.98300 -2.81800 42.45400
H  27.15000 1.27400 42.54000
H  28.85800 1.39200 42.25100
H  28.29800 1.16600 43.96100
Mg 48.33300 34.64900 27.17900
C  46.33200 33.33800 29.63700
C  48.90800 37.47600 29.06400
C  50.08400 35.91100 24.52600
C  47.32600 31.89200 25.04200
N  47.82700 35.22800 29.11900
C  47.05700 34.47900 30.07100
C  47.06900 35.13000 31.43700
C  47.38900 36.63000 31.00100
C  48.14300 36.51400 29.66700
C  46.25800 37.65400 30.97000
C  48.07600 34.53100 32.40600
C  47.67500 34.53600 33.91600
H  46.68200 35.62000 34.51700
N  49.50300 36.38700 26.90900
C  49.61500 37.38800 27.85800
C  50.60500 38.37900 27.34000
C  50.97000 37.94500 25.99800
C  50.18200 36.71300 25.72300
C  51.05100 39.50700 28.10900
C  51.87700 38.61500 24.95800
O  52.06200 38.13800 23.85200
C  52.70300 39.80600 25.34600
N  48.53800 34.08300 24.97700
C  49.35900 34.74400 24.12000
C  49.43000 34.03600 22.79300
C  48.62000 32.75700 23.02500
C  48.04200 32.93100 24.44400
C  49.09800 34.89200 21.60900
C  49.39300 31.41200 22.84800
C  49.39100 30.96100 21.41900
N  47.08900 32.98000 27.21800
C  46.85500 31.95700 26.38400
C  46.02400 31.02700 27.03600
C  45.63700 31.59700 28.23900
C  46.42300 32.71100 28.34800
C  45.37700 29.81900 26.39900
C  44.84800 31.41800 29.43300
O  43.91000 30.62100 29.60200
C  45.18700 32.62400 30.37200
C  45.52500 32.10700 31.66600
O  46.22100 31.09700 31.75200
O  44.70700 32.63300 32.63900
C  44.46400 31.85000 33.82700
H  48.94700 38.43100 29.59300
H  50.72100 36.24600 23.70500
H  47.07200 30.92300 24.60800
H  46.12100 35.27900 31.95300
H  48.20100 37.12400 31.53300
H  46.07900 38.06900 29.97800
H  46.60700 38.51900 31.53300
H  45.28100 37.32600 31.32400
H  49.06600 34.91000 32.14800
H  48.02700 33.47800 32.12800
H  48.55300 34.60000 34.55800
H  47.31400 33.57600 34.28500
H  50.35000 39.81700 28.88400
H  51.28500 40.40500 27.53600
H  51.95600 39.15500 28.60500
H  53.25000 39.58000 26.26100
H  52.14100 40.70200 25.61000
H  53.35800 39.96800 24.49000
H  50.49500 33.83000 22.68800
H  47.79700 32.83700 22.31600
H  48.52000 35.75200 21.95000
H  48.62500 34.28900 20.83400
H  50.05000 35.22200 21.19300
H  48.95900 30.63800 23.47900
H  50.41900 31.56500 23.18100
H  49.12800 31.78100 20.75100
H  48.73800 30.09500 21.30400
H  50.40800 30.59700 21.27300
H  46.06700 29.09400 25.96800
H  44.80800 30.06800 25.50400
H  44.64800 29.34300 27.05500
H  44.40000 33.37700 30.34100
H  43.85100 32.55400 34.38900
H  45.32000 31.52800 34.42000
H  43.81400 31.01400 33.56800

