158

Mg 8.76700 3.97800 28.02000
C  10.15500 2.18700 30.81300
C  6.93900 5.81300 30.34400
C  7.24600 5.44500 25.57600
C  10.16100 1.56300 25.94800
N  8.58600 3.97600 30.37000
C  9.39000 3.21800 31.23800
C  9.18100 3.74800 32.64800
C  7.98500 4.78400 32.45600
C  7.75500 4.83400 30.96000
C  6.67900 4.29800 33.15700
C  10.47000 4.52300 33.23600
C  10.34100 5.20300 34.60000
H  11.14800 4.57500 35.68100
N  7.33900 5.54300 27.96400
C  6.70800 6.13900 28.98200
C  5.84900 7.12500 28.51700
C  5.93700 7.06400 27.05700
C  6.89000 6.02700 26.79600
C  5.13300 8.04900 29.43900
C  5.17400 7.91300 25.98700
O  5.32000 7.73100 24.76700
C  4.29500 9.02000 26.41200
N  8.59100 3.44600 26.04200
C  7.99500 4.30000 25.21400
C  8.37200 3.97500 23.69800
C  9.41800 2.75800 23.84900
C  9.42200 2.61500 25.39300
C  7.10300 3.69600 22.81400
C  10.88300 3.13800 23.35200
C  11.51400 2.25400 22.15000
N  9.92600 2.23900 28.29900
C  10.37100 1.46800 27.29600
C  11.32500 0.47700 27.83700
C  11.17500 0.68800 29.27200
C  10.31400 1.78300 29.47300
C  12.10700 -0.62000 27.12400
C  11.67200 0.27300 30.52400
O  12.34300 -0.67300 30.87100
C  11.06300 1.26600 31.54700
C  10.33000 0.55800 32.70800
O  9.36600 -0.19800 32.68200
O  11.03200 0.90800 33.83500
C  10.42500 0.41700 35.06500
H  6.53900 6.43000 31.15100
H  6.85700 6.00300 24.72300
H  10.69300 0.78700 25.39400
H  8.88500 2.93100 33.30500
H  8.18000 5.77100 32.87400
H  6.66800 4.71700 34.16300
H  6.79000 3.21600 33.23400
H  5.74100 4.48400 32.63400
H  10.63800 5.32400 32.51600
H  11.31500 3.83500 33.24400
H  9.31300 5.33900 34.93500
H  10.75100 6.19700 34.42300
H  4.08100 7.86000 29.22600
H  5.40300 9.10300 29.37600
H  5.16400 7.78300 30.49500
H  3.91600 9.44500 25.48200
H  4.96800 9.74200 26.87400
H  3.47800 8.70300 27.06000
H  8.84500 4.87500 23.30400
H  8.89800 1.89200 23.43800
H  6.16700 3.76900 23.36800
H  7.19400 2.75700 22.26900
H  7.11600 4.40100 21.98300
H  11.64800 3.00400 24.11700
H  10.95200 4.17700 23.03100
H  10.89000 1.36400 22.06900
H  12.53600 1.90700 22.30200
H  11.62400 2.81900 21.22500
H  13.06000 -0.14000 26.90100
H  11.66100 -0.84300 26.15500
H  12.24700 -1.50200 27.74700
H  11.88600 1.85800 31.94800
H  9.34700 0.47400 35.21100
H  10.82900 0.99800 35.89500
H  10.79100 -0.60300 35.17700
Mg 45.43300 5.00500 48.35500
C  43.48100 7.76800 47.78500
C  42.69900 3.09300 47.55500
C  47.45900 2.29800 48.35800
C  48.22500 7.04800 48.66000
N  43.31600 5.38800 47.64400
C  42.75900 6.59700 47.56000
C  41.31300 6.48100 47.19800
C  41.07800 4.92600 47.39000
C  42.46900 4.43700 47.58900
C  39.91500 4.42500 48.24000
C  40.94900 6.95900 45.66700
C  39.76900 7.92400 45.40100
H  38.98500 7.49300 44.08600
N  45.15000 2.97200 47.98600
C  43.93700 2.41000 47.70000
C  44.12700 0.98900 47.47300
C  45.50400 0.70600 47.64800
C  46.13600 1.96100 48.01600
C  43.04100 0.06900 47.24900
C  46.13300 -0.72500 47.53800
O  45.50500 -1.67900 47.26500
C  47.61500 -0.91700 47.74600
N  47.51700 4.70800 48.51900
C  48.03600 3.48800 48.59400
C  49.51300 3.54300 48.91500
C  49.81800 5.07200 48.92400
C  48.44300 5.65500 48.68800
C  49.80400 2.83700 50.26600
C  50.80800 5.53100 47.79900
C  52.19700 6.12100 48.29000
N  45.80100 7.00800 48.36300
C  46.96200 7.69600 48.54700
C  46.77800 9.14700 48.32900
C  45.35400 9.22300 48.10600
C  44.88700 7.87000 48.07900
C  47.85400 10.27900 48.43600
C  44.17000 10.11100 47.98900
O  44.05100 11.33600 48.01300
C  42.93300 9.16800 47.62300
C  41.83800 9.50500 48.57100
O  41.56000 8.87300 49.56800
O  41.09400 10.59400 48.08600
C  40.21900 11.05600 49.19000
H  41.77400 2.53100 47.41300
H  48.17200 1.47500 48.43100
H  49.07500 7.67600 48.93600
H  40.79000 7.12700 47.90300
H  40.85700 4.54700 46.39300
H  39.41400 5.32400 48.59900
H  40.07500 3.67200 49.01100
H  39.09700 3.97500 47.67700
H  40.76300 6.09500 45.03100
H  41.86600 7.42200 45.30300
H  40.10900 8.95900 45.38200
H  39.02900 7.75400 46.18300
H  42.77300 -0.19400 48.27200
H  43.39300 -0.82800 46.74000
H  42.14800 0.45500 46.75500
H  47.85500 -0.96600 48.80800
H  48.14300 -0.24100 47.07400
H  47.68600 -1.90300 47.28900
H  50.10100 3.05000 48.14100
H  50.15600 5.56000 49.83800
H  49.73500 1.74900 50.24500
H  49.07300 3.25700 50.95700
H  50.76500 3.15000 50.67400
H  50.30300 6.11800 47.03200
H  51.08300 4.68800 47.16500
H  52.95000 5.33300 48.27300
H  52.09300 6.42800 49.33100
H  52.40300 6.93000 47.59000
H  48.85600 10.05100 48.07300
H  47.84600 10.35200 49.52300
H  47.56100 11.21000 47.95000
H  42.70600 9.42200 46.58800
H  39.46100 10.28300 49.31400
H  39.78400 12.00400 48.87600
H  40.86600 11.26400 50.04300

