158

Mg 2.58900 -1.10100 43.89000
C  6.01300 -0.59200 43.18400
C  1.78700 1.57900 41.83200
C  -0.54900 -2.23100 43.70900
C  3.57300 -4.29100 45.05900
N  3.79600 0.27700 42.58700
C  5.19100 0.33400 42.57800
C  5.62900 1.59000 41.75700
C  4.27300 2.36500 41.51000
C  3.18300 1.36600 42.00000
C  4.11900 3.85100 42.05900
C  6.40800 1.27100 40.46300
C  5.92700 0.29700 39.40900
H  5.91100 0.80200 38.02100
N  0.80000 -0.29000 43.01800
C  0.68500 0.77700 42.19300
C  -0.65300 0.93500 41.81300
C  -1.39600 -0.04300 42.52100
C  -0.39900 -0.96700 43.11500
C  -1.22000 2.13000 41.02900
C  -2.88200 -0.08800 42.64400
O  -3.61100 0.72700 42.02800
C  -3.57800 -1.04200 43.57700
N  1.69900 -2.95800 44.34500
C  0.42300 -3.09100 44.21300
C  -0.01900 -4.51200 44.66700
C  1.24700 -5.17600 45.12400
C  2.23700 -4.06900 44.85800
C  -1.25800 -4.65600 45.57900
C  1.57400 -6.57300 44.53600
C  0.43600 -7.53400 44.11500
N  4.42500 -2.12700 44.36600
C  4.63500 -3.36600 44.90200
C  6.04000 -3.54500 45.16700
C  6.68100 -2.49500 44.45600
C  5.63100 -1.68000 43.98100
C  6.62300 -4.70600 45.91800
C  7.95700 -1.91400 44.06800
O  9.14000 -2.20900 44.23600
C  7.52100 -0.58000 43.21000
C  8.15700 0.58900 43.97400
O  7.74600 1.08000 44.96800
O  9.24000 0.94900 43.28300
C  9.79000 2.25700 43.55800
H  1.60100 2.51900 41.30700
H  -1.59000 -2.53600 43.57600
H  3.82000 -5.32800 45.29400
H  6.39200 2.13800 42.30900
H  4.02900 2.34700 40.44700
H  4.35000 4.64100 41.34600
H  4.90500 3.86500 42.81500
H  3.17100 3.85600 42.59700
H  7.36200 0.84900 40.77700
H  6.74500 2.21500 40.03400
H  4.93300 0.03000 39.76800
H  6.58800 -0.56800 39.45500
H  -1.64100 2.85100 41.72900
H  -1.90200 1.82300 40.23600
H  -0.46000 2.71500 40.51000
H  -3.62900 -2.01100 43.08100
H  -4.53300 -0.61800 43.89000
H  -2.94500 -0.96200 44.46100
H  -0.22300 -4.90600 43.67200
H  1.30100 -5.36200 46.19700
H  -1.64500 -3.63800 45.53600
H  -1.01500 -4.93600 46.60400
H  -1.99400 -5.34500 45.16300
H  2.29600 -7.08100 45.17600
H  2.07000 -6.43600 43.57500
H  -0.55300 -7.09600 44.24800
H  0.59400 -8.41900 44.73100
H  0.50600 -7.92000 43.09800
H  6.99700 -5.38100 45.14700
H  5.89800 -5.26400 46.51000
H  7.54500 -4.56300 46.48100
H  7.98300 -0.74700 42.23600
H  9.04500 3.02300 43.34100
H  10.52100 2.41800 42.76600
H  10.13900 2.28300 44.59000
Mg 44.19500 3.23600 47.64600
C  42.06700 5.83000 46.71500
C  41.58200 1.07000 47.44800
C  46.35000 0.58500 47.86200
C  46.90900 5.43700 47.44000
N  42.01400 3.49000 47.19300
C  41.38300 4.61900 46.77000
C  39.94000 4.30500 46.52700
C  39.79100 2.87000 47.21200
C  41.25400 2.41300 47.23100
C  39.14200 2.78500 48.65700
C  39.65800 4.30900 44.93600
C  38.45300 5.12700 44.47000
H  38.64900 6.22300 43.41500
N  43.90200 1.07300 47.73600
C  42.80800 0.45700 47.58200
C  42.98700 -0.99500 47.68400
C  44.39200 -1.17100 47.73100
C  44.97900 0.23400 47.80100
C  41.87400 -2.01000 47.52800
C  45.10500 -2.56300 47.68100
O  44.49000 -3.59800 47.73300
C  46.53100 -2.65300 47.57500
N  46.32400 3.06800 47.61300
C  46.98200 1.90400 47.85700
C  48.51500 2.02900 48.11300
C  48.64800 3.58700 47.99100
C  47.23300 4.09800 47.65500
C  48.88100 1.34700 49.52000
C  49.68000 4.05500 46.92600
C  50.73400 5.08900 47.21900
N  44.46900 5.15600 47.27000
C  45.64200 5.85000 47.12500
C  45.32900 7.23700 46.81600
C  43.94100 7.33300 46.79600
C  43.42100 6.06500 47.00600
C  46.39800 8.32400 46.76100
C  42.81000 8.20600 46.59400
O  42.74400 9.43100 46.51300
C  41.50100 7.20500 46.49700
C  40.66700 7.61900 47.65800
O  40.42300 6.82700 48.54300
O  40.11400 8.84500 47.55900
C  38.93500 8.95700 48.40400
H  40.77100 0.34200 47.38200
H  47.01500 -0.27200 47.98600
H  47.75700 6.12500 47.46700
H  39.26900 4.98700 47.05000
H  39.26700 2.20300 46.52700
H  39.06100 3.76200 49.13500
H  39.72500 2.15900 49.33200
H  38.16500 2.33200 48.48900
H  39.27700 3.31000 44.72400
H  40.52400 4.47800 44.29500
H  37.96500 5.65200 45.29200
H  37.65200 4.54600 44.01200
H  42.17000 -2.96700 47.09800
H  41.23200 -1.57800 46.76100
H  41.35100 -2.17500 48.47000
H  46.84600 -2.06400 46.71400
H  46.72800 -3.70000 47.34400
H  46.91700 -2.32000 48.53800
H  49.08100 1.54200 47.31900
H  48.92000 4.06600 48.93200
H  49.32600 2.14900 50.11000
H  49.47700 0.43700 49.44300
H  47.97300 1.10100 50.07000
H  49.20900 4.32700 45.98100
H  50.21300 3.14100 46.66600
H  51.73900 4.66600 47.21500
H  50.61900 5.61200 48.16800
H  50.78600 5.78600 46.38200
H  46.97100 8.24800 47.68500
H  45.97800 9.31600 46.93100
H  46.97100 8.22500 45.83900
H  40.99800 7.04300 45.54400
H  38.10500 8.38900 47.98500
H  38.57800 9.98700 48.42700
H  39.17000 8.78400 49.45400

