158

Mg 36.01300 3.24400 30.30500
C  33.36200 3.93700 32.64100
C  38.12500 2.98200 32.85700
C  38.27200 2.68800 28.05300
C  33.50500 3.34100 27.72300
N  35.72700 3.42300 32.52000
C  34.59300 3.68300 33.21200
C  34.90700 3.51400 34.69500
C  36.45400 3.44600 34.77400
C  36.80100 3.24100 33.30900
C  37.13400 4.65000 35.46900
C  34.25900 2.22500 35.30900
C  34.07300 2.34100 36.78800
H  34.89100 3.29000 37.68000
N  37.96600 2.97000 30.43600
C  38.67600 2.89400 31.56700
C  40.10100 2.65600 31.20700
C  40.10000 2.48800 29.77200
C  38.75000 2.74500 29.35600
C  41.15400 2.53300 32.28100
C  41.23000 1.98600 28.94400
O  41.20100 1.90200 27.71100
C  42.62700 1.68400 29.53200
N  35.88600 3.22700 28.16200
C  37.02500 2.96400 27.41300
C  36.68600 2.55200 25.96600
C  35.16400 2.56500 25.99400
C  34.80200 3.11300 27.34700
C  37.51000 3.42800 24.92000
C  34.51600 1.16000 25.65200
C  33.56500 0.93500 24.38200
N  33.87900 3.66000 30.14800
C  32.98700 3.69900 29.04400
C  31.64900 3.95700 29.51000
C  31.79500 4.06300 30.90700
C  33.13600 3.86400 31.25200
C  30.45000 4.16000 28.66100
C  31.01900 4.28500 32.09100
O  29.87500 4.58600 32.23700
C  32.02700 4.12500 33.31500
C  32.07600 5.41500 33.99800
O  32.29900 6.52400 33.52500
O  31.79800 5.19600 35.35000
C  31.88700 6.43300 36.18400
H  38.81300 2.71300 33.66000
H  39.13000 2.49000 27.40700
H  32.69900 3.24100 26.99300
H  34.65500 4.43700 35.21700
H  36.79300 2.50500 35.20800
H  36.56200 5.55400 35.26100
H  38.04300 4.92100 34.93000
H  37.23800 4.45600 36.53600
H  35.02800 1.47500 35.12800
H  33.32500 1.94800 34.82100
H  34.30100 1.35800 37.20000
H  33.02700 2.63300 36.87800
H  42.18200 2.44500 31.93100
H  41.04200 1.57500 32.78900
H  40.99900 3.28500 33.05500
H  43.34800 1.41600 28.75900
H  42.57100 0.84000 30.21900
H  43.05000 2.61500 29.91000
H  37.08400 1.53700 25.98700
H  34.75600 3.26600 25.26500
H  36.85200 3.99700 24.26300
H  38.04600 2.75600 24.25000
H  38.19200 4.12800 25.40200
H  34.22800 0.75200 26.62100
H  35.21400 0.39700 25.30800
H  33.97400 0.08600 23.83400
H  33.54900 1.77500 23.68700
H  32.53400 0.66600 24.61100
H  29.86500 3.25400 28.82300
H  30.53000 4.23300 27.57700
H  29.88200 5.04600 28.94500
H  31.81300 3.35100 34.05200
H  32.73900 7.02500 35.85100
H  32.02600 6.11700 37.21800
H  31.00300 7.06500 36.09400
Mg 0.08000 43.63700 25.60800
C  2.00900 43.92600 28.33500
C  -2.78500 43.43000 27.54000
C  -1.66200 42.78000 22.83400
C  3.03100 43.98100 23.65600
N  -0.38700 43.79800 27.68800
C  0.58800 43.88300 28.65800
C  0.01800 43.94700 30.07800
C  -1.48800 43.62000 29.79700
C  -1.59200 43.66400 28.23700
C  -2.12000 42.39200 30.44200
C  0.28400 45.34500 30.76300
C  0.84000 45.31400 32.20300
H  0.44000 44.15600 33.17600
N  -1.94400 43.18600 25.21100
C  -2.99900 43.14100 26.16400
C  -4.23100 42.64900 25.52100
C  -3.88600 42.48900 24.14100
C  -2.44100 42.70300 24.01600
C  -5.49100 42.46600 26.35100
C  -4.83300 42.02500 22.96100
O  -4.43600 41.88700 21.76400
C  -6.21000 41.84200 23.15700
N  0.62100 43.43300 23.52800
C  -0.29900 43.18200 22.58500
C  0.41500 43.11000 21.20000
C  1.68900 44.00200 21.40300
C  1.80500 43.83000 22.92600
C  0.56500 41.67900 20.71600
C  1.60400 45.47600 20.80300
C  1.47000 46.77700 21.69700
N  2.11300 43.93800 25.88000
C  3.15300 44.01000 25.01800
C  4.43300 44.12600 25.77300
C  4.03600 44.08500 27.13200
C  2.63800 44.03500 27.07800
C  5.87700 44.18200 25.28400
C  4.46900 44.04000 28.51800
O  5.55600 43.99300 29.07200
C  3.11100 43.93600 29.40700
C  3.11000 42.65300 30.29300
O  3.12900 41.45100 29.96500
O  3.50500 43.11400 31.52400
C  3.83800 42.12800 32.50600
H  -3.70200 43.37700 28.13100
H  -2.16500 42.52900 21.89800
H  3.95300 44.16100 23.09800
H  0.42100 43.09300 30.62400
H  -2.02600 44.48700 30.18100
H  -2.19900 41.67700 29.62300
H  -3.10500 42.76300 30.72400
H  -1.56700 41.90500 31.24400
H  -0.59000 45.98700 30.66000
H  0.90500 45.96600 30.11800
H  0.60200 46.26500 32.68000
H  1.90900 45.17400 32.04300
H  -5.36200 41.54500 26.92100
H  -6.39000 42.41800 25.73600
H  -5.70300 43.14800 27.17400
H  -6.68300 41.56900 22.21300
H  -6.65800 42.78600 23.46700
H  -6.29800 41.00300 23.84700
H  -0.20100 43.56700 20.42500
H  2.55200 43.48100 20.98800
H  0.26700 40.93500 21.45500
H  1.54700 41.41300 20.32500
H  -0.19700 41.47400 19.96400
H  0.80200 45.49600 20.06600
H  2.54300 45.55500 20.25500
H  1.80900 46.55700 22.70900
H  0.42500 47.08300 21.74600
H  2.16300 47.49000 21.25200
H  6.06500 43.27300 24.71300
H  6.60300 44.34200 26.08100
H  6.11000 45.01400 24.61900
H  3.04100 44.82300 30.03600
H  3.44000 41.12400 32.35600
H  3.54100 42.57000 33.45700
H  4.92400 42.17400 32.57600

