158

Mg 7.03500 53.09100 41.00700
C  6.50100 49.58100 40.99500
C  10.22600 52.66600 40.03000
C  7.05100 56.37600 40.27600
C  3.51600 53.37200 41.72600
N  8.12100 51.33600 40.24100
C  7.80300 49.98600 40.49500
C  9.09100 49.14300 40.37900
C  10.21900 50.23600 40.33300
C  9.48000 51.52800 40.14800
C  11.06000 50.17700 41.63500
C  9.12900 48.00200 39.27700
C  9.26300 48.57600 37.83200
H  8.22100 47.97900 36.77900
N  8.45700 54.39700 40.23700
C  9.75800 54.06800 39.93200
C  10.47000 55.22100 39.46800
C  9.57900 56.32600 39.57200
C  8.28000 55.77700 40.03100
C  11.92100 55.13700 39.08000
C  9.92600 57.73800 39.22900
O  11.07300 58.03400 38.96900
C  8.94500 58.84100 39.13300
N  5.51400 54.52600 40.87400
C  5.80000 55.82400 40.70900
C  4.57400 56.78100 41.01200
C  3.46500 55.72900 41.34600
C  4.23600 54.42200 41.38600
C  4.93400 57.75800 42.17100
C  2.34200 55.74700 40.29200
C  0.99600 56.20900 40.79200
N  5.25100 51.79800 41.31800
C  3.96900 52.04600 41.67900
C  3.25700 50.84900 41.92300
C  4.20100 49.80500 41.79000
C  5.40100 50.42700 41.31600
C  1.80500 50.68500 42.22400
C  4.45200 48.36500 41.83900
O  3.61700 47.51800 42.08100
C  5.96500 48.20400 41.27800
C  5.85500 47.37900 39.99600
O  5.71900 47.80000 38.85000
O  6.08900 46.06600 40.27000
C  6.09400 45.06200 39.13700
H  11.29200 52.46200 39.90800
H  7.01700 57.46500 40.20400
H  2.49000 53.59200 42.02800
H  9.14100 48.58800 41.31600
H  10.80800 49.96200 39.45700
H  10.72500 49.37500 42.29300
H  10.92300 51.09800 42.20100
H  12.12900 50.13000 41.42900
H  8.20600 47.42200 39.30100
H  10.06400 47.44300 39.31900
H  10.20800 48.39800 37.31900
H  9.27100 49.65700 37.97700
H  12.24600 54.10900 38.92100
H  12.52900 55.48200 39.91600
H  12.23900 55.74300 38.23100
H  8.87200 59.42000 40.05300
H  7.96500 58.58100 38.73400
H  9.35100 59.61500 38.48200
H  4.21400 57.37900 40.17500
H  2.93400 55.81500 42.29400
H  5.90500 57.70500 42.66300
H  4.02200 57.72900 42.76700
H  5.01500 58.78000 41.80000
H  2.08700 54.74500 39.94800
H  2.49900 56.42800 39.45600
H  1.04500 56.59000 41.81200
H  0.34600 55.33400 40.78800
H  0.42000 56.93200 40.21500
H  1.40900 51.59700 42.67100
H  1.77800 49.83700 42.90900
H  1.13400 50.37800 41.42300
H  6.47000 47.52700 41.96700
H  7.14000 44.76400 39.06300
H  6.01800 45.56300 38.17200
H  5.53600 44.12800 39.07800
Mg -12.10800 37.47900 41.94600
C  -9.65100 35.08900 41.62000
C  -9.56800 39.85400 40.63400
C  -14.50200 39.83600 41.63500
C  -14.39600 35.17500 42.92200
N  -9.97200 37.39900 40.98900
C  -9.18100 36.35100 41.15200
C  -7.83100 36.61500 40.57000
C  -7.72300 38.13200 40.54000
C  -9.23900 38.51400 40.64200
C  -6.96000 38.80100 41.66800
C  -7.72700 36.00400 39.12200
C  -6.65000 35.02900 38.73600
H  -5.67900 35.43200 37.64400
N  -12.07300 39.52500 41.13200
C  -10.94700 40.34000 40.81100
C  -11.35400 41.73700 40.73700
C  -12.76700 41.71100 40.82300
C  -13.18200 40.29800 41.25000
C  -10.52400 42.96700 40.43400
C  -13.64300 42.98100 40.70300
O  -13.15300 44.11000 40.55000
C  -15.14500 42.84300 40.66700
N  -14.26800 37.40400 42.01100
C  -14.98200 38.52300 41.98600
C  -16.40900 38.28000 42.52400
C  -16.33900 36.82300 43.07000
C  -14.92000 36.41200 42.64200
C  -16.88600 39.40300 43.55700
C  -17.41400 35.81600 42.58600
C  -18.40800 35.40600 43.78600
N  -12.04900 35.50000 42.12900
C  -13.05200 34.67600 42.69400
C  -12.46400 33.39600 42.95100
C  -11.14300 33.50100 42.48000
C  -10.91900 34.76500 42.07000
C  -13.23800 32.22000 43.60800
C  -9.89200 32.80100 42.33200
O  -9.62900 31.68200 42.66900
C  -8.77900 33.87300 41.92500
C  -7.81500 34.10200 43.05800
O  -6.69900 33.55500 43.11600
O  -8.32900 34.87700 44.15500
C  -7.53400 34.83600 45.39600
H  -8.76600 40.56800 40.43300
H  -15.33400 40.54300 41.65500
H  -15.06000 34.46000 43.41100
H  -7.02300 36.14200 41.12800
H  -7.44800 38.60200 39.59600
H  -7.66200 39.29700 42.33800
H  -6.25700 39.53400 41.27500
H  -6.42000 38.02400 42.20900
H  -7.68900 36.76900 38.34600
H  -8.64300 35.43200 38.97300
H  -7.14000 34.11000 38.41500
H  -6.09100 34.85500 39.65500
H  -10.84900 43.74000 41.13100
H  -10.59600 43.22900 39.37900
H  -9.47700 42.69500 40.56300
H  -15.69500 43.63700 40.16200
H  -15.28800 42.69800 41.73800
H  -15.51800 41.93300 40.19600
H  -17.00400 38.27500 41.61100
H  -16.44900 36.93100 44.14900
H  -15.98400 39.93500 43.85600
H  -17.42400 39.06800 44.44400
H  -17.56300 40.07500 43.02900
H  -16.96100 34.92300 42.15600
H  -17.97700 36.31200 41.79600
H  -18.17100 34.45400 44.26000
H  -19.39000 35.23200 43.34500
H  -18.44900 36.15400 44.57700
H  -13.77400 32.56100 44.49300
H  -12.58900 31.54600 44.16600
H  -13.95500 31.80400 42.89900
H  -8.10800 33.62800 41.10200
H  -7.72100 35.77500 45.91600
H  -6.44800 34.76200 45.33200
H  -7.91300 34.04400 46.04300

