158

Mg 0.62900 42.44300 25.39600
C  2.26800 42.80900 28.61200
C  -2.23400 41.54000 26.98400
C  -0.58400 41.79700 22.34500
C  3.82100 42.86800 24.03600
N  0.12600 42.34000 27.48900
C  0.81700 42.62600 28.66700
C  -0.05700 42.52000 29.92000
C  -1.43500 42.00700 29.36800
C  -1.16200 41.99600 27.84700
C  -1.83500 40.59300 29.95800
C  0.01400 43.93600 30.68500
C  0.51100 43.82100 32.16700
H  0.41100 42.40100 32.90200
N  -1.22500 41.76100 24.69000
C  -2.24800 41.36800 25.51500
C  -3.33900 40.95900 24.66800
C  -2.88900 41.02000 23.31200
C  -1.48300 41.57000 23.37700
C  -4.69400 40.62100 25.35100
C  -3.59900 40.66000 21.95200
O  -3.07700 40.67100 20.80400
C  -4.98500 40.13500 22.16000
N  1.47800 42.38500 23.49100
C  0.73400 42.20500 22.37600
C  1.58300 42.21400 21.11000
C  2.95100 42.69800 21.65400
C  2.74000 42.67800 23.17200
C  1.68800 40.77200 20.45200
C  3.32900 44.11000 21.04700
C  3.37300 45.41000 21.86800
N  2.64300 42.77800 26.11300
C  3.81900 42.84400 25.42000
C  4.91500 42.97500 26.31500
C  4.32400 43.05000 27.58600
C  2.97800 42.80800 27.44200
C  6.34000 43.18100 25.91800
C  4.58100 43.27900 28.94100
O  5.61900 43.57400 29.51300
C  3.24500 43.02800 29.72600
C  3.41800 41.84200 30.62000
O  3.13600 40.68100 30.44200
O  3.99800 42.40700 31.70700
C  4.49000 41.43800 32.78200
H  -3.14500 41.34500 27.55300
H  -0.98800 41.63800 21.34300
H  4.77700 42.88400 23.50700
H  0.39200 41.76600 30.56600
H  -2.28900 42.65300 29.57300
H  -1.62700 40.48700 31.02300
H  -1.37900 39.74800 29.44200
H  -2.91900 40.52700 29.87100
H  -0.97800 44.38600 30.71900
H  0.75300 44.61200 30.25500
H  -0.13100 44.45500 32.77900
H  1.51000 44.25500 32.12200
H  -4.56600 40.62800 26.43300
H  -5.03200 39.59800 25.18600
H  -5.53400 41.24300 25.04000
H  -5.67000 40.72300 22.77100
H  -5.07700 39.23300 22.76500
H  -5.49000 39.90400 21.22100
H  1.10400 42.91900 20.43100
H  3.74800 41.95800 21.57900
H  1.43500 40.03800 21.21700
H  2.69700 40.70100 20.04600
H  0.87700 40.67500 19.73000
H  2.84800 44.25700 20.07900
H  4.38800 43.97200 20.83000
H  4.07600 45.35100 22.69900
H  2.37700 45.61300 22.26200
H  3.69000 46.24800 21.24700
H  6.50000 44.19200 25.54500
H  6.72500 42.47400 25.18300
H  6.96500 43.09100 26.80600
H  3.24000 43.96300 30.28500
H  5.53700 41.63200 33.01400
H  4.39700 40.35600 32.69200
H  3.97700 41.76200 33.68800
Mg -6.14100 25.52300 25.65900
C  -4.55800 26.62500 28.46300
C  -7.91700 23.34700 27.63300
C  -7.59400 24.15100 22.81600
C  -4.51000 27.90800 23.72200
N  -6.27200 25.01400 27.82900
C  -5.50000 25.59100 28.80300
C  -5.95100 25.21000 30.19000
C  -6.63400 23.86000 29.83700
C  -6.97500 24.04900 28.36600
C  -5.82000 22.54200 30.07000
C  -6.83100 26.34600 30.76300
C  -6.90100 26.54200 32.20200
H  -6.09500 25.61100 33.06600
N  -7.53200 23.89700 25.30900
C  -8.17000 23.20300 26.27200
C  -9.10800 22.31400 25.66000
C  -8.83000 22.40400 24.26400
C  -7.97500 23.52600 24.04600
C  -10.00400 21.44200 26.50900
C  -9.30400 21.45400 23.16000
O  -9.06700 21.71800 21.97900
C  -10.17200 20.21700 23.49800
N  -5.99600 25.82900 23.57700
C  -6.69500 25.15800 22.61500
C  -6.40500 25.70500 21.18000
C  -5.66200 27.11000 21.49800
C  -5.35100 26.96300 23.03000
C  -5.51400 24.74500 20.32000
C  -6.38300 28.47300 20.99100
C  -5.63500 29.37100 19.94400
N  -4.68900 26.98700 25.96800
C  -4.13800 27.86200 25.12900
C  -3.20200 28.75400 25.86400
C  -3.36900 28.19200 27.18300
C  -4.31100 27.21100 27.20600
C  -2.19000 29.66800 25.20000
C  -2.82700 28.35100 28.53400
O  -2.00900 29.13000 29.00300
C  -3.62300 27.38500 29.37800
C  -2.66400 26.54400 30.13500
O  -2.14600 25.56400 29.69600
O  -2.45800 27.06800 31.42100
C  -1.49800 26.28900 32.25200
H  -8.46100 22.70600 28.33000
H  -8.12900 23.92300 21.89200
H  -4.19100 28.75200 23.10800
H  -5.11900 24.99600 30.86100
H  -7.49200 23.76400 30.50300
H  -5.54100 22.00600 29.16400
H  -6.40500 21.77200 30.57200
H  -4.85900 22.59700 30.58200
H  -7.87400 26.24000 30.46400
H  -6.59400 27.31000 30.31100
H  -7.91200 26.43900 32.59700
H  -6.68900 27.56900 32.50000
H  -9.89900 20.36000 26.43600
H  -11.02900 21.66500 26.21000
H  -10.11300 21.67900 27.56700
H  -10.31100 19.49000 22.69800
H  -11.09700 20.46600 24.01900
H  -9.59700 19.64600 24.22700
H  -7.36200 25.92200 20.70600
H  -4.67500 26.93700 21.07000
H  -4.84400 24.17200 20.96100
H  -4.89000 25.29000 19.61100
H  -6.21400 24.09800 19.79200
H  -6.42900 29.04400 21.91800
H  -7.33100 28.19800 20.53100
H  -6.11600 30.34400 19.84300
H  -5.63600 28.79700 19.01700
H  -4.65000 29.44900 20.40200
H  -1.75900 29.21600 24.30700
H  -1.34200 29.78900 25.87400
H  -2.53900 30.67400 24.96800
H  -4.26000 27.93800 30.06800
H  -2.09000 26.06200 33.13900
H  -0.64400 26.85700 32.62100
H  -1.03800 25.39300 31.83500

