158

Mg -2.97700 17.63500 26.72900
C  -3.32500 15.31500 29.47900
C  -3.56900 20.14000 28.97700
C  -3.25100 19.75900 24.16800
C  -3.14600 14.88700 24.67500
N  -3.46900 17.69300 29.02000
C  -3.45700 16.62400 29.92100
C  -3.60800 17.12100 31.39500
C  -3.80200 18.66200 31.15200
C  -3.69900 18.87100 29.58900
C  -5.10000 19.18000 31.77700
C  -2.36400 16.79600 32.31500
C  -2.35200 17.64500 33.59100
H  -1.89500 16.95700 34.90300
N  -3.21000 19.66600 26.64100
C  -3.30300 20.52400 27.64500
C  -2.94800 21.84400 27.10600
C  -2.82400 21.78600 25.69000
C  -3.15300 20.41900 25.44200
C  -2.89100 23.07600 28.02200
C  -2.44200 22.88700 24.73600
O  -2.30700 22.65400 23.53800
C  -2.32200 24.30800 25.16000
N  -3.39100 17.34500 24.71400
C  -3.35600 18.36000 23.86700
C  -3.59800 17.90500 22.40000
C  -3.45900 16.29700 22.57900
C  -3.28100 16.14900 24.07800
C  -4.69100 18.58600 21.56100
C  -2.23600 15.75100 21.81900
C  -0.86600 16.31900 22.25600
N  -3.08100 15.54000 26.95900
C  -3.15400 14.57900 26.00500
C  -3.05400 13.25200 26.57400
C  -3.19200 13.52200 27.93700
C  -3.19800 14.92000 28.14000
C  -2.96100 11.97500 25.85400
C  -3.37600 12.83200 29.22500
O  -3.47200 11.68300 29.58100
C  -3.42300 14.01700 30.24600
C  -2.29900 13.77300 31.10600
O  -1.12900 14.02600 30.89800
O  -2.73100 13.08400 32.20800
C  -1.67900 12.77900 33.23100
H  -3.54400 20.96800 29.69000
H  -3.41400 20.41100 23.30700
H  -3.24100 13.98000 24.07300
H  -4.49400 16.63000 31.79800
H  -3.09600 19.36800 31.58900
H  -5.68900 19.64800 30.98800
H  -4.88200 19.92400 32.54300
H  -5.69300 18.42200 32.28800
H  -1.41700 16.76100 31.77900
H  -2.65400 15.83400 32.73700
H  -3.15700 18.36400 33.74600
H  -1.55300 18.34300 33.33800
H  -1.89900 23.52400 27.96300
H  -3.15600 22.90200 29.06500
H  -3.59000 23.88300 27.79900
H  -2.40500 24.92900 24.26800
H  -1.42100 24.31900 25.77400
H  -3.17500 24.57800 25.78200
H  -2.67600 18.24100 21.92600
H  -4.39900 15.83500 22.27800
H  -5.15800 17.98100 20.78400
H  -4.34900 19.54100 21.16100
H  -5.57600 18.79200 22.16300
H  -2.28700 15.86500 20.73700
H  -2.08000 14.69200 22.02600
H  -0.90900 17.13300 22.98000
H  -0.34000 16.61600 21.34900
H  -0.31500 15.52600 22.76300
H  -3.74200 12.02700 25.09500
H  -3.12400 11.17200 26.57200
H  -1.98900 11.91900 25.36400
H  -4.34800 13.95500 30.82000
H  -2.17100 11.90100 33.64900
H  -1.57600 13.65700 33.86800
H  -0.71600 12.46100 32.83100
Mg 2.55100 -0.40100 43.84700
C  5.88100 0.73400 43.31400
C  1.42500 2.26600 42.10600
C  -0.44800 -1.99700 43.49800
C  3.95300 -3.45800 45.00600
N  3.57200 1.28600 42.87300
C  4.91500 1.67200 42.81200
C  5.08100 3.09700 42.42300
C  3.62700 3.54500 42.07000
C  2.78600 2.25800 42.39600
C  3.08000 4.65500 42.96000
C  6.10000 3.17100 41.23400
C  5.90300 2.22100 40.07100
H  6.15300 2.69600 38.64300
N  0.68600 0.08900 42.97000
C  0.47500 1.24100 42.33900
C  -0.91100 1.23600 42.00400
C  -1.56900 0.10900 42.48100
C  -0.43200 -0.70300 42.92000
C  -1.57600 2.46200 41.31300
C  -3.03300 -0.09800 42.59500
O  -3.77200 0.88000 42.35800
C  -3.54900 -1.39300 43.13100
N  1.81200 -2.44100 44.15000
C  0.52700 -2.76100 44.06900
C  0.25600 -4.23900 44.55000
C  1.62700 -4.61600 45.25000
C  2.55600 -3.42700 44.78400
C  -1.15200 -4.49000 45.34900
C  2.14200 -6.02800 44.92600
C  2.29600 -7.14400 46.04600
N  4.52200 -1.23200 44.24000
C  4.86200 -2.51800 44.70100
C  6.33500 -2.54500 44.86500
C  6.78200 -1.31200 44.30200
C  5.61800 -0.57500 43.90000
C  7.19100 -3.54600 45.56700
C  7.93200 -0.49900 43.98300
O  9.12600 -0.77700 44.13800
C  7.38100 0.86200 43.49200
C  7.59800 1.98100 44.49000
O  7.40800 1.88300 45.68700
O  8.36300 3.03200 43.94500
C  8.80700 4.10300 44.87400
H  1.10800 3.15600 41.55800
H  -1.44700 -2.40300 43.66800
H  4.36000 -4.39300 45.39700
H  5.51200 3.60300 43.28700
H  3.44700 3.69800 41.00500
H  3.20100 5.60600 42.44200
H  3.72500 4.63300 43.83900
H  2.05000 4.56900 43.30600
H  7.13800 3.08200 41.55700
H  6.05100 4.21000 40.91000
H  4.87100 1.90200 39.92400
H  6.68400 1.47200 40.20100
H  -2.03600 3.02300 42.12600
H  -2.27200 2.22500 40.50800
H  -0.87400 3.15200 40.84500
H  -4.63000 -1.24700 43.14100
H  -3.27200 -1.71600 44.13500
H  -3.25400 -2.12500 42.38000
H  0.07500 -4.78600 43.62500
H  1.46000 -4.52000 46.32300
H  -1.74400 -3.58000 45.44400
H  -0.96800 -4.77100 46.38600
H  -1.75800 -5.26200 44.87600
H  3.14200 -6.03200 44.49200
H  1.48400 -6.30000 44.10200
H  1.89200 -6.81700 47.00500
H  3.36100 -7.25300 46.24900
H  1.64800 -7.98200 45.78900
H  6.92700 -4.51400 45.14200
H  7.00600 -3.44200 46.63600
H  8.25400 -3.33300 45.45100
H  7.84800 1.12500 42.54300
H  9.10100 4.99300 44.31800
H  9.74800 3.91600 45.39200
H  8.11900 4.46800 45.63700

