158

Mg -1.11600 43.88800 26.29800
C  1.48700 43.54100 28.68000
C  -3.33100 42.89700 28.71100
C  -3.45000 43.28100 23.94700
C  1.35400 44.03700 23.76600
N  -0.92500 43.34000 28.43900
C  0.19000 43.33500 29.22000
C  -0.14000 43.23100 30.77800
C  -1.56300 42.55700 30.59900
C  -1.99900 42.84500 29.15100
C  -1.62300 41.10300 31.02800
C  -0.05800 44.66900 31.37500
C  -0.03700 44.84800 32.93800
H  -0.17000 43.59600 33.75200
N  -3.21300 43.52400 26.34100
C  -3.92400 43.07100 27.43500
C  -5.34200 42.86700 27.07000
C  -5.34300 42.86800 25.57800
C  -3.95700 43.22100 25.22600
C  -6.38900 42.46700 28.08500
C  -6.45900 42.36800 24.58100
O  -6.42200 42.41400 23.39000
C  -7.74200 41.75900 25.11900
N  -1.03900 43.73100 24.14100
C  -2.14800 43.46700 23.41600
C  -1.81600 43.62700 21.88800
C  -0.35400 44.15500 21.92200
C  -0.01500 43.96700 23.34700
C  -1.89700 42.31300 21.06300
C  -0.09200 45.65800 21.61500
C  0.69900 45.98800 20.33800
N  1.01300 43.88500 26.20300
C  1.85400 43.97500 25.12300
C  3.22900 43.98200 25.55800
C  3.13000 43.82000 26.97800
C  1.79600 43.83000 27.33500
C  4.51500 44.05400 24.79700
C  3.90800 43.61300 28.15900
O  5.15700 43.50600 28.35400
C  2.83300 43.54700 29.33500
C  3.20800 42.44600 30.18700
O  2.51300 41.48600 30.36900
O  4.37600 42.78900 30.90300
C  4.52500 42.00200 32.12800
H  -3.94300 42.33300 29.41800
H  -4.20400 43.08400 23.18200
H  2.17300 44.28700 23.08800
H  0.54600 42.55600 31.28900
H  -2.30900 42.91200 31.30900
H  -2.02800 40.57200 30.16600
H  -2.42100 41.04700 31.76800
H  -0.69800 40.61800 31.34100
H  -0.86100 45.33600 31.06200
H  0.90100 45.04000 31.01400
H  -0.86700 45.51900 33.15700
H  0.83700 45.43600 33.21700
H  -6.27200 43.24500 28.83900
H  -6.16200 41.45000 28.40400
H  -7.41100 42.53000 27.71000
H  -7.34200 40.99300 25.78300
H  -8.40100 41.18100 24.47100
H  -8.31700 42.52500 25.64000
H  -2.38500 44.45800 21.46900
H  0.32200 43.54400 21.32400
H  -0.95100 41.77500 20.99600
H  -2.27000 42.45900 20.04900
H  -2.55300 41.63400 21.60700
H  0.30800 46.20600 22.46800
H  -1.03800 46.16600 21.42400
H  1.54400 46.62900 20.58800
H  -0.09200 46.44600 19.74300
H  1.02100 45.12400 19.75700
H  4.61700 45.05800 24.38500
H  4.31200 43.38600 23.96000
H  5.32400 43.60700 25.37500
H  2.92400 44.46400 29.91700
H  4.54000 42.78800 32.88300
H  5.47700 41.48900 31.98800
H  3.80200 41.21500 32.34000
Mg -4.74900 24.86800 26.84900
C  -3.60300 26.89300 29.58800
C  -5.97300 22.60800 29.11500
C  -5.83800 23.02900 24.21400
C  -3.55700 27.33300 24.74600
N  -4.87200 24.85800 29.07600
C  -4.34500 25.75100 30.02500
C  -4.75600 25.26700 31.44600
C  -5.25900 23.80800 31.25500
C  -5.34600 23.73600 29.72500
C  -4.39800 22.69800 31.89000
C  -5.90800 26.24600 32.04000
C  -5.86400 26.51200 33.54500
H  -5.70200 25.18800 34.28600
N  -5.58700 23.00100 26.66400
C  -6.06800 22.30500 27.76300
C  -6.66100 21.02200 27.25100
C  -6.64900 21.16600 25.83000
C  -5.97600 22.40600 25.46400
C  -7.30800 19.96200 28.07800
C  -7.11400 20.19100 24.75300
O  -6.73000 20.30400 23.55900
C  -7.76600 18.87300 25.13800
N  -4.74700 25.17200 24.72200
C  -5.35200 24.30700 23.87300
C  -5.47500 24.90800 22.46900
C  -4.55600 26.21400 22.66600
C  -4.32000 26.29100 24.11200
C  -4.96800 23.99500 21.29600
C  -5.05500 27.56200 22.08200
C  -5.67000 27.43200 20.67200
N  -3.63600 26.61300 27.01800
C  -3.24900 27.56800 26.10300
C  -2.54500 28.66200 26.66800
C  -2.66700 28.43700 28.10100
C  -3.33200 27.17500 28.22600
C  -1.71400 29.77000 25.96000
C  -2.28600 28.97900 29.38800
O  -1.61700 29.94800 29.69800
C  -2.90900 27.98500 30.43200
C  -1.78500 27.39800 31.30600
O  -0.91400 26.56500 30.99600
O  -1.96300 27.78200 32.58200
C  -0.91800 27.24300 33.51400
H  -6.41000 21.85600 29.77600
H  -6.29700 22.60000 23.32000
H  -3.20000 28.07000 24.02400
H  -3.85700 25.35600 32.05600
H  -6.21900 23.73100 31.76600
H  -4.87700 22.64400 32.86700
H  -3.33400 22.88900 32.02500
H  -4.53800 21.76600 31.34300
H  -6.87200 25.79700 31.80200
H  -5.91300 27.23800 31.58700
H  -6.75300 27.04100 33.88900
H  -4.99700 27.14700 33.72800
H  -6.83800 18.98000 28.02600
H  -8.34000 19.83900 27.74900
H  -7.54100 20.28800 29.09200
H  -8.00800 18.36500 24.20500
H  -8.78500 19.14700 25.41500
H  -7.24500 18.33600 25.93000
H  -6.53700 25.08800 22.29900
H  -3.61600 26.00100 22.15600
H  -4.34700 24.63500 20.66900
H  -5.82900 23.65000 20.72500
H  -4.33200 23.15900 21.58600
H  -4.23800 28.26900 21.93600
H  -5.74400 28.13100 22.70700
H  -5.05800 27.88000 19.88900
H  -6.67200 27.85500 20.74500
H  -5.92700 26.44500 20.28700
H  -1.96500 30.70500 26.46200
H  -2.09900 29.84900 24.94300
H  -0.65300 29.55600 26.09000
H  -3.55500 28.52700 31.12300
H  0.05900 27.20500 33.03100
H  -1.05300 26.18300 33.73100
H  -0.76900 27.95400 34.32700

