158

Mg 25.58600 1.97600 29.61200
C  27.57400 1.64700 32.43600
C  22.66200 1.97200 31.75000
C  23.48600 1.96900 26.94000
C  28.18000 1.01600 27.56100
N  25.13200 1.79500 31.81500
C  26.14900 1.83200 32.73000
C  25.56600 2.10400 34.19600
C  24.05800 2.02600 33.99900
C  23.89400 1.97800 32.43000
C  23.40700 0.87000 34.89800
C  26.14000 3.39500 34.90300
C  27.09100 3.06000 36.04200
H  27.16200 3.95800 37.37400
N  23.43200 2.05600 29.44300
C  22.48300 1.98000 30.42000
C  21.10800 1.96100 29.84400
C  21.32100 2.15400 28.39600
C  22.78900 2.01400 28.23300
C  19.91100 1.88800 30.64400
C  20.33900 2.35800 27.31400
O  20.65800 2.49400 26.15700
C  18.89400 2.48400 27.59500
N  25.79700 1.52000 27.59000
C  24.84000 1.90300 26.69600
C  25.38100 1.96300 25.23500
C  26.92500 1.64400 25.45800
C  27.02300 1.47600 26.95500
C  24.71000 0.99900 24.19300
C  27.97700 2.61300 24.91400
C  29.02500 2.02000 23.93400
N  27.52000 1.52500 29.91800
C  28.50000 1.08800 29.01000
C  29.72000 0.89600 29.64400
C  29.45900 1.21100 30.99900
C  28.09500 1.55400 31.13300
C  30.93900 0.34600 28.91700
C  30.00800 1.11000 32.37100
O  31.09400 0.74600 32.74700
C  28.84600 1.49900 33.32500
C  28.54800 0.42200 34.39600
O  28.01100 -0.62600 34.28600
O  29.27700 0.73600 35.55900
C  29.09400 -0.14000 36.73200
H  21.75600 1.97000 32.36000
H  22.86000 2.13900 26.06100
H  28.89900 0.59200 26.85700
H  25.89600 1.25800 34.79900
H  23.76100 3.00500 34.37500
H  22.77300 0.33400 34.19200
H  22.88000 1.32800 35.73400
H  24.18700 0.19600 35.25200
H  25.34300 4.08100 35.19000
H  26.76000 3.93800 34.18900
H  28.06900 2.91600 35.58300
H  26.76500 2.13900 36.52600
H  19.12900 2.60500 30.39300
H  20.02000 1.97200 31.72500
H  19.53600 0.86500 30.60600
H  18.54000 1.49100 27.87300
H  18.41700 3.00000 26.76200
H  18.69300 3.23100 28.36200
H  25.19100 2.98700 24.91300
H  27.23000 0.64800 25.13700
H  23.73700 1.41600 23.93200
H  24.43900 0.08700 24.72600
H  25.42000 0.93800 23.36800
H  28.36000 3.00300 25.85700
H  27.55600 3.48800 24.41900
H  29.60700 2.81300 23.46500
H  28.50800 1.46000 23.15400
H  29.56500 1.27600 24.51900
H  31.31400 1.20900 28.36600
H  30.71500 -0.48400 28.24700
H  31.60200 0.00100 29.71000
H  29.12700 2.42800 33.82200
H  28.05000 -0.43700 36.83900
H  29.45500 0.35200 37.63500
H  29.66300 -1.03200 36.47000
Mg 35.96100 48.92100 26.21800
C  36.23800 46.79200 28.96500
C  34.61200 51.38100 28.44700
C  35.49500 50.91500 23.58400
C  37.01100 46.35300 24.21400
N  35.51400 49.03600 28.40900
C  35.82100 48.08100 29.30500
C  35.70400 48.63900 30.80600
C  34.95200 50.01300 30.57300
C  35.09000 50.16600 29.07200
C  33.34700 49.91300 30.96200
C  37.09700 48.81800 31.43600
C  37.27100 48.55500 32.95000
H  35.98900 48.46000 33.81800
N  35.24200 50.89600 26.04900
C  34.72400 51.72700 27.06900
C  34.31500 52.97000 26.40800
C  34.61200 52.88400 24.95800
C  35.14100 51.51700 24.80200
C  33.78200 54.19300 27.15600
C  34.32000 53.85400 23.94400
O  34.72300 53.73400 22.81000
C  33.37700 54.96300 24.13100
N  35.97400 48.53600 24.18700
C  35.84500 49.57900 23.32800
C  35.96300 49.01800 21.84600
C  36.75600 47.64900 22.09300
C  36.59800 47.48300 23.60100
C  34.58600 48.96600 21.15900
C  38.27500 47.49300 21.63000
C  39.18700 48.58700 22.11100
N  36.44700 47.03100 26.50600
C  36.98000 46.11000 25.56300
C  37.34900 44.86300 26.21500
C  37.05000 45.13200 27.55600
C  36.53800 46.42600 27.68400
C  38.03000 43.68600 25.57100
C  36.98800 44.61300 28.89700
O  37.34200 43.50900 29.23400
C  36.47300 45.63900 29.86600
C  35.25800 45.23500 30.55800
O  34.18500 44.90400 30.05400
O  35.46200 45.12500 31.91300
C  34.39200 44.70100 32.72800
H  34.10300 52.10600 29.08500
H  35.58000 51.47000 22.64800
H  37.35800 45.44100 23.72300
H  35.01900 48.04600 31.41200
H  35.31500 50.90600 31.08400
H  33.02800 48.95800 30.54400
H  32.80200 50.70700 30.45200
H  33.21800 49.99900 32.04100
H  37.35600 49.86100 31.25600
H  37.81700 48.14700 30.96600
H  37.83100 49.40100 33.34600
H  37.92000 47.68700 33.06800
H  32.69500 54.19200 27.07900
H  34.19400 55.06000 26.64100
H  34.23600 54.14100 28.14600
H  32.45900 54.65200 24.62900
H  33.05000 55.24200 23.12900
H  33.80500 55.88300 24.52800
H  36.61000 49.66500 21.25400
H  36.21600 46.83400 21.61100
H  34.54300 49.50600 20.21300
H  33.82400 49.37600 21.82200
H  34.26500 47.94700 20.94300
H  38.15200 47.60900 20.55300
H  38.48400 46.48300 21.98100
H  38.60700 49.48700 22.31700
H  39.99200 48.93000 21.46100
H  39.67500 48.25100 23.02600
H  38.75800 44.05100 24.84700
H  37.34900 42.97500 25.10400
H  38.47700 43.08400 26.36200
H  37.28300 45.79500 30.57900
H  34.79400 44.71200 33.74100
H  34.05500 43.68800 32.51000
H  33.67400 45.51900 32.78800

