158

Mg 1.08000 8.52400 26.79700
C  1.36600 10.90300 29.36900
C  1.12600 6.06500 29.21600
C  0.85400 6.18500 24.29800
C  1.13500 11.08300 24.38800
N  1.43100 8.50500 29.08100
C  1.40500 9.59900 29.92000
C  1.12100 9.24700 31.36200
C  1.22800 7.65200 31.30800
C  1.23700 7.38700 29.81000
C  2.42800 7.01500 32.01700
C  -0.29900 9.58900 31.85300
C  -0.63600 9.38500 33.35800
H  0.42000 9.00200 34.39500
N  0.98100 6.40400 26.74400
C  1.06800 5.58800 27.87600
C  1.00900 4.18800 27.40400
C  0.81500 4.19500 25.97200
C  0.89500 5.61900 25.62100
C  1.17000 3.08600 28.38900
C  0.73700 3.06000 25.00100
O  0.55300 3.11900 23.78600
C  0.71200 1.70800 25.63600
N  1.05300 8.65000 24.68300
C  0.89800 7.53000 23.87800
C  0.65300 7.99700 22.49000
C  0.49800 9.50500 22.48500
C  0.95700 9.77600 23.93800
C  1.81500 7.54800 21.64500
C  -0.90700 10.08700 22.10300
C  -0.93100 10.95500 20.78400
N  1.43800 10.50500 26.80200
C  1.37100 11.43800 25.76500
C  1.66300 12.77200 26.32900
C  1.50400 12.59100 27.67700
C  1.48300 11.17300 27.96300
C  1.90600 14.06600 25.61800
C  1.52100 13.28900 28.89300
O  1.51100 14.50500 29.13900
C  1.23800 12.22700 30.06000
C  2.31300 12.45000 31.08100
O  3.49000 12.68100 30.89300
O  1.80800 12.49000 32.37800
C  2.75600 12.78700 33.49500
H  1.09800 5.30600 30.00000
H  0.72400 5.46300 23.49000
H  1.09600 11.93000 23.70000
H  1.88900 9.79500 31.90800
H  0.42000 7.13000 31.82200
H  2.11100 6.58500 32.96800
H  3.29300 7.65200 32.19800
H  2.79900 6.24600 31.33900
H  -1.03200 9.05900 31.24600
H  -0.44300 10.63300 31.57400
H  -1.44200 8.65400 33.29400
H  -1.07000 10.27500 33.81300
H  2.00300 2.44900 28.09200
H  0.28500 2.46200 28.26500
H  1.37200 3.38400 29.41800
H  -0.14400 1.79000 26.30600
H  1.62500 1.46700 26.18000
H  0.46300 0.91200 24.93400
H  -0.17900 7.43700 22.06300
H  1.15300 10.04800 21.80400
H  1.88200 8.15200 20.74000
H  1.90100 6.48700 21.41100
H  2.72100 7.74000 22.21900
H  -1.27700 10.63100 22.97200
H  -1.60600 9.27900 21.89100
H  -1.80700 10.67600 20.19900
H  -0.10500 10.80900 20.08800
H  -1.07500 11.99800 21.06400
H  1.26400 14.13100 24.73900
H  2.95200 14.02200 25.31400
H  1.69400 14.86900 26.32400
H  0.26500 12.29900 30.54600
H  3.49400 11.98800 33.41700
H  2.23300 12.64300 34.44100
H  3.14700 13.80400 33.49500
Mg 48.20800 34.92400 26.43400
C  46.16700 34.21100 29.14500
C  48.93800 38.00300 27.95900
C  49.65000 35.95900 23.67500
C  46.98800 32.04000 24.82500
N  47.51900 36.01500 28.32400
C  46.80300 35.42800 29.33800
C  46.84600 36.35700 30.58400
C  47.33000 37.80200 30.00200
C  47.96500 37.27700 28.66000
C  46.27000 38.90500 29.92300
C  47.51800 35.64600 31.79900
C  48.23700 36.56000 32.79600
H  47.51600 37.54100 33.70700
N  49.37300 36.58600 25.94800
C  49.56500 37.74400 26.69600
C  50.60700 38.57400 25.98900
C  50.71500 38.04500 24.73600
C  49.84200 36.79100 24.75600
C  51.10100 39.83300 26.56600
C  51.54500 38.46400 23.55200
O  51.62100 37.85000 22.50900
C  52.35200 39.74400 23.59200
N  48.24600 34.08500 24.55700
C  48.89700 34.79800 23.54400
C  48.83000 33.98200 22.23100
C  48.29600 32.58300 22.65100
C  47.79200 32.84400 24.08800
C  48.07500 34.69800 21.14200
C  49.35900 31.43400 22.59800
C  49.03700 30.30400 21.58500
N  46.80900 33.46100 26.81600
C  46.53300 32.30300 26.11500
C  45.63200 31.48700 26.91600
C  45.40700 32.21700 28.11800
C  46.22600 33.33900 28.02600
C  45.02500 30.14500 26.57800
C  44.69200 32.39000 29.36900
O  43.80800 31.71200 29.84900
C  45.26100 33.49200 30.14300
C  46.01600 32.92700 31.28200
O  47.23000 32.61500 31.10600
O  45.29500 32.81200 32.41800
C  46.01400 32.13800 33.52000
H  49.28500 38.95300 28.37100
H  50.11000 36.27000 22.73500
H  46.66900 31.11500 24.33900
H  45.81200 36.51000 30.89200
H  48.07800 38.18400 30.69700
H  45.82900 38.83800 28.92900
H  46.58000 39.92600 30.14500
H  45.44300 38.63200 30.57800
H  48.28200 34.96600 31.42100
H  46.78900 35.08500 32.38300
H  49.13100 37.11800 32.52000
H  48.73600 35.80800 33.40700
H  52.18900 39.86800 26.51200
H  50.78800 39.90700 27.60800
H  50.64400 40.59000 25.92800
H  51.82300 40.65800 23.86200
H  52.69800 39.90200 22.57100
H  53.18900 39.64000 24.28300
H  49.83000 33.83500 21.82500
H  47.45500 32.25600 22.03900
H  48.76700 34.54600 20.31400
H  48.10500 35.77500 21.30200
H  47.05500 34.32300 21.06600
H  49.43700 30.99400 23.59200
H  50.34300 31.79700 22.30000
H  49.74300 30.19900 20.76000
H  48.07600 30.46100 21.09600
H  49.14700 29.39000 22.16800
H  44.58600 30.14600 25.58100
H  44.15300 29.97100 27.20800
H  45.77700 29.37400 26.74900
H  44.46600 34.12600 30.53500
H  46.65100 31.36100 33.09900
H  45.37500 31.84400 34.35200
H  46.67800 32.94900 33.81900

