158

Mg 48.66100 35.01700 26.89700
C  46.79300 33.73600 29.53900
C  49.04000 37.92000 28.53300
C  49.70000 36.33900 23.92800
C  47.74600 32.04100 24.96300
N  48.01100 35.65000 28.88900
C  47.37600 34.96300 29.89900
C  47.33200 35.77200 31.23200
C  47.77600 37.23700 30.70300
C  48.40900 36.88300 29.33300
C  46.63900 38.31600 30.61300
C  48.49300 35.25700 32.19900
C  48.07900 35.20200 33.67800
H  48.43700 36.42100 34.55100
N  49.52400 36.77600 26.40200
C  49.61200 37.90800 27.25600
C  50.23400 39.00200 26.57700
C  50.47100 38.53300 25.22200
C  49.91600 37.14400 25.09400
C  50.60300 40.31400 27.25300
C  51.06400 39.32100 24.07900
O  51.20400 38.89700 22.92500
C  51.58100 40.76800 24.40000
N  48.82700 34.18600 24.79000
C  49.31600 34.96200 23.75200
C  49.27500 34.21700 22.37100
C  48.88100 32.77800 22.78000
C  48.50000 32.99500 24.27600
C  48.28800 34.94300 21.47200
C  50.03100 31.75000 22.57700
C  49.63700 30.60300 21.59700
N  47.48000 33.28800 27.11500
C  47.25700 32.11800 26.31800
C  46.59100 31.13800 27.11300
C  46.29700 31.85000 28.26000
C  46.90400 33.11500 28.30400
C  46.12700 29.77900 26.73900
C  45.64900 31.58600 29.50500
O  45.06400 30.58700 29.84100
C  45.83700 32.84700 30.42400
C  46.26500 32.50400 31.74300
O  47.38800 32.07600 31.98900
O  45.19600 32.56200 32.65100
C  45.50800 32.38400 34.07200
H  49.15800 38.81000 29.15400
H  49.93700 36.82000 22.97700
H  47.43300 31.17900 24.36900
H  46.36300 35.80300 31.73100
H  48.64900 37.64800 31.21100
H  47.03700 39.23700 31.03900
H  45.75700 38.08800 31.21100
H  46.35600 38.53500 29.58300
H  49.35500 35.91900 32.11400
H  48.96100 34.34100 31.83700
H  48.52800 34.36400 34.21200
H  47.03100 34.93000 33.79900
H  51.68900 40.33500 27.16800
H  50.48100 40.31600 28.33600
H  50.23200 41.22400 26.78000
H  52.13700 41.17300 23.55500
H  52.25900 40.61500 25.24000
H  50.68000 41.31200 24.68500
H  50.22700 34.27400 21.84300
H  47.99400 32.50000 22.21100
H  47.35800 35.23600 21.95900
H  48.05400 34.30800 20.61800
H  48.81400 35.84100 21.14600
H  50.31600 31.32100 23.53700
H  50.90400 32.21600 22.11900
H  49.94400 29.61900 21.95200
H  50.34800 30.67400 20.77500
H  48.61000 30.68000 21.23900
H  46.89400 29.06600 27.04100
H  45.88000 29.74500 25.67800
H  45.23400 29.56900 27.32800
H  44.90300 33.40600 30.47600
H  44.85500 31.62400 34.50100
H  45.24700 33.30800 34.58800
H  46.52900 32.14900 34.37200
Mg -6.24200 25.54300 25.09700
C  -4.98200 26.73800 28.22100
C  -8.00000 23.24600 26.83500
C  -7.27900 24.55600 22.19200
C  -3.76800 27.53600 23.53300
N  -6.41700 25.06500 27.25200
C  -5.92500 25.76700 28.32600
C  -6.47000 25.22700 29.68800
C  -7.13300 23.85500 29.15200
C  -7.26500 24.12600 27.65400
C  -6.31800 22.56300 29.45300
C  -7.52800 26.14600 30.21500
C  -7.82700 26.03900 31.73200
H  -6.99000 25.03200 32.41700
N  -7.54800 24.16600 24.57900
C  -8.14300 23.25000 25.43200
C  -8.97800 22.38900 24.69500
C  -8.80900 22.81300 23.28800
C  -7.89500 23.95200 23.26700
C  -9.79200 21.29500 25.39600
C  -9.38800 22.22100 22.07000
O  -9.28600 22.68600 20.98300
C  -10.12700 20.90400 22.27300
N  -5.54500 25.84900 23.21700
C  -6.17800 25.36000 22.09500
C  -5.52900 25.74200 20.75600
C  -4.53600 26.79200 21.24500
C  -4.67600 26.78600 22.76900
C  -4.95100 24.61500 19.89200
C  -4.66400 28.21800 20.59800
C  -3.35500 28.93400 20.30300
N  -4.76300 26.96800 25.71400
C  -3.76300 27.60800 24.90500
C  -2.87900 28.34500 25.84300
C  -3.37500 28.09900 27.13700
C  -4.45000 27.21600 26.99700
C  -1.79100 29.21300 25.46300
C  -3.21000 28.37500 28.52200
O  -2.37900 29.03200 29.11800
C  -4.32900 27.52400 29.34500
C  -3.44100 26.64000 30.24400
O  -2.70700 25.73000 29.91600
O  -3.66900 27.05800 31.54900
C  -2.88000 26.30600 32.55700
H  -8.62500 22.49000 27.31600
H  -7.55700 24.14000 21.22100
H  -2.94800 28.01500 22.99300
H  -5.68400 25.05800 30.42400
H  -8.14000 23.61500 29.49400
H  -5.31900 22.83500 29.79600
H  -6.25600 22.01700 28.51200
H  -6.86100 21.93400 30.15900
H  -8.50900 26.02800 29.75600
H  -7.18900 27.13100 29.89300
H  -8.90400 25.87700 31.76800
H  -7.80300 27.00800 32.23000
H  -9.40900 20.37000 24.96500
H  -10.80900 21.43400 25.02800
H  -9.97600 21.32100 26.47000
H  -9.47300 20.16100 22.73100
H  -10.53900 20.61300 21.30700
H  -11.04000 21.06900 22.84600
H  -6.25800 26.20100 20.08900
H  -3.50900 26.53000 20.98900
H  -3.86100 24.63900 19.91900
H  -5.34700 24.68400 18.87900
H  -5.23100 23.60600 20.19500
H  -5.23300 28.87600 21.25600
H  -5.26000 28.14200 19.68900
H  -3.64800 29.66900 19.55400
H  -2.57200 28.26200 19.95000
H  -3.02700 29.56000 21.13200
H  -1.19200 28.80900 24.64700
H  -1.25200 29.49500 26.36800
H  -2.35200 30.06300 25.07500
H  -4.97500 28.15000 29.96000
H  -3.26900 25.28900 32.60200
H  -3.05200 26.76100 33.53200
H  -1.82600 26.33600 32.28100

