158

Mg 25.07400 -7.46100 47.82400
C  26.79500 -4.95500 46.10900
C  22.49800 -7.18300 45.63800
C  23.70500 -10.10000 49.40800
C  28.14500 -8.15500 49.49900
N  24.75600 -6.04900 46.13000
C  25.60100 -5.17700 45.47900
C  24.93000 -4.45600 44.33200
C  23.59700 -5.29100 44.16800
C  23.51500 -6.18800 45.47200
C  22.30100 -4.43600 43.75200
C  25.89100 -4.21400 43.11400
C  26.12600 -2.72800 42.79800
H  25.54400 -2.39500 41.48100
N  23.29900 -8.47100 47.57500
C  22.39000 -8.21000 46.62200
C  21.30100 -9.12100 46.81100
C  21.59800 -9.91200 47.90900
C  22.88600 -9.47600 48.41600
C  20.05400 -9.17500 45.87600
C  20.69500 -10.93300 48.40700
O  19.59900 -11.10800 47.87200
C  21.00000 -11.61000 49.75400
N  25.79300 -8.89600 49.35100
C  25.01000 -9.84700 49.81800
C  25.79000 -10.87600 50.74500
C  27.27000 -10.36800 50.53200
C  27.03500 -9.06400 49.76900
C  25.47500 -10.60500 52.22500
C  28.21400 -11.29900 49.66500
C  29.64100 -11.48500 50.17100
N  27.05200 -6.73300 47.82000
C  28.13400 -7.05000 48.62700
C  29.26800 -6.13900 48.30500
C  28.77700 -5.26600 47.34300
C  27.43400 -5.68800 47.03800
C  30.55800 -6.12700 48.96500
C  29.10900 -4.07900 46.64400
O  30.12900 -3.35800 46.58400
C  27.86700 -3.86300 45.75300
C  27.46600 -2.49900 46.32200
O  26.66100 -2.45200 47.23700
O  28.08600 -1.49200 45.76600
C  27.55300 -0.11500 46.02900
H  21.75300 -7.11000 44.84200
H  23.40500 -10.97900 49.98100
H  29.07800 -8.25400 50.05700
H  24.56900 -3.50000 44.71000
H  23.85300 -5.93800 43.32900
H  21.47200 -4.96200 44.22400
H  22.26900 -4.36300 42.66500
H  22.38500 -3.46000 44.22800
H  25.46700 -4.70500 42.23800
H  26.86700 -4.68700 43.22300
H  27.17800 -2.47300 42.91900
H  25.65200 -2.04300 43.50200
H  19.29700 -8.82700 46.57900
H  19.87400 -10.20100 45.55500
H  20.07900 -8.41900 45.09200
H  21.68500 -12.43200 49.54800
H  20.06500 -12.02900 50.12800
H  21.36800 -10.89800 50.49300
H  25.50800 -11.89000 50.46300
H  27.73100 -10.14300 51.49400
H  26.12300 -9.84400 52.66000
H  25.47600 -11.55200 52.76400
H  24.50900 -10.13400 52.41100
H  28.30100 -10.86100 48.67100
H  27.73500 -12.27200 49.55000
H  29.95700 -12.49900 50.41600
H  29.77900 -11.05500 51.16300
H  30.38200 -11.10000 49.47000
H  30.45500 -5.96500 50.03800
H  31.28600 -5.48100 48.47500
H  31.01000 -7.08700 48.71800
H  28.15500 -3.62700 44.72900
H  26.47800 -0.15000 46.20700
H  27.67300 0.35100 45.05100
H  28.01600 0.40800 46.86500
Mg -11.03600 17.14000 42.07500
C  -7.58000 18.05000 41.99200
C  -11.87200 20.38100 41.89100
C  -14.24100 16.06400 42.04100
C  -9.97300 13.79100 42.04500
N  -9.80900 18.99200 41.82200
C  -8.46800 19.17600 41.88900
C  -8.06900 20.64400 41.98800
C  -9.42800 21.30000 42.30600
C  -10.42100 20.16600 42.06600
C  -9.53300 21.86700 43.80200
C  -7.37200 21.14300 40.70300
C  -5.83600 21.45400 40.82600
H  -4.98800 20.81200 39.72200
N  -12.82000 18.05500 41.80400
C  -12.99300 19.43000 41.74600
C  -14.39600 19.73000 41.47900
C  -15.15000 18.48500 41.52700
C  -14.09500 17.45900 41.85200
C  -14.94800 21.11500 41.35200
C  -16.62600 18.33000 41.27400
O  -17.39700 19.26600 40.91800
C  -17.22900 17.03600 41.22200
N  -11.98300 15.21100 42.07500
C  -13.29500 15.05700 42.25300
C  -13.72800 13.57800 42.40700
C  -12.28800 12.89200 42.41800
C  -11.36500 13.98900 42.06300
C  -14.68600 13.20900 43.59800
C  -12.16800 11.63700 41.56900
C  -12.13100 10.35000 42.29500
N  -9.19500 16.08600 42.02500
C  -8.94000 14.73900 41.98600
C  -7.51400 14.44000 42.08800
C  -6.99800 15.74400 42.03500
C  -8.01500 16.73700 41.99600
C  -6.67800 13.18300 42.02500
C  -5.76200 16.43600 42.06800
O  -4.65000 15.96000 42.07600
C  -6.09000 17.93000 42.13400
C  -5.57700 18.46400 43.40000
O  -5.95400 18.20200 44.50600
O  -4.36000 19.14400 43.12100
C  -3.45900 19.54300 44.25500
H  -12.10200 21.43600 42.04900
H  -15.30800 15.83100 42.06800
H  -9.62600 12.77400 42.23800
H  -7.33700 20.77000 42.78600
H  -9.74300 22.14100 41.68800
H  -10.27500 21.29400 44.35800
H  -9.80800 22.92000 43.75000
H  -8.55600 21.88000 44.28600
H  -7.94300 21.97200 40.28400
H  -7.45600 20.36600 39.94200
H  -5.46700 21.17800 41.81300
H  -5.64700 22.52800 40.81500
H  -15.28500 21.43000 40.36400
H  -14.28400 21.83800 41.82700
H  -15.90000 21.14500 41.88100
H  -18.21500 17.10600 40.76200
H  -17.35000 16.59800 42.21300
H  -16.68100 16.51600 40.43500
H  -14.29200 13.34700 41.50300
H  -11.95900 12.65300 43.43000
H  -15.66000 13.11100 43.12000
H  -14.69200 14.11500 44.20300
H  -14.39700 12.26200 44.05500
H  -11.38800 11.73700 40.81400
H  -13.06300 11.66800 40.94800
H  -11.48400 9.60600 41.83000
H  -13.10000 9.85900 42.19600
H  -11.79100 10.31800 43.33000
H  -6.15800 12.91700 42.94500
H  -5.98800 13.18600 41.18000
H  -7.33600 12.35900 41.74900
H  -5.63300 18.47000 41.30400
H  -3.01000 20.50700 44.01200
H  -2.57500 18.90600 44.26800
H  -3.93100 19.52600 45.23800

