158

Mg 41.70400 41.64800 26.98300
C  41.21700 43.96200 29.42900
C  43.17200 39.44500 29.45400
C  42.24900 39.31100 24.64100
C  41.03600 44.01900 24.51000
N  42.07100 41.67600 29.13400
C  41.69800 42.74200 29.94600
C  41.88500 42.39600 31.42700
C  42.78100 41.10800 31.39300
C  42.60500 40.66800 29.94200
C  44.32800 41.24100 31.78300
C  40.49900 42.30300 32.18000
C  40.32100 43.12800 33.45500
H  39.76800 42.36600 34.64900
N  42.59300 39.68400 26.98900
C  43.10900 38.95600 28.09400
C  43.57500 37.60600 27.62800
C  43.16900 37.49700 26.21200
C  42.61100 38.90100 25.89200
C  44.10000 36.47500 28.51800
C  43.28700 36.31900 25.26700
O  43.03000 36.44400 24.10600
C  43.89400 35.05000 25.66000
N  42.05100 41.79800 24.83500
C  42.07700 40.65200 24.09600
C  41.66500 40.93700 22.58700
C  41.42100 42.43900 22.54500
C  41.51400 42.81700 24.03600
C  42.82300 40.43900 21.61300
C  40.18700 42.87200 21.77200
C  40.21600 44.08400 20.88700
N  41.20700 43.67200 26.86900
C  40.77600 44.43900 25.86600
C  40.35200 45.70000 26.43100
C  40.45000 45.51900 27.81400
C  41.05700 44.30300 28.03800
C  39.87500 46.83100 25.59500
C  40.22900 46.16500 29.08800
O  39.64000 47.22900 29.36400
C  40.69100 45.16800 30.18200
C  41.72400 45.80000 31.01300
O  42.74400 46.23000 30.52600
O  41.37000 45.86200 32.33900
C  42.21800 46.70500 33.23500
H  43.61200 38.79300 30.21100
H  42.21100 38.51600 23.89400
H  40.82800 44.76600 23.74200
H  42.42800 43.17000 31.96900
H  42.26100 40.38500 32.02300
H  44.50800 42.24300 32.17100
H  44.93600 41.10100 30.88900
H  44.62400 40.62400 32.63200
H  40.27900 41.27300 32.46200
H  39.74500 42.62900 31.46300
H  39.65300 43.97100 33.27800
H  41.26100 43.59600 33.74700
H  45.11400 36.22000 28.20900
H  43.44400 35.61100 28.41300
H  44.16700 36.78500 29.56100
H  43.19900 34.54400 26.33000
H  44.79200 35.27700 26.23500
H  44.22400 34.37600 24.86900
H  40.72200 40.45500 22.33200
H  42.35500 42.89700 22.22100
H  43.61100 41.14500 21.35200
H  42.35000 40.22300 20.65500
H  43.18000 39.48100 21.99300
H  39.41800 42.96900 22.53800
H  39.73800 42.13000 21.11100
H  39.97200 43.85500 19.84900
H  41.24700 44.43400 20.84800
H  39.38500 44.72000 21.19200
H  40.27300 46.83000 24.58000
H  40.06600 47.76100 26.13000
H  38.79300 46.71200 25.53700
H  39.84600 44.97600 30.84300
H  43.20500 46.93400 32.83400
H  42.23500 46.16400 34.18100
H  41.70000 47.65800 33.35200
Mg -1.69600 34.03800 26.45600
C  -3.55300 32.84200 29.26300
C  -0.65900 36.61500 28.57600
C  -0.15000 35.28700 23.91700
C  -3.38200 31.72100 24.60800
N  -1.92300 34.56600 28.62900
C  -2.66100 33.90500 29.58100
C  -2.65300 34.54000 31.02300
C  -1.70200 35.79000 30.71100
C  -1.40600 35.67500 29.19700
C  -2.25300 37.20600 31.11400
C  -2.12300 33.63000 32.11200
C  -2.93000 33.54500 33.40000
H  -2.57200 34.60800 34.43500
N  -0.52000 35.72100 26.24500
C  -0.29400 36.72400 27.18800
C  0.50500 37.74700 26.58400
C  0.83400 37.26000 25.29000
C  0.08900 36.00700 25.11600
C  0.97300 39.07000 27.34200
C  1.66000 37.88500 24.25200
O  1.84500 37.37700 23.12900
C  2.48000 39.15200 24.59200
N  -1.81900 33.55600 24.49000
C  -0.98600 34.17200 23.65100
C  -1.12800 33.50100 22.29500
C  -2.08300 32.27200 22.46500
C  -2.40000 32.46800 23.93000
C  -1.55400 34.53900 21.17700
C  -1.39900 30.86400 22.15200
C  -2.46900 29.89500 21.58800
N  -3.07600 32.51600 26.83700
C  -3.65300 31.60400 25.99700
C  -4.54400 30.80700 26.64600
C  -4.54300 31.24700 27.94000
C  -3.64000 32.31400 28.00700
C  -5.39800 29.66400 26.08200
C  -5.17200 31.01700 29.22800
O  -5.94800 30.19200 29.59700
C  -4.50700 32.07100 30.20200
C  -5.50000 32.93100 30.79300
O  -5.85300 34.04500 30.40300
O  -6.09000 32.26500 31.87600
C  -7.06000 33.05800 32.61000
H  -0.43200 37.49500 29.18200
H  0.45000 35.63300 23.07300
H  -4.00600 31.07200 23.99000
H  -3.68800 34.85200 31.16600
H  -0.77800 35.72100 31.28500
H  -3.08500 37.07400 31.80500
H  -2.58900 37.84800 30.30000
H  -1.53700 37.74400 31.73400
H  -1.12300 33.97600 32.37300
H  -2.03500 32.59800 31.77100
H  -2.76100 32.56800 33.85200
H  -4.00600 33.68900 33.30000
H  0.84500 39.89200 26.63800
H  1.97800 38.89800 27.72800
H  0.23600 39.08300 28.14500
H  1.78600 39.97900 24.74100
H  3.10300 39.53000 23.78100
H  3.03000 38.87100 25.49000
H  -0.10400 33.17600 22.10900
H  -2.99400 32.48800 21.90800
H  -2.21700 34.06900 20.45100
H  -0.59800 34.81700 20.73400
H  -2.06800 35.44300 21.50400
H  -0.88800 30.42500 23.00900
H  -0.71800 31.08800 21.33000
H  -2.32300 28.99700 22.18800
H  -2.27300 29.73800 20.52700
H  -3.47900 30.27300 21.75200
H  -5.26000 29.53500 25.00900
H  -6.36800 29.86700 26.53600
H  -5.01400 28.76600 26.56600
H  -3.94500 31.39200 30.84300
H  -7.12200 32.49700 33.54200
H  -7.84100 32.93300 31.86000
H  -6.63300 34.04900 32.76400

