158

Mg 0.76200 42.52600 25.90700
C  2.49300 42.29800 28.97800
C  -2.13000 41.43100 27.57400
C  -0.84500 42.31500 22.96800
C  3.66400 43.41800 24.31800
N  0.27800 42.00300 28.02800
C  1.11600 42.10900 29.17800
C  0.26100 41.91900 30.45400
C  -1.14800 41.66300 29.91400
C  -1.02900 41.67300 28.37500
C  -1.85000 40.35600 30.48400
C  0.38300 43.22100 31.42000
C  0.44300 43.01000 32.96600
H  0.17800 41.68300 33.61200
N  -1.19500 41.85100 25.35000
C  -2.20300 41.46300 26.15800
C  -3.42600 41.26200 25.37600
C  -3.09000 41.59300 24.03200
C  -1.64600 41.91100 24.04700
C  -4.66400 40.66500 26.06200
C  -4.02600 41.65600 22.85100
O  -3.63300 41.85800 21.76900
C  -5.52200 41.51600 23.12400
N  1.46100 42.51100 23.86300
C  0.52300 42.60900 22.87400
C  1.27200 42.75300 21.50500
C  2.52000 43.54300 22.01000
C  2.61000 43.08900 23.48300
C  1.53800 41.39200 20.92200
C  2.53400 45.11000 21.79100
C  3.66600 45.71200 20.90400
N  2.70800 42.84500 26.50600
C  3.75800 43.19300 25.72900
C  4.88700 43.22100 26.53400
C  4.47600 43.00000 27.85500
C  3.15300 42.65200 27.76900
C  6.29100 43.52600 26.01500
C  4.89800 42.92100 29.24300
O  5.98300 42.99000 29.83200
C  3.57800 42.55100 30.03400
C  4.00700 41.35700 30.78200
O  4.21700 40.22700 30.37800
O  3.95400 41.65500 32.20100
C  4.10500 40.55600 33.07500
H  -3.06000 41.15800 28.07700
H  -1.32100 42.38800 21.98800
H  4.56100 43.77200 23.80600
H  0.57100 41.04100 31.02100
H  -1.83800 42.45300 30.21300
H  -1.52300 40.20600 31.51200
H  -1.66200 39.46400 29.88700
H  -2.92200 40.52400 30.38000
H  -0.42600 43.92000 31.20800
H  1.27200 43.77300 31.11500
H  -0.24000 43.72600 33.42300
H  1.35700 43.35100 33.45300
H  -4.55400 40.32900 27.09300
H  -5.02400 39.84200 25.44600
H  -5.38200 41.48100 25.98100
H  -5.85100 40.66500 23.72000
H  -6.06300 41.41400 22.18400
H  -5.73100 42.46900 23.61000
H  0.63900 43.33300 20.83400
H  3.42400 43.18100 21.52100
H  1.78200 40.64800 21.68100
H  2.46200 41.54600 20.36400
H  0.78700 40.92500 20.28400
H  2.72100 45.48300 22.79800
H  1.59700 45.38500 21.30600
H  4.22500 46.38700 21.55300
H  3.34300 46.42600 20.14700
H  4.35600 44.98200 20.48000
H  7.01400 43.07600 26.69600
H  6.47700 44.56200 25.73200
H  6.51800 42.95300 25.11600
H  3.37500 43.37600 30.71700
H  4.94800 39.91100 32.82900
H  3.24500 39.89100 33.00300
H  4.25800 41.01000 34.05500
Mg -12.74500 14.56300 42.50100
C  -9.43900 13.70100 41.65400
C  -12.22800 17.58500 40.89700
C  -15.99600 15.26200 43.00600
C  -13.42700 11.23700 43.32100
N  -11.04600 15.40700 41.30900
C  -9.71100 14.93500 41.24200
C  -8.76100 15.93000 40.54100
C  -9.67000 17.14300 40.35100
C  -11.09800 16.73900 40.84500
C  -9.05300 18.45700 40.86900
C  -8.02900 15.38800 39.25000
C  -6.52900 15.27600 39.27400
H  -5.72600 15.90300 38.21500
N  -14.00400 16.18500 41.95800
C  -13.56600 17.37600 41.33400
C  -14.79100 18.19000 41.34800
C  -15.83700 17.51000 41.92700
C  -15.31500 16.23900 42.27500
C  -14.67800 19.55100 40.74900
C  -17.29100 18.10200 42.10500
O  -17.52200 19.28200 41.82400
C  -18.48900 17.19300 42.57700
N  -14.53100 13.35600 43.05300
C  -15.68900 13.93800 43.41100
C  -16.57700 12.98600 44.17800
C  -15.88400 11.62000 44.06000
C  -14.54900 12.05300 43.44800
C  -16.82700 13.34600 45.61900
C  -16.66000 10.45300 43.32500
C  -16.84400 9.21900 44.23600
N  -11.71400 12.89900 42.62800
C  -12.14700 11.61500 42.84500
C  -10.94900 10.76200 42.77900
C  -9.93200 11.51800 42.22800
C  -10.40200 12.85700 42.22000
C  -10.92000 9.31100 43.27300
C  -8.58100 11.46700 41.70100
O  -7.80500 10.54800 41.63100
C  -8.17300 12.93800 41.45000
C  -7.07500 13.45400 42.32500
O  -7.29200 14.13100 43.31400
O  -5.87400 13.23300 41.76000
C  -4.64200 13.77100 42.41700
H  -12.03400 18.59400 40.52700
H  -17.00500 15.40500 43.40000
H  -13.61500 10.17100 43.46200
H  -7.97800 16.27100 41.21900
H  -9.85200 17.25000 39.28200
H  -9.50100 19.27700 40.30700
H  -7.99400 18.43500 40.61500
H  -9.16500 18.45500 41.95300
H  -8.28800 16.10800 38.47300
H  -8.49100 14.40700 39.14100
H  -6.14400 14.27100 39.44100
H  -6.25100 15.76000 40.21000
H  -14.93500 19.57500 39.69000
H  -13.64800 19.90700 40.76700
H  -15.27400 20.28400 41.29300
H  -18.54500 16.28900 41.97000
H  -19.38000 17.77200 42.33200
H  -18.46900 17.05000 43.65700
H  -17.50600 13.09300 43.61800
H  -15.63300 11.36100 45.08900
H  -17.09500 12.46700 46.20400
H  -17.64700 14.05200 45.74700
H  -15.97100 13.82500 46.09400
H  -16.20800 10.13500 42.38500
H  -17.65100 10.87900 43.16000
H  -17.35700 8.45700 43.64800
H  -17.59300 9.58300 44.94000
H  -15.97900 8.71400 44.66500
H  -11.05900 9.30200 44.35400
H  -9.91400 8.92800 43.10500
H  -11.56900 8.71200 42.63400
H  -7.88600 12.95600 40.39800
H  -3.78400 13.28800 41.94900
H  -4.75100 13.35400 43.41800
H  -4.73700 14.85500 42.35600

