158

Mg 16.79700 -0.56300 27.93000
C  15.54500 1.05000 30.71900
C  18.72100 -2.56300 29.89400
C  18.13500 -1.97200 25.15300
C  15.02800 1.65200 25.91500
N  17.06800 -0.73400 30.00900
C  16.44400 0.05900 30.99900
C  16.95600 -0.38300 32.44300
C  17.92800 -1.59800 32.10600
C  17.98300 -1.58600 30.53800
C  19.38200 -1.51000 32.67200
C  15.84700 -0.86700 33.49100
C  15.92500 -0.22300 34.94400
H  17.24200 0.22200 35.54600
N  18.26800 -2.06600 27.63000
C  18.96100 -2.80600 28.55300
C  19.75500 -3.75900 27.91500
C  19.55400 -3.62800 26.53300
C  18.61600 -2.47100 26.37900
C  20.49800 -4.73600 28.76000
C  20.26700 -4.31500 25.37900
O  20.00600 -4.12800 24.22100
C  21.35000 -5.26900 25.74400
N  16.64300 -0.23100 25.84600
C  17.34100 -0.92000 24.88300
C  17.04200 -0.29500 23.41400
C  15.92300 0.74300 23.73000
C  15.82100 0.71700 25.29200
C  18.36900 0.21000 22.74100
C  14.65400 0.51300 22.92900
C  13.65400 -0.53000 23.48500
N  15.49000 1.01300 28.19100
C  14.94300 1.92500 27.26600
C  14.25200 2.95600 27.96700
C  14.42000 2.59500 29.31900
C  15.19200 1.40300 29.38500
C  13.63700 4.15000 27.31700
C  14.12300 3.04000 30.61700
O  13.65000 4.14500 30.95400
C  14.89600 2.12900 31.62500
C  15.91400 2.91300 32.27800
O  17.05000 3.09100 31.87200
O  15.49100 3.24900 33.54400
C  16.41800 4.00500 34.37300
H  19.16100 -3.23700 30.63200
H  18.54200 -2.35200 24.21300
H  14.45600 2.30500 25.25200
H  17.52900 0.42700 32.89400
H  17.58800 -2.61200 32.31900
H  19.91500 -2.45800 32.73800
H  19.42800 -1.00700 33.63800
H  20.02300 -0.90700 32.02900
H  16.02500 -1.92200 33.70100
H  14.87400 -0.51600 33.14700
H  15.44100 -0.95100 35.59400
H  15.27400 0.64900 34.99800
H  21.55600 -4.78100 28.50200
H  20.16700 -5.76500 28.62200
H  20.53300 -4.58000 29.83800
H  22.24300 -4.70000 26.00100
H  21.64200 -5.94100 24.93700
H  21.04400 -5.87900 26.59400
H  16.61400 -1.12100 22.84400
H  16.31800 1.72600 23.47700
H  19.19300 0.06200 23.43900
H  18.21500 1.26500 22.51500
H  18.57300 -0.30500 21.80200
H  15.08300 0.17900 21.98400
H  14.07900 1.42000 22.74400
H  13.99500 -1.14700 24.31600
H  13.32900 -1.21000 22.69700
H  12.77400 0.00900 23.83600
H  13.63800 4.86300 28.14200
H  12.67200 3.94000 26.85600
H  14.33400 4.49700 26.55500
H  14.15600 1.83900 32.37000
H  16.72800 4.90600 33.84500
H  17.37600 3.52100 34.56200
H  16.05100 4.45000 35.29800
Mg -4.98500 26.02000 25.68500
C  -3.89200 27.28800 28.78700
C  -7.14000 24.04100 27.69600
C  -5.83800 24.38000 22.92100
C  -2.69400 27.99200 23.94800
N  -5.26700 25.58400 28.03800
C  -4.75900 26.30400 29.00800
C  -5.49000 26.01700 30.37500
C  -6.28400 24.73200 30.02400
C  -6.32300 24.82000 28.50100
C  -5.56600 23.44900 30.51700
C  -6.48500 27.15100 30.77900
C  -6.46300 27.40400 32.27800
H  -6.52300 26.12700 33.26900
N  -6.29600 24.40500 25.34300
C  -7.10800 23.77000 26.27500
C  -8.05100 22.86700 25.57800
C  -7.60900 22.90200 24.17100
C  -6.51900 23.91200 24.08600
C  -9.07700 21.96400 26.23600
C  -8.14200 22.13100 22.94800
O  -7.51700 22.12100 21.87000
C  -9.32200 21.23900 23.03900
N  -4.25100 26.01200 23.72800
C  -4.84200 25.31300 22.78500
C  -4.20400 25.73000 21.38700
C  -3.42100 27.06600 21.72500
C  -3.44000 27.05700 23.21700
C  -3.27800 24.57500 20.77200
C  -4.10400 28.31700 20.99400
C  -3.25500 29.21700 20.10300
N  -3.46300 27.29300 26.21700
C  -2.65800 28.09000 25.37600
C  -1.91000 28.98100 26.26800
C  -2.37300 28.66800 27.56500
C  -3.36700 27.67700 27.53400
C  -0.74700 29.82500 25.92000
C  -2.15900 29.01500 28.93800
O  -1.48000 29.89500 29.50500
C  -3.19600 28.15600 29.75200
C  -2.54800 27.35100 30.88100
O  -1.56400 26.63300 30.79900
O  -3.15100 27.50400 32.11600
C  -2.45500 26.85000 33.20600
H  -7.88000 23.41200 28.19700
H  -6.11500 23.78800 22.04500
H  -2.14100 28.72500 23.35700
H  -4.73500 25.69000 31.09000
H  -7.30300 24.73500 30.41100
H  -5.19400 22.76500 29.75500
H  -6.21300 22.99400 31.26700
H  -4.63200 23.64100 31.04400
H  -7.54200 27.04100 30.53900
H  -6.13300 28.10100 30.37700
H  -7.34300 28.02900 32.43000
H  -5.53500 27.90100 32.56200
H  -9.98200 21.88600 25.63500
H  -9.30400 22.41900 27.20100
H  -8.70700 20.99000 26.55600
H  -9.34800 20.52700 22.21400
H  -10.13000 21.95900 23.16500
H  -9.39600 20.56500 23.89200
H  -5.03500 25.96300 20.72100
H  -2.38800 26.92900 21.40600
H  -3.26800 23.73000 21.45900
H  -2.32700 24.92000 20.36500
H  -3.90600 24.22100 19.95400
H  -4.65700 28.94200 21.69500
H  -4.87400 28.01800 20.28200
H  -3.09000 30.26900 20.33500
H  -3.64700 29.23000 19.08600
H  -2.32400 28.67700 19.92800
H  -1.15000 30.82500 25.76100
H  -0.26600 29.56700 24.97600
H  0.04500 29.81300 26.66900
H  -3.91900 28.83500 30.20400
H  -1.46600 27.28000 33.35900
H  -2.33300 25.76800 33.15900
H  -2.97100 26.98500 34.15700

