158

Mg 24.67100 1.84700 29.45600
C  26.95900 1.61900 32.16100
C  22.10600 1.88400 31.69700
C  22.65000 2.00200 26.85800
C  27.38800 1.31400 27.32800
N  24.58900 1.74200 31.68100
C  25.63700 1.89300 32.56800
C  25.12200 2.11500 34.00600
C  23.57200 1.94300 33.89200
C  23.39500 1.89000 32.35300
C  22.81200 0.78200 34.73500
C  25.59500 3.36400 34.80100
C  24.97400 3.63800 36.20100
H  25.90300 3.40600 37.35700
N  22.69200 1.96000 29.34100
C  21.75600 1.90800 30.35100
C  20.41600 1.82300 29.77600
C  20.58100 1.80300 28.35000
C  22.03200 1.98000 28.12400
C  19.18600 1.80500 30.60600
C  19.48100 1.54300 27.30800
O  19.74900 1.57100 26.07600
C  18.00200 1.17700 27.78300
N  25.01300 1.80400 27.43900
C  23.99700 1.98000 26.49900
C  24.49100 1.87300 24.99900
C  26.10200 1.88900 25.24600
C  26.20100 1.59900 26.73500
C  23.98800 0.73000 24.22500
C  26.91000 3.16800 24.75900
C  26.68300 4.43500 25.53400
N  26.80300 1.53900 29.65700
C  27.71400 1.24700 28.67300
C  29.04500 1.04900 29.29500
C  28.78900 1.20600 30.73100
C  27.36600 1.43100 30.82800
C  30.37300 0.66900 28.62900
C  29.39900 1.20500 32.04200
O  30.57600 0.98500 32.30300
C  28.25300 1.57500 33.02000
C  28.19000 0.60200 34.11000
O  27.50400 -0.38600 34.20900
O  29.01600 0.95300 35.10800
C  29.19400 -0.02800 36.20400
H  21.31100 1.87300 32.44700
H  21.94900 1.98700 26.02100
H  28.18900 1.02300 26.64600
H  25.44600 1.22300 34.54300
H  23.04300 2.82500 34.25400
H  21.93900 0.96800 35.36100
H  23.57700 0.23600 35.28600
H  22.43800 0.14500 33.93400
H  25.33000 4.20000 34.15400
H  26.67900 3.24800 34.79200
H  24.09300 3.02000 36.37300
H  24.61100 4.66500 36.14700
H  18.83200 2.82900 30.48800
H  19.37100 1.79200 31.68000
H  18.51200 0.98800 30.34500
H  17.51700 1.92200 28.41300
H  18.14900 0.18200 28.20400
H  17.53700 0.83900 26.85600
H  24.21900 2.75400 24.41700
H  26.62300 1.11500 24.68400
H  23.00300 0.38900 24.54400
H  24.62100 -0.15700 24.27100
H  23.83500 0.92100 23.16300
H  26.47100 3.42700 23.79500
H  27.90900 2.88900 24.42600
H  26.37800 4.40700 26.58000
H  25.98900 5.08300 24.99700
H  27.67000 4.89600 25.54500
H  30.55100 1.33300 27.78400
H  30.44000 -0.33200 28.20400
H  31.12900 0.90600 29.37800
H  28.53200 2.54800 33.42600
H  28.49800 0.15300 37.02400
H  30.14600 0.09900 36.71900
H  29.15800 -1.03200 35.78000
Mg 9.53600 46.76900 26.55100
C  7.58400 46.77400 29.49700
C  12.28000 47.72700 28.49900
C  11.38600 46.57900 23.81100
C  6.61300 46.05300 24.74000
N  9.83700 47.38700 28.73900
C  8.95500 47.13600 29.76600
C  9.63300 47.36000 31.06900
C  11.07000 48.06300 30.76700
C  11.07800 47.75200 29.24100
C  11.24300 49.52400 31.27500
C  9.80700 46.04600 31.91300
C  9.23100 46.15300 33.35200
H  9.48500 45.13900 34.34500
N  11.47000 47.15000 26.17700
C  12.46800 47.46500 27.10000
C  13.66900 47.70900 26.37300
C  13.41900 47.41000 25.01700
C  12.06900 47.04000 24.96900
C  15.01800 48.19200 27.02800
C  14.36200 47.60100 23.80100
O  14.01500 47.24000 22.67900
C  15.66100 48.39200 23.94000
N  9.05700 46.43500 24.57900
C  10.05300 46.31900 23.58500
C  9.43700 45.85200 22.21700
C  7.96300 45.38300 22.64200
C  7.85700 45.93300 24.08800
C  9.37900 46.85200 21.10500
C  7.68200 43.86600 22.41200
C  8.43400 43.01500 23.47100
N  7.49400 46.48100 26.94200
C  6.41700 46.30600 26.10300
C  5.14800 46.24100 26.83500
C  5.56800 46.34600 28.19500
C  7.00200 46.50800 28.20500
C  3.73800 46.13300 26.23900
C  5.07900 46.42200 29.59600
O  3.94200 46.40300 30.01800
C  6.38900 46.60100 30.51900
C  6.42600 45.33200 31.28100
O  7.05300 44.34000 30.87500
O  5.69100 45.44800 32.44800
C  5.90900 44.32500 33.37900
H  13.13100 48.09800 29.07400
H  11.94100 46.48400 22.87500
H  5.68700 45.71400 24.27200
H  8.99600 48.10100 31.55200
H  11.90400 47.53700 31.23200
H  11.86900 49.61000 32.16300
H  10.23900 49.82800 31.57200
H  11.68000 50.19300 30.53400
H  10.83900 45.69600 31.91900
H  9.39600 45.16400 31.42000
H  8.16800 46.27000 33.14400
H  9.55100 47.13100 33.71400
H  14.88300 48.00900 28.09400
H  15.16800 49.26600 26.90900
H  15.89700 47.63200 26.70900
H  15.37800 49.42100 24.16200
H  16.25300 48.41400 23.02400
H  16.35200 48.01100 24.69200
H  10.06100 44.98400 22.00700
H  7.27800 45.85000 21.93300
H  8.51300 47.50700 21.19500
H  9.37900 46.28900 20.17200
H  10.27400 47.46700 21.01000
H  8.10400 43.55900 21.45500
H  6.61300 43.65500 22.42800
H  7.72100 42.27700 23.83800
H  8.79200 43.59800 24.31900
H  9.25700 42.46500 23.01400
H  3.05400 45.90500 27.05700
H  3.74900 45.38600 25.44600
H  3.44700 47.05900 25.74300
H  6.22300 47.44000 31.19500
H  6.38000 44.65400 34.30500
H  6.53200 43.50100 33.03100
H  4.96600 43.83400 33.61900

