158

Mg 16.40400 -1.16900 26.92100
C  15.26600 0.89900 29.56400
C  18.48300 -2.74400 29.18300
C  17.79600 -2.60900 24.27300
C  14.72300 1.09000 24.68100
N  16.96100 -0.85400 29.10800
C  16.31200 0.03100 29.96900
C  16.83600 -0.24900 31.43900
C  18.09900 -1.16400 31.18900
C  17.85000 -1.64100 29.72500
C  19.47000 -0.54400 31.43700
C  15.73300 -0.92100 32.35900
C  15.88100 -0.86300 33.92700
H  17.01000 -0.03700 34.55800
N  17.67400 -2.65500 26.77800
C  18.46200 -3.15400 27.77700
C  19.33000 -4.26200 27.28300
C  19.16200 -4.26100 25.87900
C  18.17600 -3.12800 25.57300
C  20.07000 -5.26000 28.06300
C  19.86200 -5.15600 24.91500
O  19.64400 -4.96100 23.75200
C  20.79300 -6.34200 25.25400
N  16.39200 -0.69600 24.74800
C  16.89500 -1.61500 23.93100
C  16.58100 -1.26400 22.41400
C  15.33200 -0.30800 22.60800
C  15.55100 0.14900 24.07700
C  17.90300 -0.60200 21.75000
C  13.97400 -0.99300 22.28700
C  12.89500 -0.03100 21.82700
N  15.19800 0.51600 27.03700
C  14.48100 1.26100 26.07600
C  13.49600 2.07600 26.70200
C  13.85200 2.07700 28.06100
C  14.88800 1.13900 28.22900
C  12.41500 2.77800 25.92900
C  13.43300 2.48200 29.43600
O  12.47300 3.14400 29.65500
C  14.32100 1.78900 30.46200
C  14.99300 2.90800 31.22500
O  15.50200 3.89600 30.73600
O  14.95900 2.64400 32.55700
C  15.69800 3.68000 33.30200
H  19.18200 -3.27000 29.83600
H  18.10400 -3.20300 23.41000
H  14.08000 1.61900 23.97500
H  17.17400 0.69300 31.87200
H  17.88400 -2.05700 31.77600
H  20.23500 -1.23700 31.78700
H  19.39300 0.15500 32.26900
H  19.80300 -0.03000 30.53500
H  15.69600 -1.98900 32.14100
H  14.76900 -0.52800 32.03800
H  15.98300 -1.87100 34.32700
H  14.87100 -0.57700 34.22100
H  19.86900 -5.01100 29.10500
H  21.13700 -5.20800 27.84900
H  19.58400 -6.22600 27.92200
H  21.74100 -5.94400 25.61500
H  20.97600 -7.03300 24.43100
H  20.24300 -6.84800 26.04800
H  16.25000 -2.22900 22.02900
H  15.45700 0.59800 22.01500
H  18.18900 0.25800 22.35500
H  17.45400 -0.15700 20.86200
H  18.73600 -1.28100 21.57000
H  13.58500 -1.41100 23.21600
H  14.09500 -1.80700 21.57200
H  12.42200 -0.35000 20.89900
H  13.27600 0.96000 21.58000
H  12.16300 0.04400 22.63200
H  11.79200 3.23300 26.69900
H  11.92300 1.98200 25.37100
H  12.77300 3.46800 25.16600
H  13.64400 1.26100 31.13300
H  14.94600 4.34500 33.72700
H  16.58700 4.08400 32.81800
H  16.06200 3.15200 34.18300
Mg 17.55500 50.82900 26.63200
C  19.48200 49.27800 29.09100
C  15.21900 51.71800 28.93000
C  15.42500 51.45500 24.09300
C  19.72100 49.30700 24.14500
N  17.31000 50.39400 28.73700
C  18.35800 49.98500 29.57300
C  17.98100 50.18300 31.00000
C  16.45600 50.68800 30.88800
C  16.28900 50.99900 29.41800
C  15.43600 49.64900 31.47200
C  18.94900 51.24500 31.53700
C  18.74500 51.73400 32.95900
H  17.83700 50.89800 33.91200
N  15.74000 51.79000 26.50500
C  14.92500 52.03700 27.56800
C  13.76600 52.68400 27.13600
C  13.80900 52.64800 25.71900
C  15.05000 51.91900 25.37900
C  12.85800 53.36800 28.16700
C  12.88700 53.34100 24.76200
O  13.14400 53.54100 23.57600
C  11.60200 53.95900 25.24900
N  17.50200 50.27600 24.48200
C  16.46700 50.66300 23.70400
C  16.79800 50.46300 22.18000
C  18.25800 50.05300 22.26000
C  18.56200 49.88300 23.70100
C  15.78900 49.46200 21.45300
C  19.25100 51.04700 21.55100
C  20.24900 50.40300 20.51400
N  19.25800 49.54400 26.55200
C  20.02400 49.03300 25.53100
C  21.07700 48.18300 26.11700
C  20.93600 48.29000 27.48800
C  19.87800 49.16400 27.74200
C  22.18000 47.57000 25.20700
C  21.46200 47.77800 28.79100
O  22.41200 47.07600 29.02200
C  20.61200 48.52800 29.87800
C  20.10600 47.62200 30.95800
O  19.33400 46.69700 30.79400
O  20.73700 48.02400 32.16200
C  20.21300 47.30000 33.32400
H  14.61900 52.13400 29.74200
H  14.69500 51.54700 23.28500
H  20.42100 48.99300 23.36800
H  18.03200 49.23400 31.53400
H  16.34800 51.56500 31.52700
H  15.89300 48.83200 32.03100
H  14.97600 49.10200 30.64900
H  14.70400 50.07200 32.16000
H  18.81200 52.15000 30.94600
H  20.01400 51.05100 31.41500
H  18.34700 52.74300 32.85300
H  19.74000 51.82400 33.39500
H  13.31600 54.33500 28.37600
H  12.76800 52.83700 29.11400
H  11.83000 53.35300 27.80500
H  10.89200 53.29100 25.73700
H  11.19000 54.41000 24.34700
H  11.85800 54.77300 25.92800
H  16.73200 51.43400 21.68900
H  18.25300 49.07300 21.78200
H  14.98700 49.27900 22.16700
H  16.36100 48.56100 21.23000
H  15.43000 49.84300 20.49700
H  19.95700 51.55400 22.21000
H  18.73700 51.83300 20.99700
H  20.16400 50.76800 19.49100
H  19.95700 49.35600 20.43400
H  21.29300 50.35300 20.82300
H  23.00000 47.19600 25.81900
H  22.55300 48.34900 24.54200
H  21.70400 46.78700 24.61600
H  21.22500 49.27900 30.37600
H  20.01800 46.23600 33.19200
H  19.43000 47.84600 33.85200
H  21.13100 47.27700 33.91000

