158

Mg 30.77700 58.75800 40.91700
C  27.92400 56.91500 39.92900
C  32.73300 56.26400 39.53000
C  33.51900 60.74500 41.34700
C  28.68600 61.43100 41.70300
N  30.34300 56.91000 39.72700
C  29.13600 56.32400 39.57600
C  29.22700 54.80100 39.05200
C  30.79800 54.65500 39.10400
C  31.30800 56.03500 39.45200
C  31.39300 53.37800 39.96600
C  28.60100 54.68900 37.67500
C  28.40700 55.90800 36.80800
H  28.09600 55.68400 35.36400
N  32.80700 58.51700 40.61000
C  33.38400 57.37300 40.03400
C  34.78700 57.60700 40.05400
C  35.07200 58.79700 40.71700
C  33.80000 59.40700 41.02700
C  35.76000 56.60100 39.34900
C  36.49700 59.39000 40.93600
O  37.51100 58.84200 40.49400
C  36.70300 60.55100 41.88300
N  31.05700 60.84500 41.37300
C  32.27200 61.39300 41.44300
C  32.12900 62.92100 41.60300
C  30.60500 63.10200 41.92300
C  30.05200 61.69300 41.68500
C  33.12900 63.62000 42.57600
C  30.05200 64.21400 41.02000
C  28.87600 65.06400 41.52500
N  28.70000 59.20300 40.85100
C  27.99400 60.27300 41.24400
C  26.58000 59.98900 41.12100
C  26.53200 58.66900 40.59000
C  27.82600 58.23200 40.49500
C  25.54900 61.01900 41.42200
C  25.60900 57.54400 40.24800
O  24.37900 57.46000 40.24100
C  26.52100 56.35500 39.80000
C  26.34300 55.20800 40.71800
O  26.86900 55.10700 41.79900
O  25.41400 54.44800 40.07300
C  24.88500 53.31900 40.88500
H  33.30400 55.41300 39.15300
H  34.36900 61.40400 41.15900
H  28.17700 62.38300 41.86600
H  28.72300 54.08800 39.70500
H  31.22300 54.45900 38.12000
H  30.61700 52.66400 40.24100
H  31.96300 53.53300 40.88100
H  32.19700 52.95100 39.36700
H  27.55400 54.39400 37.75300
H  29.12000 53.94200 37.07500
H  29.34100 56.46800 36.76100
H  27.54500 56.51300 37.09000
H  36.18000 57.22500 38.56000
H  35.27500 55.69400 38.98800
H  36.52200 56.20700 40.02100
H  36.87100 61.53200 41.43800
H  37.57000 60.38900 42.52200
H  35.91000 60.73900 42.60600
H  32.53900 63.31900 40.67500
H  30.46600 63.30100 42.98500
H  33.61800 64.44600 42.06000
H  33.89300 62.92300 42.92300
H  32.65300 63.95000 43.49900
H  29.71400 63.90700 40.03000
H  30.89900 64.89000 40.91000
H  28.11700 65.15000 40.74700
H  29.34100 66.04400 41.63500
H  28.49300 64.76800 42.50100
H  25.88100 62.05600 41.37400
H  25.10000 60.69800 42.36200
H  24.79200 60.89200 40.64800
H  26.45900 55.95700 38.78700
H  24.27300 53.55200 41.75700
H  25.68800 52.60400 41.06600
H  24.21700 52.76400 40.22800
Mg 26.78400 50.49200 27.16800
C  25.18200 51.81700 30.04000
C  29.22900 49.42900 29.24900
C  28.59000 49.58000 24.50900
C  24.42700 51.99000 25.17700
N  27.15800 50.78900 29.41900
C  26.32600 51.17000 30.38700
C  26.80300 50.68900 31.72600
C  28.24500 50.20400 31.44700
C  28.25500 50.17800 29.95200
C  29.35900 50.99700 32.13600
C  25.78900 49.61500 32.35200
C  24.87000 50.16100 33.52300
H  24.87800 49.34000 34.80900
N  28.76600 49.73100 26.90200
C  29.60600 49.28300 27.88100
C  30.71300 48.46800 27.27100
C  30.61500 48.65400 25.89100
C  29.31500 49.32700 25.70500
C  31.77400 47.74700 28.21100
C  31.55600 48.15000 24.80100
O  31.27300 48.32200 23.59300
C  32.89300 47.53900 25.19000
N  26.66100 50.84400 25.08800
C  27.37700 50.22500 24.18700
C  26.89500 50.58300 22.78500
C  25.42900 51.11000 23.01500
C  25.56000 51.34700 24.55100
C  27.83800 51.50700 21.93700
C  24.27900 50.12200 22.60400
C  24.46700 48.68100 22.97200
N  25.16600 51.60700 27.44100
C  24.28400 52.14900 26.56300
C  23.17000 52.75300 27.28900
C  23.52700 52.64500 28.60200
C  24.73500 51.97400 28.66400
C  21.97800 53.30700 26.62200
C  23.07500 52.99000 29.91500
O  22.03600 53.59700 30.26000
C  24.09300 52.29800 30.92600
C  24.59000 53.35100 31.86200
O  25.57900 53.98300 31.76400
O  23.70600 53.51900 32.90500
C  23.73300 54.76900 33.62000
H  29.98400 49.03700 29.93300
H  29.05300 49.16000 23.61400
H  23.54700 52.22100 24.57400
H  26.89200 51.55900 32.37700
H  28.43200 49.21200 31.85800
H  30.15000 51.27100 31.43800
H  29.87800 50.41600 32.89800
H  28.83200 51.88500 32.48400
H  26.36500 48.72900 32.61700
H  25.23600 49.27200 31.47700
H  23.85000 50.03400 33.16000
H  25.12300 51.18600 33.79500
H  31.66600 46.66200 28.21200
H  31.54900 48.12200 29.20900
H  32.80300 48.06100 28.03100
H  33.40300 47.26100 24.26800
H  32.65800 46.64800 25.77200
H  33.52100 48.19200 25.79600
H  26.90000 49.67700 22.17800
H  25.35800 52.00100 22.39100
H  28.70700 51.76900 22.54000
H  27.35500 52.34700 21.43900
H  28.22200 50.85200 21.15400
H  24.18900 50.11300 21.51700
H  23.36300 50.48800 23.06600
H  23.48800 48.43000 23.37800
H  25.22700 48.41000 23.70500
H  24.70900 48.17400 22.03800
H  22.26300 54.03300 25.86000
H  21.47400 53.83800 27.43000
H  21.31500 52.59100 26.13600
H  23.57600 51.45100 31.37700
H  22.69700 55.03700 33.82700
H  24.16000 55.58400 33.03600
H  24.34000 54.53000 34.49400

