158

Mg 8.51200 3.39900 28.31200
C  10.13500 1.75700 31.00800
C  6.57000 4.99400 30.34500
C  6.96700 4.37400 25.45200
C  9.99400 0.68800 26.16700
N  8.35700 3.34500 30.48800
C  9.20200 2.71100 31.39800
C  8.91200 3.32300 32.73400
C  7.55500 4.16600 32.58500
C  7.51200 4.21200 31.05400
C  6.27800 3.39300 33.15300
C  10.23700 4.14700 33.31300
C  10.89500 3.62300 34.58500
H  10.96900 4.61800 35.81100
N  7.13600 4.67300 27.93600
C  6.31300 5.16400 28.95600
C  5.31900 6.07400 28.34300
C  5.47300 5.97800 26.91900
C  6.57000 4.97600 26.74600
C  4.41500 6.98500 29.16700
C  4.75200 6.68000 25.83500
O  4.80000 6.48200 24.61900
C  3.75600 7.69800 26.18400
N  8.56800 2.66500 26.04900
C  7.86900 3.32700 25.10800
C  8.11900 2.73100 23.73500
C  8.97100 1.43700 23.97300
C  9.20800 1.60800 25.50500
C  6.80700 2.43600 22.90900
C  10.27600 1.33200 23.14800
C  10.31200 0.06700 22.24800
N  9.73300 1.68300 28.49200
C  10.26900 0.73600 27.55900
C  11.28400 -0.07900 28.22400
C  11.26200 0.34400 29.57100
C  10.34300 1.36000 29.66000
C  12.12600 -1.11400 27.62600
C  11.82300 0.09400 30.84500
O  12.61700 -0.72700 31.22500
C  11.25000 1.21400 31.81100
C  10.97100 0.39300 32.99900
O  10.05300 -0.39800 33.12200
O  11.91400 0.54500 33.96500
C  11.65000 -0.15000 35.29000
H  6.01400 5.49100 31.14200
H  6.26000 4.70400 24.68800
H  10.44100 -0.19400 25.70200
H  8.72000 2.53700 33.46400
H  7.68600 5.09700 33.13700
H  5.67700 4.03700 33.79500
H  6.49200 2.48700 33.71900
H  5.61100 3.09200 32.34500
H  9.88200 5.14600 33.56400
H  11.01900 4.30900 32.57200
H  11.86900 3.37700 34.16300
H  10.45400 2.68200 34.91400
H  4.58600 8.00200 28.81100
H  4.79500 7.06800 30.18500
H  3.39300 6.62900 29.03600
H  2.88900 7.28000 26.69600
H  3.34600 8.25000 25.33900
H  4.24600 8.50600 26.72800
H  8.54600 3.50100 23.09200
H  8.35300 0.54200 23.89700
H  5.95600 2.86100 23.44000
H  6.59500 1.37200 22.79900
H  6.85900 2.88400 21.91700
H  11.14900 1.33600 23.80100
H  10.48800 2.19500 22.51800
H  10.60600 0.54900 21.31600
H  9.41400 -0.53100 22.08900
H  11.14100 -0.54200 22.60700
H  11.45500 -1.92300 27.33600
H  13.02700 -1.34400 28.19400
H  12.61900 -0.75300 26.72400
H  12.05000 1.94900 31.90100
H  11.41900 0.54500 36.09700
H  12.60600 -0.61400 35.53100
H  10.89400 -0.92600 35.16600
Mg 5.75200 54.00500 40.44000
C  4.92300 50.44300 40.21900
C  8.71000 53.14600 38.92200
C  6.07700 57.18400 40.07500
C  2.46800 54.33800 41.68300
N  6.70500 51.94400 39.67700
C  6.18000 50.70800 39.65100
C  7.21000 49.69500 39.11300
C  8.53600 50.63100 38.95200
C  7.96900 52.04700 39.14100
C  9.60100 50.30900 40.01300
C  6.89000 49.19700 37.71400
C  6.14200 50.22600 36.76900
H  6.23900 50.13700 35.30700
N  7.22900 54.98200 39.62600
C  8.46900 54.47900 39.07900
C  9.27500 55.62700 38.85700
C  8.48100 56.76300 39.02600
C  7.21900 56.36200 39.58900
C  10.70500 55.46800 38.36900
C  8.99800 58.15800 38.77300
O  10.18500 58.38100 38.53800
C  8.22300 59.38900 38.96200
N  4.41500 55.56000 40.73100
C  4.85200 56.85800 40.63100
C  3.75500 57.88100 41.17000
C  2.60900 56.87200 41.55700
C  3.16300 55.50500 41.25400
C  4.35500 58.71800 42.32600
C  1.26200 57.18100 40.89000
C  -0.10900 56.88900 41.64900
N  4.00000 52.63300 40.91300
C  2.79000 52.99100 41.49700
C  1.98300 51.82600 41.73900
C  2.85600 50.78900 41.40000
C  4.01200 51.34000 40.76700
C  0.57400 51.78200 42.26400
C  3.01900 49.38300 41.28700
O  2.32600 48.48600 41.74000
C  4.32300 49.06200 40.50100
C  3.93700 48.15800 39.39100
O  3.28100 48.46300 38.37700
O  4.49800 46.94000 39.65100
C  4.36200 45.90300 38.57800
H  9.71100 53.02800 38.50100
H  6.30300 58.24800 39.98100
H  1.52800 54.54500 42.20000
H  7.45200 48.86100 39.77100
H  8.95600 50.70800 37.94900
H  9.53800 49.28000 40.36800
H  9.65600 51.10500 40.75500
H  10.51300 50.28400 39.41700
H  6.20600 48.37700 37.92900
H  7.79000 48.81500 37.23200
H  6.50300 51.24600 36.90600
H  5.08100 50.09300 36.97800
H  10.83700 56.01000 37.43200
H  11.07300 54.44500 38.28300
H  11.34800 55.88500 39.14500
H  8.79100 60.26700 38.65500
H  8.01500 59.46500 40.02900
H  7.36900 59.29800 38.29000
H  3.50900 58.47200 40.28800
H  2.39800 56.99300 42.62000
H  5.42300 58.85500 42.15800
H  4.10000 58.27500 43.28900
H  3.81000 59.66200 42.32600
H  1.26400 56.71200 39.90600
H  1.38600 58.19300 40.50200
H  -0.49900 57.86100 41.95300
H  -0.07800 56.23300 42.51900
H  -0.75500 56.37700 40.93600
H  -0.01500 52.26300 41.48300
H  0.36600 52.36500 43.16200
H  0.20500 50.78600 42.51100
H  5.00500 48.57800 41.19900
H  4.57300 46.22900 37.56000
H  3.36100 45.47000 38.57600
H  5.12100 45.18300 38.88400

