158

Mg 35.01900 3.44100 29.28700
C  33.05700 4.11200 31.99500
C  37.82700 3.48600 31.48200
C  36.94500 2.71200 26.74000
C  32.21900 3.75100 27.10000
N  35.38900 3.68700 31.43200
C  34.40500 3.94900 32.36500
C  34.91400 3.85800 33.78800
C  36.48300 3.90500 33.54400
C  36.62700 3.73000 32.11600
C  37.22700 5.26600 34.03000
C  34.50900 2.55500 34.52000
C  34.35600 2.71100 36.06600
H  35.06200 3.83100 36.85700
N  37.01100 3.03800 29.15400
C  37.97900 3.03500 30.16000
C  39.26300 2.51200 29.65000
C  38.99600 2.27300 28.28000
C  37.59500 2.67900 27.96200
C  40.40900 2.29500 30.57000
C  39.90600 1.61800 27.23600
O  39.64900 1.47100 26.04400
C  41.21600 1.12800 27.68800
N  34.63500 3.15700 27.20800
C  35.66800 2.98100 26.34900
C  35.11900 2.76000 24.89600
C  33.59400 2.99000 25.13200
C  33.42900 3.34700 26.56200
C  35.84000 3.53000 23.72800
C  32.57300 1.87400 24.62000
C  32.56300 0.57600 25.42900
N  32.98500 3.80100 29.44100
C  32.03100 3.98000 28.47400
C  30.76800 4.23000 29.16100
C  31.17600 4.34100 30.58200
C  32.49900 4.03100 30.69200
C  29.40100 4.34100 28.53500
C  30.61400 4.58400 31.89500
O  29.48800 4.89800 32.23300
C  31.86600 4.36200 32.93700
C  31.92300 5.52900 33.78600
O  32.32000 6.60200 33.46700
O  31.35500 5.22600 35.02000
C  31.09900 6.32400 36.00400
H  38.69600 3.42400 32.14000
H  37.65800 2.53800 25.93000
H  31.28900 3.86400 26.53900
H  34.57700 4.77300 34.27600
H  36.97600 3.13700 34.14100
H  37.88000 5.10200 34.88800
H  36.54100 6.08500 34.24600
H  37.66500 5.72600 33.14400
H  35.26000 1.78200 34.35200
H  33.56800 2.13600 34.16400
H  34.58500 1.76800 36.56200
H  33.33100 2.83500 36.41300
H  40.06900 1.60400 31.34100
H  40.57400 3.27800 31.01300
H  41.37500 2.03100 30.13900
H  42.05800 1.81600 27.76800
H  41.57200 0.34100 27.02400
H  41.08100 0.60700 28.63600
H  35.29800 1.71100 24.66000
H  33.28200 3.87900 24.58600
H  35.92000 2.78100 22.94000
H  36.77900 3.91600 24.12400
H  35.15000 4.34300 23.50100
H  32.90400 1.72800 23.59200
H  31.62700 2.40700 24.52800
H  32.66800 -0.11900 24.59500
H  31.57000 0.37800 25.83200
H  33.28500 0.43200 26.23300
H  29.32700 3.75600 27.61900
H  28.96200 5.31500 28.32100
H  28.69500 3.98500 29.28600
H  31.58100 3.47200 33.50000
H  30.70500 5.86200 36.90900
H  30.42300 7.08500 35.61400
H  31.93400 6.91800 36.37700
Mg 1.60900 42.42600 25.45900
C  3.29900 42.33600 28.62300
C  -1.28400 41.60600 27.23600
C  0.21900 41.51700 22.60900
C  4.71800 42.52500 23.93800
N  1.08700 42.02800 27.71200
C  1.95500 42.11800 28.78900
C  1.16200 42.21100 30.05400
C  -0.26200 41.70900 29.60500
C  -0.21000 41.81800 28.10000
C  -0.54500 40.29100 30.06400
C  1.21400 43.67700 30.71800
C  1.53500 43.83300 32.31200
H  1.33400 42.53100 33.03100
N  -0.27500 41.73900 25.01000
C  -1.34200 41.52200 25.85400
C  -2.55900 41.13300 25.06500
C  -2.11100 41.05500 23.73100
C  -0.69000 41.49100 23.72700
C  -3.89600 40.77700 25.68100
C  -2.86300 40.50300 22.58300
O  -2.36600 40.42600 21.42500
C  -4.31300 40.09000 22.76400
N  2.35900 42.18200 23.50300
C  1.54300 41.81300 22.49100
C  2.21500 41.92400 21.11600
C  3.68000 42.40700 21.54800
C  3.60400 42.46100 23.04600
C  2.11600 40.56900 20.36100
C  4.07500 43.75100 20.97700
C  4.98000 43.79700 19.75000
N  3.65800 42.44600 26.08800
C  4.79300 42.48000 25.33700
C  5.93900 42.63600 26.20700
C  5.43000 42.56200 27.48500
C  4.01300 42.40300 27.38000
C  7.45200 42.68800 25.78200
C  5.75600 42.57100 28.87400
O  6.79300 42.86600 29.48800
C  4.45900 42.40600 29.65200
C  4.66800 41.17600 30.52000
O  4.45200 40.04600 30.10900
O  5.13300 41.55700 31.78300
C  5.23800 40.49200 32.69000
H  -2.18400 41.37800 27.81100
H  -0.19100 41.53500 21.59700
H  5.63800 42.67100 23.37000
H  1.63700 41.56900 30.79500
H  -0.99400 42.41500 29.99800
H  0.35000 39.79700 30.44100
H  -1.02700 39.72000 29.27000
H  -1.42100 40.23700 30.71100
H  0.18200 44.02700 30.73100
H  1.74100 44.38200 30.07600
H  0.97800 44.70000 32.66700
H  2.61600 43.97500 32.31800
H  -4.15500 39.75700 25.39900
H  -4.58500 41.56400 25.37400
H  -3.82500 40.89400 26.76200
H  -4.17000 39.21800 23.40300
H  -4.80700 39.71600 21.86800
H  -4.81800 40.88200 23.31800
H  1.77900 42.59700 20.37800
H  4.43700 41.68100 21.25000
H  1.40900 40.67800 19.53900
H  1.65200 39.79800 20.97600
H  3.08200 40.22200 19.99200
H  4.32900 44.35500 21.84800
H  3.19100 44.27100 20.60700
H  5.91300 44.32100 19.95700
H  4.64700 44.33000 18.86000
H  5.16100 42.76800 19.43800
H  7.88900 41.69100 25.74500
H  7.97700 43.50800 26.27200
H  7.50500 42.92500 24.72000
H  4.35800 43.20900 30.38200
H  4.30800 40.24500 33.20100
H  5.94100 40.75300 33.48200
H  5.59300 39.57700 32.21600

