158

Mg 25.79100 0.90900 28.81400
C  27.62600 0.38100 31.77800
C  23.03000 1.16600 30.78800
C  24.01800 1.19500 26.02500
C  28.59900 0.12900 26.97700
N  25.40100 0.70100 31.08400
C  26.30300 0.52200 32.11700
C  25.58100 0.57600 33.49600
C  24.09300 0.67100 33.05200
C  24.13500 0.90200 31.57600
C  23.29800 -0.61500 33.45700
C  26.10400 1.85100 34.26700
C  25.39100 2.27800 35.58300
H  26.24000 2.12300 36.85300
N  23.81400 1.14200 28.40900
C  22.77100 1.23200 29.36700
C  21.51700 1.30600 28.57700
C  21.84000 1.52400 27.24300
C  23.25600 1.28100 27.19900
C  20.21300 1.36100 29.28100
C  20.92800 1.74900 26.00300
O  21.38600 1.72100 24.86500
C  19.48800 1.91400 26.18800
N  26.27400 0.67200 26.76900
C  25.34000 0.85700 25.80900
C  25.90600 0.68600 24.39900
C  27.37200 0.29000 24.65100
C  27.41000 0.34600 26.24300
C  25.11400 -0.32000 23.51700
C  28.48900 1.13900 23.98600
C  29.67300 0.40200 23.35100
N  27.76600 0.28700 29.23700
C  28.79300 0.12000 28.38000
C  30.04200 -0.00000 29.11000
C  29.65900 0.14100 30.45900
C  28.25100 0.32300 30.48300
C  31.40000 -0.07700 28.55500
C  30.12400 0.23000 31.89900
O  31.29100 0.12000 32.31600
C  28.81200 0.37500 32.79100
C  28.76900 -0.76200 33.74600
O  28.37600 -1.87600 33.53400
O  29.13200 -0.40900 35.00800
C  28.93900 -1.38700 36.05700
H  22.10800 1.20300 31.37200
H  23.47200 1.04200 25.09100
H  29.46100 0.02400 26.31400
H  25.90500 -0.24100 34.14000
H  23.48500 1.44200 33.52500
H  22.74800 -0.90300 32.56100
H  22.62000 -0.45100 34.29500
H  23.97500 -1.43800 33.68600
H  26.18200 2.73000 33.62800
H  27.13200 1.66000 34.57700
H  24.54800 1.61300 35.77500
H  25.05300 3.30300 35.43300
H  19.85400 2.35500 29.01300
H  20.29800 1.24900 30.36200
H  19.50200 0.60700 28.94300
H  18.98800 0.98000 26.44500
H  18.98400 2.15300 25.25100
H  19.42200 2.73500 26.90200
H  25.91300 1.70700 24.01700
H  27.57800 -0.75400 24.41600
H  24.58100 0.25200 22.75700
H  24.32700 -0.93000 23.96100
H  25.85800 -0.94600 23.02400
H  28.84300 1.89700 24.68400
H  27.90100 1.62500 23.20700
H  29.47000 -0.16400 22.44200
H  30.00700 -0.31300 24.10300
H  30.44800 1.13700 23.13200
H  32.12300 -0.17300 29.36400
H  31.72800 0.78500 27.97400
H  31.58900 -0.92000 27.89000
H  29.00300 1.32100 33.29800
H  27.98500 -1.15300 36.52900
H  29.75900 -1.23100 36.75700
H  29.02300 -2.43700 35.77700
Mg -10.79000 17.46000 41.83300
C  -7.25500 16.83800 41.75500
C  -10.08000 20.73900 40.99300
C  -13.93700 17.63500 40.79700
C  -11.06000 13.87000 41.87100
N  -8.86900 18.64100 41.43400
C  -7.58600 18.20900 41.52900
C  -6.65100 19.27800 40.98500
C  -7.46000 20.53300 41.33400
C  -8.91500 20.00600 41.33900
C  -7.00000 21.31300 42.61300
C  -6.42700 19.11100 39.38300
C  -5.00300 18.71800 39.03900
H  -4.92200 17.46400 38.19400
N  -11.91500 18.97100 41.06900
C  -11.47600 20.26200 40.81500
C  -12.62900 21.02000 40.31100
C  -13.76300 20.14900 40.23200
C  -13.22700 18.84000 40.75100
C  -12.44800 22.48100 39.79700
C  -15.10600 20.56000 39.76400
O  -15.36800 21.73500 39.62800
C  -16.24700 19.64200 39.67200
N  -12.24400 15.91200 41.10900
C  -13.52100 16.31300 40.90600
C  -14.47800 15.07600 40.90200
C  -13.45200 13.89000 41.03100
C  -12.15800 14.60300 41.37400
C  -15.49200 15.20300 42.01000
C  -13.32300 13.07200 39.69000
C  -13.66400 11.57300 39.75400
N  -9.45600 15.75400 41.97700
C  -9.75700 14.35100 42.09400
C  -8.56400 13.55000 42.34700
C  -7.54100 14.49900 42.26900
C  -8.13300 15.81200 41.97400
C  -8.44800 12.10300 42.74600
C  -6.12600 14.68700 42.29000
O  -5.25800 13.86300 42.37900
C  -5.87300 16.26600 41.93900
C  -5.09300 16.88800 43.01600
O  -5.45600 17.78000 43.81100
O  -3.80300 16.42100 42.89500
C  -3.01200 16.68300 44.06600
H  -9.92700 21.80800 40.83000
H  -15.02400 17.58800 40.70300
H  -11.22700 12.79300 41.94500
H  -5.67900 19.27500 41.47800
H  -7.44000 21.23600 40.50100
H  -6.20100 20.76400 43.11100
H  -7.86400 21.34300 43.27700
H  -6.66300 22.31500 42.34700
H  -6.70700 20.05700 38.91800
H  -7.05800 18.27100 39.09200
H  -4.41300 18.54400 39.93800
H  -4.59200 19.56900 38.49600
H  -11.42500 22.85700 39.79800
H  -13.05100 23.00800 40.53700
H  -12.70800 22.39200 38.74200
H  -16.58300 19.27200 40.64100
H  -15.90600 18.83400 39.02500
H  -17.03700 20.08600 39.06700
H  -15.16400 15.14000 40.05700
H  -13.63900 13.09400 41.75200
H  -15.18100 14.66600 42.90600
H  -16.38500 14.65000 41.72000
H  -15.83700 16.18600 42.32900
H  -12.24400 13.11900 39.54300
H  -13.95400 13.45400 38.88600
H  -12.86700 10.94200 40.14600
H  -13.76800 11.19600 38.73600
H  -14.57100 11.29700 40.29100
H  -9.35600 11.50500 42.83300
H  -7.91400 12.01100 43.69100
H  -7.85700 11.64200 41.95500
H  -5.21900 16.22800 41.06800
H  -3.63000 16.51500 44.94800
H  -2.68300 17.72100 44.01300
H  -2.14800 16.02200 43.99600

