158

Mg -1.69600 18.38700 27.19500
C  -2.10900 16.08800 29.78400
C  -2.15100 20.88900 29.35100
C  -1.53400 20.46500 24.62000
C  -1.54700 15.67400 24.94200
N  -2.26000 18.45900 29.30400
C  -2.28000 17.43700 30.20100
C  -2.51000 17.85300 31.74400
C  -2.57500 19.44900 31.43600
C  -2.29700 19.63700 29.95700
C  -3.92000 20.14500 31.85000
C  -1.41600 17.50600 32.78500
C  -1.19200 18.41300 34.01400
H  -0.88900 17.77500 35.35100
N  -1.97700 20.42000 27.02000
C  -2.10400 21.29400 28.00200
C  -2.16100 22.63600 27.47600
C  -1.75800 22.53500 26.07700
C  -1.77000 21.08000 25.85700
C  -2.21400 23.87300 28.29300
C  -1.48300 23.66400 25.03000
O  -1.03500 23.33900 23.94200
C  -1.63800 25.05300 25.36100
N  -1.74500 18.11100 25.07100
C  -1.50100 19.16400 24.21400
C  -1.37000 18.70300 22.73700
C  -0.99500 17.21300 22.96100
C  -1.55800 16.96300 24.35700
C  -2.68800 18.95400 21.81700
C  0.49700 16.72700 22.80000
C  0.76500 15.27100 22.37000
N  -1.73200 16.31700 27.29700
C  -1.64300 15.34600 26.30700
C  -1.65100 14.01300 26.98700
C  -1.92500 14.27600 28.31100
C  -1.86800 15.73100 28.48600
C  -1.60900 12.69200 26.31300
C  -2.17500 13.70600 29.63300
O  -2.28100 12.52700 30.00700
C  -2.27400 14.82100 30.62700
C  -1.18400 14.66500 31.56300
O  -0.04000 15.11500 31.39900
O  -1.71500 14.01300 32.67200
C  -0.77900 13.76400 33.74400
H  -2.14900 21.72100 30.05900
H  -1.44500 21.12000 23.75100
H  -1.29300 14.82500 24.30400
H  -3.44900 17.38800 32.04500
H  -1.77800 20.00000 31.93600
H  -3.57100 21.03800 32.37000
H  -4.55500 19.51100 32.46900
H  -4.51600 20.48900 31.00500
H  -0.45500 17.30200 32.31300
H  -1.62500 16.61700 33.38000
H  -2.03800 19.09800 34.06900
H  -0.29000 18.94600 33.71500
H  -1.17500 24.19400 28.37200
H  -2.57200 23.56400 29.27500
H  -2.87800 24.66800 27.95400
H  -2.65200 25.38100 25.13600
H  -0.90100 25.59300 24.76700
H  -1.29500 25.27800 26.37100
H  -0.49800 19.16900 22.27900
H  -1.56200 16.64600 22.22200
H  -3.43200 19.62200 22.25100
H  -3.16600 18.03600 21.47700
H  -2.26100 19.57500 21.02900
H  1.10200 16.91500 23.68600
H  0.90800 17.33300 21.99200
H  1.66000 14.91500 22.88100
H  0.86800 15.24000 21.28500
H  -0.12000 14.65900 22.54200
H  -1.14800 11.79000 26.71400
H  -1.11300 12.75100 25.34400
H  -2.57900 12.44500 25.88100
H  -3.25800 14.80500 31.09400
H  -0.61700 14.63600 34.37800
H  0.14500 13.43200 33.27000
H  -1.23000 12.91800 34.26200
Mg 26.20200 49.30100 26.38900
C  23.97100 50.68400 28.93400
C  28.29800 48.31700 28.95000
C  28.01700 47.92500 24.12900
C  23.97700 50.60100 24.04400
N  26.09400 49.55400 28.64000
C  25.06400 49.99200 29.45000
C  25.36700 49.86500 30.93400
C  26.80400 49.33300 30.94400
C  27.14800 49.04400 29.38700
C  27.90700 50.25400 31.65600
C  24.30100 48.91100 31.63100
C  24.02200 49.39800 33.04100
H  23.86300 48.31600 34.16100
N  27.99700 48.32900 26.47800
C  28.65500 47.91800 27.60600
C  29.84800 47.09900 27.17200
C  29.86700 47.22300 25.72400
C  28.56300 47.79200 25.39000
C  30.85600 46.60100 28.16200
C  30.91100 46.73500 24.70300
O  30.79700 46.77400 23.50100
C  32.13200 46.11100 25.19700
N  26.18500 49.45800 24.41400
C  26.88500 48.55000 23.70900
C  26.49600 48.42800 22.21200
C  25.32100 49.46800 22.21600
C  25.12500 49.85700 23.70400
C  27.44400 48.54000 20.98500
C  24.11600 48.96000 21.40900
C  23.00800 48.10100 22.12800
N  24.36000 50.40200 26.36900
C  23.62700 50.91300 25.35300
C  22.51700 51.65800 25.89100
C  22.59900 51.54000 27.24800
C  23.74500 50.79800 27.54100
C  21.47700 52.29400 25.09800
C  21.98500 52.05800 28.46400
O  21.10500 52.87400 28.60300
C  22.78300 51.42600 29.65300
C  23.05900 52.48500 30.62200
O  23.89900 53.38600 30.55200
O  22.38100 52.20700 31.78800
C  22.94400 52.90700 32.95700
H  28.98200 47.95400 29.72100
H  28.55000 47.37600 23.35000
H  23.23900 50.88200 23.29000
H  25.39200 50.84000 31.42000
H  26.80200 48.35300 31.42100
H  28.62800 50.46400 30.86700
H  28.30700 49.68100 32.49300
H  27.55700 51.20000 32.06900
H  24.63400 47.87900 31.74100
H  23.39000 48.94100 31.03300
H  23.08200 49.92700 32.88500
H  24.79800 50.08800 33.37200
H  30.70300 45.53000 28.29800
H  30.79500 47.16200 29.09400
H  31.87700 46.83200 27.85600
H  32.69200 45.93900 24.27800
H  31.83300 45.20600 25.72600
H  32.61100 46.90500 25.77100
H  26.07600 47.42500 22.14900
H  25.56600 50.44700 21.80400
H  28.50500 48.60300 21.22600
H  27.15500 49.46100 20.47900
H  27.15200 47.78300 20.25800
H  24.55400 48.41700 20.57100
H  23.60300 49.85400 21.05500
H  22.15800 48.78200 22.16600
H  23.24900 47.86500 23.16400
H  22.78900 47.17400 21.59700
H  21.21400 51.50300 24.39600
H  22.04100 53.12400 24.67200
H  20.62300 52.64400 25.67700
H  22.11900 50.76800 30.21300
H  23.98400 52.62200 33.11700
H  22.41800 52.53700 33.83700
H  22.68900 53.96500 32.91200

