158

Mg 17.35900 -2.50300 28.50100
C  16.68000 -0.27000 31.25200
C  19.04400 -4.34300 30.66700
C  18.40500 -4.07300 25.88200
C  15.88800 0.01900 26.33000
N  17.62600 -2.35500 30.73300
C  17.24400 -1.44200 31.68900
C  17.68300 -1.78700 33.07300
C  18.73100 -2.91500 32.80800
C  18.44700 -3.24700 31.30500
C  20.19200 -2.68100 33.08500
C  16.51000 -2.17200 33.91200
C  16.57400 -1.80600 35.38000
H  17.90100 -1.30500 35.95400
N  18.38800 -4.22100 28.37100
C  19.03300 -4.87700 29.36300
C  19.68400 -6.01400 28.79400
C  19.44800 -5.97600 27.38800
C  18.73300 -4.70400 27.11600
C  20.46400 -6.94300 29.69800
C  19.84900 -7.04100 26.32800
O  19.57400 -6.99800 25.11200
C  20.70600 -8.17500 26.76700
N  17.03800 -2.08800 26.37900
C  17.65600 -2.88400 25.52300
C  17.62400 -2.36000 24.11400
C  16.64400 -1.16300 24.14900
C  16.49300 -1.08000 25.68200
C  19.05600 -2.14000 23.57700
C  15.27100 -1.45600 23.45900
C  14.68200 -0.39400 22.49700
N  16.43700 -0.62400 28.71000
C  15.89800 0.20500 27.72400
C  15.33700 1.39400 28.34300
C  15.56000 1.27700 29.69500
C  16.26800 0.01100 29.86200
C  14.60900 2.52500 27.64600
C  15.48100 1.92000 30.98600
O  15.03400 3.07200 31.18800
C  16.16500 0.96900 32.09400
C  17.27300 1.60900 32.77600
O  18.48200 1.63000 32.58900
O  16.75200 2.21900 33.97300
C  17.59900 2.79300 35.04500
H  19.82400 -4.72700 31.32800
H  18.95700 -4.57400 25.08400
H  15.40800 0.74000 25.66500
H  18.28000 -1.01100 33.55200
H  18.49800 -3.82500 33.36000
H  20.74600 -2.47900 32.16800
H  20.78000 -3.54900 33.38300
H  20.36300 -1.87700 33.80100
H  16.38500 -3.24600 33.77300
H  15.60400 -1.79100 33.43900
H  16.29500 -2.73500 35.87600
H  15.81200 -1.05200 35.57600
H  21.38700 -7.27100 29.21900
H  19.84300 -7.81300 29.91200
H  20.57300 -6.42300 30.65000
H  20.24700 -8.75800 27.56500
H  21.69700 -7.92900 27.15000
H  20.80700 -8.93100 25.98800
H  17.23100 -3.15200 23.47600
H  17.17600 -0.28700 23.77800
H  19.22200 -1.15700 23.13500
H  19.35900 -2.86500 22.82200
H  19.77700 -2.16900 24.39400
H  14.57600 -1.66500 24.27200
H  15.26700 -2.33800 22.82000
H  13.94200 0.20800 23.02400
H  14.29300 -0.94100 21.63900
H  15.44500 0.31700 22.17900
H  13.73000 2.89300 28.17500
H  14.25100 2.23900 26.65800
H  15.35000 3.31100 27.49700
H  15.38500 0.71100 32.81100
H  17.05300 3.65500 35.42800
H  18.54800 3.20300 34.69900
H  17.67100 2.11100 35.89200
Mg 25.94400 -1.29800 29.03400
C  27.95100 -1.26500 31.95700
C  23.20800 -0.58800 31.26100
C  23.93700 -1.28800 26.37300
C  28.57200 -2.43900 27.16100
N  25.61700 -1.07600 31.38600
C  26.61800 -0.95700 32.31700
C  26.06400 -0.47000 33.73100
C  24.55500 -0.38000 33.45700
C  24.43800 -0.79400 31.93500
C  23.69800 -1.05700 34.53000
C  26.58600 0.88500 34.38800
C  27.32500 0.86900 35.68200
H  26.98800 1.81500 36.85600
N  23.89000 -0.98600 28.82400
C  22.98300 -0.69600 29.83200
C  21.75000 -0.45800 29.12800
C  21.93200 -0.51400 27.76800
C  23.32900 -0.99800 27.57300
C  20.39600 -0.33000 29.78900
C  20.93600 -0.15200 26.66200
O  21.32200 -0.07700 25.48900
C  19.54200 0.27100 26.90500
N  26.15700 -1.95100 27.07700
C  25.26000 -1.69300 26.14100
C  25.74600 -2.12200 24.72300
C  27.24400 -2.35500 24.98500
C  27.36400 -2.19100 26.50800
C  25.03200 -3.33500 24.13200
C  28.23800 -1.44100 24.19700
C  28.00500 0.05200 24.27800
N  27.82800 -1.87600 29.44600
C  28.78200 -2.25600 28.53500
C  30.03500 -2.31500 29.22900
C  29.74100 -1.91200 30.59300
C  28.41000 -1.67100 30.67400
C  31.30500 -2.84400 28.60500
C  30.36000 -1.68900 31.88500
O  31.49700 -1.78800 32.36500
C  29.19100 -1.17300 32.76000
C  29.01300 -2.01600 34.06500
O  28.60000 -3.14400 34.14700
O  29.65100 -1.30500 35.03900
C  29.61200 -1.83300 36.44900
H  22.37100 -0.23000 31.86500
H  23.35200 -1.10800 25.46900
H  29.46200 -2.70900 26.58800
H  26.46500 -1.26800 34.35600
H  24.17800 0.62900 33.62400
H  22.79900 -0.46100 34.69000
H  24.16700 -1.32700 35.47700
H  23.22300 -1.98400 34.20700
H  25.85700 1.68500 34.50800
H  27.26800 1.26100 33.62500
H  28.40200 0.83900 35.51400
H  27.03100 -0.10500 36.07100
H  20.44600 -0.42500 30.87300
H  19.79300 -1.18300 29.47700
H  19.83800 0.55800 29.49100
H  19.03800 -0.57300 27.37600
H  19.08400 0.45100 25.93300
H  19.44000 1.16800 27.51600
H  25.68600 -1.31000 23.99800
H  27.47100 -3.40000 24.77400
H  24.61300 -3.04200 23.17000
H  24.28300 -3.68100 24.84500
H  25.77200 -4.12500 24.00500
H  28.29000 -1.77300 23.16000
H  29.20300 -1.63000 24.66500
H  27.06600 0.29600 24.77400
H  28.10800 0.48900 23.28500
H  28.75600 0.55100 24.89100
H  31.39500 -2.64100 27.53700
H  31.36700 -3.92700 28.71500
H  32.16700 -2.43200 29.12900
H  29.32200 -0.12500 33.03000
H  28.64900 -1.75800 36.95500
H  30.39200 -1.54100 37.15200
H  29.76400 -2.91000 36.38100

