158

Mg 35.16600 3.33400 29.44400
C  33.11100 4.39400 31.86400
C  37.93500 3.20800 31.41000
C  37.10100 2.65000 26.75800
C  32.45500 3.91400 27.08700
N  35.54700 3.97000 31.34400
C  34.48600 4.11100 32.23700
C  35.02000 4.12800 33.66000
C  36.61000 3.98200 33.41700
C  36.75400 3.70300 31.95500
C  37.42900 5.23300 33.88100
C  34.28700 3.03600 34.49600
C  33.98800 3.36200 35.98500
H  34.99000 4.29800 36.72200
N  37.14600 2.77000 29.16800
C  38.10900 2.72800 30.13400
C  39.24300 2.05800 29.64400
C  39.07300 1.94600 28.25000
C  37.74700 2.47500 28.00400
C  40.45900 1.71600 30.44600
C  40.09200 1.51000 27.16800
O  39.74700 1.45600 25.95600
C  41.53100 1.34600 27.58500
N  34.83300 3.38300 27.27000
C  35.81800 3.02100 26.41000
C  35.36100 2.88900 24.97200
C  33.85900 3.32000 25.08000
C  33.64200 3.54000 26.58700
C  36.10000 3.77000 23.99100
C  32.82800 2.25600 24.47400
C  32.45100 0.98200 25.25400
N  33.13400 4.01300 29.44300
C  32.18000 4.20700 28.45800
C  30.93300 4.58700 29.06400
C  31.24700 4.71200 30.44800
C  32.60800 4.37200 30.56500
C  29.64200 4.61700 28.36400
C  30.65600 5.04900 31.71300
O  29.52100 5.40300 32.02500
C  31.82900 4.65700 32.69600
C  31.94500 5.68400 33.74100
O  32.69700 6.64000 33.69700
O  31.19100 5.40900 34.86100
C  31.19500 6.46100 35.88200
H  38.73300 3.09400 32.14700
H  37.59600 2.33600 25.83700
H  31.72200 4.25400 26.35200
H  34.75700 5.03500 34.20500
H  37.06700 3.12600 33.91300
H  36.86400 6.04500 34.33800
H  38.04200 5.74400 33.13800
H  38.18900 4.81300 34.53900
H  34.73100 2.04100 34.53000
H  33.27800 2.94300 34.09500
H  33.79300 2.49400 36.61600
H  33.05800 3.92600 35.92100
H  41.38500 2.20400 30.14100
H  40.59900 0.63600 30.39000
H  40.28900 1.99700 31.48500
H  42.18300 0.96000 26.80200
H  41.69500 0.66200 28.41800
H  41.82800 2.33000 27.94800
H  35.48200 1.82500 24.77100
H  33.67500 4.31700 24.67900
H  36.33700 4.75500 24.39400
H  35.46400 3.85600 23.11000
H  37.07000 3.33900 23.74300
H  33.16600 1.92600 23.49200
H  31.92200 2.82300 24.26000
H  31.37500 0.82000 25.31600
H  32.95100 0.87800 26.21700
H  32.77400 0.14000 24.64300
H  29.71000 4.90200 27.31400
H  28.98900 5.32900 28.86900
H  29.10700 3.67800 28.50500
H  31.65900 3.73500 33.25300
H  32.09800 6.33800 36.48000
H  30.34800 6.29400 36.54800
H  31.10700 7.43100 35.39400
Mg 17.08700 52.42700 26.47100
C  18.93600 50.81200 28.78800
C  14.86400 53.32600 28.87600
C  15.21700 53.96100 24.06500
C  19.26200 51.28500 24.01000
N  16.98400 52.15900 28.62000
C  17.84000 51.48500 29.37600
C  17.39200 51.42400 30.92600
C  15.86700 51.85400 30.74900
C  15.92300 52.61600 29.33000
C  14.83500 50.77800 30.87400
C  18.36000 52.37500 31.66300
C  18.39300 52.32600 33.20100
H  17.28300 51.52900 33.93400
N  15.21100 53.34700 26.45600
C  14.51600 53.70000 27.60900
C  13.42700 54.50600 27.30600
C  13.49200 54.66000 25.85400
C  14.68300 54.03600 25.39700
C  12.26100 54.84300 28.29400
C  12.46500 55.30400 24.83200
O  12.66100 55.51400 23.66700
C  11.12600 55.89000 25.31800
N  17.13100 52.45400 24.30700
C  16.27300 53.21900 23.53000
C  16.61100 53.10800 22.06700
C  17.87700 52.20000 22.06600
C  18.14800 52.00900 23.59400
C  15.46300 52.64300 21.20900
C  19.02600 52.70200 21.20500
C  19.67800 53.96500 21.80100
N  18.80200 51.31200 26.33600
C  19.56500 50.86200 25.27500
C  20.63900 50.05800 25.74200
C  20.38600 49.93000 27.09500
C  19.30400 50.82000 27.41200
C  21.71800 49.34700 24.93700
C  20.84300 49.33600 28.30600
O  21.71600 48.51900 28.47700
C  20.00700 49.95600 29.46700
C  19.46200 48.86300 30.38500
O  18.65500 48.01100 30.03700
O  19.93800 49.05700 31.61500
C  19.41800 48.06900 32.53800
H  14.10300 53.59000 29.61300
H  14.72000 54.61700 23.34700
H  19.95300 50.97100 23.22500
H  17.48300 50.38900 31.25500
H  15.72300 52.46900 31.63800
H  14.38300 50.80700 31.86600
H  15.38100 49.88000 30.58700
H  14.04800 50.92700 30.13500
H  18.08200 53.41800 31.51400
H  19.38000 52.26800 31.29500
H  18.43600 53.26000 33.76200
H  19.41800 52.06900 33.46600
H  11.57100 54.05400 28.59400
H  11.52800 55.56800 27.94100
H  12.74200 55.27400 29.17200
H  10.69500 55.09000 25.92100
H  10.56400 56.24800 24.45500
H  11.31400 56.69000 26.03300
H  16.78200 54.13200 21.73300
H  17.68000 51.20600 21.66600
H  15.64300 51.76800 20.58500
H  15.23600 53.32400 20.38900
H  14.55800 52.45900 21.78900
H  18.53300 53.04400 20.29500
H  19.71400 51.90200 20.93000
H  19.67900 54.80000 21.09900
H  20.71800 53.65500 21.90600
H  19.28600 54.24300 22.77900
H  21.37100 49.16100 23.92100
H  21.94800 48.42100 25.46500
H  22.62000 49.95900 24.91200
H  20.64800 50.65600 30.00300
H  19.57200 48.48500 33.53400
H  19.92400 47.10500 32.47900
H  18.33500 48.08400 32.41300

