158

Mg 48.36700 35.78100 28.11000
C  46.28800 34.02700 30.39900
C  48.66900 38.18700 30.32100
C  49.93500 37.47700 25.64800
C  47.39000 33.38200 25.69100
N  47.59200 36.00900 30.02500
C  46.89900 35.14600 30.79200
C  46.83000 35.64800 32.19700
C  47.12000 37.18400 32.10200
C  47.84000 37.15900 30.72600
C  45.84500 38.15000 32.18000
C  47.67400 34.81200 33.25600
C  48.68400 35.60800 34.18400
H  48.21500 36.66600 35.21100
N  49.32900 37.51900 28.06900
C  49.39400 38.38100 29.15300
C  50.16300 39.48300 28.81200
C  50.59700 39.32800 27.43400
C  49.95100 38.07400 26.95400
C  50.37400 40.66800 29.71400
C  51.36400 40.31800 26.52400
O  51.63900 40.01200 25.34700
C  51.92900 41.69700 26.92900
N  48.51500 35.47100 26.01600
C  49.26400 36.34700 25.19300
C  49.49300 35.80600 23.71500
C  48.96300 34.33200 23.96700
C  48.20900 34.43900 25.30300
C  48.83000 36.69800 22.60000
C  50.06100 33.27200 23.91400
C  49.70400 31.92400 23.27600
N  47.07600 34.06900 28.00400
C  46.77000 33.19500 26.93900
C  45.82800 32.15700 27.35500
C  45.51000 32.48700 28.68600
C  46.39700 33.58800 29.02700
C  45.35500 31.04100 26.36700
C  44.70900 32.17900 29.82400
O  43.92400 31.30700 30.10300
C  45.09700 33.22900 30.89300
C  45.32200 32.62200 32.21000
O  46.23300 31.87800 32.52400
O  44.36200 33.04900 33.09700
C  44.43500 32.63900 34.52900
H  48.70000 39.06200 30.97400
H  50.50100 37.98500 24.86400
H  47.15200 32.71100 24.86300
H  45.81700 35.49500 32.56900
H  47.82800 37.57400 32.83300
H  44.91500 37.61100 32.35600
H  45.72000 38.62900 31.20800
H  45.91100 38.98000 32.88300
H  48.14100 33.92900 32.82100
H  46.90500 34.35100 33.87600
H  49.44700 36.04200 33.53800
H  49.29700 34.87300 34.70400
H  50.10800 40.63200 30.77100
H  49.81500 41.47400 29.23800
H  51.42800 40.86000 29.91700
H  51.14200 42.44300 27.03900
H  52.52400 42.04400 26.08400
H  52.48700 41.58500 27.85900
H  50.55800 35.83100 23.48700
H  48.22000 34.03000 23.22900
H  49.49600 36.91900 21.76600
H  48.52500 37.64900 23.03600
H  47.94700 36.22400 22.17100
H  50.42400 33.10500 24.92800
H  50.80500 33.79100 23.31000
H  50.35600 31.74400 22.42200
H  48.71400 31.87600 22.82100
H  49.87400 31.11700 23.98900
H  44.49000 30.49000 26.73500
H  46.15900 30.32000 26.21900
H  45.18400 31.37000 25.34200
H  44.28400 33.95500 30.91500
H  45.47600 32.50700 34.82600
H  43.88100 31.76800 34.87900
H  43.92700 33.42600 35.08600
Mg 9.62000 47.43100 25.74200
C  7.29700 47.29100 28.53600
C  11.96600 48.37100 27.92800
C  11.63100 47.32700 23.13900
C  6.82900 46.90100 23.58000
N  9.57700 47.85000 28.05400
C  8.57400 47.59400 28.98000
C  9.13400 47.75900 30.41000
C  10.53900 48.34800 30.13800
C  10.70900 48.26100 28.59600
C  10.58400 49.86000 30.64700
C  9.02700 46.53000 31.35000
C  9.91400 46.40400 32.55500
H  9.27600 45.80700 33.86800
N  11.50300 47.94700 25.54200
C  12.29200 48.33100 26.59200
C  13.65500 48.53500 26.05500
C  13.58000 48.13200 24.63800
C  12.18800 47.76600 24.37500
C  14.93900 48.74000 26.85900
C  14.70900 48.08900 23.57900
O  14.43800 47.73900 22.45800
C  16.13000 48.39600 23.89200
N  9.24300 47.48200 23.62600
C  10.31100 47.28500 22.79500
C  9.69200 47.05000 21.32800
C  8.20000 47.05200 21.50800
C  8.07200 46.98200 22.98000
C  10.20400 48.16300 20.36400
C  7.60500 45.83600 20.74600
C  7.84300 45.76300 19.25600
N  7.52200 47.14300 25.97000
C  6.48200 46.97900 24.99200
C  5.21400 46.90000 25.66600
C  5.52100 47.00800 27.02400
C  6.91900 47.10400 27.18200
C  3.78500 46.80300 25.06000
C  4.92900 47.13000 28.28400
O  3.74300 47.11300 28.56700
C  6.01400 47.16000 29.32800
C  5.99300 45.91900 30.05100
O  6.48600 44.78700 29.75700
O  5.24300 46.14800 31.22600
C  4.97500 45.10300 32.19300
H  12.80100 48.62100 28.58600
H  12.19500 47.07100 22.23900
H  5.92800 46.89100 22.96300
H  8.55400 48.57800 30.83400
H  11.30000 47.82900 30.72100
H  10.45300 50.63800 29.89500
H  11.52000 50.06100 31.16800
H  9.83300 49.98900 31.42600
H  9.13300 45.63300 30.74000
H  7.99800 46.58900 31.70200
H  10.43100 47.32100 32.83900
H  10.61900 45.63100 32.24900
H  14.71500 48.72200 27.92600
H  15.49900 49.66400 26.71600
H  15.81200 48.11900 26.65800
H  16.45500 48.84300 22.95300
H  16.62800 47.53000 24.32700
H  16.10000 49.21300 24.61200
H  10.05500 46.04300 21.12200
H  7.72700 47.91100 21.03300
H  11.06400 48.59400 20.87700
H  9.43200 48.92700 20.26500
H  10.53900 47.81000 19.38900
H  6.53400 45.69400 20.89300
H  8.08800 44.95700 21.17200
H  7.77700 46.63800 18.60900
H  7.04600 45.11100 18.90000
H  8.79800 45.29200 19.02600
H  3.89000 46.50300 24.01800
H  3.10800 47.63100 25.26800
H  3.31200 46.07900 25.72400
H  5.87400 47.99400 30.01600
H  3.94400 44.77800 32.33300
H  5.37600 45.51700 33.11800
H  5.49300 44.16500 31.99300

