158

Mg 9.20000 47.56100 25.24700
C  6.94600 48.23300 27.87100
C  11.67700 49.09000 27.24700
C  11.23600 47.46500 22.65900
C  6.51400 46.88700 23.25900
N  9.35200 48.49500 27.36900
C  8.31700 48.47700 28.31500
C  8.78700 48.91400 29.71900
C  10.27800 49.39000 29.45500
C  10.46500 49.03000 27.97500
C  10.74000 50.79600 29.89100
C  8.54200 47.82300 30.80000
C  9.36000 47.73500 32.04100
H  8.77100 47.05100 33.29700
N  11.15000 48.06100 25.00800
C  12.00200 48.60600 25.95000
C  13.34100 48.66000 25.37400
C  13.25900 48.02500 24.15400
C  11.86300 47.83000 23.86900
C  14.64300 49.16000 26.11400
C  14.37800 47.71100 23.14500
O  14.17000 47.11700 22.10300
C  15.80900 48.17300 23.42000
N  8.95500 47.19300 23.23000
C  9.93200 47.10700 22.33800
C  9.49000 46.57300 20.97600
C  7.96100 46.28600 21.25600
C  7.77300 46.83500 22.63200
C  9.86600 47.54400 19.74300
C  7.49100 44.81400 21.11500
C  7.88700 43.76600 22.18600
N  7.12200 47.36000 25.53300
C  6.16500 47.20900 24.56400
C  4.85500 47.18100 25.19700
C  5.11000 47.52500 26.54300
C  6.52700 47.75700 26.66600
C  3.60100 46.80000 24.47500
C  4.50200 47.77100 27.82700
O  3.33500 47.69200 28.17400
C  5.61600 48.27700 28.71600
C  5.47100 47.42200 29.93900
O  5.96600 46.36400 30.08200
O  4.64500 48.13000 30.84500
C  4.65700 47.49800 32.18200
H  12.45100 49.36100 27.96900
H  11.84800 47.28500 21.77200
H  5.75200 46.74400 22.49000
H  8.24700 49.82300 29.98400
H  10.87500 48.72500 30.08000
H  9.94900 51.38600 30.35300
H  11.07100 51.34200 29.00700
H  11.52000 50.80800 30.65300
H  8.50900 46.83400 30.34200
H  7.61700 48.20100 31.23400
H  9.67700 48.71100 32.40900
H  10.25700 47.14900 31.84200
H  14.38400 49.73100 27.00500
H  15.30800 49.94600 25.75700
H  15.20100 48.27200 26.41100
H  16.07100 49.22500 23.53500
H  16.37400 47.80600 22.56300
H  16.21700 47.65300 24.28700
H  10.05800 45.64600 20.89500
H  7.36800 46.91900 20.59600
H  10.32400 48.41100 20.21900
H  9.01800 47.71600 19.07900
H  10.58900 47.10800 19.05400
H  7.86700 44.58500 20.11800
H  6.40400 44.76900 21.04000
H  8.47400 44.18800 23.00100
H  8.56200 43.01100 21.78300
H  6.94300 43.37100 22.56200
H  3.34300 45.75700 24.65600
H  3.76700 47.14700 23.45600
H  2.75800 47.34600 24.89900
H  5.39600 49.31100 28.98200
H  3.73500 47.80800 32.67400
H  5.53900 47.85400 32.71400
H  4.64000 46.41700 32.04200
Mg -3.16700 34.75500 26.72000
C  -5.20700 33.03700 29.03200
C  -2.42200 36.94300 29.39600
C  -1.49100 36.52800 24.62600
C  -4.24500 32.52800 24.31400
N  -3.72800 34.83800 28.95700
C  -4.47800 34.01000 29.68900
C  -4.29200 34.31000 31.19800
C  -3.73200 35.79700 31.15900
C  -3.32000 35.92500 29.70700
C  -4.80500 36.82800 31.58000
C  -3.47300 33.30900 31.93700
C  -3.47400 33.59900 33.44100
H  -2.18900 33.78400 34.11300
N  -2.07500 36.39900 26.93700
C  -1.85200 37.15300 28.11800
C  -0.85000 38.12300 27.81900
C  -0.47300 38.06600 26.49300
C  -1.43000 36.99100 25.96900
C  -0.24700 39.08100 28.85600
C  0.50300 38.86400 25.58800
O  0.77100 38.63400 24.37000
C  1.30300 39.94800 26.17000
N  -2.94100 34.64500 24.66800
C  -2.11500 35.42100 24.00700
C  -1.80000 34.88900 22.52000
C  -2.70900 33.61400 22.50100
C  -3.40900 33.62000 23.89800
C  -1.95300 35.88200 21.28400
C  -1.96700 32.24600 22.21900
C  -2.64600 31.33400 21.14900
N  -4.53800 33.24200 26.58700
C  -4.86000 32.42900 25.55700
C  -5.77500 31.34100 25.98100
C  -5.86900 31.57600 27.33100
C  -5.13300 32.73700 27.63800
C  -6.34600 30.27600 25.10400
C  -6.48600 31.00500 28.52900
O  -7.17300 29.99100 28.67100
C  -6.03200 32.00400 29.68200
C  -7.21200 32.41200 30.36700
O  -8.04700 33.25600 30.10900
O  -7.28600 31.69000 31.50800
C  -8.23600 32.06100 32.55700
H  -2.36100 37.68200 30.19800
H  -0.84700 36.95800 23.85500
H  -4.37000 31.74900 23.56000
H  -5.29700 34.31800 31.62100
H  -2.85800 35.93800 31.79500
H  -4.23300 37.48000 32.24100
H  -5.60000 36.37000 32.16700
H  -5.24100 37.56100 30.90100
H  -2.47400 33.27400 31.50300
H  -4.00200 32.37100 31.77000
H  -4.04500 32.87200 34.01800
H  -3.99200 34.53800 33.63400
H  -0.67200 40.08100 28.93300
H  0.84100 39.11900 28.79800
H  -0.42900 38.62200 29.82800
H  0.82200 40.65200 26.84900
H  1.68100 40.51100 25.31700
H  2.14300 39.52200 26.72000
H  -0.74800 34.60200 22.54300
H  -3.58000 33.78900 21.86900
H  -2.30700 35.36000 20.39500
H  -0.95100 36.22100 21.02200
H  -2.56800 36.73300 21.57800
H  -1.85000 31.71600 23.16400
H  -1.02400 32.66200 21.86400
H  -1.84500 31.17700 20.42600
H  -3.61700 31.69100 20.80500
H  -2.83700 30.36700 21.61400
H  -5.65600 29.63200 24.56000
H  -6.97300 30.89400 24.46000
H  -7.00000 29.59600 25.65000
H  -5.39500 31.39600 30.32400
H  -7.80500 32.71500 33.31500
H  -8.72400 31.23600 33.07400
H  -9.03500 32.65900 32.12000

