158

Mg 24.71700 -5.76200 46.17200
C  26.51700 -2.96000 45.09200
C  22.10400 -4.60500 44.02200
C  23.22300 -8.60100 46.67600
C  27.63400 -6.98700 47.82100
N  24.47200 -4.02800 44.65200
C  25.30700 -3.05000 44.38400
C  24.73300 -2.07500 43.32700
C  23.22000 -2.34000 43.52300
C  23.27400 -3.74500 44.11400
C  22.37500 -1.37600 44.45700
C  25.35600 -2.61700 41.98400
C  25.65200 -1.55400 40.88200
H  25.27100 -1.95300 39.46200
N  22.85600 -6.51200 45.50300
C  22.00900 -5.91200 44.63600
C  20.92100 -6.86400 44.40700
C  21.16400 -8.03400 45.16700
C  22.44800 -7.73800 45.87600
C  19.70400 -6.47400 43.65700
C  20.37900 -9.30000 45.12600
O  19.44600 -9.21700 44.32000
C  20.65200 -10.47300 45.92100
N  25.35400 -7.57800 47.05200
C  24.45300 -8.54800 47.23700
C  25.12500 -9.76300 47.91500
C  26.49700 -9.12100 48.40400
C  26.57700 -7.82500 47.64600
C  24.37700 -10.49100 49.04300
C  27.76100 -10.00200 48.23000
C  28.62300 -9.82700 46.94900
N  26.60800 -5.12300 46.51800
C  27.71800 -5.71900 47.18200
C  28.83200 -4.81400 47.05000
C  28.44600 -3.75500 46.21600
C  27.06500 -3.89500 46.00500
C  30.20900 -4.99700 47.70300
C  28.92100 -2.59300 45.50900
O  29.99000 -1.99000 45.56400
C  27.64900 -2.01400 44.76200
C  27.33600 -0.66400 45.17200
O  26.42900 -0.25300 45.81300
O  28.31100 0.10100 44.65100
C  28.15500 1.46100 45.03900
H  21.31800 -4.24400 43.35600
H  22.77800 -9.58200 46.85800
H  28.54000 -7.31300 48.33700
H  25.06500 -1.05100 43.49400
H  22.65900 -2.31500 42.58900
H  21.70100 -1.87300 45.15600
H  21.70100 -0.75200 43.87000
H  23.01900 -0.70500 45.02400
H  24.54500 -3.18000 41.52200
H  26.29800 -3.16500 42.01300
H  26.71700 -1.32500 40.86700
H  25.02200 -0.68400 41.07000
H  18.80900 -6.84600 44.15600
H  19.84600 -6.77900 42.62000
H  19.60100 -5.39200 43.73300
H  19.81300 -11.15500 45.78300
H  20.79100 -10.16200 46.95600
H  21.56700 -10.85200 45.46700
H  25.43000 -10.53200 47.20400
H  26.56100 -8.90000 49.47000
H  24.17900 -11.51600 48.73000
H  23.41400 -10.04700 49.29200
H  24.90700 -10.41200 49.99300
H  27.34300 -11.00600 48.15000
H  28.30700 -9.95800 49.17300
H  28.76500 -10.80400 46.48700
H  29.62200 -9.48800 47.22600
H  28.24400 -9.11300 46.21800
H  30.09400 -5.22500 48.76300
H  30.82300 -4.09900 47.64800
H  30.83500 -5.74200 47.21200
H  27.65100 -2.16400 43.68200
H  28.93500 2.05300 44.56000
H  28.13000 1.48300 46.12800
H  27.22800 1.94700 44.73400
Mg 16.56300 -1.91200 28.41600
C  15.38600 0.09700 31.12000
C  18.92700 -3.27100 30.67800
C  17.99600 -3.45900 25.86800
C  14.47200 -0.18600 26.30900
N  17.12200 -1.52800 30.63000
C  16.36600 -0.83400 31.47800
C  16.76200 -1.15500 32.91700
C  18.09500 -1.98100 32.84600
C  18.04500 -2.29700 31.30200
C  19.39500 -1.22600 33.25000
C  15.58800 -1.83900 33.67800
C  15.60200 -1.68300 35.19800
H  16.85200 -1.36200 35.99900
N  18.09800 -3.29300 28.33700
C  18.93600 -3.71700 29.31400
C  19.73500 -4.84000 28.76700
C  19.50100 -4.90300 27.39700
C  18.44700 -3.91200 27.11900
C  20.75200 -5.55700 29.56700
C  20.13900 -5.91200 26.31300
O  19.83000 -5.78000 25.17100
C  21.10700 -6.98000 26.69000
N  16.37800 -1.69100 26.44100
C  17.04500 -2.49300 25.51500
C  16.63000 -2.23700 24.03500
C  15.42500 -1.41100 24.31100
C  15.39000 -1.11400 25.81200
C  17.77200 -1.63700 23.17800
C  14.04300 -1.87900 23.71100
C  13.09800 -0.89800 22.94900
N  15.19900 -0.27700 28.59400
C  14.33000 0.17800 27.68800
C  13.44500 1.16000 28.26900
C  13.82800 1.17500 29.67500
C  14.96900 0.31400 29.77100
C  12.36800 1.92500 27.54400
C  13.49400 1.68500 30.99100
O  12.59200 2.43700 31.34600
C  14.54800 1.05900 31.97600
C  15.33200 2.09400 32.75100
O  16.06200 3.00500 32.24300
O  15.16500 2.05900 34.16000
C  15.91900 2.99700 35.07200
H  19.71800 -3.66800 31.31700
H  18.34300 -3.98400 24.97500
H  13.80400 0.28000 25.58100
H  16.93900 -0.19600 33.40400
H  17.92500 -2.93700 33.34100
H  20.06400 -1.53500 32.44700
H  19.55700 -1.70300 34.21600
H  19.33200 -0.14000 33.18500
H  15.73100 -2.89000 33.42600
H  14.72100 -1.56300 33.07900
H  15.21300 -2.57400 35.69100
H  14.89800 -0.87600 35.39800
H  20.89900 -5.18500 30.58100
H  21.76700 -5.58300 29.17100
H  20.32300 -6.53600 29.78000
H  21.26400 -7.61800 25.82100
H  20.60900 -7.66500 27.37600
H  22.06600 -6.55200 26.98300
H  16.39500 -3.23400 23.66100
H  15.59300 -0.39700 23.94700
H  17.71000 -0.55000 23.22800
H  17.60100 -1.84800 22.12300
H  18.78300 -1.89000 23.49900
H  13.50700 -2.21800 24.59800
H  14.26200 -2.70100 23.02900
H  12.04900 -0.91200 23.24400
H  13.09500 -1.15500 21.89000
H  13.56500 0.07800 23.08000
H  12.02600 1.40900 26.64700
H  12.73300 2.88800 27.18900
H  11.60100 2.01800 28.31300
H  14.02200 0.53400 32.77400
H  16.35300 2.42300 35.89000
H  15.16200 3.71600 35.38700
H  16.74600 3.53600 34.61100

