158

Mg 2.59600 -1.11800 43.93600
C  6.08100 -0.31100 43.78300
C  1.93600 1.85100 42.50100
C  -0.51200 -2.24800 43.46300
C  3.62700 -4.22400 44.98200
N  3.93500 0.46200 43.20300
C  5.22600 0.67100 43.27300
C  5.72500 1.97900 42.66800
C  4.36400 2.76800 42.62200
C  3.31000 1.61500 42.81600
C  4.08600 4.12600 43.45600
C  6.42800 1.78100 41.31600
C  7.74800 2.58900 41.08100
H  8.24800 2.57700 39.64200
N  0.96600 -0.31100 43.10700
C  0.81900 0.93100 42.58100
C  -0.53700 1.25800 42.19500
C  -1.27700 0.04300 42.44900
C  -0.27000 -0.90200 43.04800
C  -0.93300 2.55900 41.50000
C  -2.70700 -0.07500 42.10400
O  -3.29100 0.70900 41.41000
C  -3.43000 -1.33800 42.47900
N  1.73000 -3.04800 44.05700
C  0.41000 -3.26000 43.93300
C  0.05100 -4.79300 44.16200
C  1.36000 -5.29600 44.80400
C  2.31600 -4.14100 44.65600
C  -1.32900 -5.01400 44.90000
C  1.91500 -6.62300 44.25400
C  2.15100 -7.78800 45.23500
N  4.47300 -2.05800 44.33000
C  4.70200 -3.30900 44.85700
C  6.07300 -3.52800 45.12000
C  6.70500 -2.29300 44.66700
C  5.66600 -1.51100 44.24600
C  6.68200 -4.87000 45.62600
C  7.97100 -1.67400 44.52500
O  9.10400 -2.10500 44.72700
C  7.64800 -0.25200 43.93400
C  8.01300 0.77100 45.00300
O  7.76100 0.66500 46.18200
O  8.79500 1.77400 44.41100
C  9.05800 2.86600 45.38300
H  1.77700 2.87100 42.14500
H  -1.54500 -2.58600 43.36100
H  4.03500 -5.15900 45.37100
H  6.40600 2.50600 43.33600
H  4.31600 3.21000 41.62700
H  3.09800 3.96300 43.88800
H  3.97800 5.01800 42.83800
H  4.79800 4.23000 44.27500
H  5.71100 1.99200 40.52300
H  6.60500 0.70700 41.25700
H  8.56000 2.17400 41.67900
H  7.61300 3.64600 41.30800
H  -0.62200 2.47600 40.45900
H  -0.61000 3.51000 41.92400
H  -2.01500 2.59000 41.62500
H  -4.50700 -1.26000 42.32600
H  -3.27400 -1.55900 43.53500
H  -3.14700 -2.17400 41.83900
H  -0.01500 -5.24200 43.17100
H  1.19100 -5.45100 45.87000
H  -2.10300 -4.32400 44.56200
H  -1.08600 -4.90900 45.95700
H  -1.53400 -6.05100 44.63700
H  2.83400 -6.43300 43.70000
H  1.14800 -7.02000 43.58900
H  3.18900 -8.11100 45.15400
H  1.58600 -8.64600 44.87100
H  1.81500 -7.66900 46.26500
H  6.77100 -5.73400 44.96600
H  6.16700 -5.10400 46.55800
H  7.72900 -4.66200 45.84800
H  8.21400 -0.04400 43.02600
H  8.06600 3.27900 45.56300
H  9.84800 3.53400 45.04000
H  9.47300 2.40100 46.27800
Mg -2.08000 35.20200 27.05900
C  -4.10700 33.44000 29.20800
C  -1.15700 37.10800 29.76800
C  0.00400 36.82600 25.05200
C  -3.36400 33.43500 24.27500
N  -2.60500 35.28900 29.29200
C  -3.24900 34.30600 29.94000
C  -3.20300 34.52800 31.52600
C  -2.47700 35.94400 31.61100
C  -2.06700 36.14400 30.12300
C  -3.41100 37.00500 32.28400
C  -2.39400 33.36600 32.26500
C  -3.25800 32.68600 33.33100
H  -3.67700 33.49400 34.50300
N  -0.72800 36.73200 27.36700
C  -0.52700 37.47100 28.53600
C  0.37600 38.55900 28.29100
C  0.58200 38.51300 26.82600
C  -0.00600 37.26400 26.37200
C  0.80500 39.47900 29.28600
C  1.16300 39.63500 25.86700
O  1.16000 39.60000 24.70000
C  1.71200 40.86500 26.47800
N  -1.68100 35.09300 24.94700
C  -0.74700 35.87900 24.40000
C  -0.77400 35.71700 22.91200
C  -1.90800 34.70400 22.60700
C  -2.32200 34.37700 24.02800
C  -0.74800 37.06300 22.09200
C  -1.57800 33.45900 21.75900
C  -2.54500 32.93700 20.71800
N  -3.43400 33.76500 26.74300
C  -3.87600 33.12100 25.62000
C  -4.85500 32.10600 25.92100
C  -4.84600 32.16300 27.33400
C  -4.07400 33.25200 27.74000
C  -5.56400 31.12100 25.05500
C  -5.39600 31.51300 28.49300
O  -6.02700 30.44400 28.60400
C  -4.95100 32.38900 29.69700
C  -6.11600 32.90000 30.27400
O  -6.81500 33.81000 29.79700
O  -6.27300 32.38000 31.55700
C  -7.22000 33.04600 32.42700
H  -0.80100 37.58100 30.68600
H  0.70700 37.32700 24.38400
H  -3.93200 32.97200 23.46500
H  -4.24100 34.58600 31.85400
H  -1.57100 35.96600 32.21600
H  -2.91800 37.49700 33.12200
H  -4.35600 36.54900 32.57800
H  -3.72700 37.84500 31.66600
H  -1.50800 33.77300 32.75300
H  -2.12000 32.61500 31.52500
H  -2.61300 31.86400 33.64300
H  -4.13500 32.28900 32.82000
H  0.23100 40.37700 29.05600
H  1.87900 39.65800 29.33000
H  0.46900 39.12600 30.26100
H  0.86800 41.35600 26.96100
H  2.23300 41.43200 25.70600
H  2.43800 40.50100 27.20500
H  0.16000 35.19700 22.70200
H  -2.74100 35.07500 22.01000
H  -0.91200 37.88900 22.78400
H  -1.50800 36.96000 21.31700
H  0.23300 37.28200 21.67200
H  -1.36400 32.65400 22.46200
H  -0.65000 33.57900 21.20000
H  -2.20400 33.01200 19.68600
H  -3.45900 33.52900 20.68000
H  -2.81200 31.90200 20.93200
H  -4.95800 30.21600 25.08300
H  -5.59300 31.43900 24.01300
H  -6.57700 31.02500 25.44500
H  -4.49900 31.78100 30.48100
H  -7.98300 32.27900 32.56000
H  -7.67400 33.99800 32.15300
H  -6.74300 33.16300 33.40100

