158

Mg 7.77700 2.67600 27.22000
C  9.31400 1.54600 30.21200
C  5.86700 4.85800 29.07400
C  6.79000 4.14600 24.31800
C  9.81500 0.50500 25.50300
N  7.66100 3.14600 29.35000
C  8.37300 2.57600 30.41300
C  8.15800 3.37400 31.70200
C  6.79700 4.14100 31.38800
C  6.73700 4.03400 29.79700
C  5.48400 3.67100 32.16100
C  9.39400 4.17500 32.16100
C  9.22200 4.75700 33.58700
H  10.12700 4.26700 34.76700
N  6.33100 4.19100 26.70200
C  5.68800 4.93000 27.65900
C  4.75600 5.81800 27.03100
C  5.09100 5.77400 25.58900
C  6.06900 4.65500 25.45000
C  3.84400 6.74200 27.75300
C  4.66700 6.68500 24.40400
O  5.10200 6.60500 23.27200
C  3.65600 7.72900 24.80500
N  8.17300 2.30000 25.23900
C  7.72100 3.12900 24.24500
C  8.11200 2.57900 22.85800
C  9.07900 1.42200 23.22400
C  8.98000 1.39100 24.71000
C  6.97100 2.19000 21.84000
C  10.49700 1.75900 22.80700
C  11.30900 2.66100 23.74400
N  9.19700 1.21600 27.69200
C  9.97500 0.42200 26.88800
C  10.84900 -0.39900 27.71200
C  10.60300 0.03400 29.00300
C  9.55500 0.92400 29.02700
C  11.79400 -1.44100 27.20700
C  11.00400 -0.17600 30.34900
O  11.90600 -0.96000 30.70900
C  10.32800 0.85600 31.19100
C  9.68300 0.17300 32.30000
O  8.59300 -0.37600 32.29200
O  10.44900 0.37700 33.42100
C  9.81700 0.04400 34.68000
H  5.26100 5.42300 29.78500
H  6.67300 4.53600 23.30500
H  10.41300 -0.22600 24.95500
H  7.92900 2.61700 32.45200
H  6.82500 5.17600 31.72700
H  5.75800 2.74200 32.66000
H  4.73600 3.47000 31.39400
H  5.11300 4.44800 32.83000
H  9.42700 5.05500 31.52000
H  10.36800 3.68500 32.13700
H  8.18600 4.51100 33.81900
H  9.30300 5.82600 33.38600
H  4.13200 7.79300 27.76800
H  3.67000 6.32500 28.74500
H  2.85200 6.57500 27.33500
H  2.81300 7.14300 25.17100
H  3.42600 8.41500 23.99000
H  4.07800 8.28400 25.64200
H  8.68200 3.32000 22.29800
H  8.88800 0.43500 22.80300
H  5.95100 2.35800 22.18500
H  7.18500 1.14400 21.62100
H  7.12700 2.74200 20.91300
H  10.40000 2.17300 21.80300
H  10.99700 0.79000 22.79100
H  10.73700 3.06300 24.58000
H  11.51900 3.57100 23.18300
H  12.19500 2.13300 24.09700
H  11.97000 -1.30600 26.14000
H  11.50300 -2.48300 27.33900
H  12.70300 -1.32700 27.79700
H  11.08000 1.59400 31.47200
H  8.79000 -0.32000 34.65500
H  9.71400 0.93800 35.29400
H  10.46500 -0.74300 35.06600
Mg -12.60000 16.35900 42.54800
C  -9.57900 14.70000 41.95700
C  -11.35600 19.02200 41.00700
C  -15.79900 17.66500 42.79300
C  -14.03600 13.16100 43.53800
N  -10.75400 16.71200 41.37200
C  -9.60500 15.94500 41.48500
C  -8.38000 16.69700 40.93200
C  -8.95500 18.14900 40.89100
C  -10.45300 17.95600 41.14900
C  -8.33500 19.20900 41.98800
C  -7.88700 16.15000 39.56300
C  -6.43500 15.80700 39.37700
H  -6.03000 14.75400 38.34500
N  -13.48800 18.07700 42.02400
C  -12.71700 19.07300 41.34100
C  -13.62500 20.15700 41.05700
C  -14.88800 19.85600 41.58300
C  -14.82300 18.46800 42.17400
C  -13.19900 21.46800 40.38100
C  -16.06800 20.75300 41.42100
O  -15.99100 21.91400 40.94100
C  -17.46600 20.32300 41.88600
N  -14.72200 15.44700 42.84300
C  -15.79600 16.32700 43.03900
C  -17.02900 15.47800 43.66100
C  -16.30700 14.15000 44.10400
C  -14.94700 14.24500 43.44900
C  -17.72800 16.26900 44.86100
C  -17.06300 12.83700 43.93600
C  -16.98500 11.90200 45.10500
N  -12.01800 14.32000 42.69100
C  -12.70700 13.20100 43.21300
C  -11.72100 12.11300 43.30300
C  -10.51800 12.66200 42.87800
C  -10.69000 14.00100 42.48100
C  -11.96200 10.74800 43.80200
C  -9.14000 12.34600 42.55600
O  -8.38100 11.31900 42.72700
C  -8.48200 13.72800 42.02000
C  -7.38600 14.07900 43.01200
O  -7.62500 14.57100 44.13700
O  -6.15600 13.89700 42.45900
C  -5.07800 14.54200 43.19500
H  -10.87200 19.86100 40.50200
H  -16.70300 18.17400 43.13300
H  -14.38200 12.23700 44.00600
H  -7.61200 16.62700 41.70300
H  -8.83200 18.58600 39.90000
H  -8.93200 19.76200 42.71200
H  -7.76000 19.92900 41.40600
H  -7.57100 18.67800 42.55600
H  -8.10100 16.90800 38.81000
H  -8.48900 15.25800 39.39400
H  -6.08300 15.47300 40.35200
H  -5.96900 16.72600 39.02100
H  -12.20400 21.42200 39.93900
H  -13.27100 22.38200 40.97000
H  -13.82100 21.63300 39.50200
H  -17.76300 20.31400 42.93500
H  -17.53100 19.28000 41.57800
H  -18.21600 20.90000 41.34500
H  -17.70000 15.26300 42.82900
H  -16.12900 14.39600 45.15100
H  -16.97200 16.94000 45.26800
H  -17.91800 15.51800 45.62900
H  -18.64800 16.73200 44.50400
H  -16.58100 12.34900 43.09000
H  -18.08100 13.08100 43.63100
H  -17.94200 11.65700 45.56400
H  -16.27900 12.27900 45.84600
H  -16.57300 10.98500 44.68300
H  -11.00000 10.27900 44.00800
H  -12.47400 10.13000 43.06500
H  -12.54000 10.79500 44.72500
H  -8.03600 13.63900 41.03000
H  -5.24100 15.61600 43.11500
H  -4.10000 14.37100 42.74500
H  -4.99300 14.10800 44.19200

