158

Mg 26.13200 -0.31000 29.15800
C  28.01900 -0.48600 32.19200
C  23.33900 0.34400 31.27200
C  24.26100 -0.18400 26.42300
C  28.93600 -0.94100 27.38000
N  25.73400 -0.18200 31.55700
C  26.71400 -0.08500 32.46300
C  26.16200 0.37800 33.80900
C  24.55800 0.48600 33.52900
C  24.47800 0.18100 32.02500
C  23.69300 -0.59600 34.30100
C  26.70400 1.69000 34.46800
C  26.03000 2.10700 35.79700
H  27.00800 2.24600 37.00100
N  24.03800 -0.12100 28.88600
C  23.11000 0.14200 29.88400
C  21.78600 0.15600 29.16400
C  22.00400 0.04600 27.76500
C  23.46100 -0.06900 27.60400
C  20.46700 0.28600 29.86400
C  21.02100 0.06600 26.67200
O  21.39800 0.00900 25.51100
C  19.47300 0.15500 26.85100
N  26.56000 -0.61500 27.17600
C  25.62400 -0.44000 26.21600
C  26.26500 -0.29500 24.84900
C  27.78700 -0.66800 25.12800
C  27.78800 -0.78800 26.63000
C  25.65100 -1.09800 23.70700
C  28.81300 0.34400 24.55300
C  30.06200 -0.35600 23.91900
N  28.04200 -0.75300 29.60300
C  29.12500 -1.00300 28.77800
C  30.30500 -1.25600 29.60400
C  29.90900 -1.14600 30.90800
C  28.51600 -0.81400 30.91000
C  31.63100 -1.50400 29.04000
C  30.41000 -1.10200 32.23800
O  31.56600 -1.42400 32.67300
C  29.18200 -0.65900 33.10100
C  28.95300 -1.76500 34.14600
O  28.11000 -2.64800 34.04100
O  29.65400 -1.46000 35.32900
C  29.71800 -2.44300 36.42000
H  22.46900 0.65200 31.85600
H  23.70500 -0.26000 25.48700
H  29.92000 -1.07800 26.92700
H  26.40000 -0.47800 34.43900
H  24.23700 1.50600 33.74000
H  23.77900 -0.58200 35.38800
H  23.95500 -1.61100 34.00300
H  22.63800 -0.39900 34.11100
H  26.38600 2.48700 33.79500
H  27.78600 1.71600 34.59900
H  25.25700 1.36800 36.01000
H  25.66300 3.08400 35.48100
H  19.94400 1.22700 29.69800
H  20.74600 0.26000 30.91700
H  19.79600 -0.53300 29.60400
H  18.98400 -0.53800 27.53500
H  19.02900 -0.06800 25.88100
H  19.28100 1.18200 27.16300
H  26.18100 0.75000 24.55200
H  27.95200 -1.70900 24.85000
H  24.87800 -1.70800 24.17500
H  26.25500 -1.81500 23.15100
H  25.20800 -0.38700 23.01000
H  29.24500 1.05800 25.25300
H  28.31500 0.90200 23.75900
H  30.99700 -0.05800 24.39400
H  30.07700 -0.29900 22.83100
H  29.93900 -1.41400 24.15100
H  32.22200 -0.61400 29.25800
H  31.58300 -1.60600 27.95600
H  32.06400 -2.34400 29.58300
H  29.44400 0.23600 33.66700
H  29.64300 -3.47500 36.07600
H  28.91600 -2.19500 37.11500
H  30.64200 -2.33600 36.98800
Mg 46.61500 24.95500 28.32000
C  47.04200 27.26700 30.92400
C  45.84000 22.60100 30.63200
C  46.58300 22.85600 25.86400
C  48.04300 27.44800 26.14800
N  46.53600 24.93500 30.54900
C  46.54100 26.03600 31.32900
C  46.22500 25.69300 32.73600
C  46.03600 24.12200 32.70600
C  46.19800 23.77700 31.26600
C  46.88900 23.25800 33.63000
C  44.99700 26.44500 33.48000
C  45.29900 27.03600 34.89100
H  44.26800 26.89600 35.96800
N  46.07000 23.07800 28.26600
C  45.82700 22.20400 29.30500
C  45.45200 20.91500 28.77300
C  45.69500 20.94200 27.40900
C  46.12800 22.32900 27.12000
C  45.06500 19.68700 29.60900
C  45.45100 19.86500 26.25600
O  45.57900 20.14900 25.05700
C  44.89300 18.49700 26.58300
N  47.17200 25.11900 26.26800
C  46.98600 24.12000 25.37800
C  47.31700 24.48600 23.92800
C  47.86400 25.95100 24.06800
C  47.77200 26.17600 25.56300
C  48.29900 23.57800 23.16000
C  46.98200 26.94500 23.23700
C  47.63900 28.22500 22.85200
N  47.33500 26.95500 28.43600
C  47.85000 27.78700 27.49300
C  48.14600 29.07800 28.02100
C  47.77200 28.88500 29.40000
C  47.32400 27.56100 29.60900
C  48.76100 30.24000 27.31100
C  47.69300 29.61000 30.59900
O  48.04300 30.78800 30.90100
C  47.26000 28.55500 31.72900
C  48.36700 28.44000 32.75300
O  49.21200 27.54300 32.78100
O  48.34600 29.44900 33.66500
C  49.24000 29.22600 34.87000
H  45.33100 21.99500 31.38300
H  46.60800 22.10400 25.07300
H  48.52600 28.27900 25.63000
H  47.05500 25.91800 33.40600
H  44.97200 24.02100 32.92200
H  47.73400 22.90800 33.03700
H  46.28800 22.38300 33.87400
H  47.21800 23.77200 34.53300
H  44.10600 25.84300 33.65700
H  44.68600 27.28600 32.85900
H  45.32800 28.12000 34.77500
H  46.22500 26.60800 35.27300
H  44.01700 19.49800 29.37500
H  45.27200 19.78100 30.67500
H  45.50600 18.75000 29.26900
H  43.99400 18.64200 27.18100
H  45.66100 17.86400 27.02900
H  44.69900 17.90000 25.69200
H  46.31900 24.54200 23.49300
H  48.91700 26.15700 23.87900
H  49.11300 24.17800 22.75200
H  47.69900 23.09100 22.39200
H  48.78100 22.84500 23.80600
H  46.15800 27.11600 23.93000
H  46.84000 26.41700 22.29400
H  47.65000 28.24400 21.76200
H  48.67300 28.30500 23.18900
H  46.93900 28.95800 23.25200
H  48.12600 30.38000 26.43700
H  49.75300 29.98000 26.94100
H  48.79500 31.04800 28.04100
H  46.27000 28.77600 32.12800
H  49.06500 30.08300 35.52000
H  50.30400 29.30200 34.64500
H  48.93500 28.27600 35.31000

