158

Mg -3.00500 17.42600 27.77200
C  -3.63800 15.17000 30.42600
C  -3.42500 20.04200 29.86600
C  -2.85400 19.41900 25.14600
C  -3.11600 14.62500 25.59200
N  -3.39400 17.53500 29.89100
C  -3.44000 16.48000 30.84000
C  -3.65200 17.12500 32.24800
C  -3.89400 18.65700 31.92200
C  -3.55200 18.78400 30.43000
C  -5.27200 19.30200 32.28200
C  -2.39700 16.82200 33.16200
C  -2.28300 17.56300 34.55600
H  -2.25900 16.76000 35.82000
N  -2.93400 19.48400 27.57300
C  -3.20300 20.39600 28.51300
C  -2.93900 21.69400 27.95700
C  -2.62800 21.53200 26.57400
C  -2.86300 20.08000 26.34300
C  -3.02800 22.87500 28.79400
C  -2.10200 22.49800 25.61400
O  -1.91100 22.24000 24.40900
C  -1.62900 23.77800 26.00200
N  -2.99300 17.07600 25.65500
C  -2.91300 18.07400 24.79300
C  -2.88000 17.64400 23.34500
C  -2.92800 16.09300 23.45700
C  -3.00500 15.89900 24.99100
C  -4.05500 18.16800 22.45900
C  -1.81500 15.29800 22.72800
C  -0.46700 15.24500 23.42100
N  -3.33200 15.32000 27.87400
C  -3.40000 14.35100 26.94600
C  -3.86300 13.12200 27.59900
C  -3.96000 13.37500 28.91900
C  -3.57800 14.70400 29.06900
C  -4.10300 11.80500 26.83600
C  -4.30600 12.77000 30.21800
O  -4.70100 11.65200 30.50900
C  -4.04800 13.92700 31.27800
C  -3.01200 13.32000 32.19500
O  -1.74700 13.36700 32.04200
O  -3.62000 12.69600 33.28200
C  -2.79100 12.12100 34.29500
H  -3.43500 20.91300 30.52400
H  -2.83500 20.05800 24.26000
H  -3.09300 13.74600 24.94400
H  -4.55800 16.73900 32.71500
H  -3.13200 19.29000 32.37800
H  -5.17500 20.00200 33.11200
H  -6.08400 18.62900 32.55900
H  -5.67800 20.02500 31.57400
H  -1.47700 16.91900 32.58600
H  -2.51100 15.74800 33.31200
H  -3.09100 18.28900 34.65400
H  -1.41800 18.22500 34.55600
H  -2.97900 23.75500 28.15200
H  -2.18300 22.82400 29.48000
H  -3.94200 22.94500 29.38500
H  -0.90000 23.50600 26.76500
H  -2.37800 24.54400 26.20400
H  -0.98800 24.20300 25.23000
H  -1.93900 18.00100 22.92500
H  -3.94900 15.82500 23.18500
H  -4.88300 18.53000 23.06800
H  -4.37000 17.44500 21.70700
H  -3.54400 19.00300 21.97700
H  -1.70800 15.73900 21.73600
H  -2.09700 14.27500 22.47600
H  -0.44500 15.65200 24.43300
H  0.26700 15.81200 22.84800
H  -0.09100 14.22500 23.50200
H  -3.19700 11.22300 27.00600
H  -4.25400 12.11900 25.80300
H  -5.01700 11.33600 27.20000
H  -4.98100 14.09500 31.81500
H  -3.21900 11.17900 34.64000
H  -2.80500 12.82200 35.13000
H  -1.77300 11.89900 33.97700
Mg -1.46400 33.78300 26.98000
C  -3.48200 32.65800 29.59100
C  0.03000 35.91700 29.16700
C  -0.02100 35.39000 24.43600
C  -3.50500 32.03700 24.78200
N  -1.64200 34.16800 29.13400
C  -2.59500 33.60900 29.97600
C  -2.31300 33.93900 31.40300
C  -1.24900 35.13800 31.23100
C  -1.01500 35.19600 29.71600
C  -1.60700 36.47800 31.86100
C  -1.76000 32.71800 32.26100
C  -1.19800 33.15300 33.62500
H  -1.73900 32.59800 34.84000
N  -0.01000 35.28500 26.82300
C  0.54100 36.00700 27.83800
C  1.48800 36.89300 27.38500
C  1.47000 36.90600 25.96700
C  0.44600 35.87100 25.65600
C  2.34600 37.75800 28.36400
C  2.29500 37.60400 24.91700
O  2.20400 37.44700 23.75400
C  3.42100 38.48900 25.29700
N  -1.74800 33.70000 24.88400
C  -0.99500 34.45100 24.07300
C  -1.12800 34.05300 22.60100
C  -2.18000 32.89200 22.74200
C  -2.52300 32.85000 24.16100
C  -1.53700 35.20100 21.62300
C  -1.87200 31.51700 21.99700
C  -0.43700 31.08500 21.58900
N  -3.02200 32.52600 27.14800
C  -3.77700 31.92600 26.17500
C  -4.80500 31.07400 26.75200
C  -4.69400 31.36300 28.09400
C  -3.66900 32.26500 28.25900
C  -5.62800 30.05600 26.00000
C  -5.30800 30.93100 29.31600
O  -6.27200 30.18300 29.53500
C  -4.60000 31.85000 30.36200
C  -5.58700 32.69700 31.03900
O  -6.13000 33.70400 30.58900
O  -5.83500 32.20000 32.28800
C  -7.07300 32.68900 32.91000
H  0.48000 36.63900 29.85200
H  0.57600 35.75000 23.59500
H  -4.13900 31.49200 24.08000
H  -3.21500 34.40400 31.80100
H  -0.34000 34.85500 31.76200
H  -2.56100 36.50200 32.38700
H  -1.83200 37.20800 31.08400
H  -0.77500 36.84200 32.46400
H  -0.97100 32.28900 31.64400
H  -2.48200 31.93400 32.49000
H  -1.23000 34.24200 33.60200
H  -0.12200 32.97800 33.60200
H  2.33200 37.22700 29.31600
H  1.86700 38.72600 28.50800
H  3.37200 37.88700 28.02100
H  4.18400 37.89400 25.79900
H  3.01100 39.19600 26.01800
H  3.84400 39.04800 24.46200
H  -0.15200 33.78300 22.19800
H  -3.12000 33.26600 22.33800
H  -0.71100 35.37400 20.93300
H  -1.71300 36.11700 22.18700
H  -2.44100 35.01200 21.04400
H  -2.48300 31.59200 21.09800
H  -2.29800 30.72600 22.61300
H  0.33500 31.78700 21.90300
H  -0.36700 31.13100 20.50200
H  -0.23700 30.06000 21.90200
H  -6.54700 30.32900 25.48100
H  -5.68900 29.25200 26.73400
H  -5.05300 29.68700 25.15100
H  -4.14600 31.14400 31.05600
H  -7.63700 33.46200 32.38800
H  -6.70700 33.16100 33.82200
H  -7.57700 31.78800 33.26200

