158

Mg 23.66000 -6.04800 46.55600
C  26.11300 -3.54700 45.80400
C  21.54000 -4.45200 44.38500
C  21.70300 -8.66300 46.90400
C  26.38100 -7.93000 48.08000
N  23.89600 -4.22600 45.23600
C  24.96200 -3.35200 45.12300
C  24.70900 -2.40800 43.98800
C  23.09300 -2.46200 43.76500
C  22.83300 -3.83000 44.49400
C  22.30900 -1.25900 44.40900
C  25.48600 -2.85500 42.74200
C  26.78700 -2.08300 42.50600
H  27.08300 -1.48400 41.14000
N  21.82000 -6.48600 45.83100
C  21.05000 -5.66000 45.03100
C  19.73500 -6.27900 44.84100
C  19.70900 -7.51800 45.54300
C  21.14600 -7.63300 46.15000
C  18.63500 -5.60200 44.06200
C  18.55700 -8.51700 45.58900
O  17.46700 -8.44100 45.00000
C  18.69100 -9.68700 46.42500
N  23.94900 -7.96600 47.43600
C  22.95900 -8.86100 47.42400
C  23.43600 -10.23200 48.01500
C  25.01300 -10.09000 48.11000
C  25.14300 -8.58400 47.88300
C  22.73000 -10.81200 49.22700
C  25.78300 -10.91700 47.09400
C  26.69300 -11.97600 47.83600
N  25.70300 -5.76900 47.07800
C  26.62700 -6.64100 47.68000
C  27.85200 -5.95500 47.88300
C  27.76100 -4.83600 47.04200
C  26.41200 -4.72600 46.64600
C  29.14200 -6.45300 48.57900
C  28.50800 -3.72700 46.55300
O  29.65300 -3.45500 46.68400
C  27.43500 -2.80200 45.92300
C  27.36600 -1.51000 46.67700
O  27.08700 -1.31200 47.88300
O  27.42600 -0.42900 45.87200
C  27.09000 0.92700 46.39100
H  20.78700 -3.97400 43.75400
H  21.12100 -9.57200 47.07100
H  27.15800 -8.58700 48.47500
H  25.02600 -1.42500 44.33600
H  22.80600 -2.48300 42.71400
H  22.96200 -0.46200 44.76500
H  21.65400 -1.64600 45.19000
H  21.66100 -0.94700 43.59000
H  24.85400 -2.96800 41.86100
H  25.72600 -3.90000 42.94100
H  27.62200 -2.77400 42.61400
H  26.84200 -1.29600 43.25900
H  17.78100 -6.25700 43.89000
H  18.89200 -5.07400 43.14300
H  18.28100 -4.91200 44.82800
H  17.73800 -10.21500 46.46100
H  18.90600 -9.22000 47.38600
H  19.43200 -10.40000 46.06300
H  23.16700 -10.97500 47.26400
H  25.29900 -10.25700 49.14900
H  23.31000 -11.55100 49.78000
H  21.75500 -11.25800 49.02900
H  22.52700 -9.99200 49.91600
H  26.38000 -10.29600 46.42600
H  25.12800 -11.51000 46.45700
H  27.71500 -12.03300 47.45900
H  26.42000 -12.95200 47.43500
H  26.64800 -11.88200 48.92100
H  29.02700 -7.22000 49.34400
H  29.57600 -5.58900 49.08200
H  29.73000 -6.89500 47.77400
H  27.81900 -2.54700 44.93500
H  26.24000 0.86200 47.07000
H  27.06800 1.63900 45.56600
H  27.95300 1.12400 47.02700
Mg 35.45800 2.80100 29.64500
C  33.16500 3.63600 32.10500
C  38.03700 2.92200 32.12200
C  37.97800 2.07800 27.38100
C  33.13900 3.20400 27.23700
N  35.54900 3.08500 31.87800
C  34.46200 3.40200 32.64700
C  34.85400 3.39100 34.11400
C  36.40200 3.57400 34.05800
C  36.68300 3.15400 32.61400
C  36.87300 4.91900 34.57800
C  34.27500 2.11400 34.77600
C  33.81300 2.30200 36.22100
H  34.45900 3.38900 37.08800
N  37.56500 2.37600 29.76100
C  38.38800 2.52700 30.84300
C  39.73900 2.11000 30.60100
C  39.85600 1.98800 29.17600
C  38.41500 2.17500 28.69400
C  40.80600 2.09000 31.70700
C  41.05000 1.78900 28.30300
O  40.97700 1.51100 27.13400
C  42.51300 1.86800 28.90400
N  35.56100 2.56900 27.60200
C  36.69900 2.23000 26.83700
C  36.44700 2.39700 25.36800
C  34.86500 2.56400 25.38800
C  34.43100 2.82800 26.84100
C  37.25600 3.56300 24.68700
C  34.02800 1.42100 24.75900
C  33.87400 1.43900 23.21300
N  33.49600 3.21900 29.59000
C  32.59200 3.37000 28.59400
C  31.20100 3.57300 29.06600
C  31.37900 3.71500 30.44100
C  32.76800 3.48800 30.73200
C  29.95300 3.83000 28.22500
C  30.70300 3.93600 31.76000
O  29.52600 4.05800 31.98800
C  31.84900 3.93100 32.91300
C  31.84700 5.17600 33.69400
O  32.53200 6.15500 33.49900
O  31.01400 4.93800 34.74700
C  31.08600 5.88400 35.87200
H  38.82300 3.29800 32.78100
H  38.79400 2.16100 26.66000
H  32.45000 3.32600 26.39800
H  34.36700 4.21200 34.64100
H  36.87800 2.86900 34.74000
H  37.43900 5.56400 33.90700
H  37.38100 4.80600 35.53500
H  36.00600 5.51900 34.85500
H  35.11800 1.42400 34.80600
H  33.44100 1.84000 34.13000
H  33.91000 1.33600 36.71600
H  32.74500 2.46700 36.08000
H  40.40300 1.67100 32.62900
H  41.23300 3.07800 31.87900
H  41.58100 1.36300 31.46600
H  43.27800 2.39100 28.33200
H  42.84000 0.83600 29.03200
H  42.41000 2.38100 29.86100
H  36.85100 1.46600 24.97200
H  34.70500 3.46300 24.79300
H  37.45100 4.30800 25.45800
H  36.69700 4.04600 23.88600
H  38.16500 3.05200 24.37000
H  33.03100 1.37200 25.19700
H  34.53200 0.48300 24.99200
H  34.68900 2.06700 22.85200
H  32.94700 1.82300 22.78700
H  34.08700 0.45700 22.79100
H  29.22900 3.09900 28.58600
H  30.09100 3.67300 27.15600
H  29.55300 4.83100 28.38700
H  31.73900 3.15800 33.67300
H  30.25600 5.71100 36.55700
H  31.19200 6.93600 35.60800
H  31.97200 5.55600 36.41700

