158

Mg 35.95400 48.67100 26.09900
C  36.36100 46.75800 29.06900
C  34.74800 51.29500 27.93900
C  35.31900 50.13600 23.33600
C  36.45300 45.45600 24.39500
N  35.64100 48.95300 28.28200
C  35.99400 48.06100 29.28000
C  35.59400 48.70800 30.64600
C  34.68600 49.92400 30.25600
C  34.99800 50.12500 28.75600
C  33.20100 49.73300 30.55000
C  36.89700 49.04200 31.37300
C  37.12600 48.49800 32.77700
H  36.90600 49.49600 33.93500
N  35.32300 50.60000 25.69700
C  34.94100 51.54400 26.60400
C  34.63400 52.74900 25.86000
C  34.89200 52.43200 24.50400
C  35.11600 51.00900 24.46600
C  34.24600 54.05200 26.48700
C  35.01100 53.34700 23.29200
O  35.28600 52.96800 22.16000
C  34.86400 54.88800 23.41600
N  36.09900 47.92300 24.13100
C  35.68800 48.79100 23.17400
C  35.74100 48.12500 21.81600
C  36.11700 46.63100 22.11000
C  36.28600 46.65600 23.63300
C  34.46600 48.14000 20.96800
C  37.53500 46.25300 21.49700
C  37.75000 46.53900 19.99100
N  36.41500 46.53700 26.53600
C  36.61300 45.45500 25.76200
C  36.77500 44.23800 26.62200
C  36.78100 44.73700 27.88800
C  36.49000 46.09800 27.85200
C  36.76400 42.75800 26.16300
C  36.98400 44.32400 29.31200
O  37.31900 43.29100 29.89400
C  36.65300 45.62300 30.05100
C  35.47300 45.14900 30.88900
O  34.30700 45.10500 30.51000
O  35.89200 44.96100 32.20900
C  34.79800 44.85500 33.20000
H  34.22100 52.01400 28.56900
H  35.06500 50.64400 22.40300
H  36.60900 44.46900 23.95600
H  35.04000 47.95600 31.20800
H  35.21900 50.70700 30.79600
H  32.57000 50.31200 29.87600
H  33.02900 50.02000 31.58800
H  33.05600 48.65700 30.45100
H  37.06000 50.11900 31.41700
H  37.74400 48.67700 30.79300
H  38.16300 48.17300 32.86200
H  36.51800 47.59800 32.87000
H  34.34100 53.93300 27.56600
H  33.23400 54.29600 26.16400
H  34.93900 54.80300 26.10600
H  35.66300 55.29600 24.03500
H  33.83800 55.13400 23.69100
H  34.91900 55.19700 22.37200
H  36.51500 48.65000 21.25700
H  35.32400 45.94900 21.80300
H  34.83100 48.33000 19.95800
H  33.73300 48.88100 21.28600
H  33.97000 47.18800 20.77800
H  37.82200 45.24200 21.78600
H  38.19800 47.00800 21.92000
H  36.81300 46.70800 19.46200
H  38.20800 45.63600 19.58700
H  38.48900 47.32100 19.81300
H  37.82200 42.54800 26.00700
H  36.23200 42.78300 25.21200
H  36.18400 42.08400 26.79400
H  37.53000 45.78300 30.67900
H  35.27900 44.83200 34.17700
H  34.16300 43.99600 32.98000
H  34.16000 45.71100 32.97900
Mg 17.11700 52.67200 25.64500
C  19.06300 51.22100 28.36500
C  14.75300 53.44800 28.20000
C  15.17700 53.96100 23.31300
C  19.35400 51.51100 23.49100
N  16.94000 52.34600 27.97800
C  17.88400 51.75100 28.82300
C  17.56600 52.06300 30.27000
C  15.99000 52.48700 30.14800
C  15.88100 52.75500 28.66700
C  14.95500 51.40400 30.56100
C  18.42300 53.16000 31.01500
C  18.67400 52.85100 32.50300
H  17.75900 53.50200 33.55100
N  15.21700 53.64500 25.74200
C  14.48200 53.95400 26.85900
C  13.30100 54.69100 26.44200
C  13.36300 54.87100 24.99100
C  14.61000 54.09100 24.60300
C  12.31500 55.23300 27.46600
C  12.50200 55.44600 23.98200
O  12.84300 55.75900 22.85500
C  11.05400 55.79000 24.43500
N  17.12800 52.52800 23.72200
C  16.26600 53.17300 22.92400
C  16.64200 52.90700 21.46800
C  18.02900 52.28000 21.53300
C  18.21200 52.10600 23.02500
C  15.50000 52.09100 20.85500
C  19.22000 53.18100 21.03800
C  19.27400 54.71300 21.45800
N  18.88800 51.57600 25.87600
C  19.71300 51.24300 24.83500
C  20.81700 50.58600 25.41300
C  20.59400 50.53200 26.75600
C  19.45500 51.17700 27.01900
C  21.89800 49.94800 24.75600
C  21.09400 50.01100 28.06200
O  22.05300 49.26700 28.32800
C  20.16300 50.72800 29.17100
C  19.71500 49.77900 30.24600
O  18.86900 48.90600 30.09300
O  20.46600 50.08000 31.30600
C  20.13900 49.18800 32.47100
H  13.95300 53.76900 28.87000
H  14.61600 54.39600 22.48300
H  20.22300 51.36300 22.84700
H  17.61100 51.11800 30.81200
H  15.73600 53.42600 30.64100
H  15.37800 50.55700 31.10100
H  14.38100 50.97700 29.73900
H  14.14600 51.78500 31.18400
H  17.88600 54.09900 30.88300
H  19.39800 53.23300 30.53400
H  19.73700 53.03000 32.66400
H  18.48800 51.78400 32.62800
H  11.35300 54.98600 27.01800
H  12.52100 56.30100 27.53000
H  12.34400 54.69100 28.41100
H  11.00600 56.44500 25.30500
H  10.36200 54.97600 24.65400
H  10.49800 56.29000 23.64200
H  16.66300 53.86600 20.95100
H  18.05500 51.26600 21.13500
H  15.05400 51.45000 21.61500
H  15.85400 51.46400 20.03700
H  14.70700 52.77500 20.55100
H  19.27600 53.31100 19.95700
H  20.15600 52.63800 21.16700
H  19.31600 55.37600 20.59400
H  20.24300 54.79700 21.94900
H  18.59100 55.21100 22.14600
H  22.76500 49.80300 25.40100
H  22.35100 50.54500 23.96500
H  21.59700 48.99400 24.32500
H  20.75800 51.57700 29.50800
H  19.06900 49.07400 32.64700
H  20.58200 49.55100 33.39800
H  20.67900 48.25600 32.30400

