158

Mg 8.86900 3.24900 28.04000
C  10.15500 1.83800 30.95300
C  6.75300 5.17300 30.04900
C  7.51400 4.60100 25.28700
C  10.40400 0.75100 26.20100
N  8.41300 3.39700 30.34700
C  9.18700 2.81000 31.32400
C  8.73100 3.25800 32.72300
C  7.66000 4.32300 32.47400
C  7.55700 4.28900 30.86700
C  6.34500 4.07600 33.23600
C  10.00700 3.90400 33.60200
C  10.11300 3.43700 35.07200
H  10.26000 4.45600 36.19600
N  7.37600 4.65300 27.74400
C  6.69600 5.40300 28.66700
C  5.95600 6.44100 28.04700
C  6.27000 6.40500 26.66900
C  7.08400 5.14600 26.48200
C  5.19600 7.66400 28.77900
C  5.84500 7.39700 25.51700
O  6.26000 7.20800 24.40800
C  4.84300 8.46800 25.79500
N  8.96600 2.78200 26.10000
C  8.39700 3.52000 25.14100
C  8.71500 2.97300 23.74400
C  9.78900 1.88400 24.03600
C  9.72800 1.78100 25.54600
C  7.52600 2.56500 22.88400
C  11.23300 2.20000 23.49500
C  11.54500 1.71400 22.06600
N  10.08700 1.69900 28.46800
C  10.52600 0.64700 27.58500
C  11.34700 -0.26600 28.28200
C  11.25100 0.16600 29.61600
C  10.40100 1.33200 29.65700
C  12.18000 -1.37100 27.64700
C  11.76300 -0.11000 30.93500
O  12.62300 -0.91600 31.33400
C  11.02500 0.96400 31.85900
C  10.27500 0.07700 32.77100
O  9.48400 -0.80300 32.36600
O  10.52400 0.36600 34.11300
C  9.71900 -0.45200 35.07700
H  6.13100 5.85500 30.63300
H  7.13100 5.09800 24.39400
H  10.72600 0.01600 25.45900
H  8.40500 2.44300 33.37000
H  8.10300 5.27200 32.77500
H  5.63800 3.89500 32.42500
H  6.06700 4.81900 33.98300
H  6.35500 3.14800 33.80700
H  10.00200 4.99200 33.66500
H  10.94700 3.70700 33.08600
H  10.89900 2.71400 35.29100
H  9.18600 2.93100 35.33800
H  5.42000 7.60300 29.84400
H  4.14600 7.41000 28.63400
H  5.44800 8.65600 28.40300
H  5.27700 9.33800 26.28700
H  4.05100 8.12600 26.46100
H  4.37200 8.65400 24.82900
H  9.28000 3.82300 23.36000
H  9.32300 0.97600 23.65400
H  6.58300 2.63600 23.42600
H  7.57600 1.51700 22.58800
H  7.46900 3.17000 21.97900
H  11.98200 1.87000 24.21500
H  11.32300 3.27900 23.37300
H  12.40600 1.04900 22.00900
H  11.45400 2.58400 21.41500
H  10.57900 1.24700 21.87200
H  11.59800 -1.91500 26.90300
H  12.46000 -2.04800 28.45400
H  13.00200 -0.79500 27.22000
H  11.67400 1.61800 32.44000
H  10.19800 -0.17200 36.01500
H  9.89500 -1.51300 34.89900
H  8.67200 -0.20800 34.89900
Mg -12.03300 16.94900 41.60000
C  -9.15200 14.96300 41.11900
C  -10.45300 19.48200 40.12000
C  -15.00300 18.50700 41.23800
C  -13.70700 13.96000 42.64900
N  -10.04100 17.13400 40.55300
C  -9.01600 16.23300 40.54100
C  -7.71500 16.81500 40.04100
C  -8.12000 18.34700 40.02900
C  -9.66600 18.30300 40.29500
C  -7.47400 19.30400 41.03800
C  -7.24000 16.15600 38.74400
C  -5.76900 15.84700 38.57400
H  -5.09100 16.39400 37.28600
N  -12.61700 18.78500 40.66800
C  -11.81600 19.74500 40.25200
C  -12.56400 20.94400 39.97100
C  -13.92100 20.69100 40.24400
C  -13.94500 19.28700 40.78100
C  -11.99100 22.23300 39.44900
C  -15.11000 21.64800 40.18100
O  -14.98900 22.87000 40.03600
C  -16.53500 21.16800 40.38900
N  -14.05700 16.31300 41.92500
C  -15.14100 17.21200 41.66100
C  -16.44700 16.37600 41.67800
C  -16.05000 14.98200 42.29500
C  -14.52200 15.05500 42.22900
C  -17.64900 17.15300 42.35800
C  -16.73400 13.81500 41.43000
C  -17.10300 12.47800 42.07500
N  -11.57900 14.92500 41.99800
C  -12.30700 13.88900 42.45800
C  -11.47700 12.73000 42.66200
C  -10.24600 13.12700 42.15600
C  -10.36000 14.48500 41.69000
C  -11.87600 11.37800 43.17700
C  -8.87800 12.69600 41.84900
O  -8.36400 11.59900 42.03400
C  -8.12300 13.84500 41.05600
C  -6.88900 14.15900 41.83300
O  -6.83500 14.83900 42.84100
O  -5.69700 13.66900 41.26500
C  -4.48700 14.34400 41.81100
H  -9.88900 20.38700 39.88600
H  -16.00800 18.93500 41.24400
H  -14.30300 13.05600 42.79100
H  -6.87400 16.64100 40.71300
H  -8.01900 18.76500 39.02700
H  -6.75000 18.68900 41.57100
H  -8.27700 19.69400 41.66300
H  -6.94300 20.24400 40.88400
H  -7.54100 16.84500 37.95500
H  -7.74300 15.21300 38.52700
H  -5.69400 14.76100 38.63300
H  -5.28500 16.26200 39.45800
H  -11.47400 21.94800 38.53200
H  -11.22000 22.50800 40.16800
H  -12.64300 23.03600 39.10600
H  -17.24200 21.96600 40.16200
H  -16.62000 20.90700 41.44400
H  -16.76300 20.28100 39.79800
H  -16.64000 16.33400 40.60600
H  -16.32200 14.98600 43.35000
H  -18.43800 17.31200 41.62300
H  -17.42000 18.06700 42.90600
H  -17.91300 16.56300 43.23500
H  -15.96200 13.50800 40.72500
H  -17.55300 14.22800 40.84200
H  -16.53100 11.68900 41.58800
H  -18.15000 12.22100 41.91600
H  -16.86000 12.42400 43.13700
H  -12.09900 11.62100 44.21600
H  -11.19600 10.54400 43.00300
H  -12.78700 11.21800 42.60100
H  -7.89100 13.57300 40.02600
H  -4.55900 15.42300 41.94300
H  -3.69600 13.99800 41.14400
H  -4.27400 13.98600 42.81800

