158

Mg 24.82000 -7.29500 47.71600
C  26.97100 -4.88800 46.65000
C  22.74000 -6.57200 45.12400
C  22.77800 -9.85100 48.76400
C  27.48000 -8.79100 49.59700
N  24.82200 -5.77000 46.17200
C  25.78900 -4.96700 45.87700
C  25.55900 -4.13100 44.53400
C  24.15200 -4.65400 44.13800
C  23.86600 -5.78800 45.20100
C  23.03300 -3.49900 44.18600
C  26.70900 -4.57000 43.51000
C  27.50000 -3.32000 42.99900
H  27.30900 -2.97300 41.52000
N  22.94200 -8.15400 47.01100
C  22.29500 -7.70100 45.91900
C  21.05900 -8.36300 45.83500
C  21.01400 -9.34700 46.95200
C  22.27500 -9.18200 47.65700
C  19.87300 -7.96800 44.86800
C  19.75200 -10.24800 47.29900
O  18.81300 -10.25300 46.52100
C  19.79600 -11.22300 48.46100
N  25.12600 -9.01100 48.98600
C  24.02800 -9.80600 49.37500
C  24.41600 -10.83500 50.43200
C  26.02400 -10.77700 50.30900
C  26.25400 -9.41900 49.62400
C  23.96600 -10.52200 51.86200
C  26.73900 -11.94000 49.54900
C  27.42500 -13.04200 50.36900
N  26.79800 -6.90900 48.19200
C  27.77800 -7.61500 48.91900
C  29.00400 -6.78600 48.99600
C  28.71700 -5.69200 48.09300
C  27.39700 -5.82900 47.60600
C  30.31800 -7.09700 49.81800
C  29.24200 -4.52900 47.51500
O  30.34000 -4.05700 47.66700
C  28.23600 -4.01900 46.46200
C  28.10700 -2.54800 46.77400
O  28.69700 -1.68200 46.20900
O  27.20900 -2.32900 47.77200
C  26.83500 -0.88700 47.74300
H  22.11600 -6.45100 44.23600
H  22.09400 -10.53500 49.27000
H  28.27900 -9.39300 50.03500
H  25.40100 -3.06900 44.72200
H  24.13300 -5.22300 43.20800
H  23.41700 -2.52600 44.49000
H  22.40100 -3.89200 44.98200
H  22.38100 -3.40800 43.31700
H  26.30900 -5.08600 42.63700
H  27.30000 -5.33400 44.01500
H  28.56200 -3.49500 43.16800
H  27.34700 -2.39300 43.55000
H  18.84500 -8.01500 45.23000
H  19.95000 -8.42600 43.88200
H  19.96500 -6.89300 44.71900
H  20.63100 -11.88300 48.22700
H  18.94600 -11.90500 48.42700
H  19.89600 -10.74600 49.43600
H  23.93900 -11.76200 50.11500
H  26.46900 -10.65700 51.29700
H  23.98200 -9.43900 51.98700
H  24.44400 -11.02300 52.70400
H  22.95200 -10.91500 51.93400
H  27.56400 -11.45000 49.03200
H  26.04500 -12.30400 48.79200
H  27.28300 -12.91500 51.44200
H  28.49700 -13.11400 50.18800
H  27.10500 -14.02600 50.02700
H  30.80500 -7.95300 49.35000
H  29.98600 -7.48500 50.78100
H  30.93200 -6.19900 49.89300
H  28.60900 -4.10600 45.44200
H  27.37600 -0.32100 48.50200
H  25.78600 -0.76900 48.01700
H  26.87400 -0.37900 46.78000
Mg 47.72200 15.68300 28.80600
C  45.10900 15.61000 31.22700
C  49.75400 16.97800 31.16500
C  49.85600 16.25300 26.33900
C  45.31200 14.59700 26.37900
N  47.37100 16.37800 30.95000
C  46.28800 16.16500 31.73000
C  46.62300 16.44400 33.14800
C  48.01300 17.20100 33.08700
C  48.43400 16.87400 31.60100
C  48.07000 18.64100 33.41000
C  46.56100 15.09100 34.00200
C  45.91300 15.27700 35.37300
H  45.75400 16.70000 36.01400
N  49.51400 16.53600 28.80700
C  50.23400 16.93000 29.85500
C  51.66900 17.13500 29.47000
C  51.69700 16.89800 28.07000
C  50.31500 16.64500 27.65200
C  52.74900 17.53000 30.53200
C  52.90100 16.87500 27.08900
O  52.73700 16.79800 25.85000
C  54.32300 17.17500 27.51200
N  47.49600 15.66000 26.59200
C  48.64500 15.80800 25.82200
C  48.28800 15.62100 24.37500
C  46.89000 14.98800 24.37000
C  46.50800 15.09300 25.88100
C  48.35400 16.89700 23.53500
C  46.78200 13.50600 23.80600
C  45.60700 13.25900 22.85500
N  45.66600 15.17000 28.74400
C  44.81800 14.72700 27.73800
C  43.50800 14.30500 28.25900
C  43.56200 14.65800 29.67200
C  44.89100 15.19700 29.91400
C  42.39700 13.79800 27.35400
C  42.78200 14.62700 30.91300
O  41.58300 14.35000 31.03400
C  43.85900 15.22600 31.97800
C  43.16100 16.36100 32.58900
O  43.26300 17.51100 32.18500
O  42.40400 15.95500 33.62900
C  41.73300 16.89100 34.48600
H  50.59400 17.22700 31.81700
H  50.55600 16.25900 25.50100
H  44.65100 14.10900 25.66000
H  45.78600 17.09600 33.39700
H  48.64900 16.74600 33.84600
H  47.14200 19.16100 33.64500
H  48.59000 19.20400 32.63400
H  48.70300 18.74600 34.29100
H  47.59800 14.80900 34.18300
H  46.09300 14.31300 33.39800
H  46.38000 14.59000 36.07900
H  44.97400 14.72400 35.34600
H  53.31700 18.31400 30.03000
H  53.34100 16.65200 30.79000
H  52.36900 18.02500 31.42600
H  54.87900 17.30400 26.58300
H  54.62000 16.25700 28.02000
H  54.35400 18.09700 28.09200
H  49.00300 14.86000 24.06300
H  46.20500 15.59300 23.77700
H  47.39800 17.42000 23.51700
H  48.44900 16.48900 22.52900
H  49.19200 17.57900 23.68000
H  46.86900 12.69400 24.52700
H  47.63800 13.33200 23.15500
H  45.04800 12.33400 22.99700
H  45.99800 13.20500 21.83900
H  44.93100 14.11300 22.87600
H  42.45300 14.35200 26.41700
H  41.40700 13.76600 27.80900
H  42.70000 12.76300 27.19500
H  44.01500 14.45400 32.73100
H  40.76400 17.32300 34.23700
H  42.44200 17.71100 34.37100
H  41.75200 16.58100 35.53100

