158

Mg 16.61700 -1.48700 28.51100
C  15.32500 0.60500 30.79900
C  18.47100 -3.08800 31.00700
C  18.17500 -3.13400 26.10900
C  15.03800 0.56200 25.98200
N  16.91000 -1.23600 30.62600
C  16.25400 -0.33100 31.38800
C  16.49500 -0.47300 32.90500
C  17.67200 -1.53200 32.89400
C  17.67200 -2.00800 31.39700
C  18.98200 -0.93000 33.46700
C  15.18700 -0.87100 33.72100
C  15.07800 -0.30600 35.15700
H  16.32300 0.06000 36.00900
N  18.02600 -3.00100 28.56000
C  18.70900 -3.54100 29.67700
C  19.60500 -4.54400 29.19400
C  19.48500 -4.57400 27.75900
C  18.49200 -3.53800 27.41500
C  20.41700 -5.29100 30.22200
C  20.39400 -5.26800 26.71900
O  20.10000 -5.37500 25.53400
C  21.60400 -6.04000 27.18500
N  16.78900 -1.18100 26.38200
C  17.44900 -2.03500 25.61600
C  17.30000 -1.71300 24.12600
C  16.11900 -0.64200 24.12100
C  15.94800 -0.39700 25.61100
C  18.65000 -1.34100 23.37200
C  14.89300 -1.02000 23.26900
C  13.83800 -1.80500 24.05100
N  15.22600 0.06700 28.36800
C  14.65100 0.79900 27.33700
C  13.67500 1.70300 27.88600
C  13.93900 1.75500 29.22800
C  14.82600 0.71600 29.48400
C  12.95600 2.67200 27.11300
C  13.66500 2.42900 30.53300
O  13.01500 3.44300 30.81500
C  14.52200 1.65100 31.53400
C  15.49300 2.62500 32.20500
O  16.63100 2.98100 31.82300
O  14.94600 3.08700 33.32000
C  15.67200 3.95600 34.24100
H  19.07900 -3.38200 31.86500
H  18.66000 -3.73200 25.33400
H  14.50900 1.18100 25.25500
H  16.63300 0.54000 33.28200
H  17.50200 -2.42600 33.49300
H  19.26500 -1.56700 34.30500
H  18.79000 0.06800 33.86200
H  19.74800 -0.96100 32.69300
H  15.14500 -1.93700 33.94500
H  14.25200 -0.71500 33.18200
H  14.57300 -1.10400 35.70200
H  14.39700 0.54500 35.13600
H  20.13300 -6.33900 30.13100
H  20.19700 -5.00600 31.25100
H  21.45900 -5.01100 30.06500
H  22.12500 -5.53100 27.99500
H  22.29400 -6.22400 26.36100
H  21.27000 -7.01200 27.54800
H  16.91000 -2.64500 23.71600
H  16.57700 0.21100 23.62000
H  19.36600 -1.24800 24.18900
H  18.40700 -0.50900 22.71100
H  18.91700 -2.10200 22.63900
H  15.01200 -1.34700 22.23600
H  14.42900 -0.03600 23.19400
H  13.08200 -1.07800 24.34700
H  14.28900 -2.17900 24.97000
H  13.44400 -2.58500 23.40000
H  12.54200 2.19400 26.22500
H  13.63700 3.40900 26.68800
H  12.11500 3.13800 27.62800
H  13.79500 1.28800 32.26000
H  15.63700 4.97200 33.84900
H  16.71300 3.64600 34.33800
H  15.21200 3.99300 35.22900
Mg 35.43100 3.34500 29.17400
C  33.36600 4.19800 31.77600
C  38.09400 3.34600 31.26400
C  37.34800 3.04300 26.44600
C  32.70500 3.75200 26.89300
N  35.76000 3.45600 31.36600
C  34.67900 3.85300 32.24400
C  35.20200 3.78700 33.67800
C  36.77500 3.71900 33.45900
C  36.94700 3.42900 31.96100
C  37.50900 4.98300 33.88600
C  34.51000 2.51500 34.27900
C  34.14200 2.54000 35.77200
H  34.86900 3.63900 36.56700
N  37.43100 3.05400 28.94900
C  38.40800 3.12800 29.91600
C  39.71200 2.88000 29.30300
C  39.50200 2.77400 27.88700
C  38.04000 2.97000 27.70800
C  40.98100 2.87500 30.09700
C  40.45000 2.38800 26.73900
O  40.10600 2.27000 25.56100
C  41.82200 1.86700 27.10800
N  34.99100 3.08400 26.90800
C  36.03600 3.13000 26.07300
C  35.51400 2.98000 24.60800
C  33.96000 3.18800 24.76400
C  33.87200 3.44700 26.25400
C  36.20200 3.89100 23.51400
C  33.01100 2.09300 24.25300
C  31.92900 2.68400 23.34400
N  33.45900 3.80900 29.31300
C  32.47600 3.95400 28.28400
C  31.21000 4.32900 28.91300
C  31.51900 4.47700 30.28200
C  32.89600 4.17900 30.46100
C  29.96300 4.63600 28.13400
C  30.97500 4.78000 31.60500
O  29.86000 5.15500 31.89900
C  32.13700 4.42500 32.59300
C  32.31000 5.56900 33.53100
O  32.89700 6.63700 33.32100
O  31.80200 5.22200 34.76900
C  31.51800 6.26500 35.70500
H  38.99500 3.42300 31.87700
H  37.91700 3.00000 25.51500
H  31.89700 3.93200 26.18100
H  34.84900 4.72800 34.10000
H  37.19500 2.80300 33.87500
H  38.17700 5.43300 33.15200
H  38.21300 4.60000 34.62400
H  36.97100 5.74300 34.45400
H  35.04200 1.60300 34.00900
H  33.50000 2.34400 33.90600
H  34.59300 1.62600 36.15800
H  33.06200 2.60300 35.90100
H  40.89400 3.42100 31.03600
H  41.79100 3.31400 29.51400
H  41.23200 1.82400 30.24500
H  42.12100 1.14100 26.35200
H  41.88800 1.27000 28.01800
H  42.49200 2.72700 27.09500
H  35.70100 1.97700 24.22500
H  33.75100 4.11000 24.22000
H  36.49600 3.23700 22.69200
H  37.02200 4.44700 23.96800
H  35.59200 4.71000 23.13300
H  32.49800 1.70600 25.13400
H  33.62200 1.32100 23.78400
H  31.73500 1.94000 22.57200
H  32.15600 3.68600 22.97900
H  31.00300 2.80900 23.90600
H  29.85000 4.36300 27.08500
H  29.71500 5.69200 28.23700
H  29.19800 4.11300 28.70900
H  31.84900 3.49500 33.08300
H  32.20900 6.17700 36.54300
H  30.50100 6.03000 36.01900
H  31.43300 7.26400 35.27700

