158

Mg 23.93900 -6.71600 47.05100
C  26.51600 -4.59300 45.93600
C  21.86300 -5.29400 44.63700
C  21.73300 -9.33600 47.31000
C  26.35500 -8.48500 48.75300
N  24.18300 -4.98700 45.55400
C  25.34500 -4.30700 45.28800
C  25.11400 -3.39000 44.07900
C  23.55100 -3.60300 43.70100
C  23.13700 -4.70100 44.69200
C  22.72800 -2.28700 43.73200
C  26.11400 -3.67800 42.87200
C  27.11000 -2.48700 42.54300
H  27.05900 -1.78500 41.23300
N  22.06100 -7.17600 46.20200
C  21.35900 -6.39600 45.33600
C  20.02000 -6.98200 45.03400
C  19.97500 -8.18400 45.79700
C  21.24600 -8.26400 46.54600
C  19.01200 -6.30800 44.08200
C  18.71900 -9.08700 45.91900
O  17.62700 -8.87800 45.40700
C  18.80300 -10.37600 46.77400
N  24.00000 -8.65600 47.76400
C  22.98500 -9.50700 47.93300
C  23.31100 -10.73300 48.87500
C  24.83500 -10.41700 49.32500
C  25.08000 -9.05300 48.62600
C  22.30100 -10.81200 50.07100
C  25.75200 -11.62300 49.03100
C  26.68700 -12.14300 50.19300
N  25.96600 -6.57200 47.44800
C  26.83300 -7.33700 48.20000
C  28.12200 -6.71800 48.23700
C  28.03300 -5.67100 47.33900
C  26.74200 -5.61500 46.88900
C  29.37600 -7.07700 49.05100
C  28.76200 -4.52900 46.77800
O  29.89000 -4.09500 46.98500
C  27.82800 -3.74000 45.77400
C  27.60400 -2.38200 46.41000
O  26.82400 -2.10700 47.33100
O  28.28500 -1.38600 45.78400
C  27.88600 0.05100 46.12000
H  21.17000 -4.75100 43.99100
H  21.07200 -10.14800 47.62100
H  27.03800 -8.94700 49.46900
H  25.21900 -2.33200 44.32400
H  23.37100 -3.99500 42.70000
H  23.40100 -1.49100 43.41500
H  22.43400 -2.20300 44.77900
H  21.92300 -2.42300 43.00900
H  25.70400 -3.97100 41.90600
H  26.72500 -4.54500 43.12600
H  28.12900 -2.86100 42.63800
H  27.02500 -1.81500 43.39700
H  19.15100 -5.22800 44.02100
H  17.96800 -6.46600 44.35200
H  19.16900 -6.90500 43.18300
H  18.95400 -10.08200 47.81300
H  19.66700 -10.88300 46.34400
H  17.91700 -11.01100 46.75100
H  23.25500 -11.65000 48.28800
H  24.83900 -10.06000 50.35500
H  21.52800 -10.04400 50.07400
H  22.80700 -10.75000 51.03500
H  21.76700 -11.76100 50.01000
H  26.47900 -11.34700 48.26800
H  25.16500 -12.46700 48.66800
H  27.63000 -11.59700 50.21000
H  26.74200 -13.23000 50.24900
H  26.13600 -11.77100 51.05800
H  30.02400 -6.20300 49.11100
H  29.69700 -7.95100 48.48500
H  29.15900 -7.48900 50.03600
H  28.19200 -3.70200 44.74700
H  27.99900 0.59200 45.18000
H  28.54000 0.49200 46.87200
H  26.85700 0.29900 46.38100
Mg 47.55200 16.19800 28.71400
C  45.35300 15.93900 31.36500
C  49.55600 18.22900 30.57000
C  49.59100 16.54500 26.12300
C  45.23200 14.51300 26.78200
N  47.51100 16.92300 30.74800
C  46.55300 16.60900 31.64500
C  46.92800 17.22100 33.08100
C  48.07900 18.22900 32.65100
C  48.45100 17.72600 31.26000
C  47.71300 19.70600 32.71800
C  47.39200 16.14100 34.10600
C  47.50600 16.58900 35.61500
H  47.01300 17.99300 36.00300
N  49.46000 17.03000 28.51800
C  50.05200 17.89200 29.34200
C  51.27100 18.38600 28.71400
C  51.36800 17.72100 27.52700
C  50.10200 17.03600 27.33100
C  52.22000 19.32800 29.45200
C  52.48100 17.78300 26.51400
O  52.36200 17.24300 25.42700
C  53.70600 18.52800 26.76500
N  47.35600 15.66300 26.65900
C  48.39300 15.88000 25.80700
C  48.15900 15.21700 24.46200
C  46.80700 14.44200 24.72800
C  46.42300 14.91100 26.13600
C  48.25100 16.11300 23.19600
C  46.72700 12.92300 24.45000
C  45.52800 12.45400 23.62800
N  45.60600 15.40500 28.97900
C  44.83300 14.71000 28.06300
C  43.55000 14.37600 28.67700
C  43.70800 14.79900 29.91800
C  44.96200 15.39100 30.10300
C  42.48800 13.50800 28.12500
C  43.07100 14.86500 31.19100
O  41.97100 14.50000 31.61000
C  44.18100 15.51700 32.24000
C  43.51600 16.53500 33.01900
O  42.99300 17.54800 32.59300
O  43.44200 16.17400 34.31100
C  42.80800 17.19200 35.14400
H  50.17500 18.90700 31.16200
H  50.23300 16.58400 25.24000
H  44.45500 13.94600 26.26500
H  46.09700 17.77000 33.52400
H  48.93400 18.09600 33.31300
H  48.02200 20.22200 31.80900
H  48.17400 20.27600 33.52400
H  46.63000 19.77800 32.61100
H  48.32300 15.84200 33.62400
H  46.79900 15.23100 34.00600
H  48.57600 16.39800 35.69800
H  46.91200 15.91000 36.22600
H  53.18900 18.83300 29.51600
H  51.89100 19.57500 30.46200
H  52.42200 20.22600 28.86800
H  53.56800 19.58300 27.00100
H  54.29800 18.57100 25.85100
H  54.29900 18.03100 27.53300
H  48.84800 14.38600 24.31400
H  46.18500 14.86900 23.94100
H  48.05100 17.14700 23.47500
H  47.48100 15.78400 22.49800
H  49.24600 16.08000 22.75300
H  46.62700 12.50800 25.45200
H  47.58500 12.42300 24.00000
H  45.94800 11.87800 22.80300
H  44.95500 13.27400 23.19600
H  44.88100 11.83200 24.24800
H  42.87100 12.86200 27.33500
H  41.78600 14.13100 27.57200
H  41.93200 12.88200 28.82400
H  44.54200 14.69800 32.86200
H  41.73100 17.28100 34.99800
H  43.26800 18.17900 35.17200
H  42.95000 16.77400 36.14100

