158

Mg 41.09600 9.00900 29.35900
C  42.88500 10.09600 32.20600
C  38.78100 7.57900 31.36900
C  39.54800 7.94800 26.56000
C  43.72100 10.21100 27.39100
N  40.88400 8.84400 31.63100
C  41.68600 9.41400 32.59900
C  41.12600 9.19300 34.02200
C  39.91800 8.25700 33.69500
C  39.86700 8.15000 32.15800
C  40.15000 6.88200 34.34600
C  40.70600 10.54400 34.73700
C  40.33700 10.37700 36.19500
H  41.02700 11.26300 37.25100
N  39.38300 7.89500 28.99200
C  38.52000 7.46200 29.98400
C  37.41600 6.82100 29.31900
C  37.58300 6.90400 27.85200
C  38.88300 7.65400 27.72200
C  36.32400 6.15100 30.09300
C  36.72700 6.44900 26.69600
O  36.93800 6.59000 25.52600
C  35.49300 5.84000 27.01800
N  41.67200 8.96100 27.35300
C  40.82400 8.53000 26.36800
C  41.38400 8.70700 24.90000
C  42.62800 9.64700 25.19600
C  42.70000 9.55200 26.76200
C  41.58100 7.44400 24.04900
C  42.55600 11.06100 24.60000
C  41.61400 11.98400 25.40400
N  42.96600 9.85400 29.74200
C  43.89300 10.41200 28.79200
C  44.85600 11.14000 29.45200
C  44.54900 11.00100 30.83700
C  43.38900 10.23700 30.88900
C  46.10900 11.83000 28.90200
C  45.05700 11.32100 32.12700
O  46.07400 11.91300 32.48900
C  43.89000 10.86400 33.12700
C  44.45300 9.94900 34.18100
O  45.33100 9.17700 34.04500
O  43.76700 10.16300 35.39200
C  44.03200 9.10800 36.42300
H  38.07600 7.19200 32.10800
H  39.05200 7.73500 25.61100
H  44.42300 10.75900 26.75900
H  41.77100 8.54600 34.61700
H  38.96400 8.63400 34.06300
H  40.33100 6.19200 33.52200
H  39.29600 6.55300 34.93800
H  40.95000 6.76700 35.07900
H  39.78000 10.81800 34.23100
H  41.43800 11.34000 34.60500
H  40.56600 9.33500 36.41700
H  39.27500 10.61900 36.23800
H  36.47000 5.09300 29.87700
H  35.32100 6.44800 29.78700
H  36.37100 6.38300 31.15700
H  34.87100 6.59600 27.49800
H  35.70600 4.99100 27.66600
H  35.01200 5.52800 26.09100
H  40.53400 9.22400 24.45400
H  43.59000 9.17800 24.98900
H  42.60500 7.46000 23.67600
H  40.93400 7.46900 23.17200
H  41.27500 6.54600 24.58600
H  42.10200 10.85900 23.63000
H  43.55500 11.44600 24.39500
H  41.63200 11.81600 26.48100
H  40.58100 11.85300 25.08200
H  41.78200 13.01600 25.09300
H  45.87400 12.22900 27.91500
H  46.96800 11.17400 29.04200
H  46.25900 12.66500 29.58500
H  43.28700 11.70800 33.46000
H  45.09800 9.20200 36.62800
H  43.88500 8.06700 36.13700
H  43.54800 9.40800 37.35300
Mg 35.28100 48.59800 26.24000
C  35.49900 46.73000 29.25900
C  34.24600 51.20100 28.14900
C  34.84600 50.36500 23.35600
C  36.33500 45.82300 24.44300
N  35.05600 48.88400 28.51500
C  35.17300 48.05400 29.53000
C  35.24700 48.79500 30.88500
C  34.53000 50.16300 30.50900
C  34.65800 50.10900 28.96400
C  32.98100 50.28300 30.84200
C  36.73300 49.01200 31.37900
C  37.19100 48.36300 32.73600
H  37.33800 49.40300 33.84200
N  34.53900 50.40500 25.77200
C  34.10000 51.27900 26.72600
C  33.58600 52.43700 26.02800
C  33.59000 52.23700 24.59800
C  34.37400 50.99700 24.53300
C  32.84500 53.57500 26.70900
C  33.12700 53.07600 23.36000
O  33.28000 52.78800 22.16700
C  32.45500 54.43200 23.57300
N  35.60100 48.24900 24.21300
C  35.44100 49.10800 23.11500
C  35.58600 48.44900 21.76200
C  36.18600 47.06300 22.27200
C  36.14200 47.07200 23.74900
C  34.33500 48.38700 20.84800
C  37.68600 46.70000 21.85600
C  37.79700 45.39900 21.10100
N  35.78100 46.70300 26.70600
C  36.19100 45.70500 25.86100
C  36.35700 44.47200 26.64300
C  36.17000 44.81900 27.95500
C  35.72100 46.19600 27.97800
C  36.81000 43.12500 26.17400
C  36.22300 44.34000 29.31500
O  36.50600 43.26800 29.76800
C  35.66900 45.56100 30.20500
C  34.39300 45.18800 30.88900
O  33.37600 44.79000 30.37000
O  34.57600 45.30300 32.20700
C  33.41200 44.96300 33.00000
H  33.88900 52.00600 28.79400
H  34.72900 50.97100 22.45500
H  36.59600 44.90800 23.90600
H  34.61400 48.37200 31.66500
H  35.11400 50.99600 30.90000
H  32.69100 50.84900 31.72800
H  32.72600 49.24600 31.05900
H  32.30800 50.64800 30.06600
H  36.94300 50.08100 31.40200
H  37.36400 48.48400 30.66500
H  38.16200 47.88000 32.62800
H  36.45100 47.64900 33.10000
H  31.79900 53.68100 26.42100
H  33.31600 54.51200 26.41000
H  32.77800 53.50700 27.79500
H  32.15000 54.81900 22.60100
H  33.12600 55.17700 24.00000
H  31.55600 54.34100 24.18300
H  36.36100 49.01200 21.24100
H  35.52200 46.24100 22.00400
H  34.03900 47.35300 20.66900
H  34.55700 48.83900 19.88100
H  33.54900 49.03100 21.24300
H  38.28700 46.56400 22.75400
H  38.03300 47.44400 21.13900
H  38.58700 44.75200 21.48400
H  38.11600 45.68800 20.10000
H  36.81400 44.93800 21.00500
H  36.11100 42.40800 26.60400
H  37.79400 42.97400 26.61800
H  36.84300 43.06200 25.08600
H  36.43500 45.91100 30.89700
H  32.42700 45.08600 32.55000
H  33.49600 45.38400 34.00200
H  33.43900 43.88300 33.14700

