158

Mg 36.16000 48.77400 25.95700
C  36.34300 47.22600 29.08100
C  34.67800 51.48300 27.58800
C  35.54200 50.07500 22.97400
C  37.03200 45.78000 24.49500
N  35.52700 49.25600 28.06700
C  35.86400 48.55100 29.13900
C  35.46700 49.32700 30.46200
C  34.67700 50.56300 29.94300
C  34.99600 50.44700 28.42700
C  33.19900 50.64100 30.31400
C  36.79700 49.73500 31.19600
C  37.09500 49.18500 32.57200
H  36.10800 49.53800 33.74500
N  35.32300 50.61300 25.33800
C  34.77200 51.59500 26.20800
C  34.32700 52.69100 25.37700
C  34.61300 52.32100 23.97100
C  35.08800 50.95600 24.03700
C  33.82700 54.06600 26.02800
C  34.41600 53.05700 22.67500
O  34.62200 52.56000 21.54000
C  33.87100 54.42200 22.69900
N  36.22900 48.00500 24.00600
C  36.06400 48.80200 22.99100
C  36.27300 48.03000 21.66200
C  36.81300 46.57900 22.15400
C  36.83300 46.82900 23.60200
C  34.97700 47.99700 20.80700
C  38.18500 46.33100 21.54700
C  38.22900 45.30200 20.42100
N  36.46600 46.83500 26.57800
C  36.82200 45.70900 25.92400
C  36.96200 44.57000 26.84000
C  36.85800 45.16500 28.10600
C  36.54300 46.51100 27.88500
C  37.26400 43.14700 26.49400
C  36.96700 44.85500 29.54500
O  37.24100 43.84900 30.10700
C  36.67400 46.24200 30.24400
C  35.55300 46.12200 31.17100
O  34.34400 46.16200 30.88400
O  36.00800 45.74100 32.45900
C  35.08800 45.39500 33.50200
H  34.05200 52.25300 28.04500
H  35.44000 50.49400 21.97000
H  37.19100 44.81400 24.01000
H  34.81800 48.69000 31.06400
H  35.07600 51.52600 30.26300
H  32.62300 50.65900 29.38900
H  33.08200 51.56300 30.88200
H  33.04200 49.74100 30.90900
H  36.77400 50.81000 31.37700
H  37.65200 49.59500 30.53500
H  38.09500 49.53900 32.82300
H  37.29600 48.11500 32.62100
H  34.61500 54.72500 26.39300
H  33.17400 53.89900 26.88400
H  33.29900 54.55900 25.21100
H  34.39200 55.23100 23.21200
H  32.85300 54.39600 23.09000
H  33.71900 54.64000 21.64100
H  37.00900 48.58300 21.07800
H  36.13200 45.75300 21.95300
H  34.90700 47.02300 20.32100
H  34.92200 48.81100 20.08500
H  34.08300 48.18600 21.40100
H  38.80700 45.79400 22.26300
H  38.71100 47.21000 21.17500
H  38.50400 45.75000 19.46600
H  37.25400 44.85700 20.21900
H  38.97500 44.54300 20.65700
H  38.20100 42.99400 27.02900
H  37.45900 43.01300 25.43000
H  36.60000 42.34100 26.80500
H  37.52500 46.60300 30.82000
H  35.34800 44.36900 33.76100
H  34.03100 45.52400 33.26900
H  35.10900 46.02400 34.39100
Mg -12.42200 37.75400 41.96200
C  -10.00200 35.22400 41.56600
C  -10.46100 39.88400 40.11500
C  -15.05000 39.95300 41.96200
C  -14.56000 35.50500 43.49900
N  -10.50500 37.44800 40.84000
C  -9.70300 36.36500 40.78500
C  -8.51600 36.55800 39.90400
C  -8.54700 38.16800 39.79000
C  -9.93200 38.52800 40.29200
C  -7.49500 39.03500 40.56900
C  -8.49600 35.70600 38.57000
C  -7.39500 34.64200 38.42800
H  -6.42500 34.85700 37.23400
N  -12.68100 39.70100 41.22600
C  -11.71900 40.41200 40.54000
C  -12.19900 41.81500 40.44000
C  -13.59200 41.81800 40.80900
C  -13.85400 40.47500 41.36300
C  -11.41400 42.92300 39.87700
C  -14.57300 42.97400 40.52500
O  -14.19100 43.96100 39.95500
C  -16.04200 42.81200 40.68100
N  -14.65400 37.60200 42.50500
C  -15.40700 38.67600 42.54100
C  -16.81400 38.29000 42.98100
C  -16.68300 36.77200 43.34100
C  -15.23400 36.61800 43.19000
C  -17.44000 38.97900 44.22100
C  -17.51700 35.87500 42.35900
C  -18.56900 35.02300 43.13200
N  -12.37200 35.70500 42.27500
C  -13.13100 35.01400 43.19400
C  -12.50100 33.77800 43.54000
C  -11.24500 33.86100 42.97600
C  -11.22900 35.10100 42.21400
C  -13.10900 32.68400 44.32300
C  -10.02400 33.09200 42.80400
O  -9.55600 32.01600 43.29000
C  -9.11500 33.95900 41.80500
C  -7.83900 34.21700 42.50500
O  -6.92200 33.33700 42.62500
O  -7.79500 35.54500 42.97000
C  -6.54600 35.92600 43.55900
H  -9.80800 40.59500 39.60400
H  -15.87400 40.66500 41.88100
H  -15.09300 34.73500 44.06300
H  -7.63900 36.31700 40.50400
H  -8.41500 38.47300 38.75200
H  -6.70800 38.32900 40.83300
H  -7.94100 39.48500 41.45600
H  -7.16600 39.83600 39.90800
H  -8.55800 36.38200 37.71700
H  -9.42900 35.14600 38.61900
H  -7.91600 33.69100 38.31800
H  -6.78900 34.56300 39.33100
H  -11.29000 43.70800 40.62200
H  -11.89400 43.33600 38.99000
H  -10.38400 42.62900 39.67100
H  -16.32800 42.70400 41.72800
H  -16.28700 41.91400 40.11400
H  -16.56500 43.68000 40.28000
H  -17.48800 38.45600 42.14000
H  -16.87200 36.53500 44.38800
H  -16.70100 39.67400 44.61800
H  -17.63000 38.29900 45.05100
H  -18.26900 39.62000 43.92100
H  -16.84400 35.13500 41.92700
H  -18.05700 36.38400 41.56000
H  -18.32200 35.04900 44.19400
H  -18.48800 33.99000 42.79600
H  -19.56500 35.39200 42.88700
H  -12.50600 31.80100 44.11500
H  -14.15200 32.60000 44.01700
H  -13.10200 32.82600 45.40400
H  -8.97200 33.29800 40.95100
H  -6.41700 35.33600 44.46600
H  -6.65300 36.98300 43.80500
H  -5.59800 35.69700 43.07400

