158

Mg 42.13100 41.25900 26.89400
C  41.58000 43.57800 29.58100
C  43.28300 39.11900 29.30900
C  42.91600 39.21200 24.53600
C  41.35100 43.73000 24.62100
N  42.42000 41.32600 29.28200
C  42.01200 42.33300 30.07300
C  42.04500 41.94600 31.58000
C  42.82600 40.49300 31.46200
C  42.84300 40.30600 29.93900
C  44.16600 40.19300 32.18200
C  40.56700 41.98000 32.16500
C  40.26700 42.83300 33.37900
H  39.58700 42.27900 34.66100
N  43.03900 39.39500 26.89200
C  43.27400 38.58700 27.98200
C  43.77000 37.34100 27.51200
C  43.70600 37.29100 26.10700
C  43.19000 38.68900 25.78600
C  44.27600 36.31200 28.44800
C  43.88300 36.13600 25.13400
O  43.61600 36.35300 23.96600
C  44.33300 34.74300 25.57300
N  42.23500 41.54200 24.99800
C  42.42900 40.43500 24.21300
C  42.15400 40.67700 22.76000
C  41.71900 42.17500 22.77600
C  41.70100 42.49000 24.22200
C  43.33800 40.32200 21.74400
C  40.36200 42.31300 22.10100
C  39.13200 41.82100 22.89100
N  41.48400 43.23400 27.01600
C  41.27700 44.16400 25.99300
C  40.85400 45.44500 26.57200
C  40.92200 45.15300 27.97000
C  41.35300 43.85600 28.20600
C  40.47700 46.70800 25.78800
C  40.73900 45.83800 29.26200
O  40.37700 46.97200 29.53100
C  41.15000 44.82300 30.30900
C  42.22000 45.31500 31.18100
O  43.35400 45.57400 30.79100
O  41.75700 45.47700 32.40200
C  42.61900 46.17700 33.35200
H  43.65300 38.47500 30.10900
H  42.94000 38.49100 23.71600
H  41.09500 44.42500 23.81800
H  42.73900 42.59600 32.11200
H  42.17600 39.73200 31.89500
H  44.44200 40.96500 32.90000
H  45.01200 39.98200 31.52800
H  43.97300 39.27300 32.73500
H  40.26000 40.97200 32.44300
H  39.98800 42.33400 31.31100
H  39.55800 43.53700 32.94400
H  41.20400 43.36100 33.55400
H  44.15300 36.58000 29.49800
H  45.35800 36.20500 28.38300
H  43.93400 35.34200 28.08700
H  43.61100 34.22200 26.20200
H  45.13900 34.83700 26.30000
H  44.70800 34.32500 24.63900
H  41.34500 40.04300 22.39500
H  42.47600 42.76800 22.26200
H  43.96900 39.49400 22.06700
H  44.02200 41.16900 21.68600
H  42.85600 40.04100 20.80700
H  40.39000 41.76700 21.15800
H  40.17800 43.35700 21.84900
H  38.59600 41.15700 22.21200
H  38.66500 42.57100 23.52800
H  39.48100 41.06600 23.59600
H  40.84100 46.81200 24.76600
H  40.91700 47.50300 26.39000
H  39.39100 46.80000 25.81400
H  40.21000 44.49300 30.75200
H  42.14600 47.11300 33.64800
H  43.60300 46.47900 32.99500
H  42.65800 45.75000 34.35500
Mg -1.87900 34.65100 27.41700
C  -3.81300 33.00100 29.76200
C  -0.51900 36.53900 29.57500
C  -0.50100 36.45400 24.81500
C  -3.48200 32.74300 24.80100
N  -2.14900 34.62600 29.43600
C  -3.02500 34.00900 30.26000
C  -2.89400 34.39100 31.69500
C  -2.00800 35.70700 31.58000
C  -1.52000 35.62700 30.09700
C  -2.76400 37.02100 31.93000
C  -2.31100 33.23500 32.62200
C  -3.03800 32.76000 33.84500
H  -2.27300 32.62900 35.12300
N  -0.61600 36.25800 27.23900
C  -0.05600 36.82500 28.33200
C  0.97300 37.77000 27.92800
C  0.94100 37.81900 26.49700
C  -0.05800 36.77700 26.09500
C  1.82000 38.60900 28.91500
C  1.75900 38.64200 25.54100
O  1.38200 38.87200 24.43700
C  2.85100 39.52400 25.96900
N  -2.05400 34.72900 25.14100
C  -1.42600 35.60200 24.36200
C  -1.88800 35.44800 22.86600
C  -2.57600 33.96600 22.80500
C  -2.70100 33.80400 24.36600
C  -2.78200 36.67700 22.52000
C  -1.95800 32.92200 22.01500
C  -1.00400 33.26900 20.87000
N  -3.26200 33.12100 27.22800
C  -3.73600 32.39200 26.14900
C  -4.69500 31.37600 26.57200
C  -4.69100 31.51700 27.93700
C  -3.84000 32.61000 28.38000
C  -5.62900 30.50000 25.81100
C  -5.40100 31.12400 29.17600
O  -6.29900 30.29000 29.32400
C  -4.69600 32.02300 30.41500
C  -5.75300 32.60200 31.30500
O  -6.45700 33.59400 31.07600
O  -5.89400 31.83500 32.50400
C  -6.89400 32.35200 33.48500
H  0.01400 37.00700 30.40400
H  -0.03300 37.06800 24.04300
H  -4.08900 32.30400 24.00700
H  -3.89600 34.54100 32.09900
H  -1.15500 35.71600 32.25800
H  -3.22200 36.95200 32.91700
H  -3.51600 37.19500 31.16000
H  -1.99000 37.78700 31.96600
H  -1.28700 33.51400 32.87000
H  -2.14400 32.29500 32.09500
H  -3.68500 31.89200 33.71500
H  -3.85300 33.47900 33.92600
H  1.59400 38.46700 29.97200
H  1.61800 39.63100 28.59400
H  2.88500 38.44000 28.75900
H  3.36700 39.08000 26.82000
H  2.25700 40.34100 26.37700
H  3.53400 39.83800 25.17900
H  -0.97500 35.50000 22.27300
H  -3.60500 34.06600 22.46100
H  -3.12000 37.25000 23.38300
H  -3.74900 36.39400 22.10200
H  -2.25900 37.39000 21.88300
H  -2.78600 32.38100 21.55700
H  -1.42800 32.19900 22.63300
H  -1.16300 32.58000 20.04000
H  0.03600 33.06800 21.12800
H  -1.10700 34.27000 20.45200
H  -5.64100 29.48700 26.21200
H  -5.31600 30.48500 24.76700
H  -6.63100 30.92900 25.84000
H  -4.09300 31.35000 31.02400
H  -7.39500 31.42500 33.76600
H  -7.61900 33.05100 33.06800
H  -6.36900 32.79600 34.33100

