158

Mg 35.67600 1.54600 29.59500
C  33.37600 2.15800 32.09100
C  38.17400 1.75900 31.90000
C  37.84400 0.71900 27.15600
C  33.19700 2.13900 27.21200
N  35.76400 1.83900 31.73300
C  34.70100 1.91800 32.54200
C  35.11200 2.02300 34.04400
C  36.68600 2.14100 33.96800
C  36.89900 1.88400 32.47200
C  37.37300 3.44300 34.62300
C  34.68000 0.76100 34.88400
C  34.64000 0.86700 36.39200
H  35.38600 2.04200 37.10100
N  37.76200 1.24000 29.52900
C  38.56700 1.44500 30.58600
C  39.93800 1.05800 30.31400
C  39.83600 0.66100 28.88800
C  38.43700 0.85800 28.45200
C  41.14500 1.06600 31.17900
C  40.90800 0.20100 27.96200
O  40.75100 -0.10100 26.76800
C  42.38700 0.20000 28.36600
N  35.58400 1.60200 27.51700
C  36.54600 1.08300 26.75300
C  36.15900 1.20100 25.24600
C  34.73800 1.60100 25.29100
C  34.48800 1.85400 26.74800
C  37.05900 2.19000 24.51100
C  33.78400 0.61000 24.65000
C  33.51900 -0.65500 25.53000
N  33.71100 2.18500 29.57200
C  32.83800 2.33100 28.53300
C  31.46800 2.72400 29.09900
C  31.71900 2.70800 30.51700
C  33.01800 2.31200 30.71800
C  30.21400 2.96500 28.17600
C  31.03200 2.85200 31.76400
O  29.86800 3.03500 32.03200
C  32.11100 2.47500 32.84000
C  32.22000 3.70400 33.62600
O  32.68400 4.75600 33.19300
O  31.65400 3.53800 34.88600
C  31.62900 4.64700 35.87100
H  38.94700 1.77000 32.67100
H  38.56100 0.49600 26.36300
H  32.43300 2.41900 26.48400
H  34.66200 2.90500 34.50000
H  37.07000 1.27700 34.51100
H  38.04000 3.21700 35.45500
H  36.60700 4.20700 34.75800
H  38.00900 3.85100 33.83800
H  35.31300 -0.10800 34.70400
H  33.67500 0.44600 34.60200
H  34.92200 -0.07300 36.86500
H  33.60900 0.97100 36.73100
H  41.63500 2.04000 31.20700
H  41.96100 0.38100 30.94800
H  40.66800 0.90900 32.14600
H  42.54300 1.15300 28.87100
H  42.99600 0.17500 27.46200
H  42.69400 -0.61900 29.01700
H  36.29900 0.19600 24.84900
H  34.54400 2.56700 24.82600
H  36.40100 2.88900 23.99500
H  37.65000 1.58400 23.82400
H  37.79500 2.67600 25.15000
H  34.20500 0.22000 23.72300
H  32.89300 1.21200 24.46900
H  32.48100 -0.71500 25.85500
H  34.28300 -0.68100 26.30700
H  33.59500 -1.45200 24.79100
H  29.33100 2.36900 28.40900
H  30.48500 2.91500 27.12200
H  29.77800 3.92900 28.43700
H  31.79200 1.65000 33.47600
H  30.81200 4.38500 36.54300
H  31.54400 5.60600 35.35900
H  32.55600 4.70500 36.44300
Mg 47.33700 44.88000 44.10600
C  43.93400 44.33300 43.66900
C  47.92900 41.58900 43.05000
C  50.66600 45.72400 43.50000
C  46.63300 48.25900 44.66000
N  46.11100 43.20900 43.37400
C  44.72000 43.21800 43.48000
C  44.17500 41.96300 42.79200
C  45.38200 40.96300 43.13000
C  46.58700 41.93500 43.18400
C  45.22200 40.18400 44.47400
C  43.97600 42.06200 41.24800
C  42.52300 41.92700 40.78200
H  42.29600 41.32300 39.37300
N  49.09000 43.78300 43.49700
C  49.07400 42.45400 43.08200
C  50.40400 42.10500 42.79600
C  51.19100 43.24800 42.95100
C  50.32000 44.32500 43.31600
C  50.72000 40.70400 42.37600
C  52.66100 43.29000 42.68500
O  53.27300 42.27900 42.48900
C  53.47200 44.53400 42.93100
N  48.51200 46.72200 44.05900
C  49.83600 46.80400 43.84100
C  50.36000 48.25900 44.05000
C  49.01700 49.07400 44.41100
C  47.98200 47.93800 44.45000
C  51.57000 48.43800 45.08300
C  48.72900 50.16200 43.29500
C  47.91200 51.33200 43.66500
N  45.62200 46.05500 44.34100
C  45.52700 47.40300 44.53700
C  44.17200 47.75400 44.61600
C  43.44600 46.61400 44.25100
C  44.41200 45.59600 44.07800
C  43.54400 49.05200 44.74600
C  42.24600 46.02200 43.89700
O  41.09600 46.60800 43.76100
C  42.36100 44.50800 43.67100
C  41.64400 43.83500 44.85000
O  40.48000 43.44600 44.87500
O  42.44900 43.73900 45.96500
C  41.83100 43.05300 47.13300
H  48.02500 40.53200 42.79300
H  51.65200 46.05500 43.16500
H  46.25600 49.28100 44.74100
H  43.28600 41.61100 43.31500
H  45.66900 40.26800 42.34100
H  44.17400 39.98600 44.70000
H  45.66200 40.79000 45.26600
H  45.67100 39.19100 44.49500
H  44.61400 41.32600 40.76000
H  44.24200 43.09400 41.02000
H  42.04900 42.90800 40.76100
H  42.03800 41.27300 41.50700
H  50.57300 40.73700 41.29600
H  50.13700 39.94600 42.89900
H  51.74400 40.57300 42.72700
H  54.54300 44.33200 42.91300
H  53.21100 44.81100 43.95300
H  53.23700 45.37600 42.28100
H  50.88900 48.53700 43.13900
H  49.08100 49.40200 45.44800
H  51.39100 49.25100 45.78600
H  52.53000 48.53200 44.57600
H  51.72100 47.54700 45.69200
H  48.11400 49.79900 42.47200
H  49.60200 50.52300 42.75200
H  48.62700 52.15400 43.64300
H  47.62100 51.39300 44.71300
H  47.01200 51.57400 43.09900
H  42.58800 48.92700 44.23700
H  44.19000 49.83100 44.34200
H  43.38500 49.20500 45.81300
H  41.93600 44.17700 42.72400
H  41.75500 41.97200 47.01900
H  40.98200 43.66600 47.43600
H  42.55000 43.12600 47.95000

