158

Mg 40.44700 9.61900 29.69700
C  42.20200 10.88400 32.43100
C  38.04800 8.74600 31.83000
C  38.90100 8.21700 27.04600
C  42.95600 10.70000 27.51700
N  40.10800 9.94200 31.87400
C  40.88200 10.50000 32.77500
C  40.30300 10.50900 34.15000
C  38.91600 9.72700 33.99900
C  39.02800 9.38800 32.48100
C  38.73100 8.54600 34.97500
C  40.22400 11.89100 34.80700
C  39.53600 11.90800 36.24700
H  40.33000 12.52800 37.34300
N  38.76100 8.54700 29.50100
C  37.86900 8.41100 30.46800
C  36.79100 7.59000 30.01500
C  36.92200 7.42500 28.62400
C  38.19400 8.06500 28.29700
C  35.62900 7.03400 30.92700
C  36.01200 6.73300 27.58400
O  36.29900 6.50100 26.42000
C  34.63200 6.29000 28.00100
N  40.95600 9.38200 27.57400
C  40.09200 8.86700 26.67800
C  40.47900 9.11500 25.19600
C  41.69100 10.09900 25.41300
C  41.86700 10.08400 26.91800
C  40.84500 7.75700 24.41200
C  41.44700 11.55800 24.93200
C  40.29300 12.33500 25.60500
N  42.23800 10.55000 29.94700
C  43.17700 10.90700 28.89100
C  44.32200 11.53100 29.58700
C  43.95600 11.56800 30.94200
C  42.70200 10.91700 31.11800
C  45.56200 11.97400 28.92600
C  44.39200 11.96500 32.21300
O  45.40400 12.58700 32.51000
C  43.33600 11.45000 33.29200
C  43.97700 10.48100 34.28900
O  44.26700 9.30200 34.17200
O  44.02600 11.04500 35.52000
C  44.33500 10.25100 36.75800
H  37.26900 8.52700 32.56300
H  38.24100 7.91600 26.23000
H  43.65700 11.00300 26.73600
H  40.97600 9.98100 34.82600
H  38.11300 10.42800 34.22600
H  37.83300 8.77300 35.54900
H  39.53500 8.46300 35.70700
H  38.57100 7.57800 34.49900
H  39.78200 12.56300 34.07100
H  41.22600 12.29400 34.95400
H  39.22100 10.92600 36.60000
H  38.73900 12.59000 35.94900
H  35.81800 5.96200 30.98800
H  34.64700 7.37200 30.59600
H  35.68000 7.39000 31.95600
H  34.05500 5.95200 27.14000
H  33.99700 6.98500 28.54900
H  34.99900 5.50000 28.65700
H  39.64600 9.58600 24.67200
H  42.57400 9.64200 24.96800
H  40.32700 7.64700 23.46000
H  40.70000 6.80200 24.91700
H  41.91000 7.69100 24.18700
H  41.25000 11.56300 23.86000
H  42.38600 12.06800 25.15000
H  39.71900 11.59100 26.15800
H  39.64000 12.88400 24.92600
H  40.71400 13.05700 26.30500
H  45.74000 11.42900 27.99900
H  46.38900 11.78100 29.60900
H  45.55100 13.05100 28.75900
H  42.99600 12.35000 33.80300
H  45.36800 10.33300 37.09500
H  44.07600 9.19800 36.64700
H  43.65100 10.69400 37.48200
Mg 36.27000 49.20600 25.40300
C  36.30700 47.11300 28.20700
C  35.07000 51.67300 27.41500
C  35.80900 50.87100 22.63100
C  36.91900 46.26900 23.45600
N  35.55500 49.35900 27.51300
C  35.90600 48.39900 28.48700
C  35.71300 48.96300 29.90100
C  35.15100 50.38600 29.57500
C  35.34300 50.52900 28.06400
C  33.69000 50.60800 29.98800
C  36.98200 49.00500 30.82800
C  36.86800 48.39100 32.26900
H  36.87800 49.45800 33.35100
N  35.51100 51.02000 25.10300
C  35.22300 51.95200 26.02500
C  35.19600 53.24200 25.42900
C  35.23800 52.97300 23.98100
C  35.53500 51.55000 23.81700
C  34.92300 54.45400 26.32300
C  34.93600 53.87500 22.80100
O  34.85500 53.57500 21.60200
C  34.74800 55.46200 23.08000
N  36.33800 48.67900 23.28500
C  36.13000 49.54900 22.38000
C  36.23500 48.91800 20.91500
C  36.76000 47.46700 21.26100
C  36.73700 47.46000 22.79500
C  34.96400 48.89000 20.01500
C  38.05400 47.00900 20.57200
C  38.02200 46.00100 19.42800
N  36.55300 47.12600 25.68400
C  36.91700 46.10500 24.84600
C  37.20100 44.91900 25.52500
C  36.99900 45.27200 26.86000
C  36.56900 46.63600 26.92600
C  37.66700 43.62500 24.97000
C  37.02400 44.86800 28.23900
O  37.12300 43.76600 28.75500
C  36.67800 46.02100 29.13100
C  35.54400 45.67200 30.00000
O  34.34700 45.71000 29.65600
O  35.90800 45.26700 31.24600
C  34.93700 44.64500 32.11500
H  34.64500 52.44600 28.05900
H  35.72500 51.45800 21.71400
H  36.93400 45.39200 22.80600
H  34.98600 48.34500 30.42900
H  35.67100 51.18800 30.09900
H  33.50300 49.97500 30.85500
H  32.88300 50.45100 29.27300
H  33.46100 51.63500 30.27200
H  37.37600 50.01700 30.92000
H  37.73900 48.37000 30.37000
H  37.71000 47.73200 32.47800
H  35.93200 47.84300 32.37700
H  35.02600 55.36000 25.72500
H  35.65800 54.52300 27.12500
H  33.89700 54.41000 26.68800
H  33.92900 55.66600 23.77000
H  34.33700 55.73800 22.10900
H  35.64100 55.99100 23.41500
H  37.00100 49.49600 20.39800
H  35.96600 46.79400 20.93900
H  35.07800 49.81700 19.45300
H  34.20000 49.08100 20.76900
H  34.77000 48.09300 19.29700
H  38.83300 46.72100 21.27800
H  38.49200 47.93300 20.19500
H  37.04400 45.51900 19.41600
H  38.75500 45.20700 19.57300
H  38.27800 46.44100 18.46500
H  38.59800 43.27300 25.41600
H  37.72100 43.56300 23.88300
H  36.96300 42.81800 25.17300
H  37.63200 46.28000 29.59200
H  34.09700 45.23900 32.47700
H  35.46900 44.34900 33.01900
H  34.43100 43.86900 31.54100

