158

Mg 39.85600 10.42300 29.91900
C  42.02500 11.32100 32.51700
C  37.78400 9.04900 32.36500
C  38.09400 9.14200 27.45800
C  42.55700 11.12000 27.69400
N  39.90500 10.29200 32.19100
C  40.80800 10.80100 32.99700
C  40.45400 10.62200 34.45800
C  39.16300 9.71600 34.35400
C  38.93700 9.67600 32.87500
C  39.30300 8.24200 34.86400
C  40.27900 11.98000 35.28600
C  40.01500 11.62000 36.73400
H  40.03400 12.78500 37.63900
N  38.07400 9.42600 29.89500
C  37.35100 8.96800 30.99300
C  36.21300 8.33900 30.49000
C  36.20500 8.41700 29.03800
C  37.51400 8.99100 28.73400
C  35.08600 7.77300 31.37300
C  35.21300 7.92800 28.09000
O  35.37900 8.00600 26.86100
C  33.87700 7.37800 28.48000
N  40.27300 10.15300 27.83100
C  39.35800 9.64000 27.03900
C  39.91100 9.46700 25.58000
C  41.21400 10.38400 25.67300
C  41.31600 10.64000 27.20000
C  40.23500 8.08400 24.89800
C  41.09100 11.63900 24.77300
C  40.43900 12.97100 25.33700
N  41.86700 11.03600 29.97600
C  42.84300 11.28200 29.07300
C  44.05600 11.73600 29.65000
C  43.73500 11.85900 30.98900
C  42.38200 11.41400 31.15200
C  45.37400 11.92900 28.93400
C  44.24600 12.28500 32.28800
O  45.36700 12.72300 32.51400
C  43.16900 12.01300 33.32200
C  43.71100 11.13200 34.38600
O  44.26100 10.06300 34.29100
O  43.43900 11.66600 35.60200
C  43.97300 11.02900 36.81800
H  37.17300 8.61700 33.16000
H  37.50800 8.82700 26.59100
H  43.38000 11.25200 26.98800
H  41.27600 10.15600 35.00100
H  38.25400 10.01500 34.87600
H  39.21500 7.47900 34.09000
H  38.51100 8.06000 35.59000
H  40.19800 8.07900 35.46400
H  39.36700 12.37200 34.83700
H  41.16800 12.61200 35.27700
H  40.82600 10.97300 37.06700
H  39.10900 11.01500 36.76600
H  35.36100 7.76900 32.42700
H  34.86100 6.78000 30.98200
H  34.19200 8.35800 31.15400
H  33.25400 8.07200 29.04300
H  34.05000 6.45800 29.03800
H  33.35200 7.01300 27.59700
H  39.16300 9.93000 24.93700
H  42.08700 9.82200 25.34200
H  40.24400 7.36000 25.71400
H  41.22300 8.13200 24.44000
H  39.43200 7.96600 24.17100
H  40.44200 11.27400 23.97700
H  42.08000 11.86600 24.37700
H  41.18600 13.75700 25.23000
H  40.04300 12.90900 26.35000
H  39.52500 13.26300 24.81800
H  45.29400 12.79900 28.28200
H  45.58100 11.05100 28.32200
H  46.16300 12.16300 29.64900
H  42.77700 12.94400 33.73000
H  45.00600 11.37600 36.79500
H  43.94500 9.93900 36.81700
H  43.44900 11.46700 37.66700
Mg 50.00000 46.31800 42.92400
C  46.59700 46.82600 41.75900
C  49.82900 43.22800 41.61900
C  53.32300 46.18000 43.43500
C  50.06300 49.74400 43.65900
N  48.39600 45.17800 41.73000
C  47.16000 45.57100 41.37200
C  46.38100 44.31900 40.90200
C  47.26000 43.08500 41.20400
C  48.60400 43.81800 41.58000
C  46.70100 42.23700 42.30900
C  46.02300 44.52100 39.36200
C  44.53300 44.26500 39.05500
H  44.07900 44.74100 37.65000
N  51.35700 44.83800 42.80300
C  51.06700 43.58000 42.24900
C  52.30800 42.73500 42.29000
C  53.27700 43.56400 42.95700
C  52.71000 44.95800 43.04400
C  52.38400 41.31100 41.92100
C  54.73200 43.05400 43.27600
O  55.11900 41.95200 42.86600
C  55.70100 43.80200 44.08400
N  51.54900 47.74200 43.43300
C  52.86100 47.47400 43.58100
C  53.62000 48.67900 44.16700
C  52.55000 49.80400 44.22600
C  51.26600 49.07300 43.65900
C  54.29300 48.46500 45.53900
C  52.88800 51.06100 43.41600
C  54.11200 51.91000 43.76600
N  48.62600 47.97000 42.77700
C  48.78300 49.24000 43.24100
C  47.49100 49.91700 43.07500
C  46.63700 48.99100 42.50400
C  47.37200 47.88700 42.36500
C  47.34400 51.32200 43.59500
C  45.27100 48.73800 42.00600
O  44.27200 49.42400 41.84900
C  45.21600 47.25600 41.66100
C  44.44000 46.68400 42.89200
O  44.38200 47.15500 44.04100
O  43.75100 45.56800 42.56300
C  43.12900 44.82000 43.68800
H  49.90400 42.24900 41.14200
H  54.38400 45.93500 43.52100
H  50.16100 50.77900 43.99300
H  45.37100 44.26400 41.30800
H  47.47500 42.47200 40.32900
H  45.94100 42.73300 42.91300
H  47.56300 41.98600 42.92800
H  46.27200 41.28100 42.00800
H  46.61700 43.82900 38.76500
H  46.28000 45.54900 39.10600
H  43.83300 44.80200 39.69600
H  44.41500 43.18400 39.13300
H  53.33200 41.18100 41.40000
H  51.75000 41.01500 41.08500
H  52.17900 40.67400 42.78100
H  55.23000 44.14900 45.00300
H  56.05700 44.64300 43.48800
H  56.55100 43.21400 44.42900
H  54.37500 49.05900 43.47900
H  52.42700 50.11800 45.26200
H  54.09800 47.46300 45.92000
H  53.95000 49.23800 46.22500
H  55.36600 48.64600 45.46800
H  52.10300 51.78100 43.64500
H  52.96500 50.70700 42.38800
H  54.49800 51.49500 44.69800
H  53.77900 52.88000 44.13500
H  54.81600 51.96700 42.93600
H  47.54000 52.07800 42.83500
H  47.87800 51.57200 44.51200
H  46.29600 51.15500 43.84300
H  44.72600 46.99800 40.72200
H  43.05700 43.78100 43.36900
H  42.09600 45.09600 43.90000
H  43.69500 44.87500 44.61800

