158

Mg 8.59300 3.81300 27.64000
C  10.07300 2.52300 30.47900
C  6.66000 5.89100 29.49900
C  7.29600 5.03700 24.65600
C  10.29300 1.32200 25.81200
N  8.36600 4.12600 29.74400
C  9.20200 3.54300 30.77300
C  8.62900 3.95700 32.14000
C  7.35900 4.77100 31.79100
C  7.40700 4.98100 30.24600
C  5.98600 4.13600 32.22400
C  9.69000 4.69100 33.02400
C  9.31700 5.23100 34.41000
H  9.84300 4.56300 35.69400
N  7.19100 5.28400 27.14500
C  6.52900 6.03300 28.09200
C  5.62500 6.91400 27.41200
C  5.83100 6.74700 25.98400
C  6.84400 5.71100 25.80100
C  4.67100 7.77500 28.15900
C  5.07600 7.48900 24.86700
O  5.28500 7.16800 23.73200
C  4.14300 8.55400 25.21700
N  8.80100 3.31700 25.49500
C  8.19200 3.97900 24.50100
C  8.65700 3.41200 23.11900
C  9.42000 2.13600 23.50400
C  9.54100 2.24400 25.01900
C  7.48700 3.32500 22.06100
C  10.72100 1.86100 22.73100
C  10.66500 0.42600 22.06900
N  9.88900 2.25100 28.01100
C  10.51200 1.33400 27.19300
C  11.43300 0.50200 27.88800
C  11.33600 0.93200 29.18800
C  10.33700 1.95500 29.24800
C  12.31500 -0.68800 27.36300
C  11.80200 0.77300 30.62800
O  12.66200 0.02300 31.06700
C  10.95100 1.76400 31.49200
C  10.08900 1.02300 32.59200
O  9.00000 0.62700 32.44500
O  10.79600 1.06100 33.81800
C  10.16900 0.23400 34.91800
H  6.16500 6.46300 30.28600
H  6.93000 5.37400 23.68400
H  10.96100 0.64700 25.27200
H  8.31800 3.06500 32.68400
H  7.48800 5.73400 32.28400
H  6.09100 3.10800 32.57300
H  5.34600 4.07000 31.34400
H  5.51800 4.77300 32.97500
H  10.01800 5.61900 32.55600
H  10.48100 3.95700 33.18500
H  8.22900 5.28600 34.42900
H  9.69200 6.25400 34.43300
H  3.71000 7.35800 27.85800
H  4.75100 8.83600 27.92300
H  4.57200 7.75700 29.24500
H  3.84100 9.07100 24.30600
H  4.53900 9.27400 25.93200
H  3.28600 8.11700 25.73100
H  9.36500 4.16100 22.76500
H  8.69700 1.34200 23.31600
H  6.54500 3.58400 22.54600
H  7.60200 2.26900 21.81600
H  7.49400 3.88900 21.12800
H  11.50000 1.98400 23.48400
H  10.75800 2.66500 21.99500
H  11.29400 0.43100 21.17900
H  9.70000 0.09500 21.68500
H  11.00800 -0.31600 22.79000
H  12.32400 -0.84500 26.28500
H  11.74000 -1.56400 27.66500
H  13.30500 -0.57800 27.80500
H  11.62200 2.45800 31.99900
H  9.93500 -0.72900 34.46400
H  9.30400 0.73600 35.35200
H  10.96000 -0.04600 35.61400
Mg 30.46900 57.06400 39.27800
C  28.03700 54.74100 38.38100
C  32.73500 54.75200 38.07900
C  32.80100 59.47200 39.50500
C  28.07100 59.49600 40.06900
N  30.33000 55.04400 38.17800
C  29.27200 54.23500 38.11200
C  29.59500 52.85400 37.54100
C  31.12900 52.85100 37.62300
C  31.44000 54.31000 37.98200
C  31.68900 51.81100 38.62500
C  29.00300 52.39800 36.21200
C  29.41100 53.08200 34.93700
H  28.34400 53.89700 34.19200
N  32.55000 57.07600 38.85300
C  33.29900 56.00900 38.48200
C  34.71300 56.45600 38.42400
C  34.76200 57.75700 38.87200
C  33.35400 58.15200 39.10900
C  35.83700 55.53700 37.88300
C  36.09300 58.49700 39.03200
O  37.13700 57.91700 38.85000
C  36.14300 59.94000 39.43400
N  30.44100 59.29600 39.59200
C  31.56900 60.04200 39.78900
C  31.24200 61.51700 39.99800
C  29.70400 61.51000 40.18500
C  29.37500 59.98300 40.00500
C  32.17800 62.33500 40.89000
C  28.90600 62.49900 39.15500
C  27.96000 63.60400 39.85400
N  28.47000 57.18900 39.23900
C  27.61200 58.24100 39.66500
C  26.26800 57.78200 39.31500
C  26.37500 56.41400 38.99400
C  27.70200 56.10400 38.85700
C  24.96200 58.44000 39.44700
C  25.61900 55.24700 38.62000
O  24.39300 55.07600 38.63400
C  26.70200 54.13700 38.32500
C  26.35700 53.11300 39.35400
O  26.95600 52.80600 40.41900
O  25.25500 52.48200 38.91700
C  24.62900 51.42200 39.69900
H  33.41400 53.97500 37.72200
H  33.59100 60.19900 39.70300
H  27.29100 60.25500 40.16600
H  29.14300 52.29300 38.35900
H  31.55300 52.63500 36.64200
H  32.19200 51.18700 37.88600
H  30.90500 51.23100 39.11200
H  32.41900 52.35700 39.22300
H  27.92700 52.43600 36.38400
H  29.19400 51.32800 36.13200
H  29.89800 52.34400 34.29800
H  30.08600 53.85700 35.30000
H  36.45800 56.05800 37.15400
H  35.47200 54.62100 37.41600
H  36.58100 55.20800 38.60800
H  37.19300 60.22900 39.41300
H  35.62800 59.98000 40.39400
H  35.55600 60.50100 38.70700
H  31.54600 61.86100 39.00900
H  29.37100 61.80800 41.17900
H  32.90900 61.74700 41.44600
H  31.46200 62.82100 41.55200
H  32.67500 63.18600 40.42300
H  28.34500 62.11400 38.30300
H  29.68300 63.09400 38.67600
H  27.45200 63.12500 40.69100
H  27.22900 63.97600 39.13600
H  28.62700 64.43100 40.10000
H  25.05600 59.52100 39.54400
H  24.46000 58.06000 40.33700
H  24.43100 58.13200 38.54600
H  26.54300 53.68100 37.34800
H  24.45400 50.56900 39.04400
H  23.74500 51.82100 40.19800
H  25.32400 51.04800 40.45100

