158

Mg -2.30700 17.37200 27.31700
C  -2.85900 14.96900 29.95500
C  -2.62800 19.85800 29.49800
C  -1.97800 19.37000 24.62700
C  -2.63700 14.52300 25.07200
N  -2.96600 17.39800 29.51100
C  -3.02200 16.31600 30.39900
C  -3.18600 16.86900 31.80800
C  -3.15800 18.41800 31.60800
C  -2.84100 18.56700 30.11300
C  -4.38200 19.22400 32.19900
C  -2.16600 16.37800 32.94300
C  -1.59400 17.40900 33.95700
H  -1.26300 16.91300 35.36500
N  -2.11200 19.38800 27.12300
C  -2.42400 20.24400 28.14300
C  -2.22200 21.61700 27.60400
C  -1.80900 21.49400 26.22700
C  -1.99100 20.03500 25.91500
C  -2.23000 22.85200 28.43300
C  -1.28200 22.48900 25.27900
O  -1.02600 22.28800 24.08700
C  -1.26900 23.88500 25.78400
N  -2.58700 16.99600 25.18800
C  -2.34600 18.04200 24.32800
C  -2.54400 17.55300 22.90700
C  -2.47000 15.99000 23.07000
C  -2.55000 15.78800 24.54900
C  -3.76000 18.17000 22.11600
C  -1.22400 15.42100 22.42100
C  0.09900 15.75500 23.05500
N  -2.55500 15.28200 27.41200
C  -2.62900 14.27500 26.41400
C  -2.71700 12.97500 26.98900
C  -2.72500 13.23100 28.38200
C  -2.75400 14.63000 28.57100
C  -2.74700 11.64900 26.30800
C  -2.78300 12.59500 29.71600
O  -2.56700 11.45800 30.08300
C  -2.94100 13.71400 30.77100
C  -1.82800 13.38900 31.74400
O  -0.65700 13.60600 31.59600
O  -2.37600 12.78400 32.84100
C  -1.55600 12.61300 34.01400
H  -2.61400 20.62900 30.27200
H  -1.74200 20.03100 23.79100
H  -2.63700 13.72200 24.32900
H  -4.17400 16.53300 32.12400
H  -2.24500 18.85700 32.01000
H  -4.96200 18.50100 32.77100
H  -5.08600 19.61000 31.46200
H  -4.03500 20.07900 32.78000
H  -1.27400 15.88300 32.55800
H  -2.69700 15.63800 33.54100
H  -2.25600 18.26100 34.10900
H  -0.63200 17.70700 33.54000
H  -2.42900 22.63900 29.48300
H  -3.13200 23.37900 28.12200
H  -1.35200 23.49400 28.36300
H  -2.22600 24.11500 26.25300
H  -1.05500 24.51400 24.91900
H  -0.53100 24.10300 26.55500
H  -1.61800 17.85100 22.41400
H  -3.35600 15.47600 22.69500
H  -3.76800 19.23500 22.34900
H  -4.71700 17.69300 22.32800
H  -3.60700 17.99300 21.05100
H  -1.10400 15.73400 21.38400
H  -1.25400 14.33600 22.51700
H  0.61100 16.34700 22.29600
H  0.71700 14.86500 23.17400
H  0.05700 16.30600 23.99400
H  -3.29900 11.61000 25.36900
H  -3.15100 10.87800 26.96500
H  -1.70300 11.35300 26.20400
H  -3.92400 13.53600 31.20700
H  -2.26600 12.31800 34.78700
H  -1.04400 13.50700 34.37100
H  -0.91700 11.73500 33.91900
Mg 44.25100 5.41400 46.95600
C  42.16200 8.22400 46.93300
C  41.55200 3.52700 46.24200
C  46.22000 2.86400 46.44300
C  47.01400 7.62700 46.79000
N  42.10100 5.84200 46.69700
C  41.48400 7.06500 46.73400
C  39.97200 6.98000 46.49000
C  39.76700 5.39400 46.43600
C  41.20200 4.86700 46.41900
C  38.78300 4.75900 47.41400
C  39.31200 7.73100 45.26600
C  40.32800 7.88400 44.03200
H  39.72000 7.63800 42.62800
N  43.89600 3.39600 46.41700
C  42.69000 2.80300 46.14800
C  42.86900 1.45300 45.77100
C  44.28900 1.18900 46.00600
C  44.90600 2.49400 46.26000
C  41.82400 0.55300 45.30800
C  44.92500 -0.15400 45.97900
O  44.38700 -1.16600 45.62400
C  46.26800 -0.37400 46.56300
N  46.27900 5.31600 46.43300
C  46.86500 4.05900 46.50900
C  48.45700 4.05500 46.60500
C  48.64300 5.59600 46.93400
C  47.19800 6.24800 46.70700
C  49.11100 3.11900 47.70600
C  49.79100 6.37200 46.19700
C  50.55500 7.34600 47.13500
N  44.59200 7.56200 46.89400
C  45.78600 8.27900 46.89300
C  45.45700 9.73600 46.96100
C  44.02700 9.73400 46.95900
C  43.57300 8.38200 46.94400
C  46.42800 10.87400 46.80200
C  42.82100 10.57200 47.06800
O  42.72400 11.78300 47.28800
C  41.57500 9.61200 47.01900
C  40.96300 9.88300 48.33000
O  41.31000 9.35800 49.36300
O  39.74700 10.60200 48.20000
C  38.92100 10.62500 49.41900
H  40.64600 2.96700 46.00100
H  46.87300 1.99000 46.39900
H  47.90800 8.25400 46.81800
H  39.51400 7.24100 47.44400
H  39.38100 5.17500 45.44100
H  39.18000 3.94000 48.01400
H  38.03600 4.25000 46.80700
H  38.25500 5.49100 48.02600
H  38.97100 8.71900 45.57400
H  38.48100 7.10400 44.94500
H  41.12800 7.16100 44.19200
H  40.82500 8.84800 43.92100
H  41.03900 1.02000 44.71400
H  41.27400 0.01500 46.08000
H  42.26300 -0.20900 44.66400
H  46.41000 -1.41200 46.86300
H  46.19400 0.20400 47.48500
H  47.05100 -0.10300 45.85500
H  48.76000 3.74500 45.60500
H  48.85900 5.73400 47.99400
H  48.35100 2.54400 48.23600
H  49.58300 3.72200 48.48200
H  49.87100 2.42200 47.35600
H  49.27100 6.98400 45.46000
H  50.50300 5.67500 45.75200
H  51.49400 6.86600 47.41200
H  49.99200 7.70400 47.99700
H  50.82000 8.15000 46.44900
H  47.12100 10.64200 47.61100
H  46.15400 11.92600 46.87800
H  46.90800 10.72800 45.83400
H  40.86400 9.78000 46.21100
H  39.03000 11.64400 49.79200
H  38.93400 9.75900 50.08000
H  37.92000 10.61200 48.98800

