158

Mg 6.43600 53.20400 40.73800
C  5.90500 49.65100 40.29300
C  9.63800 52.64800 39.57700
C  6.62400 56.44500 40.44500
C  3.01500 53.41400 41.31800
N  7.59200 51.32300 39.85900
C  7.21000 49.98700 39.90700
C  8.44400 49.01800 39.76800
C  9.63500 50.03600 39.87100
C  8.91300 51.42900 39.64600
C  10.23400 49.92600 41.28500
C  8.46100 48.15500 38.49900
C  8.35500 48.89600 37.19400
H  7.48600 48.19500 36.09800
N  7.95100 54.43300 40.00200
C  9.18600 54.03000 39.63400
C  9.90600 55.18800 39.28900
C  9.02500 56.33300 39.45100
C  7.78800 55.79300 40.03200
C  11.40600 55.17000 38.97500
C  9.38500 57.74600 39.10000
O  10.52100 57.98100 38.65700
C  8.54300 58.99600 39.25400
N  4.99200 54.67500 40.83400
C  5.39300 55.95600 40.81600
C  4.18400 56.94000 41.02900
C  3.04900 55.95600 41.18700
C  3.68300 54.59000 40.97400
C  4.38900 57.88200 42.32800
C  1.92800 56.26700 40.14600
C  0.58300 56.75300 40.74300
N  4.81800 51.82500 40.97400
C  3.49700 52.04600 41.17800
C  2.71400 50.85600 41.39300
C  3.67600 49.89200 41.06100
C  4.90000 50.50000 40.74800
C  1.22500 50.68400 41.73000
C  3.83200 48.42700 40.96400
O  3.06100 47.53400 41.08500
C  5.32000 48.26600 40.39400
C  5.18000 47.61500 39.05300
O  4.75200 48.03100 37.98400
O  5.45700 46.35900 39.24400
C  5.08100 45.37300 38.20900
H  10.71000 52.47000 39.68700
H  6.77000 57.52300 40.53900
H  2.02600 53.43700 41.78100
H  8.55400 48.26900 40.55200
H  10.27400 49.97100 38.99100
H  11.16400 49.39700 41.07500
H  9.59100 49.38400 41.97900
H  10.57900 50.90900 41.60400
H  7.65600 47.44400 38.68500
H  9.42800 47.65100 38.48200
H  9.31800 49.19400 36.78200
H  7.88200 49.84900 37.43000
H  11.45200 55.24200 37.88800
H  11.82200 54.23000 39.33900
H  11.96500 56.01400 39.37900
H  8.87700 59.87800 38.70800
H  8.47600 59.34000 40.28600
H  7.54300 58.96700 38.82200
H  4.19600 57.51600 40.10400
H  2.66000 55.92900 42.20500
H  5.38200 57.76200 42.76100
H  3.74400 57.71900 43.19200
H  4.35700 58.91500 41.98100
H  1.61400 55.39700 39.56900
H  2.08800 56.99800 39.35400
H  0.82800 57.67600 41.26700
H  0.12100 56.01800 41.40300
H  -0.10600 56.98100 39.93000
H  0.74800 51.32300 40.98600
H  1.17900 51.11000 42.73200
H  0.81300 49.68500 41.58900
H  5.92000 47.67600 41.08800
H  5.96800 44.85600 37.84400
H  4.58900 45.78800 37.33000
H  4.51800 44.53200 38.61400
Mg -2.10000 33.87400 27.48800
C  -3.98000 32.11300 30.05700
C  -0.82300 35.86700 29.72100
C  -0.63300 35.46700 24.92100
C  -3.66700 31.73800 25.08800
N  -2.21800 33.72400 29.65400
C  -2.98000 32.98900 30.53000
C  -2.84800 33.51400 31.96000
C  -2.20300 34.90300 31.71300
C  -1.64900 34.84300 30.23600
C  -3.09900 36.15900 32.02000
C  -2.05400 32.48000 32.86500
C  -2.64800 32.19900 34.24300
H  -1.81900 32.45900 35.59400
N  -0.81600 35.39400 27.34800
C  -0.39500 36.05200 28.40400
C  0.56300 37.01800 28.00700
C  0.73100 36.95500 26.60900
C  -0.29800 35.91800 26.23000
C  1.24600 37.94600 28.93500
C  1.54700 37.69600 25.69000
O  1.49000 37.60300 24.44900
C  2.70900 38.63500 26.22200
N  -2.24100 33.66400 25.27100
C  -1.50900 34.44900 24.50400
C  -1.52300 33.94100 22.98700
C  -2.25400 32.57900 23.09800
C  -2.76100 32.68500 24.52600
C  -2.17900 34.93000 21.95300
C  -1.33800 31.32700 22.87600
C  -2.09000 30.14700 22.18700
N  -3.58300 32.35200 27.48800
C  -4.15400 31.59900 26.44100
C  -5.01900 30.62300 26.95900
C  -5.07000 30.85700 28.37200
C  -4.16700 31.85400 28.66900
C  -5.78200 29.51500 26.25800
C  -5.65400 30.36700 29.61600
O  -6.41200 29.44300 29.83300
C  -4.91200 31.14300 30.73400
C  -5.84900 31.79600 31.66500
O  -6.51100 32.75900 31.41700
O  -5.84800 31.14800 32.86000
C  -6.73100 31.73500 33.89700
H  -0.38900 36.44400 30.54100
H  -0.09100 35.99400 24.13200
H  -4.01100 30.90400 24.47300
H  -3.83200 33.73800 32.37100
H  -1.28600 35.13700 32.25500
H  -3.04100 36.83600 31.16700
H  -2.61200 36.67000 32.85000
H  -4.12200 35.87500 32.26600
H  -1.02100 32.83000 32.84700
H  -2.10100 31.51900 32.35200
H  -2.90200 31.13900 34.24100
H  -3.52500 32.84100 34.32500
H  1.23800 37.61400 29.97300
H  0.62500 38.82500 28.76200
H  2.24500 38.21100 28.58900
H  3.42500 39.00800 25.48800
H  3.20500 38.14100 27.05700
H  2.29300 39.57900 26.57500
H  -0.49800 33.87900 22.62100
H  -3.06700 32.51000 22.37500
H  -3.05300 34.54000 21.43100
H  -1.41800 35.31100 21.27200
H  -2.47800 35.74700 22.61000
H  -1.06400 30.99300 23.87700
H  -0.40900 31.44100 22.31700
H  -1.70100 29.86000 21.20900
H  -3.17500 30.24300 22.20800
H  -2.02500 29.27500 22.83800
H  -5.81400 29.65300 25.17700
H  -6.82700 29.54700 26.56700
H  -5.35600 28.56600 26.58300
H  -4.35700 30.42900 31.34200
H  -7.37200 32.56700 33.60600
H  -6.02800 32.21900 34.57500
H  -7.27400 30.90100 34.34100

