158

Mg 39.73300 9.68900 30.47400
C  41.78500 10.90800 33.02200
C  37.52900 8.93500 32.99100
C  37.94100 8.20900 28.17300
C  42.30800 10.25200 28.18900
N  39.72600 9.88200 32.83000
C  40.65000 10.50600 33.61400
C  40.11200 10.76400 35.06300
C  38.73900 9.92300 35.02600
C  38.67400 9.49500 33.55800
C  38.54800 8.63800 35.97800
C  39.86000 12.19000 35.57900
C  40.57900 12.62400 36.93000
H  39.64800 13.16700 38.02400
N  37.94400 8.74200 30.56400
C  37.18200 8.44800 31.73800
C  36.00500 7.69200 31.32400
C  36.05400 7.62000 29.90000
C  37.31500 8.19500 29.46100
C  34.92800 7.22500 32.30100
C  35.01200 7.02400 28.90400
O  35.06000 7.09500 27.69100
C  33.69100 6.48500 29.48700
N  40.08500 9.14300 28.47000
C  39.12100 8.71100 27.64200
C  39.45900 8.74500 26.13900
C  40.95200 9.30000 26.27000
C  41.08900 9.70000 27.72300
C  39.35100 7.33300 25.50500
C  41.23400 10.40400 25.15600
C  40.61400 11.81500 25.50400
N  41.60700 10.46800 30.54500
C  42.55900 10.60800 29.54100
C  43.74500 11.30500 30.00500
C  43.43800 11.45300 31.37400
C  42.14400 10.84600 31.64900
C  44.82300 11.89600 29.25500
C  43.94500 12.14100 32.63400
O  44.99900 12.72200 32.90800
C  42.83100 11.75100 33.73400
C  43.46300 10.83800 34.81100
O  43.98600 9.78400 34.57000
O  43.53400 11.36700 36.06900
C  44.39800 10.60200 36.99100
H  36.91600 8.60900 33.83400
H  37.31000 7.78700 27.38700
H  42.94300 10.64800 27.39400
H  40.74500 10.21900 35.76300
H  37.87000 10.57000 35.14600
H  38.22300 7.68300 35.56500
H  37.80100 8.91400 36.72200
H  39.43700 8.43400 36.57600
H  38.82600 12.53000 35.63600
H  40.21600 12.66600 34.66500
H  41.30800 13.37800 36.63300
H  40.98700 11.71100 37.36400
H  34.71200 6.16800 32.15100
H  33.96700 7.73400 32.21400
H  35.26700 7.33800 33.33100
H  33.25600 6.10900 28.56000
H  33.18700 7.30500 29.99800
H  33.82200 5.65000 30.17600
H  38.85400 9.52300 25.67200
H  41.72600 8.56500 26.04500
H  38.98600 6.68100 26.29900
H  40.27600 6.92400 25.09900
H  38.59600 7.35200 24.72000
H  40.74500 10.09200 24.23400
H  42.29000 10.47500 24.89300
H  40.12400 12.15100 24.59100
H  41.41800 12.53100 25.67400
H  39.83600 11.83200 26.26700
H  44.67200 12.90100 28.85900
H  45.10900 11.24100 28.43300
H  45.61900 11.78400 29.99100
H  42.46000 12.69300 34.13700
H  44.06500 9.61000 37.29800
H  44.79900 11.15400 37.84100
H  45.31400 10.36500 36.45000
Mg 27.80000 51.74500 26.01300
C  26.02700 52.70300 28.98100
C  30.35700 50.68800 28.35600
C  29.69400 50.89500 23.41500
C  25.35900 53.17800 24.04100
N  28.14700 51.73100 28.43600
C  27.23100 52.12700 29.35800
C  27.69000 51.95300 30.79800
C  29.15400 51.40400 30.57000
C  29.28200 51.22500 29.06400
C  30.30800 52.21300 31.27100
C  26.72600 51.10400 31.69800
C  26.36800 51.72100 33.09800
H  27.21500 51.25900 34.30900
N  29.73900 50.94000 25.88100
C  30.58700 50.48500 26.94200
C  31.67500 49.73800 26.37200
C  31.62400 49.91000 24.96600
C  30.30200 50.61200 24.72900
C  32.66200 49.08600 27.28100
C  32.70200 49.49100 23.99600
O  32.56400 49.72900 22.85400
C  33.96000 48.83900 24.45800
N  27.66400 52.10200 24.01700
C  28.47300 51.55400 23.10400
C  28.00000 51.83600 21.72600
C  26.58600 52.47600 21.82200
C  26.49400 52.53300 23.40100
C  28.99200 52.77000 21.01200
C  25.42400 51.68800 21.14500
C  25.14600 50.20800 21.51900
N  26.04700 52.78600 26.35800
C  25.20800 53.41700 25.45500
C  24.14000 54.05200 26.12500
C  24.33100 53.78300 27.48200
C  25.55200 52.99600 27.61900
C  23.00100 54.76800 25.49400
C  23.81000 53.92400 28.82900
O  22.87000 54.46700 29.33000
C  24.91300 53.15400 29.85600
C  25.25200 54.35700 30.76100
O  26.10100 55.20700 30.60000
O  24.58900 54.29400 31.88800
C  24.75200 55.31800 32.92300
H  31.24500 50.43600 28.93900
H  30.22600 50.54300 22.52900
H  24.65500 53.63500 23.34300
H  27.69500 52.95100 31.23600
H  29.17700 50.34800 30.83800
H  30.82600 52.69100 30.44000
H  30.90400 51.45200 31.77400
H  29.88300 52.98400 31.91400
H  27.10400 50.10800 31.92700
H  25.74800 50.99400 31.23000
H  25.33000 51.42600 33.25100
H  26.45400 52.80700 33.13200
H  32.17600 48.80000 28.21400
H  33.44600 49.84000 27.35700
H  33.02200 48.16900 26.81500
H  34.71000 48.92300 23.67100
H  33.80700 47.79600 24.73600
H  34.24100 49.56700 25.21900
H  28.08300 50.88100 21.20700
H  26.51700 53.51400 21.49600
H  28.51700 53.64600 20.57100
H  29.45500 52.27600 20.15800
H  29.75500 53.18800 21.66900
H  25.48600 51.73200 20.05800
H  24.44400 52.15800 21.23000
H  24.07600 50.06800 21.67700
H  25.76100 49.84300 22.34100
H  25.41100 49.50100 20.73200
H  23.34800 55.35300 24.64200
H  22.71300 55.43400 26.30700
H  22.27900 54.00400 25.20500
H  24.34400 52.44400 30.45600
H  23.82900 55.41400 33.49500
H  25.01600 56.27400 32.47100
H  25.45700 54.97800 33.68300

