158

Mg 1.54200 -1.51700 43.98800
C  5.05200 -0.90500 43.56200
C  1.02100 1.58200 42.46400
C  -1.57700 -2.39800 43.57600
C  2.34000 -4.74700 45.04900
N  2.84900 0.14700 43.14900
C  4.26200 0.16800 42.99300
C  4.76000 1.38600 42.28700
C  3.50500 2.31900 42.42700
C  2.36900 1.27000 42.68900
C  3.57000 3.33000 43.58400
C  5.22100 1.19100 40.89900
C  6.65500 1.68500 40.63600
H  6.83300 2.39800 39.27800
N  -0.12600 -0.46600 43.21200
C  -0.17800 0.75500 42.57900
C  -1.52100 1.10300 42.26800
C  -2.30800 -0.01000 42.63200
C  -1.34200 -1.03200 43.17400
C  -1.84500 2.54600 41.68300
C  -3.81000 -0.11900 42.40600
O  -4.47100 0.79900 41.88900
C  -4.54100 -1.43300 42.68600
N  0.57400 -3.36900 44.00700
C  -0.75200 -3.39800 44.01900
C  -1.31500 -4.67500 44.55000
C  -0.05300 -5.46800 45.02100
C  1.03200 -4.46100 44.70200
C  -2.53200 -4.63300 45.56500
C  0.12200 -6.81700 44.25000
C  0.46400 -8.03400 45.11500
N  3.27900 -2.67500 44.29600
C  3.45500 -3.90900 44.83900
C  4.88500 -4.18800 44.89400
C  5.52800 -3.03600 44.38500
C  4.52300 -2.17300 44.00800
C  5.54000 -5.46800 45.36400
C  6.85100 -2.39700 44.14800
O  7.96600 -2.83100 44.45100
C  6.53000 -1.00900 43.50100
C  7.31200 0.01600 44.24500
O  7.11500 0.34500 45.40700
O  8.28200 0.53900 43.42100
C  9.08500 1.66100 43.94100
H  0.87600 2.62000 42.15800
H  -2.58000 -2.79400 43.40500
H  2.39500 -5.71500 45.55100
H  5.58700 1.79600 42.86800
H  3.26700 2.82600 41.49200
H  3.15600 2.76700 44.42100
H  3.00900 4.22200 43.30500
H  4.57900 3.64400 43.85000
H  4.58000 1.61100 40.12400
H  5.30400 0.12800 40.67200
H  7.26600 0.78200 40.62900
H  7.13700 2.34500 41.35700
H  -2.71700 2.47900 41.03200
H  -0.99700 2.99000 41.16200
H  -2.05900 3.31800 42.42400
H  -5.57800 -1.10200 42.73500
H  -4.15700 -1.81000 43.63400
H  -4.45600 -2.09200 41.82100
H  -1.75100 -5.12600 43.65900
H  0.02600 -5.59800 46.10100
H  -2.24600 -5.33500 46.34900
H  -3.46700 -4.86800 45.05700
H  -2.66900 -3.59700 45.87400
H  0.94700 -6.69500 43.54800
H  -0.84600 -7.04700 43.80700
H  1.18700 -8.75900 44.74300
H  -0.47600 -8.57100 45.24400
H  0.69700 -7.81400 46.15700
H  6.61500 -5.43900 45.18600
H  5.08500 -6.33000 44.87600
H  5.18600 -5.66300 46.37600
H  6.87100 -1.01400 42.46500
H  8.88200 2.56200 43.36200
H  10.15100 1.43600 43.90000
H  8.75300 1.84600 44.96200
Mg 46.57500 15.56900 28.14100
C  44.56200 15.66900 31.04600
C  48.81000 17.67800 29.90300
C  48.47500 15.89400 25.43900
C  44.08300 14.03000 26.41100
N  46.60600 16.68000 30.20000
C  45.68500 16.46700 31.26100
C  46.22100 17.03500 32.63200
C  47.47100 17.85000 32.08000
C  47.66400 17.30100 30.62500
C  47.42800 19.34500 32.31600
C  46.52700 15.97900 33.73800
C  45.74500 16.24800 35.01000
H  45.85300 17.58400 35.68400
N  48.49200 16.46600 27.77300
C  49.24800 17.28900 28.56600
C  50.44800 17.70800 27.92400
C  50.42400 17.08300 26.65100
C  49.08700 16.43000 26.57300
C  51.62500 18.34500 28.64300
C  51.56300 17.00400 25.60900
O  51.50600 16.24700 24.64500
C  52.76200 17.76900 25.80500
N  46.30300 15.06400 26.30000
C  47.23100 15.23300 25.31600
C  46.78800 14.62400 23.96600
C  45.41700 13.98000 24.32900
C  45.21000 14.47700 25.79500
C  46.81500 15.63200 22.79000
C  45.39200 12.40000 24.00500
C  46.02600 11.44500 25.00100
N  44.71500 14.88300 28.57800
C  43.77000 14.28300 27.76600
C  42.56200 14.07100 28.50100
C  42.87400 14.53300 29.85800
C  44.15100 15.04800 29.83300
C  41.33700 13.43900 27.77600
C  42.33300 14.73500 31.22100
O  41.22100 14.31300 31.73900
C  43.47400 15.40400 32.03500
C  42.90400 16.62400 32.75200
O  43.00100 17.79800 32.42500
O  42.29600 16.23900 33.92300
C  41.62900 17.36300 34.61700
H  49.54700 18.32800 30.37800
H  49.03800 16.04400 24.51500
H  43.28300 13.65400 25.77000
H  45.48500 17.77500 32.94600
H  48.36900 17.55200 32.62200
H  46.70500 19.62600 33.08200
H  47.25000 19.85900 31.37100
H  48.39400 19.71000 32.66300
H  47.57800 16.12400 33.98700
H  46.30600 14.94300 33.47900
H  46.10000 15.46800 35.68400
H  44.72500 16.02600 34.69500
H  52.40800 17.59100 28.56400
H  51.48800 18.55900 29.70300
H  51.91000 19.24900 28.10400
H  52.27900 18.66500 26.19400
H  53.28000 18.11700 24.91100
H  53.27200 17.07900 26.47600
H  47.42600 13.78000 23.70400
H  44.61500 14.47500 23.78100
H  47.40800 16.51000 23.04700
H  45.89100 15.98200 22.33100
H  47.49300 15.19100 22.06000
H  45.87200 12.21400 23.04400
H  44.32400 12.22500 23.87100
H  46.31900 11.95200 25.92100
H  46.85500 10.92400 24.52200
H  45.28600 10.67500 25.21600
H  41.73100 12.59000 27.21800
H  40.83300 14.19200 27.17000
H  40.60700 13.00000 28.45600
H  43.76500 14.70400 32.81800
H  42.31400 18.04600 35.11900
H  40.97300 16.95200 35.38400
H  41.01300 17.79000 33.82600

