158

Mg 24.65100 -6.11600 45.24000
C  26.91200 -3.60400 43.97600
C  22.18700 -4.62200 43.52400
C  22.97600 -8.96700 45.54800
C  27.44400 -7.58100 46.81900
N  24.59800 -4.35500 43.80700
C  25.60400 -3.51500 43.51700
C  25.04700 -2.38900 42.67600
C  23.46200 -2.50300 42.77600
C  23.39700 -3.95200 43.43300
C  22.80300 -1.46500 43.66700
C  25.60400 -2.47300 41.22600
C  25.87300 -1.07800 40.50200
H  25.22400 -0.85800 39.15200
N  22.84800 -6.59500 44.74500
C  21.94700 -5.87000 44.06400
C  20.73200 -6.52800 43.90400
C  20.89900 -7.80800 44.50200
C  22.29800 -7.80400 44.96400
C  19.59200 -6.07100 43.00000
C  19.87400 -8.97700 44.55800
O  18.81300 -8.83800 43.97800
C  20.19900 -10.39600 45.13600
N  25.18400 -8.10400 46.06600
C  24.33200 -9.11300 46.01700
C  24.80800 -10.36400 46.84000
C  26.08400 -9.75300 47.54500
C  26.29700 -8.46600 46.68000
C  23.83400 -11.03500 47.89600
C  27.35100 -10.79400 47.50800
C  28.04900 -11.05500 48.79700
N  26.73600 -5.68100 45.49700
C  27.72200 -6.30600 46.23700
C  28.95900 -5.52100 46.21900
C  28.70400 -4.49700 45.33600
C  27.32500 -4.59200 44.97500
C  30.26500 -5.84100 46.77300
C  29.28000 -3.32100 44.64000
O  30.41000 -2.88100 44.55200
C  28.11600 -2.75900 43.74600
C  27.91200 -1.33200 44.17000
O  27.33100 -0.90100 45.15800
O  28.54200 -0.50300 43.35400
C  28.53400 0.91000 43.69300
H  21.33900 -4.03900 43.15800
H  22.31500 -9.79900 45.80000
H  28.36100 -7.83800 47.35400
H  25.44800 -1.50800 43.17800
H  23.10700 -2.40600 41.75000
H  23.46200 -0.62700 43.89500
H  22.56900 -1.99000 44.59400
H  21.87600 -1.04200 43.28000
H  24.86000 -2.94100 40.58200
H  26.48400 -3.07200 40.98600
H  26.94200 -0.89500 40.39500
H  25.52400 -0.30100 41.18200
H  18.66300 -5.95100 43.55900
H  19.44300 -6.85400 42.25600
H  19.74800 -5.15900 42.42400
H  19.27100 -10.96100 45.05400
H  20.47000 -10.34400 46.19100
H  21.02700 -10.80400 44.55600
H  25.04800 -11.10400 46.07700
H  25.81900 -9.37200 48.53100
H  23.03700 -10.33600 48.15100
H  24.41200 -11.52800 48.67800
H  23.42800 -11.86100 47.31200
H  28.16300 -10.39200 46.90100
H  26.91900 -11.70800 47.10100
H  27.67200 -12.05100 49.03100
H  27.74700 -10.36700 49.58600
H  29.12400 -11.16100 48.65000
H  30.62900 -6.78300 46.36200
H  30.24700 -5.91700 47.86100
H  30.99500 -5.10100 46.44500
H  28.50300 -2.81600 42.72900
H  27.54300 1.35900 43.63000
H  29.23700 1.29400 42.95300
H  28.99300 1.17700 44.64600
Mg -9.26200 18.21000 41.05900
C  -5.83400 17.64000 41.41100
C  -8.56300 21.46900 40.26800
C  -12.45900 18.56900 40.29800
C  -9.76900 14.72400 41.42800
N  -7.41300 19.24800 40.74200
C  -6.12400 18.89100 40.85900
C  -5.20100 19.98600 40.36000
C  -6.05200 21.27200 40.81400
C  -7.46300 20.64600 40.61000
C  -5.82800 21.74300 42.31000
C  -4.93100 19.85900 38.87800
C  -3.46900 19.42400 38.46000
H  -3.31600 17.96300 38.08900
N  -10.45800 19.85400 40.42500
C  -9.97100 21.08800 40.16000
C  -11.08900 21.93700 39.82400
C  -12.25900 21.18400 40.11200
C  -11.77300 19.82100 40.28200
C  -10.93900 23.32900 39.21400
C  -13.67800 21.73900 40.09900
O  -13.87200 22.91400 39.87000
C  -14.80400 20.83000 40.29400
N  -10.83600 16.86400 40.83000
C  -12.10300 17.28300 40.48900
C  -13.09000 16.15400 40.25100
C  -12.21500 14.92300 40.69600
C  -10.86000 15.53900 41.07900
C  -14.45900 16.36300 40.88700
C  -12.18600 13.83400 39.66900
C  -12.71100 12.45300 40.13200
N  -8.06600 16.50500 41.40900
C  -8.42100 15.15500 41.49900
C  -7.23300 14.35500 41.70700
C  -6.23500 15.33600 41.72700
C  -6.77100 16.60400 41.52200
C  -7.21100 12.92600 41.99700
C  -4.76100 15.48400 41.94600
O  -3.93000 14.67400 42.30800
C  -4.48700 17.02800 41.70600
C  -3.74400 17.61600 42.89800
O  -4.21200 18.56800 43.53000
O  -2.43000 17.32400 42.92700
C  -1.65400 18.06700 43.88500
H  -8.27000 22.50500 40.09100
H  -13.47900 18.83300 40.00800
H  -9.91600 13.65900 41.61800
H  -4.24100 20.11500 40.85900
H  -5.75200 22.10100 40.17400
H  -5.09300 21.22000 42.92200
H  -6.79400 21.78300 42.81500
H  -5.50300 22.77800 42.41000
H  -5.30900 20.79000 38.45700
H  -5.58800 19.05500 38.54600
H  -2.78500 19.72300 39.25500
H  -3.17000 20.10900 37.66700
H  -11.35700 23.39900 38.21000
H  -9.90700 23.65700 39.09300
H  -11.47600 23.95800 39.92500
H  -15.61900 21.49900 40.57100
H  -14.46600 20.27000 41.16500
H  -14.99400 20.26500 39.38100
H  -13.17400 16.02100 39.17200
H  -12.49400 14.48800 41.65600
H  -14.66000 15.51600 41.54200
H  -15.34400 16.40500 40.25200
H  -14.52200 17.24300 41.52900
H  -11.16000 13.64300 39.35600
H  -12.65400 14.07300 38.71400
H  -13.18300 12.47800 41.11400
H  -11.89000 11.74300 40.22200
H  -13.38500 12.08100 39.36000
H  -7.60700 12.30000 41.19700
H  -7.78800 12.71300 42.89700
H  -6.17700 12.61700 42.14800
H  -3.81500 17.05100 40.84800
H  -1.24000 18.85300 43.25400
H  -0.78200 17.62200 44.36400
H  -2.24000 18.50900 44.69000

