158

Mg 47.90700 16.38600 29.35900
C  45.94800 15.68000 32.10500
C  49.98300 18.18600 31.44900
C  49.63500 17.45100 26.61700
C  45.46400 15.10300 27.21500
N  47.76700 17.00400 31.49800
C  47.03600 16.45900 32.49400
C  47.51200 16.88500 33.92500
C  48.58100 17.92500 33.63700
C  48.79300 17.74500 32.07800
C  48.16200 19.38300 33.93900
C  47.90700 15.69000 34.87500
C  47.12800 15.58000 36.21600
H  46.79800 16.82800 37.01700
N  49.62500 17.57200 29.09700
C  50.46200 18.04600 30.08100
C  51.75600 18.39900 29.51700
C  51.59200 18.21200 28.08800
C  50.23800 17.74600 27.85000
C  52.97400 18.88300 30.28900
C  52.60000 18.50900 27.00400
O  52.43300 18.24200 25.81700
C  53.95400 19.09000 27.44900
N  47.54500 16.26300 27.18500
C  48.39900 16.82700 26.31500
C  48.04300 16.59200 24.84300
C  46.68400 15.77900 25.06100
C  46.55200 15.62000 26.58700
C  47.84100 17.81600 23.99300
C  46.61200 14.40000 24.42000
C  45.13400 13.78100 24.10800
N  46.11800 15.51100 29.58300
C  45.25300 14.97300 28.63300
C  44.18200 14.24000 29.29700
C  44.36000 14.57700 30.65500
C  45.55300 15.37600 30.77800
C  43.02600 13.50100 28.53800
C  43.76800 14.43400 31.96000
O  42.75200 13.83400 32.37300
C  44.78000 15.14800 32.95800
C  43.85300 16.12000 33.78700
O  43.55500 17.23600 33.44900
O  43.55900 15.68600 35.04700
C  42.71400 16.58300 35.86200
H  50.70600 18.69800 32.08700
H  50.20700 17.75200 25.73600
H  44.58300 14.80700 26.64100
H  46.65900 17.46300 34.27800
H  49.55800 17.64500 34.03000
H  48.96100 19.73600 34.59200
H  47.22900 19.53300 34.48200
H  48.04400 19.93500 33.00700
H  48.94400 15.80200 35.19200
H  47.97200 14.76700 34.29900
H  47.75200 14.93900 36.83800
H  46.24700 14.96500 36.02900
H  52.79100 18.94000 31.36200
H  53.23100 19.91100 30.03300
H  53.80000 18.18900 30.13400
H  54.53700 18.43700 28.09900
H  53.83900 20.10400 27.83200
H  54.61000 19.35100 26.61900
H  48.78800 15.86800 24.51100
H  45.79300 16.30900 24.72500
H  48.34700 18.61800 24.53100
H  46.82600 17.94300 23.61600
H  48.49700 17.77200 23.12400
H  47.11200 13.59300 24.95700
H  47.05300 14.50200 23.42900
H  44.98400 12.79100 24.53800
H  44.91400 13.66400 23.04700
H  44.31000 14.34000 24.55200
H  43.15000 12.41900 28.48200
H  42.74700 13.88900 27.55800
H  42.12000 13.57200 29.13800
H  45.08900 14.46500 33.74900
H  41.89100 17.05300 35.32300
H  43.32500 17.33900 36.35400
H  42.28800 15.90900 36.60500
Mg 47.45300 24.84600 28.19100
C  48.10500 27.25000 30.78700
C  46.53300 22.60500 30.54800
C  46.84400 22.76000 25.66400
C  48.66100 27.29300 25.85700
N  47.30100 25.01700 30.37000
C  47.67700 26.02100 31.24500
C  47.38300 25.54400 32.67700
C  46.95600 24.08100 32.54000
C  46.98000 23.83700 31.03700
C  47.81000 23.07600 33.35000
C  46.47200 26.51000 33.40700
C  45.89300 25.87700 34.76400
H  46.35400 26.49700 36.12300
N  46.72800 23.00400 28.14900
C  46.35900 22.21200 29.17900
C  45.75600 21.03200 28.67400
C  45.88600 20.99500 27.28100
C  46.52100 22.29300 26.95400
C  45.28400 19.85300 29.60300
C  45.38800 19.98900 26.21700
O  45.68200 20.15000 25.04500
C  44.68200 18.77400 26.73700
N  47.96200 24.88700 26.00400
C  47.47200 23.93300 25.22000
C  47.59700 24.34500 23.78300
C  48.02000 25.82200 23.86300
C  48.24600 26.03500 25.33800
C  48.43100 23.32100 22.94900
C  46.93700 26.71800 23.22200
C  47.40900 28.07900 22.67300
N  48.21700 26.77500 28.24600
C  48.66000 27.66700 27.20600
C  48.88900 28.95200 27.69400
C  48.73600 28.87100 29.10500
C  48.36600 27.51200 29.37500
C  49.37700 30.11300 26.88200
C  48.82400 29.55800 30.33500
O  49.17600 30.69100 30.54400
C  48.30600 28.51900 31.49600
C  49.35500 28.47800 32.59700
O  50.49900 28.05200 32.53800
O  48.88300 29.04400 33.69600
C  49.85900 29.45400 34.72600
H  46.20400 21.91200 31.32500
H  46.55900 22.17800 24.78500
H  48.84200 28.16900 25.23100
H  48.28900 25.56100 33.28300
H  45.96400 23.82200 32.91100
H  48.45900 23.58300 34.06400
H  48.42100 22.47900 32.67200
H  47.12800 22.42800 33.90000
H  45.80000 26.94000 32.66400
H  47.19100 27.26200 33.73100
H  45.94400 24.79400 34.87500
H  44.83100 26.11700 34.70200
H  45.39300 20.10900 30.65700
H  45.67400 18.90200 29.24000
H  44.19700 19.86200 29.51800
H  43.91100 19.00600 27.47100
H  45.48400 18.10300 27.04600
H  44.14400 18.33900 25.89500
H  46.58000 24.42300 23.39800
H  49.02400 25.87800 23.44300
H  48.73300 22.55000 23.65700
H  49.21600 23.80300 22.36700
H  47.68100 22.92500 22.26400
H  46.07800 26.79700 23.88800
H  46.54700 26.28400 22.30200
H  47.08200 28.71400 23.49600
H  46.93500 28.18100 21.69600
H  48.47300 28.18800 22.46100
H  50.25700 29.83200 26.30300
H  49.56600 30.96100 27.54000
H  48.61400 30.41200 26.16300
H  47.39000 28.89800 31.94900
H  50.91300 29.28000 34.51300
H  49.60700 28.89300 35.62700
H  49.73400 30.51400 34.94500

