158

Mg 10.38300 48.00400 26.91300
C  8.63200 47.95900 29.96000
C  12.96100 49.48100 28.42800
C  11.92500 47.83300 23.99000
C  7.38400 46.85400 25.35400
N  10.61600 48.81100 28.80600
C  9.90100 48.40500 29.93100
C  10.70000 48.78100 31.26100
C  11.85700 49.61900 30.68300
C  11.76500 49.37300 29.20700
C  11.86500 51.06200 31.00400
C  11.13800 47.44800 32.10600
C  10.81300 47.34400 33.63900
H  10.67600 46.00400 34.34000
N  12.17800 48.54200 26.27900
C  13.18500 49.03700 27.07300
C  14.41100 49.08400 26.35800
C  14.15400 48.63800 25.05300
C  12.65300 48.37700 25.03400
C  15.75200 49.49700 26.95600
C  15.03100 48.54700 23.82900
O  14.57100 48.22200 22.72800
C  16.45100 48.87200 23.91800
N  9.67200 47.75500 24.89900
C  10.49600 47.66900 23.88400
C  9.89100 46.96100 22.63800
C  8.54700 46.49400 23.10800
C  8.45600 47.14300 24.48900
C  9.89000 47.93700 21.41000
C  8.30000 45.02800 23.19300
C  8.97200 44.11000 22.20800
N  8.41700 47.60800 27.39900
C  7.31200 47.16100 26.65900
C  6.13800 47.07500 27.50800
C  6.62200 47.39900 28.86600
C  8.00700 47.65800 28.72800
C  4.70700 46.78800 27.11000
C  6.28200 47.50000 30.26800
O  5.17800 47.43700 30.79700
C  7.55000 47.77900 31.10300
C  7.77800 46.55500 31.93300
O  8.38800 45.59100 31.57400
O  7.05200 46.55900 33.09800
C  7.15300 45.37000 34.01800
H  13.81100 49.93000 28.94600
H  12.50300 47.49600 23.12700
H  6.49500 46.41600 24.89600
H  9.98000 49.31000 31.88500
H  12.80400 49.17700 30.99300
H  10.92300 51.34900 31.47000
H  12.04700 51.67000 30.11800
H  12.59000 51.23700 31.79900
H  12.22100 47.36000 32.02700
H  10.67700 46.66900 31.49800
H  9.90900 47.93200 33.80000
H  11.64800 47.89900 34.06700
H  15.56300 49.86700 27.96300
H  16.16700 50.28000 26.32100
H  16.31200 48.56400 26.89500
H  16.82300 48.22200 24.71000
H  16.54800 49.90600 24.25000
H  16.91000 48.67100 22.95000
H  10.54600 46.09300 22.56700
H  7.83300 46.95800 22.42700
H  10.40700 48.87300 21.62200
H  8.90700 48.28400 21.09000
H  10.35200 47.52300 20.51400
H  7.21900 44.89000 23.20600
H  8.59100 44.67200 24.18200
H  9.78900 43.56100 22.67600
H  9.37100 44.58400 21.31100
H  8.22200 43.39300 21.87300
H  4.38000 46.94600 26.08200
H  4.11300 47.47900 27.70900
H  4.47300 45.75000 27.34800
H  7.33400 48.62000 31.76200
H  6.93900 44.50000 33.39700
H  6.40400 45.50200 34.79900
H  8.10800 45.31200 34.54200
Mg 2.04800 42.24400 26.37600
C  3.35300 42.15000 29.51900
C  -0.89500 40.87600 27.47600
C  0.95900 42.00600 23.08300
C  5.05500 43.49300 25.16800
N  1.31600 41.69400 28.25400
C  1.99400 41.81000 29.46100
C  1.04900 41.53000 30.69000
C  -0.26300 41.02500 29.95200
C  0.09900 41.22400 28.47700
C  -0.65400 39.59100 30.34700
C  0.77100 42.80200 31.58900
C  1.35100 42.65300 33.04800
H  1.06900 41.35500 33.79300
N  0.28800 41.46100 25.41500
C  -0.86400 41.01200 26.07800
C  -1.83800 40.72900 25.14600
C  -1.32800 41.00500 23.88200
C  0.04200 41.55000 24.03600
C  -3.11300 40.02800 25.66100
C  -2.05900 40.89300 22.42200
O  -1.65700 41.50800 21.41200
C  -3.45100 40.30200 22.42100
N  2.95400 42.53500 24.41200
C  2.26400 42.51700 23.23900
C  3.09300 43.06400 22.04500
C  4.25300 43.74000 22.83300
C  4.10000 43.22700 24.23900
C  3.62400 41.85000 21.23200
C  4.28800 45.24400 22.60300
C  4.66000 45.85800 21.16600
N  3.86900 42.63900 27.15300
C  4.99600 43.19000 26.54100
C  5.99900 43.41100 27.52600
C  5.40800 43.01700 28.72400
C  4.10400 42.56300 28.40900
C  7.43900 43.95400 27.35200
C  5.53000 42.89100 30.11600
O  6.52800 43.13600 30.84900
C  4.23400 42.31400 30.67600
C  4.56800 41.02000 31.36700
O  4.87400 39.95700 30.83600
O  4.73200 41.27600 32.70400
C  5.00800 40.08000 33.51900
H  -1.80100 40.47800 27.93800
H  0.71600 41.92800 22.02100
H  6.00700 43.89600 24.81700
H  1.55500 40.76100 31.27400
H  -1.12100 41.64200 30.22000
H  -1.73700 39.55600 30.46400
H  -0.23200 39.38000 31.33000
H  -0.26500 38.84000 29.66000
H  -0.29400 42.91900 31.79100
H  1.24600 43.62900 31.06100
H  1.04500 43.58500 33.52300
H  2.43500 42.75600 32.99100
H  -2.98500 39.43600 26.56700
H  -3.37300 39.33300 24.86300
H  -4.00100 40.62200 25.88100
H  -4.12400 40.97600 22.95100
H  -3.37400 39.31600 22.87700
H  -3.78000 40.08700 21.40400
H  2.59200 43.88400 21.53100
H  5.21900 43.33300 22.53400
H  4.46200 42.02700 20.55700
H  2.83600 41.61000 20.51800
H  3.67400 40.91200 21.78400
H  5.13700 45.59000 23.19200
H  3.38700 45.72600 22.98100
H  4.49600 44.97000 20.55600
H  5.69400 46.15800 20.99600
H  3.91400 46.62800 20.96900
H  8.19300 43.21600 27.62900
H  7.57900 44.76600 28.06500
H  7.58700 44.32400 26.33800
H  3.96200 43.15300 31.31600
H  4.40200 40.16900 34.42000
H  6.07400 39.97300 33.72200
H  4.67000 39.15300 33.05600

