158

Mg 48.37000 14.95700 28.17200
C  46.40000 14.99700 31.24400
C  50.48800 17.04100 29.72600
C  50.07300 14.92200 25.27200
C  45.73300 13.04200 26.69400
N  48.34600 15.94800 30.19500
C  47.54500 15.72900 31.31300
C  48.16600 16.38900 32.56300
C  49.27400 17.35700 31.91300
C  49.35900 16.79100 30.49300
C  49.04500 18.89200 31.91600
C  48.63500 15.31100 33.64400
C  48.38000 15.43500 35.13200
H  49.51200 15.34400 36.12900
N  50.09300 15.82000 27.60700
C  50.89500 16.64400 28.42400
C  52.21400 16.70700 27.81400
C  52.13100 16.19900 26.52200
C  50.71500 15.62700 26.41800
C  53.42100 17.33900 28.46400
C  53.19200 15.96900 25.46000
O  53.02500 15.41500 24.39400
C  54.63800 16.39300 25.70300
N  47.82000 14.39700 26.14400
C  48.75600 14.38300 25.13200
C  48.43100 13.31800 24.04800
C  46.98500 12.81600 24.44100
C  46.84000 13.39300 25.86300
C  48.57400 13.81400 22.52000
C  46.93000 11.18800 24.53800
C  45.78200 10.46600 23.88900
N  46.37900 14.27800 28.71300
C  45.49000 13.48400 28.02700
C  44.35100 13.23000 28.94400
C  44.66800 13.70800 30.17000
C  45.92100 14.40600 30.04000
C  43.14300 12.40200 28.64200
C  44.26200 13.78400 31.58200
O  43.25900 13.32700 32.14000
C  45.42400 14.53100 32.32200
C  44.76900 15.69800 33.01300
O  44.05500 16.53000 32.48000
O  45.23500 15.80500 34.30700
C  44.75500 16.94300 34.98300
H  51.20100 17.71700 30.20200
H  50.69200 14.79700 24.38100
H  44.97000 12.33800 26.35400
H  47.35700 16.94400 33.03700
H  50.25900 17.22800 32.36200
H  49.84500 19.36300 32.48700
H  48.08100 19.18400 32.33300
H  49.14700 19.27300 30.90000
H  49.71800 15.26700 33.53500
H  48.08700 14.39200 33.43600
H  47.60300 14.70400 35.35800
H  47.95200 16.42800 35.27100
H  53.44900 18.38200 28.14900
H  54.31100 16.71100 28.41000
H  53.24900 17.46000 29.53300
H  54.80300 17.43300 25.98500
H  55.14800 16.04900 24.80300
H  55.00600 15.76800 26.51700
H  49.22200 12.58200 24.19100
H  46.16900 13.18400 23.81900
H  49.29500 14.62600 22.60100
H  47.56500 14.12000 22.24500
H  48.95200 13.01700 21.87900
H  47.15300 10.91500 25.57000
H  47.75000 10.86400 23.89800
H  45.06200 11.20800 23.54300
H  45.32400 9.71800 24.53700
H  46.05800 10.02700 22.93000
H  42.23700 12.69100 29.17300
H  43.40900 11.40000 28.97900
H  43.00800 12.27500 27.56800
H  45.68700 13.82000 33.10500
H  43.68300 17.07300 34.83900
H  45.37400 17.76900 34.63200
H  45.03300 16.77500 36.02300
Mg -5.97600 25.71900 25.57900
C  -4.22700 27.01400 28.44200
C  -6.98300 23.14400 27.67800
C  -7.36400 24.21700 22.97300
C  -4.24700 27.91500 23.61900
N  -5.73600 25.26900 27.84300
C  -5.13700 26.01200 28.83400
C  -5.52000 25.50800 30.23800
C  -6.02800 24.11000 29.93500
C  -6.33200 24.16300 28.37900
C  -5.08300 22.90900 30.50400
C  -6.66400 26.48200 30.76100
C  -6.57900 26.73700 32.29900
H  -6.45700 25.45900 33.21900
N  -7.03000 23.91200 25.33100
C  -7.38300 23.01300 26.30200
C  -8.04000 21.89700 25.70800
C  -8.29700 22.20000 24.30800
C  -7.54400 23.50300 24.16000
C  -8.41600 20.70900 26.57300
C  -9.16600 21.46200 23.28900
O  -9.44900 22.02600 22.19000
C  -9.82600 20.11300 23.57900
N  -5.93000 26.05000 23.63100
C  -6.59200 25.30700 22.66300
C  -6.25700 25.75400 21.25500
C  -5.55900 27.12800 21.58800
C  -5.18500 26.97700 23.07500
C  -5.38600 24.83500 20.38200
C  -6.39900 28.38100 21.47000
C  -6.44600 29.01400 20.13100
N  -4.54900 27.17600 25.95900
C  -3.90900 27.99400 25.02800
C  -2.95400 28.81900 25.64900
C  -3.01700 28.40700 27.02600
C  -4.00500 27.45400 27.12200
C  -1.94900 29.76600 25.05700
C  -2.36400 28.69700 28.33200
O  -1.55800 29.53600 28.66000
C  -3.25300 27.83300 29.26500
C  -2.38400 27.04000 30.24100
O  -1.54800 26.20300 29.97200
O  -2.66500 27.31800 31.57500
C  -1.91400 26.61500 32.66200
H  -7.31600 22.35600 28.35700
H  -7.92800 23.85900 22.10900
H  -3.72400 28.61100 22.95900
H  -4.63000 25.51200 30.86800
H  -7.02700 23.94100 30.33700
H  -4.40600 22.69600 29.67700
H  -5.59300 22.01500 30.86400
H  -4.50700 23.35200 31.31700
H  -7.65700 26.06200 30.59900
H  -6.72600 27.48800 30.34600
H  -7.39000 27.42300 32.54400
H  -5.74800 27.40600 32.52100
H  -9.20100 20.11800 26.10200
H  -8.58300 20.93900 27.62500
H  -7.59200 19.99700 26.62300
H  -9.00200 19.42700 23.77600
H  -10.44500 19.83700 22.72600
H  -10.51800 20.24600 24.41100
H  -7.19800 25.96000 20.74600
H  -4.68000 27.25300 20.95500
H  -4.41800 25.31900 20.24900
H  -5.79700 24.58800 19.40300
H  -5.37700 23.94600 21.01300
H  -6.24400 29.09300 22.28100
H  -7.44400 28.07200 21.47600
H  -7.17200 28.38600 19.61300
H  -5.54500 28.87500 19.53400
H  -6.55100 30.09900 20.14500
H  -1.90500 30.58400 25.77600
H  -2.16800 30.11700 24.04800
H  -1.00000 29.23500 24.97600
H  -3.87400 28.53100 29.82600
H  -2.73100 26.57100 33.38200
H  -1.04700 27.05300 33.15600
H  -1.80100 25.56900 32.37600

