158

Mg 0.46000 7.55900 25.32500
C  1.07200 9.48800 28.12400
C  0.93300 4.83600 27.31700
C  0.09300 5.63600 22.59900
C  0.10400 10.35800 23.41900
N  1.01300 7.23800 27.50700
C  1.09200 8.14800 28.49100
C  1.30700 7.42400 29.89000
C  1.36900 5.93900 29.52800
C  1.07600 5.99700 28.04800
C  2.79600 5.36100 29.77400
C  0.22600 7.75100 30.93100
C  0.83300 8.16000 32.31100
H  2.01300 7.33600 32.78900
N  0.52800 5.48000 25.00800
C  0.68400 4.52000 25.98800
C  0.50600 3.25700 25.37500
C  0.35200 3.47700 23.97700
C  0.29500 4.90500 23.80900
C  0.78500 1.99100 25.99900
C  0.26600 2.49300 22.85600
O  0.04600 2.91200 21.71500
C  0.49400 1.05200 23.11700
N  0.11400 7.98300 23.31000
C  -0.05700 7.02000 22.36000
C  -0.53900 7.62300 21.02100
C  -0.61600 9.11600 21.38300
C  -0.10400 9.14900 22.82100
C  0.50600 7.28100 19.89300
C  -2.03500 9.73400 21.17600
C  -2.09200 11.02400 20.34200
N  0.74400 9.46800 25.58900
C  0.62900 10.50500 24.73500
C  0.72600 11.74800 25.41700
C  1.01300 11.40600 26.74800
C  0.94100 10.00800 26.81000
C  0.64300 13.11400 24.79100
C  1.09400 11.94200 28.12700
O  1.09900 13.09400 28.50800
C  1.03200 10.71700 29.00600
C  2.09200 10.91100 29.92500
O  3.17500 10.37300 29.87800
O  1.59300 11.70300 30.98000
C  2.60500 12.10400 32.01400
H  1.05100 3.95200 27.94700
H  -0.09900 5.05300 21.69600
H  -0.21300 11.32200 23.01500
H  2.26200 7.87200 30.16200
H  0.59200 5.26700 29.89300
H  2.95800 4.28300 29.78000
H  3.21400 5.68800 30.72600
H  3.46300 5.60700 28.94800
H  -0.44900 6.91400 31.11000
H  -0.37200 8.55800 30.50800
H  -0.00700 8.07400 32.99900
H  1.14500 9.19600 32.17600
H  1.75000 1.64400 25.62900
H  0.08500 1.18200 25.79200
H  0.69300 2.08800 27.08100
H  1.35400 0.77200 23.72500
H  0.63700 0.47000 22.20600
H  -0.43300 0.71600 23.58100
H  -1.51500 7.22700 20.73800
H  0.11700 9.58900 20.73000
H  1.33200 6.67000 20.25700
H  0.98600 8.09200 19.34400
H  -0.09200 6.67700 19.21100
H  -2.44700 9.90300 22.17100
H  -2.67000 9.01400 20.66100
H  -2.79100 10.92400 19.51200
H  -1.13300 11.41100 19.99800
H  -2.57400 11.78200 20.95900
H  -0.41400 13.14900 24.53000
H  1.23800 13.21700 23.88400
H  0.85200 13.95000 25.46000
H  0.07700 10.72500 29.53200
H  2.14200 12.38400 32.96000
H  3.37000 12.80600 31.68000
H  3.07300 11.21000 32.42600
Mg -10.67000 39.64200 41.76900
C  -9.44000 36.54600 40.37000
C  -8.14600 41.28500 40.17600
C  -12.39200 42.35200 42.31900
C  -13.62600 37.64100 42.57100
N  -9.07100 38.96900 40.32700
C  -8.65500 37.69800 40.00900
C  -7.30200 37.72000 39.30900
C  -6.96300 39.25900 39.18000
C  -8.09600 39.93900 39.91400
C  -5.50600 39.62700 39.63400
C  -7.37000 36.99600 37.84800
C  -6.52600 35.71700 37.77200
H  -5.46300 35.64400 36.65700
N  -10.31500 41.58200 41.37500
C  -9.25400 42.09300 40.67500
C  -9.33000 43.57100 40.63800
C  -10.64100 43.89600 41.15300
C  -11.18300 42.59400 41.72300
C  -8.27900 44.57400 40.09300
C  -11.36100 45.24400 41.07100
O  -10.84500 46.12600 40.35000
C  -12.58000 45.59800 41.84100
N  -12.71900 39.92200 42.41000
C  -13.12500 41.17300 42.67600
C  -14.59500 41.17100 43.15200
C  -14.94200 39.67200 43.30500
C  -13.68400 39.03400 42.67300
C  -14.89100 42.06400 44.39900
C  -16.27900 39.19300 42.56200
C  -17.36100 38.46800 43.34500
N  -11.33100 37.49200 41.70700
C  -12.52100 36.88400 42.08900
C  -12.46000 35.44000 41.80900
C  -11.25200 35.29700 41.21400
C  -10.65800 36.59000 41.10100
C  -13.45200 34.40000 42.15200
C  -10.35700 34.30300 40.68700
O  -10.48900 33.09400 40.51700
C  -9.10500 35.06100 40.29500
C  -8.01500 34.65000 41.25900
O  -7.80800 35.19000 42.33100
O  -7.33100 33.55600 40.77000
C  -6.36700 32.84400 41.65600
H  -7.28900 41.88300 39.86000
H  -13.02500 43.22600 42.48300
H  -14.41200 36.94400 42.86900
H  -6.58700 37.25200 39.98500
H  -6.97600 39.52700 38.12400
H  -5.09600 38.66100 39.92700
H  -5.46400 40.38200 40.42000
H  -4.92600 39.91400 38.75800
H  -7.05400 37.65800 37.04200
H  -8.44100 36.81100 37.77400
H  -7.09500 34.81700 37.53500
H  -6.07900 35.52400 38.74700
H  -7.40500 44.01000 39.76600
H  -7.98900 45.38200 40.76500
H  -8.75600 45.00500 39.21300
H  -13.47700 45.31500 41.29100
H  -12.62500 46.68000 41.97200
H  -12.54100 45.07300 42.79500
H  -15.20500 41.61300 42.36300
H  -14.89600 39.38500 44.35500
H  -15.52300 42.89700 44.09300
H  -13.98200 42.35900 44.92500
H  -15.50400 41.50500 45.10700
H  -15.95400 38.50500 41.78100
H  -16.74600 40.04800 42.07400
H  -18.34600 38.92700 43.43000
H  -17.10700 38.19200 44.36800
H  -17.63700 37.57500 42.78500
H  -13.34800 34.04500 43.17800
H  -13.34400 33.48600 41.56900
H  -14.42200 34.84500 41.92800
H  -8.83200 34.63500 39.33000
H  -5.78200 33.61100 42.16400
H  -5.66100 32.24300 41.08300
H  -6.88000 32.22900 42.39400

