158

Mg 8.48200 4.64500 27.55600
C  9.70800 2.92100 30.30700
C  6.56300 6.61600 29.72300
C  6.97400 6.04000 24.92900
C  10.06200 2.36800 25.43500
N  8.19300 4.78400 29.67500
C  8.83300 3.95200 30.62800
C  8.58800 4.55500 32.08300
C  7.68300 5.77800 31.78500
C  7.43800 5.75500 30.31000
C  6.31900 5.70100 32.65900
C  9.89200 4.89100 32.81800
C  9.65200 5.94300 33.95200
H  10.42300 5.67400 35.24000
N  7.09600 6.23400 27.28400
C  6.42300 6.91500 28.30800
C  5.61500 7.93500 27.76300
C  5.74000 7.78300 26.32300
C  6.70200 6.69600 26.10200
C  4.73200 8.93500 28.65600
C  4.97200 8.53800 25.30900
O  5.19000 8.39300 24.11200
C  3.93100 9.53100 25.68700
N  8.39200 4.14800 25.51600
C  7.79900 5.01200 24.59600
C  8.23500 4.68500 23.12300
C  9.35400 3.63700 23.36000
C  9.30100 3.32700 24.87400
C  7.09300 4.18900 22.22700
C  10.82500 4.11400 22.89600
C  11.57300 5.03300 23.85700
N  9.63600 2.96700 27.75100
C  10.28900 2.14700 26.81400
C  11.17600 1.27600 27.52100
C  10.97300 1.52400 28.86900
C  9.98500 2.50600 28.97000
C  12.16000 0.45900 26.88800
C  11.42700 1.16900 30.21200
O  12.21000 0.33000 30.63100
C  10.53300 2.02200 31.11500
C  9.68600 1.11200 31.87300
O  8.90700 0.31700 31.40600
O  9.96900 1.23100 33.20000
C  9.11200 0.46400 34.17000
H  6.10700 7.27600 30.46300
H  6.65000 6.54200 24.01400
H  10.74800 1.79900 24.80400
H  8.07200 3.83200 32.71500
H  8.17700 6.73100 31.97800
H  6.07100 6.67800 33.07300
H  6.58700 5.04800 33.49000
H  5.51000 5.19800 32.13000
H  10.53600 5.29300 32.03600
H  10.20400 3.98000 33.32800
H  8.59100 6.05200 34.17900
H  10.06100 6.89500 33.61500
H  5.04500 9.95600 28.44200
H  4.79800 8.77900 29.73200
H  3.68200 8.81300 28.38800
H  4.31300 10.38600 26.24500
H  3.17400 9.04600 26.30300
H  3.66200 9.97600 24.72900
H  8.61200 5.60700 22.67900
H  9.18100 2.64300 22.94700
H  6.25100 3.88000 22.84700
H  7.40300 3.29100 21.69300
H  6.92800 5.14100 21.72300
H  10.80400 4.65300 21.94900
H  11.38000 3.17800 22.83000
H  10.98000 5.06100 24.77100
H  11.72400 6.01500 23.40900
H  12.56600 4.64500 24.08500
H  12.47100 0.92300 25.95200
H  11.61200 -0.41400 26.53300
H  12.90800 0.22400 27.64600
H  11.26100 2.56000 31.72100
H  9.71900 -0.24400 34.73300
H  8.23600 -0.02300 33.74200
H  8.80700 1.25000 34.86100
Mg 35.77100 2.40200 30.19400
C  33.44100 3.84600 32.32800
C  38.07000 2.24200 32.73700
C  38.05400 1.29700 27.88600
C  33.26200 2.43100 27.65800
N  35.72800 3.03000 32.21300
C  34.66200 3.58000 32.90700
C  35.05000 3.64400 34.44200
C  36.55900 3.49100 34.49900
C  36.78000 2.84400 33.10000
C  37.42700 4.69200 34.72300
C  34.25500 2.64700 35.33500
C  34.08600 3.03500 36.75500
H  34.71100 4.30700 37.33100
N  37.74400 1.90000 30.30900
C  38.54400 1.86600 31.44400
C  39.78200 1.25800 31.16800
C  39.74000 0.88400 29.80200
C  38.45300 1.39300 29.26100
C  40.82300 1.06900 32.30000
C  40.83600 0.21000 29.06200
O  40.68500 -0.20900 27.92700
C  42.18800 -0.09200 29.71700
N  35.68200 1.92900 28.12400
C  36.77300 1.52300 27.42400
C  36.39400 1.26200 25.97100
C  34.81400 1.32400 26.00900
C  34.57900 2.02700 27.32700
C  36.98700 2.36800 25.03100
C  34.16600 -0.09900 25.93100
C  32.74700 -0.12600 25.36900
N  33.79100 3.12000 29.91600
C  32.92100 3.16500 28.84500
C  31.65200 3.73300 29.24300
C  31.80900 3.96200 30.59600
C  33.10400 3.64400 30.96400
C  30.43300 3.93900 28.41800
C  31.10000 4.44300 31.76900
O  29.94300 4.72600 31.92400
C  32.12400 4.46600 32.98800
C  32.33600 5.83200 33.48800
O  33.15400 6.61800 33.08200
O  31.51300 6.01200 34.58600
C  31.70200 7.20900 35.41000
H  38.74400 2.20900 33.59600
H  38.83500 0.91000 27.22800
H  32.58000 2.20200 26.83600
H  34.88600 4.66000 34.80300
H  36.80500 2.75300 35.26200
H  37.65200 4.79500 35.78500
H  36.76000 5.54600 34.60100
H  38.31900 4.72200 34.09700
H  34.69100 1.64800 35.35500
H  33.28500 2.47700 34.86600
H  34.33000 2.19400 37.40400
H  33.00500 2.99900 36.88600
H  41.89100 0.93100 32.13600
H  40.45000 0.26300 32.93300
H  40.69500 1.99300 32.86300
H  42.52900 0.73400 30.34100
H  42.95000 -0.44700 29.02300
H  42.19300 -0.96000 30.37600
H  36.54600 0.25000 25.59500
H  34.34600 1.90400 25.21400
H  37.59400 2.00200 24.20300
H  37.48900 3.14700 25.60400
H  36.20800 2.97600 24.57000
H  34.12100 -0.39400 26.98000
H  34.84000 -0.80100 25.43900
H  32.58800 0.47000 24.47000
H  31.98800 0.07200 26.12600
H  32.69500 -1.09500 24.87300
H  29.71100 3.13000 28.52200
H  30.68800 4.06400 27.36500
H  30.14700 4.92600 28.78100
H  31.72200 3.83600 33.78200
H  32.75600 7.42900 35.57800
H  31.11700 7.01500 36.30900
H  31.24900 8.02600 34.84800

