158

Mg 17.21000 -1.83600 28.33400
C  16.19800 0.38600 30.80700
C  19.28700 -3.38700 30.58900
C  18.44600 -3.59100 25.79600
C  15.47600 0.32400 26.00400
N  17.62300 -1.55200 30.43900
C  17.03500 -0.58500 31.24600
C  17.48800 -0.83500 32.66800
C  18.60600 -1.96900 32.61500
C  18.45000 -2.38000 31.13800
C  20.07400 -1.72500 32.97700
C  16.24900 -1.28300 33.61000
C  16.20500 -0.47000 34.88600
H  17.52100 -0.08300 35.55000
N  18.74800 -3.24400 28.23200
C  19.40400 -3.83300 29.24400
C  20.05500 -5.01600 28.83400
C  19.77400 -5.20900 27.39300
C  18.90300 -4.00500 27.06600
C  20.87700 -5.94600 29.75900
C  20.28100 -6.17800 26.41000
O  20.07500 -6.23400 25.16000
C  21.25100 -7.21400 26.89200
N  16.93400 -1.74300 26.24000
C  17.67900 -2.50400 25.39500
C  17.29400 -2.18700 23.92100
C  16.34900 -0.92800 23.98900
C  16.25000 -0.71900 25.51900
C  18.52300 -1.95800 23.01200
C  14.97100 -1.16100 23.28000
C  13.99500 -2.03500 24.03100
N  15.92800 -0.07500 28.38100
C  15.34700 0.67600 27.39000
C  14.46000 1.69600 27.97300
C  14.79900 1.67300 29.33300
C  15.72400 0.64400 29.48400
C  13.47700 2.65800 27.33500
C  14.62600 2.37100 30.65100
O  13.92600 3.32800 30.94900
C  15.49000 1.50400 31.63400
C  16.35800 2.30900 32.35200
O  17.42400 2.70700 32.01200
O  15.83300 2.71600 33.52500
C  16.47400 3.73600 34.34000
H  19.96600 -3.85700 31.30400
H  18.82700 -4.12400 24.92400
H  14.98400 0.99900 25.30100
H  18.04800 0.04500 32.98300
H  18.29800 -2.83900 33.19600
H  20.05000 -0.87500 33.65800
H  20.59000 -1.55300 32.03200
H  20.42000 -2.60400 33.52000
H  16.39500 -2.31200 33.93900
H  15.34200 -1.16600 33.01600
H  15.52900 -1.04200 35.52100
H  15.66600 0.42100 34.56200
H  20.46800 -6.94300 29.59800
H  20.83300 -5.70500 30.82100
H  21.92000 -5.84600 29.45700
H  20.73800 -7.82100 27.63900
H  22.20400 -6.80000 27.22000
H  21.58200 -7.88100 26.09600
H  16.78100 -3.08400 23.57500
H  16.71700 -0.02300 23.50700
H  18.34100 -1.31600 22.15100
H  18.75800 -2.97000 22.68200
H  19.30100 -1.45900 23.59100
H  15.08100 -1.64500 22.30900
H  14.41000 -0.22900 23.20700
H  13.08800 -1.45100 24.18900
H  14.39300 -2.40200 24.97700
H  13.67600 -2.89700 23.44500
H  13.10400 2.16000 26.44000
H  14.04800 3.51600 26.97900
H  12.61600 2.97500 27.92300
H  14.73500 1.04800 32.27400
H  17.23100 4.28500 33.78000
H  17.00500 3.37100 35.22000
H  15.62100 4.34100 34.64600
Mg 35.80300 1.77100 29.03200
C  33.47200 2.90100 31.44800
C  38.24400 1.95700 31.31400
C  37.90400 1.30600 26.49100
C  33.07500 2.05500 26.66200
N  35.81000 2.52300 31.07400
C  34.78600 2.67400 31.94500
C  35.24300 2.80600 33.47300
C  36.83800 2.70600 33.33600
C  36.99000 2.29500 31.85300
C  37.65600 3.91600 33.78500
C  34.62300 1.75100 34.35600
C  34.24200 2.38400 35.76600
H  35.05800 3.58700 36.31900
N  37.75600 1.59100 28.90400
C  38.63300 1.60900 29.98800
C  40.02700 1.25200 29.49800
C  39.91100 1.03000 28.09300
C  38.48800 1.34700 27.80400
C  41.17700 0.95000 30.48800
C  41.15100 0.68700 27.15500
O  41.01600 0.56200 25.96600
C  42.50100 0.45000 27.71100
N  35.53400 1.70500 26.89100
C  36.59200 1.62200 26.07400
C  36.14100 1.79200 24.62700
C  34.55700 1.71300 24.60800
C  34.38000 1.76300 26.13800
C  36.67200 3.12900 24.04700
C  33.94300 0.49200 23.92100
C  34.04100 0.49900 22.36500
N  33.78400 2.30600 29.01000
C  32.86800 2.40500 27.99900
C  31.55900 2.87000 28.46600
C  31.79600 3.06900 29.84900
C  33.15500 2.78700 30.06600
C  30.28200 3.06800 27.77200
C  31.13400 3.46000 31.12500
O  29.93400 3.60200 31.40600
C  32.21900 3.38000 32.18800
C  32.34500 4.70200 32.85400
O  33.11000 5.62800 32.54300
O  31.53900 4.78200 33.98900
C  31.68700 5.94900 34.90100
H  39.07600 2.01700 32.01900
H  38.63500 1.03200 25.72800
H  32.25000 2.10700 25.94800
H  34.88400 3.78900 33.77500
H  37.17900 1.80900 33.85300
H  38.20300 4.46400 33.01800
H  38.46800 3.57500 34.42700
H  37.02500 4.60900 34.34100
H  35.33200 0.93100 34.47200
H  33.65000 1.50100 33.93500
H  34.27500 1.58300 36.50400
H  33.18000 2.62900 35.73400
H  40.78100 0.81200 31.49400
H  41.81900 1.82800 30.55800
H  41.72500 0.03800 30.24900
H  43.09200 0.39500 26.79800
H  42.49700 -0.54300 28.16200
H  42.82400 1.25900 28.36700
H  36.52100 0.95400 24.04200
H  34.15300 2.61200 24.14300
H  37.45600 3.63000 24.61400
H  35.92000 3.81600 23.65800
H  36.96900 2.83900 23.03900
H  32.95100 0.27900 24.32000
H  34.55400 -0.30400 24.34500
H  34.94900 -0.01000 22.04100
H  34.10200 1.50400 21.94800
H  33.20800 -0.03900 21.91200
H  29.69600 2.14900 27.74500
H  30.58800 3.43100 26.79100
H  29.67100 3.88200 28.16300
H  31.97700 2.59100 32.90000
H  30.83400 6.62300 34.81900
H  32.61900 6.48500 34.72100
H  31.59500 5.69900 35.95800

