158

Mg 7.94200 2.40900 27.38700
C  9.58000 1.16100 30.04700
C  6.14800 4.50200 29.46300
C  6.15700 3.46900 24.72000
C  9.38700 -0.11200 25.29100
N  7.75600 2.64500 29.53600
C  8.65300 2.15400 30.41300
C  8.36500 2.63600 31.80600
C  7.15800 3.60800 31.56600
C  7.02500 3.62100 30.04200
C  5.81400 3.13100 32.25000
C  9.60800 3.29000 32.53400
C  9.30500 4.22500 33.68100
H  10.29000 4.20600 34.93700
N  6.46200 3.90800 27.08600
C  5.87600 4.67000 28.06200
C  4.87900 5.63100 27.50900
C  4.84600 5.30600 26.07100
C  5.91400 4.23500 25.92500
C  4.17900 6.66700 28.37500
C  4.04400 5.95700 24.97200
O  4.33200 5.86200 23.80800
C  2.91900 6.79600 25.33700
N  7.92500 1.87900 25.28100
C  7.00800 2.42600 24.43400
C  7.16800 1.80000 23.05600
C  8.24600 0.70600 23.21000
C  8.54000 0.77100 24.71800
C  5.84900 1.41700 22.29500
C  9.59700 0.95000 22.44800
C  10.15500 -0.29000 21.67700
N  9.18000 0.75300 27.60200
C  9.77300 -0.13000 26.72400
C  10.76200 -0.90200 27.38500
C  10.71000 -0.39200 28.70300
C  9.77300 0.58700 28.76200
C  11.63900 -1.92500 26.78400
C  11.32200 -0.47000 30.00600
O  12.26300 -1.18500 30.28600
C  10.53200 0.47500 30.96500
C  9.74800 -0.35100 31.90500
O  8.90200 -1.13700 31.61400
O  10.21600 -0.24300 33.19200
C  9.62000 -0.94700 34.31100
H  5.71400 5.22400 30.15800
H  5.55000 3.80000 23.87500
H  9.77100 -0.89100 24.62900
H  7.96800 1.79500 32.37300
H  7.40000 4.63500 31.83800
H  5.22200 2.50600 31.58200
H  5.21400 3.98000 32.57900
H  5.95000 2.51300 33.13700
H  10.12300 3.88000 31.77700
H  10.23500 2.52000 32.98500
H  8.33100 3.96000 34.09200
H  9.20500 5.23800 33.29100
H  3.13400 6.36400 28.42700
H  4.10900 7.60700 27.82700
H  4.55500 6.79700 29.39000
H  2.19700 6.85600 24.52300
H  3.34900 7.76700 25.58100
H  2.42700 6.35000 26.20200
H  7.58400 2.61800 22.46900
H  7.84500 -0.27100 22.94200
H  5.91300 0.33800 22.15200
H  5.82000 1.87600 21.30700
H  4.91700 1.72200 22.77000
H  10.43100 1.31600 23.04700
H  9.38100 1.71700 21.70400
H  9.81000 -0.18200 20.64900
H  9.87400 -1.29300 21.99900
H  11.21900 -0.10500 21.82300
H  11.51800 -2.76500 27.46800
H  12.67600 -1.61000 26.89700
H  11.29300 -2.26100 25.80700
H  11.19100 1.18600 31.46300
H  8.65400 -1.42700 34.15500
H  9.36400 -0.38200 35.20700
H  10.31600 -1.69300 34.69800
Mg -11.38500 37.69600 41.87500
C  -9.38400 35.26100 40.48600
C  -9.42200 40.08500 40.26200
C  -13.85900 39.96400 42.42300
C  -13.41800 35.15100 43.26200
N  -9.68400 37.61100 40.41900
C  -8.93800 36.53000 40.13300
C  -7.62000 36.89300 39.44200
C  -7.60200 38.40400 39.56400
C  -9.01300 38.78800 40.11200
C  -6.39800 38.95000 40.41300
C  -7.60600 36.35300 37.96600
C  -6.40900 35.47600 37.58100
H  -5.68800 35.94200 36.33700
N  -11.50100 39.78800 41.67700
C  -10.58300 40.55000 40.88600
C  -11.08600 41.86800 40.84300
C  -12.41700 41.84400 41.40500
C  -12.65100 40.51800 41.90600
C  -10.29200 42.98700 40.17600
C  -13.23000 43.08800 41.47300
O  -12.87500 44.08800 40.87100
C  -14.49100 43.08800 42.29700
N  -13.35300 37.61400 42.70000
C  -14.17100 38.63800 42.74500
C  -15.52500 38.32500 43.38300
C  -15.34000 36.81000 43.72600
C  -13.93500 36.45900 43.23300
C  -16.00800 39.20700 44.53600
C  -16.48900 35.93800 43.19300
C  -17.05800 34.76900 44.13900
N  -11.48500 35.53400 41.82700
C  -12.20100 34.70100 42.70300
C  -11.70400 33.36400 42.53500
C  -10.60800 33.57400 41.60500
C  -10.50900 34.90500 41.21900
C  -12.25200 32.18100 43.13600
C  -9.63700 32.83000 40.89700
O  -9.46300 31.65000 40.74000
C  -8.77200 33.85900 40.15900
C  -7.32800 33.75500 40.61300
O  -6.44400 33.41000 39.87900
O  -7.18900 34.05900 41.96000
C  -5.81700 34.19000 42.42900
H  -8.70300 40.85800 39.98400
H  -14.74800 40.59300 42.51000
H  -14.07000 34.46200 43.80300
H  -6.81300 36.45700 40.03100
H  -7.52800 38.93100 38.61300
H  -6.21400 40.00200 40.19400
H  -5.51200 38.32900 40.28000
H  -6.64200 39.01900 41.47300
H  -7.63000 37.21400 37.29800
H  -8.52400 35.79600 37.77700
H  -6.77500 34.46300 37.41100
H  -5.79800 35.46100 38.48300
H  -10.70400 43.37600 39.24500
H  -9.28600 42.70400 39.86500
H  -10.20800 43.90900 40.75200
H  -14.68100 44.14000 42.51100
H  -14.23600 42.58600 43.23000
H  -15.28700 42.61800 41.72000
H  -16.20500 38.47700 42.54400
H  -15.28000 36.55200 44.78300
H  -16.22900 38.61900 45.42700
H  -16.98100 39.66500 44.35800
H  -15.32200 40.02700 44.74800
H  -16.21500 35.62500 42.18500
H  -17.37500 36.54400 43.00000
H  -16.62100 33.81300 43.84900
H  -18.13900 34.66500 44.05300
H  -16.74400 34.92200 45.17200
H  -12.73100 31.57600 42.36700
H  -13.02900 32.53300 43.81400
H  -11.48300 31.60700 43.65300
H  -8.83500 33.60400 39.10100
H  -5.42700 33.18100 42.30000
H  -5.72600 34.57000 43.44700
H  -5.22600 34.79200 41.73800

