158

Mg -2.26700 17.25700 27.09000
C  -2.98400 14.95800 29.63500
C  -2.51000 19.80700 29.34600
C  -2.06700 19.45700 24.48300
C  -2.67500 14.69600 24.74600
N  -2.71400 17.32100 29.25600
C  -2.88100 16.28400 30.10700
C  -2.98300 16.88200 31.51000
C  -2.93500 18.41200 31.42000
C  -2.74400 18.52100 29.88800
C  -4.19300 19.14600 32.08200
C  -1.83600 16.41100 32.49500
C  -1.87900 17.06900 33.99100
H  -1.89600 16.24800 35.24800
N  -2.19300 19.32600 26.93100
C  -2.24900 20.23700 28.00200
C  -2.08000 21.59700 27.58100
C  -1.69900 21.40500 26.19200
C  -2.00700 20.01900 25.77300
C  -2.39500 22.80200 28.56200
C  -1.12100 22.36200 25.34900
O  -0.72000 22.11600 24.27100
C  -0.93100 23.85300 25.78200
N  -2.59800 17.12200 24.98000
C  -2.40800 18.17000 24.16300
C  -2.55800 17.77000 22.64600
C  -2.73500 16.19100 22.67800
C  -2.55000 15.97300 24.23800
C  -3.56400 18.49100 21.75600
C  -1.92300 15.25400 21.72900
C  -0.53100 14.74100 22.24600
N  -2.58200 15.19900 27.11200
C  -2.69900 14.25800 26.09100
C  -2.86800 12.95800 26.61700
C  -2.92000 13.14900 28.04100
C  -2.84000 14.53000 28.27700
C  -2.98800 11.73600 25.78400
C  -3.08600 12.40600 29.28900
O  -3.23700 11.22500 29.56000
C  -3.17900 13.61000 30.36900
C  -2.06700 13.31500 31.34000
O  -0.94800 13.71300 31.24700
O  -2.47000 12.52300 32.37300
C  -1.53800 12.10700 33.38600
H  -2.38700 20.61600 30.06800
H  -1.98800 20.19500 23.68200
H  -2.64700 13.84800 24.05900
H  -3.90300 16.38600 31.81800
H  -1.99400 18.81300 31.79900
H  -4.76800 18.31900 32.49700
H  -4.80700 19.64400 31.33100
H  -3.98000 19.78500 32.93800
H  -0.88700 16.54500 31.97500
H  -1.94000 15.33300 32.61800
H  -2.73900 17.71700 34.16100
H  -1.14600 17.87300 33.92700
H  -2.14500 23.80300 28.20900
H  -1.82600 22.57400 29.46300
H  -3.46700 22.71100 28.73800
H  -0.22000 24.16300 25.01600
H  -0.51300 23.94300 26.78400
H  -1.77500 24.52300 25.62200
H  -1.56800 18.06100 22.29300
H  -3.77300 16.02900 22.38700
H  -3.55900 17.93200 20.82000
H  -3.28400 19.53400 21.60400
H  -4.54600 18.43300 22.22500
H  -1.70700 15.78100 20.80000
H  -2.56300 14.42700 21.42300
H  0.28300 14.83700 21.52800
H  -0.53000 13.66200 22.40100
H  -0.23400 15.20300 23.18700
H  -2.72500 11.97400 24.75400
H  -3.98800 11.30600 25.72500
H  -2.34700 10.98300 26.24100
H  -4.12400 13.50400 30.90100
H  -0.81100 11.39200 33.00000
H  -1.95300 11.55500 34.23000
H  -1.01800 12.93400 33.86900
Mg 49.23100 36.01800 27.65300
C  47.09400 35.00100 30.25400
C  49.80700 38.94800 29.50500
C  51.04200 37.26500 25.13900
C  48.42300 33.21700 25.80800
N  48.36100 36.95800 29.62300
C  47.71300 36.19100 30.58200
C  47.63700 36.95300 31.89500
C  48.18500 38.31000 31.59600
C  48.83900 38.13700 30.16700
C  47.19600 39.47300 31.66900
C  48.52000 36.17600 32.85900
C  47.94100 36.05300 34.29900
H  48.03500 37.19600 35.32000
N  50.35000 37.85400 27.38200
C  50.45800 38.88500 28.23900
C  51.40100 39.87700 27.81000
C  51.87900 39.32200 26.59600
C  51.03500 38.12800 26.30100
C  51.79100 41.17900 28.58000
C  52.97300 39.75700 25.60800
O  53.23900 39.14200 24.59100
C  53.59000 41.10900 25.92600
N  49.61400 35.38600 25.78900
C  50.41700 36.06100 24.91600
C  50.96300 35.13400 23.82800
C  50.06400 33.87800 23.98000
C  49.32400 34.15900 25.28700
C  51.12000 35.65800 22.42000
C  50.90600 32.54100 24.05600
C  50.23000 31.41600 23.17400
N  47.91300 34.42600 27.91400
C  47.71000 33.33000 27.11500
C  46.78400 32.41300 27.80100
C  46.42100 33.06100 28.98800
C  47.24000 34.24900 29.04000
C  46.21800 31.08500 27.22100
C  45.63600 33.03400 30.15800
O  44.80900 32.17900 30.54000
C  45.95000 34.24800 31.03500
C  46.32500 33.59200 32.32300
O  47.37100 32.92600 32.54400
O  45.22800 33.73300 33.15700
C  45.19700 32.67800 34.21800
H  50.00000 39.87800 30.04300
H  51.71200 37.51200 24.31200
H  48.24800 32.36400 25.14800
H  46.60500 36.92700 32.24400
H  48.94500 38.68700 32.28100
H  46.28500 39.01900 31.28000
H  47.37400 40.24200 30.91700
H  47.15200 39.83500 32.69600
H  49.46900 36.71200 32.83800
H  48.69600 35.17800 32.45800
H  48.31700 35.10600 34.68600
H  46.86500 35.91900 34.19000
H  51.23900 41.36400 29.50100
H  51.59400 42.01200 27.90600
H  52.85300 41.00500 28.75500
H  52.85100 41.90400 25.82300
H  54.39800 41.19400 25.19900
H  53.93400 41.05300 26.95900
H  51.98900 34.92800 24.13100
H  49.28800 33.85100 23.21500
H  51.06200 36.73900 22.29300
H  50.25400 35.33900 21.84000
H  51.95400 35.29300 21.82100
H  50.95900 32.11600 25.05900
H  51.91400 32.74000 23.69100
H  49.39700 31.78700 22.57700
H  49.90800 30.66300 23.89300
H  50.96000 30.89900 22.55200
H  46.51400 30.98200 26.17700
H  45.13200 31.17200 27.17800
H  46.58000 30.22900 27.79000
H  45.06000 34.87500 30.97300
H  44.57600 31.85200 33.86900
H  44.60100 33.09200 35.03100
H  46.16900 32.36700 34.60000

