158

Mg 8.62600 3.54200 27.53600
C  9.93000 2.02600 30.45600
C  6.81600 5.42300 29.49000
C  7.24200 4.59700 24.65600
C  10.04300 0.70500 25.72100
N  8.30000 3.56500 29.82300
C  9.07000 3.06500 30.75100
C  8.75400 3.70100 32.10400
C  7.50900 4.62700 31.76700
C  7.49400 4.57100 30.29600
C  6.15000 4.29700 32.46700
C  10.08900 4.20300 32.80600
C  10.53500 3.51300 34.13100
H  10.97600 4.39000 35.27500
N  7.34700 4.91600 27.15600
C  6.68600 5.59400 28.12900
C  5.92800 6.55500 27.47200
C  5.92300 6.33000 26.06700
C  6.84100 5.24400 25.89700
C  5.20700 7.68300 28.29600
C  5.27000 7.15000 24.92700
O  5.42100 6.87300 23.73700
C  4.35800 8.28200 25.22600
N  8.62400 2.78500 25.47600
C  8.00500 3.46100 24.49700
C  8.24200 2.76400 23.08900
C  9.07800 1.48800 23.44600
C  9.34700 1.69500 24.95300
C  6.82400 2.44100 22.51900
C  10.36500 1.28600 22.60000
C  10.55500 -0.14200 21.93700
N  9.75000 1.78200 27.92500
C  10.27100 0.71700 27.11300
C  11.08300 -0.14700 27.94300
C  10.98600 0.34100 29.18100
C  10.15000 1.46500 29.16500
C  11.89900 -1.25600 27.37700
C  11.48600 0.15500 30.53200
O  12.36800 -0.61300 30.92600
C  10.71100 1.09800 31.37000
C  9.78300 0.28800 32.21400
O  8.59800 0.05300 32.02800
O  10.48300 -0.15400 33.35900
C  9.56900 -0.48100 34.48200
H  6.18100 6.10700 30.05600
H  6.59000 4.97200 23.86500
H  10.50000 -0.08400 25.12000
H  8.42200 2.89000 32.75200
H  7.80600 5.67300 31.84800
H  6.01000 5.09800 33.19300
H  6.12800 3.29400 32.89100
H  5.25800 4.29100 31.84000
H  9.91400 5.27000 32.93700
H  10.92100 4.06800 32.11500
H  11.38600 2.88600 33.86600
H  9.77900 2.79800 34.45600
H  5.16200 8.64600 27.78700
H  5.89200 7.88800 29.11800
H  4.22400 7.28400 28.54800
H  4.29500 8.77400 24.25500
H  4.90400 9.02500 25.80800
H  3.35500 8.05800 25.58900
H  8.79400 3.48500 22.48600
H  8.49700 0.58000 23.28200
H  5.99100 2.57900 23.20800
H  6.87600 1.44800 22.07100
H  6.57600 3.13200 21.71300
H  11.25400 1.48200 23.19900
H  10.30900 1.85400 21.67100
H  9.69700 -0.77500 22.16200
H  11.34700 -0.62000 22.51300
H  10.84700 -0.12900 20.88700
H  11.29000 -1.89300 26.73700
H  12.20700 -1.91100 28.19200
H  12.75200 -0.86600 26.82100
H  11.38400 1.51100 32.12200
H  9.40800 0.47300 34.98500
H  9.88000 -1.30000 35.13200
H  8.60200 -0.87800 34.17400
Mg 26.18600 -0.56700 29.82800
C  27.80700 -0.69700 32.98400
C  23.13400 -0.30900 31.57700
C  24.58300 -0.55900 26.87400
C  29.31000 -1.11400 28.29000
N  25.54000 -0.48700 32.05100
C  26.41000 -0.46300 33.18200
C  25.58000 -0.21400 34.46200
C  24.08700 -0.13900 33.95500
C  24.25400 -0.28800 32.45800
C  23.13100 -1.15500 34.63600
C  26.01500 0.98600 35.41800
C  26.00600 0.36300 36.83100
H  26.48700 1.19400 37.96900
N  24.14400 -0.24300 29.30900
C  23.01600 -0.23200 30.13400
C  21.83200 -0.08900 29.36800
C  22.30700 0.02700 28.00000
C  23.72400 -0.27300 27.98400
C  20.43000 0.19100 29.89800
C  21.53400 0.53700 26.80000
O  22.04400 0.50700 25.64600
C  20.08900 1.05600 26.83800
N  26.80000 -0.79900 27.94800
C  25.98000 -0.75500 26.85800
C  26.80000 -1.05800 25.58800
C  28.18200 -0.72100 26.09000
C  28.14400 -0.91900 27.57900
C  26.63700 -2.54300 25.03000
C  28.66300 0.75600 25.78900
C  29.66400 0.80500 24.63100
N  28.12000 -1.19900 30.52000
C  29.32000 -1.29100 29.76000
C  30.41800 -1.53600 30.63700
C  29.89300 -1.19300 31.92700
C  28.48700 -1.02500 31.77700
C  31.76500 -1.89100 30.18800
C  30.23500 -1.18200 33.32300
O  31.31000 -1.35800 33.92900
C  28.92200 -0.81400 34.04100
C  28.51600 -1.84500 34.99500
O  27.72800 -2.75500 34.80000
O  29.11300 -1.59200 36.18600
C  29.06700 -2.74000 37.09100
H  22.17400 -0.32800 32.09800
H  24.17100 -0.64000 25.86600
H  30.25800 -1.08800 27.74700
H  25.76800 -1.11100 35.05200
H  23.65000 0.82600 34.21000
H  22.41900 -0.56800 35.21600
H  23.64900 -1.81700 35.33000
H  22.56800 -1.72800 33.90000
H  25.24900 1.76100 35.42000
H  26.97800 1.45300 35.21200
H  26.67400 -0.49100 36.93800
H  25.02700 0.00600 37.14900
H  20.42800 1.19300 30.32700
H  20.16600 -0.52600 30.67600
H  19.76500 -0.05900 29.07200
H  19.64400 1.33000 25.88100
H  19.95100 1.86500 27.55500
H  19.43100 0.23500 27.12500
H  26.30700 -0.50900 24.78600
H  28.87100 -1.47200 25.70500
H  26.09300 -3.16400 25.74100
H  27.61100 -3.01900 24.91700
H  26.12700 -2.56300 24.06700
H  29.16900 1.10900 26.68800
H  27.85900 1.47600 25.63900
H  29.99500 -0.20500 24.39100
H  30.47300 1.50300 24.84500
H  29.23300 1.21600 23.71800
H  32.17200 -2.41900 31.05100
H  32.45200 -1.12800 29.82300
H  31.68800 -2.59400 29.35800
H  29.01700 0.13700 34.56500
H  29.78600 -3.47200 36.72400
H  28.09900 -3.23700 37.16100
H  29.35100 -2.53000 38.12200

