158

Mg 45.21100 3.75800 48.02200
C  43.50000 6.65600 47.47200
C  42.37700 2.00300 47.36700
C  47.18200 1.05400 47.77000
C  48.19100 5.69600 47.94000
N  43.24000 4.25000 47.55500
C  42.69300 5.49000 47.39400
C  41.24800 5.42700 46.89500
C  40.81600 3.99100 47.44100
C  42.23500 3.40900 47.40200
C  40.28400 3.92100 48.84700
C  41.22700 5.56900 45.34700
C  40.02100 6.37700 44.89600
H  40.13100 6.79700 43.41100
N  44.80200 1.77100 47.72400
C  43.56100 1.24300 47.39000
C  43.72500 -0.20500 47.24400
C  45.07500 -0.56000 47.45900
C  45.78900 0.75700 47.68700
C  42.48000 -1.06500 46.93100
C  45.64600 -2.03700 47.52100
O  44.92800 -3.02100 47.29200
C  47.08600 -2.30700 47.88600
N  47.37200 3.44000 47.62600
C  47.87500 2.17600 47.82300
C  49.36700 2.17100 48.01800
C  49.68900 3.68600 47.63700
C  48.34700 4.31000 47.79400
C  49.91800 1.62100 49.30700
C  50.33700 3.87700 46.26200
C  51.84300 3.98800 46.24000
N  45.78100 5.78000 47.92400
C  46.97600 6.42000 47.95100
C  46.71500 7.87200 47.94600
C  45.35300 7.99300 47.79600
C  44.84900 6.69900 47.72500
C  47.79000 8.97100 47.91900
C  44.17600 8.91500 47.55400
O  44.19900 10.12500 47.51100
C  42.98000 8.12200 47.32300
C  41.98600 8.55800 48.34000
O  41.94900 8.27800 49.48000
O  41.13700 9.42800 47.75300
C  40.13600 9.94100 48.64200
H  41.48000 1.39400 47.23300
H  47.75700 0.12500 47.76500
H  49.12000 6.26800 47.90800
H  40.65600 6.18300 47.41000
H  40.15700 3.34700 46.85800
H  40.06100 4.96600 49.06300
H  40.86300 3.46900 49.65200
H  39.26100 3.54700 48.85700
H  41.30100 4.57000 44.91600
H  42.12800 6.06600 44.98700
H  39.99700 7.22700 45.57800
H  39.15100 5.75700 45.11200
H  42.73300 -1.81200 46.17800
H  41.58400 -0.65100 46.46700
H  42.14000 -1.53800 47.85200
H  47.14600 -3.29300 48.34600
H  47.21800 -1.59500 48.70000
H  47.65800 -2.09400 46.98300
H  49.79000 1.51900 47.25300
H  50.30300 4.01300 48.47600
H  50.83800 2.12700 49.60000
H  50.21000 0.57200 49.26100
H  49.15000 1.64300 50.08000
H  49.92500 4.75400 45.76400
H  50.00800 3.07500 45.60100
H  52.30800 3.20900 45.63500
H  52.28100 3.84200 47.22800
H  52.15800 4.97200 45.89300
H  48.43700 8.93400 47.04400
H  48.37100 8.96500 48.84100
H  47.32600 9.94800 47.78400
H  42.51000 8.36600 46.37100
H  40.44400 10.98500 48.70000
H  39.85900 9.45600 49.57800
H  39.24200 9.88900 48.02100
Mg 16.80000 52.12600 26.04000
C  18.58400 50.75100 28.59500
C  14.26500 52.88600 28.22700
C  14.93700 53.44700 23.42500
C  19.05900 50.89600 23.73100
N  16.55100 51.91100 28.12500
C  17.47700 51.47400 28.98000
C  17.03200 51.83300 30.43000
C  15.48400 52.14800 30.29400
C  15.39900 52.31700 28.77500
C  14.42700 51.15300 30.89400
C  17.89800 52.94900 31.03900
C  18.44300 52.68200 32.49300
H  17.39700 52.06800 33.45000
N  14.97900 53.20500 25.82400
C  14.05500 53.34500 26.85900
C  12.93200 53.96100 26.39200
C  13.03800 54.11400 24.96700
C  14.34300 53.58400 24.67100
C  11.70300 54.20300 27.29800
C  11.98900 54.56200 23.96200
O  12.15800 54.55800 22.76200
C  10.67000 55.05500 24.44600
N  16.91200 52.11100 23.86700
C  16.04300 52.75000 23.05100
C  16.59300 52.84600 21.58900
C  17.91900 52.04900 21.74000
C  18.00200 51.70700 23.20000
C  15.58800 52.53400 20.42000
C  19.19200 52.83400 21.27400
C  19.86700 52.14300 20.03300
N  18.46900 51.07600 26.11200
C  19.30000 50.58800 25.15000
C  20.39300 49.85100 25.69300
C  20.18800 49.89900 27.06700
C  18.95700 50.59500 27.27100
C  21.50400 49.17600 24.89300
C  20.65700 49.46200 28.37300
O  21.44900 48.58300 28.64700
C  19.67900 50.12700 29.41800
C  19.17400 49.12000 30.35100
O  18.74600 48.01600 30.04800
O  19.44700 49.51100 31.64200
C  19.25300 48.47900 32.66500
H  13.38100 52.97000 28.86300
H  14.45000 53.91900 22.57000
H  19.78900 50.60500 22.97200
H  17.16600 50.93500 31.03400
H  15.38800 53.19500 30.58300
H  13.81500 50.66800 30.13300
H  13.69000 51.73700 31.44600
H  14.78300 50.38900 31.58500
H  17.53600 53.93400 30.74400
H  18.75300 52.94100 30.36300
H  18.91400 53.58300 32.88500
H  19.24000 51.95500 32.33700
H  10.95900 53.41300 27.19100
H  11.18000 55.13200 27.07000
H  11.94300 54.28100 28.35900
H  10.26000 55.28100 23.46100
H  10.72600 55.97600 25.02600
H  10.16600 54.19700 24.89100
H  16.74800 53.92400 21.53400
H  17.73100 51.09900 21.24100
H  16.05300 51.86600 19.69500
H  15.37600 53.38100 19.76900
H  14.65800 52.08500 20.76900
H  19.86400 52.98700 22.11800
H  18.80700 53.80800 20.97000
H  19.24800 52.40700 19.17600
H  20.04500 51.07700 20.17500
H  20.77700 52.62200 19.67000
H  21.89900 49.91400 24.19500
H  21.17200 48.25900 24.40400
H  22.33400 48.88300 25.53500
H  20.21100 50.88900 29.98700
H  18.20500 48.25600 32.46300
H  19.29900 48.76700 33.71500
H  19.83900 47.58700 32.44500

