158

Mg 48.20300 35.29200 28.03700
C  46.47300 33.57700 30.47000
C  48.51300 37.89200 30.20700
C  49.47200 37.12800 25.52300
C  47.67900 32.66700 25.77700
N  47.83900 35.58600 30.16100
C  47.13100 34.70400 30.93900
C  46.90500 35.29400 32.30500
C  47.24200 36.82000 32.15700
C  47.98100 36.77700 30.77400
C  46.05400 37.80600 32.10200
C  47.72400 34.55200 33.47100
C  49.08600 34.97500 33.92700
H  49.30300 35.69200 35.26200
N  48.97700 37.22300 27.90200
C  49.02100 38.13200 28.96100
C  49.63600 39.31300 28.50900
C  50.05600 39.11200 27.16100
C  49.57300 37.76200 26.80800
C  49.89400 40.53000 29.37400
C  50.94800 39.92000 26.22200
O  51.31800 39.55100 25.06700
C  51.32900 41.31100 26.59900
N  48.29300 35.02200 25.92200
C  48.94600 35.85200 25.14200
C  48.83400 35.42000 23.64800
C  48.31000 33.99600 23.78000
C  48.15300 33.83600 25.29800
C  47.96800 36.29500 22.68700
C  49.30200 32.95900 23.17500
C  49.33600 32.81100 21.67700
N  47.24300 33.58200 28.04000
C  47.05300 32.58400 27.06700
C  46.32000 31.48000 27.64200
C  45.90700 31.92000 28.82900
C  46.55500 33.14100 29.11400
C  45.95100 30.22400 26.99600
C  45.05800 31.56700 29.92800
O  44.26200 30.59500 30.05500
C  45.25900 32.74300 31.01700
C  45.49400 32.20200 32.35700
O  46.39900 31.39700 32.68900
O  44.62000 32.76000 33.19500
C  44.59900 32.44500 34.62900
H  48.61000 38.70300 30.93200
H  50.01600 37.72700 24.79000
H  47.52100 31.71400 25.26800
H  45.93900 35.21100 32.80200
H  47.97300 37.20600 32.86900
H  45.39700 37.71600 31.23600
H  46.46100 38.81600 32.15700
H  45.47800 37.63800 33.01200
H  47.99800 33.56200 33.10600
H  47.15200 34.55200 34.39800
H  49.59200 35.53100 33.13800
H  49.66500 34.05100 33.94400
H  50.88200 40.56100 29.83400
H  49.16800 40.66300 30.17600
H  49.77100 41.42500 28.76600
H  50.39700 41.81000 26.86800
H  51.83800 41.72600 25.72900
H  51.93300 41.41800 27.50000
H  49.85500 35.44300 23.26800
H  47.34900 33.91700 23.27200
H  46.95600 36.41600 23.07400
H  47.88700 35.83300 21.70400
H  48.34100 37.32000 22.67700
H  48.96700 31.96500 23.47100
H  50.28400 33.15700 23.60500
H  50.33400 33.18500 21.44900
H  48.53400 33.33600 21.15800
H  49.25700 31.75200 21.43400
H  44.87300 30.14200 26.85700
H  46.44600 29.40400 27.51500
H  46.36900 30.27500 25.99100
H  44.37000 33.37300 31.02500
H  45.26400 31.61500 34.86800
H  43.55700 32.23800 34.87600
H  44.91900 33.32900 35.18000
Mg 30.97800 58.30500 40.63100
C  28.18700 56.42700 39.39000
C  33.01800 55.75800 39.48500
C  33.48400 60.44600 40.61800
C  28.65000 60.88700 41.34300
N  30.63000 56.38500 39.34700
C  29.39200 55.81400 39.05600
C  29.74200 54.47100 38.50500
C  31.11900 54.04000 39.17900
C  31.62500 55.45600 39.42600
C  31.04400 53.06600 40.44000
C  29.81300 54.56400 36.94900
C  28.56800 54.17300 36.17800
H  28.21900 54.63900 34.76500
N  33.03000 58.13500 40.28600
C  33.64800 57.04700 39.71700
C  35.04400 57.31100 39.67500
C  35.26100 58.67500 39.94700
C  33.90100 59.17500 40.34100
C  36.00700 56.24100 39.18500
C  36.50700 59.42600 39.75700
O  37.53500 58.85900 39.48200
C  36.50300 60.92800 39.85700
N  31.06400 60.35800 40.87800
C  32.24700 60.97400 40.90200
C  32.11700 62.48400 41.21600
C  30.53800 62.71400 41.32800
C  30.03900 61.20300 41.26700
C  32.96000 63.06500 42.41900
C  29.97400 63.68400 40.16800
C  29.65100 65.11600 40.67400
N  28.83900 58.64300 40.40700
C  28.05500 59.68300 40.84000
C  26.61300 59.38500 40.65500
C  26.66700 58.10100 40.18900
C  28.01300 57.67600 39.96400
C  25.38300 60.27200 40.82700
C  25.78800 56.99900 39.84300
O  24.55500 56.78700 39.93200
C  26.72900 55.87600 39.17300
C  26.58100 54.62900 39.92700
O  26.73400 54.49900 41.14600
O  26.12600 53.54000 39.08200
C  25.67700 52.31200 39.80900
H  33.58300 54.83300 39.35400
H  34.23900 61.23400 40.57500
H  27.99100 61.70300 41.64700
H  29.04100 53.68800 38.79600
H  31.76600 53.59600 38.42200
H  31.03900 53.61400 41.38200
H  31.95300 52.46500 40.40500
H  30.20500 52.37100 40.39600
H  30.70500 54.02700 36.62600
H  29.93000 55.62200 36.71500
H  27.80200 54.47500 36.89300
H  28.59200 53.08900 36.06500
H  35.68000 55.31000 39.64700
H  37.06500 56.40500 39.39300
H  35.93300 56.01300 38.12100
H  36.31800 61.18100 40.90100
H  35.71400 61.26700 39.18600
H  37.48000 61.30100 39.55000
H  32.53500 62.97500 40.33700
H  30.33400 63.06400 42.34000
H  32.35200 63.79800 42.95000
H  33.78200 63.64800 42.00400
H  33.36400 62.28800 43.06800
H  29.00600 63.40700 39.75000
H  30.70400 63.59400 39.36500
H  28.56900 65.08300 40.80500
H  29.96400 65.82600 39.90900
H  30.15500 65.34500 41.61300
H  24.58600 59.60100 41.14900
H  25.03700 60.63500 39.85900
H  25.50100 61.13300 41.48600
H  26.41600 55.75900 38.13600
H  26.54500 51.65800 39.88200
H  24.95700 51.73200 39.23200
H  25.24800 52.46500 40.79900

