158

Mg 17.49400 -1.04000 27.59600
C  16.41700 0.62900 30.54900
C  19.10700 -3.23600 29.55100
C  18.95400 -2.27500 24.76600
C  16.08000 1.45700 25.68200
N  17.65800 -1.17400 29.80400
C  17.16400 -0.51200 30.80800
C  17.56300 -0.98100 32.21100
C  18.34500 -2.26000 31.80600
C  18.34600 -2.26500 30.27200
C  19.70800 -2.46500 32.47800
C  16.36500 -1.37100 33.17700
C  16.43100 -0.70500 34.56800
H  17.82800 -0.32300 35.08000
N  18.77200 -2.60800 27.24800
C  19.34400 -3.35500 28.17700
C  20.11800 -4.42800 27.46000
C  20.01300 -4.19700 26.06800
C  19.16400 -2.97400 25.95600
C  20.84000 -5.57500 28.22900
C  20.60900 -4.97000 24.89000
O  20.18600 -4.92200 23.74800
C  21.73200 -5.87000 25.13200
N  17.41700 -0.50200 25.54000
C  18.14500 -1.10300 24.59600
C  17.99100 -0.51900 23.20300
C  16.90600 0.54700 23.52500
C  16.79200 0.51100 24.99700
C  19.28700 0.12900 22.69300
C  15.56500 0.41800 22.72900
C  14.41600 -0.19400 23.61200
N  16.33600 0.62100 27.95900
C  15.81800 1.56300 27.02900
C  14.96100 2.53300 27.86000
C  15.23800 2.15900 29.21400
C  16.11500 1.09700 29.25200
C  13.98800 3.62900 27.40000
C  14.84800 2.47800 30.57400
O  13.95300 3.26000 31.00400
C  15.64200 1.48300 31.42700
C  16.48900 2.34300 32.25100
O  17.69500 2.43200 32.15900
O  15.82600 2.85700 33.38700
C  16.65600 3.63800 34.32900
H  19.52500 -3.94600 30.26600
H  19.49700 -2.63700 23.89100
H  15.64200 2.22100 25.03700
H  18.16800 -0.10000 32.42600
H  17.85400 -3.19100 32.09000
H  19.83200 -3.13900 33.32500
H  19.82600 -1.47500 32.92000
H  20.53100 -2.58300 31.77300
H  16.33800 -2.44100 33.38200
H  15.41900 -1.21800 32.65700
H  16.03800 -1.49600 35.20700
H  15.86600 0.22400 34.50000
H  21.90900 -5.58000 28.01500
H  20.34000 -6.50300 27.95200
H  20.70300 -5.54200 29.30900
H  22.48400 -5.20000 25.54900
H  22.13800 -6.38600 24.26300
H  21.36700 -6.60600 25.84900
H  17.70800 -1.34100 22.54600
H  17.35100 1.52500 23.34600
H  19.04600 0.94600 22.01300
H  19.86900 -0.62900 22.16800
H  19.81900 0.60700 23.51500
H  15.74300 -0.28100 21.91200
H  15.29400 1.33100 22.19900
H  14.81300 -0.88500 24.35500
H  13.80800 -0.81100 22.95100
H  13.87400 0.66200 24.01400
H  13.57800 3.28800 26.44900
H  14.65100 4.43700 27.09100
H  13.33700 3.77800 28.26100
H  14.95200 1.01000 32.12500
H  17.43600 4.12100 33.74000
H  17.02600 3.05700 35.17400
H  16.14700 4.45200 34.84500
Mg 5.32000 55.12700 41.36600
C  4.77200 51.57900 40.79600
C  8.40800 54.85500 40.00300
C  5.48000 58.40900 41.54100
C  1.82200 55.13500 42.54900
N  6.40200 53.36000 40.44600
C  5.95500 52.10100 40.25400
C  7.11800 51.21200 39.64800
C  8.38100 52.17900 39.78000
C  7.71700 53.56200 40.07000
C  9.42500 51.83900 40.88300
C  6.84800 50.77100 38.18400
C  6.13900 51.77900 37.26500
H  6.88500 52.09700 35.92200
N  6.68400 56.42100 40.69800
C  7.93300 56.12400 40.29800
C  8.66500 57.37200 40.10200
C  7.88700 58.49700 40.56800
C  6.59100 57.81100 40.99700
C  10.13900 57.35700 39.60200
C  8.32700 59.88600 40.55200
O  9.44700 60.16500 40.16100
C  7.46900 61.01200 41.10700
N  3.71900 56.55400 41.80200
C  4.16200 57.86400 41.88100
C  3.05300 58.74700 42.20300
C  1.95400 57.72700 42.77300
C  2.44800 56.42300 42.25700
C  3.38800 59.79500 43.27200
C  0.63100 58.12900 42.09700
C  -0.53200 58.01600 42.98000
N  3.65900 53.65800 41.78500
C  2.35900 53.84700 42.29500
C  1.71500 52.58300 42.34100
C  2.62700 51.64900 41.87400
C  3.75000 52.37900 41.46400
C  0.35300 52.30200 42.86500
C  2.88500 50.25700 41.70800
O  2.22000 49.25100 41.92700
C  4.29100 50.13900 40.99500
C  4.13800 49.25200 39.77800
O  3.83500 49.60900 38.65100
O  4.46100 47.96600 40.09300
C  4.49300 47.00400 38.97300
H  9.49600 54.83500 39.91500
H  5.71100 59.45300 41.76000
H  0.77300 55.13800 42.85100
H  7.29600 50.29300 40.20700
H  8.91800 52.25800 38.83500
H  9.28700 50.80400 41.19800
H  9.35700 52.46300 41.77400
H  10.41500 51.95800 40.44200
H  6.53600 49.74000 38.35100
H  7.84300 50.65700 37.75200
H  6.00000 52.68500 37.85500
H  5.12100 51.40200 37.16600
H  10.35500 58.05800 38.79500
H  10.37200 56.48500 38.99000
H  10.84800 57.52100 40.41300
H  6.55700 61.17800 40.53400
H  7.88500 61.98300 40.83600
H  7.36300 60.94200 42.19000
H  2.77200 59.28100 41.29500
H  2.02700 57.69200 43.86000
H  4.24600 59.57600 43.90800
H  2.56500 59.93000 43.97500
H  3.47100 60.76000 42.77400
H  0.57100 57.64100 41.12400
H  0.68400 59.15500 41.73400
H  -0.36500 57.41200 43.87100
H  -1.32900 57.61200 42.35500
H  -0.73700 58.99800 43.40600
H  0.18300 53.04200 43.64600
H  0.23800 51.28100 43.22900
H  -0.25800 52.54800 41.99700
H  4.85300 49.59700 41.75500
H  5.33500 46.31400 39.01600
H  4.76000 47.35900 37.97800
H  3.66800 46.29300 38.99900

