158

Mg 30.96600 58.32500 39.96700
C  28.15300 56.50900 39.16100
C  32.97000 55.89100 38.73900
C  33.55200 60.49500 40.08400
C  28.88700 61.08600 40.91000
N  30.61200 56.50200 38.97300
C  29.35100 55.90100 38.78200
C  29.46400 54.64500 37.93400
C  30.96900 54.26900 38.14800
C  31.60300 55.61400 38.66300
C  31.24000 53.05600 39.19000
C  29.19800 54.84200 36.40300
C  27.97900 54.09500 35.81900
H  27.11900 54.92600 34.95200
N  32.94400 58.12600 39.65600
C  33.56300 57.04400 39.17000
C  35.03700 57.26100 39.17900
C  35.24800 58.59800 39.49500
C  33.90000 59.16200 39.72000
C  35.98900 56.23000 38.69900
C  36.65100 59.21000 39.47300
O  37.73100 58.62700 39.23800
C  36.81300 60.59600 40.00300
N  31.18700 60.59200 40.20500
C  32.37700 61.14800 40.33000
C  32.29700 62.56500 40.88800
C  30.82700 62.64000 41.36400
C  30.21500 61.36000 40.81100
C  33.44800 62.89400 41.93900
C  30.02800 63.91100 40.91400
C  29.37800 64.73900 41.99600
N  28.90400 58.78100 40.03100
C  28.21600 59.91000 40.39300
C  26.84900 59.69800 40.12100
C  26.76500 58.38100 39.73600
C  28.05000 57.82900 39.69800
C  25.80000 60.81700 40.05300
C  25.89100 57.35800 39.38100
O  24.70100 57.44200 39.17000
C  26.70200 56.03300 39.05300
C  26.44500 55.02800 40.15600
O  27.28900 54.60900 40.89300
O  25.18100 54.54400 40.06800
C  24.83200 53.42000 40.90500
H  33.56200 55.00200 38.51100
H  34.42600 61.08700 40.36200
H  28.18800 61.86600 41.21900
H  28.78700 53.87700 38.30900
H  31.28200 53.84900 37.19100
H  30.26600 52.62200 39.41900
H  31.72900 53.37200 40.11200
H  31.85700 52.25100 38.79300
H  30.01800 54.47000 35.78800
H  29.02600 55.87200 36.09200
H  27.38000 53.72800 36.65300
H  28.42500 53.28100 35.24900
H  36.97300 56.59700 38.40900
H  35.58000 55.67100 37.85800
H  36.13900 55.51500 39.50800
H  36.22700 61.37300 39.51100
H  37.83600 60.97500 40.00700
H  36.48600 60.63300 41.04200
H  32.37700 63.25300 40.04600
H  30.89700 62.68500 42.45100
H  33.67900 61.99500 42.51000
H  32.98500 63.65300 42.57000
H  34.37300 63.21200 41.45900
H  29.25800 63.65000 40.18800
H  30.65300 64.66500 40.43600
H  28.34300 64.94000 41.71900
H  29.84100 65.72000 42.10100
H  29.26200 64.25200 42.96500
H  25.40700 61.08200 41.03400
H  25.05000 60.51400 39.32200
H  26.22900 61.76400 39.72400
H  26.57100 55.71200 38.02000
H  25.57200 52.66900 40.62400
H  23.82000 53.10400 40.65300
H  24.87600 53.71600 41.95300
Mg -11.12800 38.83700 41.72800
C  -9.62400 35.77800 40.86100
C  -8.42300 40.49400 40.35500
C  -12.80200 41.64900 42.07100
C  -13.81000 36.97900 43.05800
N  -9.35400 38.12700 40.57200
C  -8.91900 36.85000 40.39600
C  -7.56800 36.85400 39.64400
C  -7.04600 38.31600 39.86600
C  -8.31000 39.04100 40.27500
C  -5.87000 38.44000 40.91000
C  -7.88900 36.45500 38.17500
C  -7.42300 35.14100 37.74600
H  -6.42300 35.26700 36.57300
N  -10.58900 40.81300 41.34900
C  -9.46200 41.30800 40.72200
C  -9.57600 42.76200 40.72000
C  -10.84600 43.08900 41.20100
C  -11.49600 41.84800 41.54700
C  -8.39700 43.61100 40.28700
C  -11.40600 44.57700 41.33400
O  -10.70900 45.51700 40.94400
C  -12.72100 44.90500 41.95900
N  -13.01800 39.26000 42.40100
C  -13.52900 40.47400 42.44500
C  -14.89600 40.63300 43.16400
C  -15.21100 39.06500 43.27800
C  -13.95200 38.38800 42.87400
C  -14.90400 41.42400 44.49500
C  -16.48100 38.45700 42.63100
C  -17.37000 37.41700 43.36200
N  -11.66000 36.79900 41.87000
C  -12.72600 36.16400 42.55200
C  -12.49600 34.75800 42.73600
C  -11.35800 34.53300 41.95900
C  -10.85600 35.80700 41.55600
C  -13.33300 33.76500 43.50200
C  -10.51100 33.54100 41.51400
O  -10.57300 32.35200 41.67900
C  -9.35300 34.29000 40.73400
C  -8.02000 33.77100 41.20900
O  -7.53700 32.74900 40.86000
O  -7.57000 34.51800 42.23800
C  -6.39800 34.15300 43.05800
H  -7.55200 40.99200 39.92300
H  -13.37500 42.56000 42.25600
H  -14.59200 36.47200 43.62700
H  -6.91400 36.08200 40.04800
H  -6.72200 38.77100 38.93000
H  -4.97600 38.41800 40.28700
H  -5.81700 37.50700 41.47200
H  -5.92200 39.39600 41.43000
H  -7.61700 37.17200 37.40000
H  -8.97000 36.35100 38.08600
H  -8.27400 34.53800 37.43000
H  -6.89900 34.53100 38.48200
H  -7.44300 43.12300 40.48500
H  -8.46200 44.55300 40.83200
H  -8.37000 43.74100 39.20500
H  -13.60400 44.44700 41.51300
H  -12.70700 45.98300 41.79600
H  -12.67000 44.54900 42.98800
H  -15.58700 41.14300 42.49300
H  -15.33600 38.87500 44.34400
H  -15.14900 42.47400 44.33700
H  -13.91100 41.30700 44.93000
H  -15.63900 41.04900 45.20700
H  -16.13400 37.96100 41.72400
H  -17.11700 39.32600 42.46100
H  -18.39300 37.78800 43.30500
H  -17.03800 37.36000 44.39900
H  -17.18300 36.41800 42.96800
H  -13.78400 34.12600 44.42600
H  -12.72700 32.87100 43.65200
H  -14.17400 33.48800 42.86600
H  -9.32300 34.07800 39.66500
H  -5.64000 34.81200 42.63500
H  -6.10500 33.13300 42.81000
H  -6.66800 34.37200 44.09100

