158

Mg -2.32100 17.14200 25.75200
C  -2.39500 14.74800 28.43900
C  -3.24400 19.48100 28.05900
C  -2.33700 19.31000 23.29900
C  -2.18100 14.47300 23.56200
N  -2.84000 17.02300 27.98200
C  -2.72800 16.00900 28.86600
C  -3.24100 16.42300 30.27900
C  -3.77800 17.82100 30.00900
C  -3.33700 18.17200 28.54200
C  -5.33300 17.95600 30.07000
C  -2.13200 16.50800 31.39300
C  -2.20100 15.58600 32.63100
H  -2.74400 16.20800 33.91000
N  -2.61600 19.09100 25.71500
C  -2.86800 19.88900 26.78900
C  -2.88300 21.24500 26.36200
C  -2.53700 21.27800 25.01800
C  -2.52200 19.89800 24.61800
C  -3.20000 22.41800 27.23100
C  -2.24900 22.47100 24.18000
O  -2.02500 22.33600 23.00500
C  -2.03500 23.89100 24.80100
N  -2.59300 16.84100 23.68700
C  -2.41100 17.95000 22.93400
C  -2.26900 17.56600 21.47500
C  -2.05100 16.01700 21.52100
C  -2.27400 15.78100 23.00300
C  -3.51900 17.92900 20.70000
C  -0.69900 15.54900 20.81900
C  0.47100 15.90600 21.74700
N  -2.29000 15.06700 25.90400
C  -2.25000 14.09800 24.93700
C  -2.04200 12.77000 25.46000
C  -2.09500 12.95800 26.84600
C  -2.19000 14.36800 27.07700
C  -1.95400 11.52800 24.69800
C  -2.02600 12.28400 28.14700
O  -1.87000 11.13300 28.40400
C  -2.15400 13.44100 29.28000
C  -0.94300 13.40100 30.07900
O  0.00600 14.10700 29.89900
O  -1.13700 12.58300 31.24700
C  0.10400 12.37700 32.08300
H  -3.47600 20.24700 28.80200
H  -2.16300 19.97000 22.44600
H  -2.00800 13.69300 22.81700
H  -4.06200 15.77400 30.58400
H  -3.47200 18.57800 30.73200
H  -5.63100 17.49900 31.01300
H  -5.76800 17.60600 29.13400
H  -5.59100 18.98400 30.32700
H  -2.13800 17.50100 31.84300
H  -1.13800 16.37500 30.96600
H  -1.25500 15.07100 32.79900
H  -2.87400 14.76400 32.38600
H  -2.45600 23.21100 27.30000
H  -3.50500 22.15500 28.24400
H  -4.12200 22.75800 26.76000
H  -1.70200 24.62500 24.06700
H  -1.29100 23.89100 25.59700
H  -2.98400 24.32000 25.12200
H  -1.42000 18.14700 21.11400
H  -2.84900 15.50600 20.98300
H  -3.21100 18.69400 19.98800
H  -4.26400 18.49300 21.26100
H  -3.97900 17.06200 20.22500
H  -0.58100 16.00400 19.83600
H  -0.80600 14.47500 20.67200
H  0.61600 15.08300 22.44700
H  0.38100 16.95600 22.02700
H  1.29000 15.77200 21.04200
H  -1.14800 11.53100 23.96400
H  -2.93900 11.22900 24.33900
H  -1.68700 10.71400 25.37200
H  -2.87900 13.17600 30.04900
H  -0.05100 12.89200 33.03100
H  1.03800 12.80100 31.71300
H  0.30700 11.33700 32.33900
Mg 26.43200 -0.10800 28.60700
C  27.88300 -0.61200 31.78900
C  23.44100 0.01200 30.30400
C  25.04500 0.26300 25.71500
C  29.50700 -1.11000 27.09700
N  25.69000 -0.47800 30.85700
C  26.53100 -0.42900 31.93700
C  25.78800 -0.21300 33.28200
C  24.32400 -0.19000 32.77800
C  24.42700 -0.29100 31.22600
C  23.41600 -1.33400 33.28300
C  26.33600 1.01600 34.11700
C  26.77300 0.75300 35.58000
H  26.57600 1.87500 36.62400
N  24.55400 0.13100 28.05900
C  23.43200 0.21900 28.90500
C  22.26100 0.59700 28.11000
C  22.70600 0.68100 26.78200
C  24.14200 0.41900 26.79800
C  20.84800 0.72700 28.65700
C  21.85900 0.93300 25.47200
O  22.44200 0.99900 24.39500
C  20.36100 1.03300 25.52100
N  27.16200 -0.23000 26.63900
C  26.36700 -0.05800 25.61400
C  27.17900 -0.04200 24.32000
C  28.45300 -0.80700 24.75400
C  28.41700 -0.72300 26.26300
C  26.40300 -0.76500 23.15900
C  29.71300 -0.09600 24.17000
C  30.93300 -1.00500 23.84800
N  28.31300 -0.66400 29.24600
C  29.41500 -1.05700 28.53200
C  30.48900 -1.21600 29.42600
C  29.99900 -1.00200 30.69400
C  28.60700 -0.78800 30.57400
C  31.99000 -1.55900 29.14200
C  30.35200 -1.01400 32.12800
O  31.40400 -1.29600 32.67800
C  29.00900 -0.72800 32.84600
C  28.81900 -1.84700 33.83100
O  28.14200 -2.88800 33.63900
O  29.45500 -1.48700 35.01500
C  29.11500 -2.25200 36.21000
H  22.53400 0.08800 30.90800
H  24.51100 0.32400 24.76400
H  30.41700 -1.45200 26.60100
H  26.16400 -1.10400 33.78400
H  23.90400 0.80100 32.95000
H  22.55100 -0.95800 33.82900
H  23.92000 -1.99600 33.98800
H  23.00200 -1.90900 32.45400
H  25.54600 1.76700 34.13300
H  27.20700 1.59500 33.80900
H  27.83600 0.52900 35.67100
H  26.26800 -0.09100 36.04900
H  20.10500 0.09700 28.16800
H  20.47500 1.73100 28.45500
H  20.69800 0.51200 29.71500
H  20.02300 1.87400 26.12600
H  20.10400 0.06300 25.94800
H  20.06400 1.22900 24.49100
H  27.40500 0.98600 24.03900
H  28.45100 -1.85700 24.45800
H  26.95900 -1.67400 22.93200
H  26.34900 -0.07700 22.31500
H  25.39500 -1.07600 23.43500
H  30.11800 0.61800 24.88700
H  29.51800 0.40500 23.22200
H  31.04600 -1.71900 24.66400
H  31.87900 -0.48900 23.68500
H  30.78700 -1.56500 22.92500
H  32.06300 -1.77900 28.07700
H  32.26000 -2.41700 29.75800
H  32.58700 -0.73500 29.53300
H  29.06700 0.19100 33.42900
H  28.91700 -3.29400 35.95700
H  28.24600 -1.74900 36.63500
H  29.94200 -2.14900 36.91200

