158

Mg 30.59000 59.67400 39.24500
C  27.76000 58.07000 38.20700
C  32.38500 56.91500 37.85000
C  33.35200 61.57800 39.15900
C  28.68800 62.44500 40.08400
N  30.14600 57.75300 37.93700
C  28.87000 57.31800 37.82900
C  28.85700 55.85100 37.19700
C  30.34300 55.38300 37.59600
C  30.99800 56.77800 37.81600
C  30.35200 54.52500 38.92700
C  28.50500 55.89100 35.62900
C  27.30200 55.08200 35.18000
H  26.37900 55.63800 34.03700
N  32.55800 59.29000 38.67100
C  33.10100 58.09000 38.17000
C  34.54700 58.27100 38.17700
C  34.91500 59.65700 38.39600
C  33.58400 60.22700 38.78000
C  35.46900 57.15000 37.89400
C  36.31700 60.33200 38.18300
O  37.32200 59.71200 37.82600
C  36.46300 61.83800 38.18100
N  30.97200 61.77100 39.42100
C  32.18700 62.31700 39.41700
C  32.18700 63.84100 39.83100
C  30.74700 64.05500 40.30400
C  30.11100 62.65000 39.98000
C  33.28400 64.15500 40.90700
C  30.14300 65.19800 39.50100
C  29.05300 65.92100 40.24200
N  28.60100 60.12700 39.30300
C  27.98500 61.27800 39.70500
C  26.52900 61.03000 39.58300
C  26.43300 59.77200 38.92800
C  27.69300 59.28900 38.82700
C  25.41600 61.89200 40.01500
C  25.46500 58.83100 38.48800
O  24.29700 58.92600 38.41600
C  26.29800 57.64300 37.98600
C  25.81400 56.47700 38.71300
O  26.13000 56.14800 39.85600
O  24.83600 55.86800 38.00300
C  24.00900 54.79300 38.71500
H  33.03000 56.08900 37.54500
H  34.24500 62.20500 39.21600
H  28.09200 63.30300 40.40100
H  28.10400 55.25100 37.70700
H  30.76000 54.89200 36.71700
H  31.22000 53.86800 38.98000
H  29.37400 54.04600 38.98300
H  30.36500 55.20500 39.77900
H  29.33700 55.46100 35.07200
H  28.30700 56.90100 35.26800
H  26.58000 55.01700 35.99400
H  27.71400 54.08600 35.02000
H  35.11700 56.15700 38.17600
H  36.44800 57.32500 38.34000
H  35.65400 57.20600 36.82200
H  37.45500 62.14400 37.84800
H  36.36900 62.36100 39.13300
H  35.81700 62.40900 37.51500
H  32.45100 64.52900 39.02900
H  30.74700 64.26600 41.37400
H  33.70400 63.23400 41.31200
H  32.83500 64.48200 41.84400
H  34.08600 64.81400 40.57200
H  29.73100 64.85400 38.55200
H  30.94000 65.90800 39.27900
H  28.16000 65.75200 39.64100
H  29.31300 66.98000 40.25700
H  28.82500 65.63900 41.27000
H  24.66100 61.38700 40.61700
H  24.82900 62.14000 39.13100
H  25.77300 62.75900 40.57100
H  26.04700 57.60800 36.92600
H  23.75800 55.23900 39.67800
H  24.47300 53.81500 38.84300
H  23.08400 54.66900 38.15100
Mg -0.25000 43.36200 25.98200
C  2.01800 42.67700 28.73200
C  -2.73100 41.88600 27.90200
C  -2.18700 43.11300 23.30800
C  2.55800 43.81100 23.92400
N  -0.32100 42.28900 28.06100
C  0.64300 42.46000 29.06600
C  0.03900 42.08100 30.39400
C  -1.44800 41.67200 30.04200
C  -1.54900 41.98100 28.59200
C  -1.90500 40.19700 30.46200
C  0.20400 43.22900 31.42500
C  0.44200 43.03400 32.93600
H  0.40800 41.54800 33.45000
N  -2.35300 42.86600 25.70100
C  -3.13500 42.24900 26.59000
C  -4.51100 42.11900 26.05200
C  -4.33200 42.35500 24.63700
C  -2.95900 42.79100 24.49100
C  -5.56600 41.55000 26.86400
C  -5.28900 42.24500 23.41500
O  -4.92400 42.58300 22.32100
C  -6.64400 41.67500 23.65300
N  0.15800 43.46500 23.90500
C  -0.85100 43.41100 23.00300
C  -0.36300 43.89200 21.61000
C  1.14000 43.93800 21.76800
C  1.32900 43.80600 23.29400
C  -0.90500 43.00200 20.46900
C  1.75500 45.16300 21.03200
C  2.10900 46.43200 21.91900
N  1.85000 43.25300 26.21700
C  2.83400 43.51700 25.24400
C  4.16300 43.47400 25.90600
C  3.84800 43.06700 27.21200
C  2.46500 42.92800 27.36900
C  5.50500 43.76500 25.33200
C  4.49900 42.72600 28.52300
O  5.66300 42.53900 28.85900
C  3.29100 42.60400 29.58300
C  3.55600 41.42500 30.33900
O  3.38800 40.23900 30.04000
O  4.10600 41.87300 31.48700
C  4.60600 40.78400 32.30600
H  -3.49200 41.46800 28.56400
H  -2.85400 43.28900 22.46200
H  3.41500 44.05800 23.29400
H  0.55600 41.19100 30.75200
H  -2.27200 42.26100 30.44500
H  -2.34100 40.28700 31.45700
H  -1.03500 39.54000 30.46800
H  -2.58900 39.88600 29.67300
H  -0.71100 43.82200 31.41100
H  0.98400 43.91600 31.09600
H  -0.35300 43.52100 33.50200
H  1.42800 43.35100 33.27600
H  -6.39900 42.24500 26.75500
H  -5.30500 41.67900 27.91500
H  -5.92700 40.56100 26.58400
H  -6.54000 40.77900 24.26500
H  -7.00900 41.49400 22.64200
H  -7.33200 42.43400 24.02500
H  -0.79200 44.88800 21.49500
H  1.47500 42.99100 21.34500
H  -1.48300 42.24000 20.99100
H  -0.08500 42.53100 19.92700
H  -1.50400 43.39000 19.64500
H  1.10600 45.50300 20.22500
H  2.68700 44.75200 20.64600
H  1.84100 46.34000 22.97100
H  1.93300 47.42200 21.49700
H  3.19900 46.40900 21.94100
H  5.58200 44.83900 25.16300
H  5.53000 43.26100 24.36600
H  6.26500 43.50400 26.06900
H  3.14800 43.50800 30.17600
H  4.21200 40.99600 33.29900
H  5.68900 40.81700 32.42300
H  4.31200 39.77100 32.02900

