158

Mg 29.65500 58.02700 40.63300
C  26.91200 56.34500 39.26300
C  31.71600 55.59200 39.21900
C  32.32600 60.16600 40.71800
C  27.51400 60.85200 41.54900
N  29.31200 56.22600 39.27700
C  28.13800 55.70400 38.82300
C  28.32300 54.34600 38.13300
C  29.83600 54.15700 38.25000
C  30.36200 55.37300 38.99900
C  30.38800 52.84900 38.87500
C  27.67700 54.01900 36.68400
C  27.50400 55.23000 35.65700
H  28.02300 55.15700 34.20400
N  31.74400 57.80000 40.32700
C  32.41600 56.68800 39.79000
C  33.77400 56.90100 39.87200
C  34.00500 58.28500 40.17100
C  32.64100 58.84400 40.38600
C  34.90500 55.91200 39.53700
C  35.39700 59.05000 40.09600
O  36.43700 58.44000 39.76200
C  35.52100 60.49300 40.23300
N  29.93000 60.17900 41.27500
C  31.14500 60.77800 41.14600
C  31.06600 62.29400 41.54400
C  29.52000 62.49400 41.77500
C  28.90100 61.05100 41.60400
C  32.05600 62.82600 42.67700
C  28.79600 63.63600 40.98300
C  28.18200 64.80600 41.72200
N  27.64300 58.47300 40.59500
C  26.93800 59.58000 41.10400
C  25.51300 59.32200 40.87900
C  25.46200 58.09000 40.21100
C  26.79100 57.63400 40.01200
C  24.35500 60.20400 41.22800
C  24.63300 57.07200 39.54400
O  23.41900 57.14200 39.36500
C  25.46300 55.94200 38.88100
C  25.10900 54.63400 39.46800
O  25.53500 54.20400 40.53700
O  24.15600 53.96100 38.73900
C  23.35500 52.82900 39.34100
H  32.29400 54.69600 38.98300
H  33.13900 60.87900 40.56400
H  26.86500 61.67300 41.86200
H  27.85400 53.56100 38.72600
H  30.16100 54.26300 37.21500
H  29.52100 52.21300 39.05500
H  30.94000 52.96900 39.80800
H  31.04300 52.44900 38.10200
H  26.67800 53.59500 36.78200
H  28.32400 53.24800 36.26600
H  27.91000 56.10200 36.16900
H  26.43100 55.42300 35.66400
H  35.49600 56.36500 38.74100
H  34.49400 55.01700 39.06900
H  35.45000 55.53100 40.40000
H  36.56700 60.76400 40.37100
H  34.95200 60.77600 41.11900
H  35.08400 61.00800 39.37700
H  31.34700 62.85300 40.65100
H  29.30300 62.75100 42.81200
H  32.53500 61.88800 42.95800
H  31.60200 63.11000 43.62700
H  32.82700 63.53600 42.37800
H  28.10200 63.20700 40.26000
H  29.56900 64.14200 40.40600
H  28.48200 65.83100 41.50400
H  28.45700 64.76100 42.77600
H  27.10300 64.86100 41.57400
H  24.26000 60.59100 42.24300
H  23.40300 59.68200 41.13200
H  24.38600 61.11900 40.63700
H  25.40600 56.02600 37.79500
H  23.73700 52.56600 40.32700
H  23.50900 51.93900 38.73000
H  22.30400 53.09100 39.46400
Mg 26.66100 50.21200 26.27700
C  25.04300 51.85100 28.91500
C  29.18400 49.29700 28.63000
C  28.66100 49.16000 23.75600
C  24.56600 51.84900 24.13600
N  27.01400 50.53700 28.52700
C  26.13100 51.14000 29.35600
C  26.53300 50.91300 30.79900
C  28.00000 50.34000 30.68800
C  28.07500 49.97400 29.18900
C  29.12600 51.28400 31.20400
C  25.46400 49.92300 31.44600
C  24.89000 50.43300 32.81700
H  25.74300 50.94300 33.95100
N  28.57500 49.19600 26.23100
C  29.44900 48.94400 27.28200
C  30.56500 48.22700 26.74700
C  30.50900 48.27900 25.32200
C  29.19600 48.89500 25.05300
C  31.75500 47.81900 27.60800
C  31.67500 47.99700 24.28700
O  31.49500 48.04200 23.10500
C  33.08900 47.71400 24.68900
N  26.71300 50.60800 24.26000
C  27.53400 49.88100 23.43400
C  27.05200 49.89600 21.99300
C  25.66400 50.73500 22.18200
C  25.61200 51.08800 23.63200
C  28.10400 50.40200 21.02700
C  24.27500 50.20200 21.60300
C  23.57300 51.10200 20.52400
N  25.04000 51.56300 26.41500
C  24.29200 52.20700 25.50000
C  23.22900 52.99200 26.07300
C  23.49000 52.90200 27.50400
C  24.62000 52.03800 27.60500
C  22.20000 53.82200 25.43800
C  23.09000 53.35200 28.80600
O  22.20500 54.05600 29.12800
C  24.15200 52.70400 29.82400
C  24.77900 53.73500 30.69300
O  25.85100 54.27500 30.50400
O  23.93400 54.01300 31.67300
C  24.49000 54.98100 32.62300
H  29.85300 48.93900 29.41500
H  29.23700 48.76500 22.91700
H  23.77500 52.22000 23.48200
H  26.44100 51.87800 31.29900
H  28.14500 49.35200 31.12400
H  28.74600 52.29700 31.33600
H  29.95400 51.44800 30.51300
H  29.48000 50.91300 32.16700
H  25.83700 48.90500 31.56400
H  24.58800 49.86000 30.80000
H  24.31300 49.54100 33.06100
H  24.22900 51.25300 32.53700
H  31.95100 46.75100 27.50900
H  31.63100 48.09900 28.65400
H  32.62700 48.44200 27.41300
H  33.49700 48.71300 24.83800
H  33.63900 47.20200 23.89900
H  33.16200 47.16000 25.62500
H  26.77500 48.87100 21.74800
H  25.87700 51.71700 21.76000
H  28.71600 49.73100 20.42400
H  28.71700 51.01900 21.68300
H  27.55300 51.08300 20.37800
H  23.57000 50.21200 22.43300
H  24.31000 49.16800 21.26200
H  22.70200 51.52000 21.03000
H  23.29200 50.50200 19.65800
H  24.26300 51.93500 20.38800
H  21.20300 53.41500 25.60900
H  22.29900 53.74600 24.35500
H  22.24300 54.83000 25.85000
H  23.60800 52.02000 30.47500
H  24.93600 55.83700 32.11700
H  25.17200 54.40000 33.24400
H  23.81200 55.35900 33.38700

