158

Mg 16.88700 -2.29500 28.78600
C  15.68000 -0.13700 31.15800
C  18.45500 -4.01600 31.36700
C  18.56100 -3.98300 26.45700
C  15.43300 -0.24400 26.24600
N  17.07100 -2.03000 31.10400
C  16.44000 -1.08800 31.82500
C  16.55100 -1.40100 33.33400
C  17.64700 -2.54200 33.37700
C  17.72700 -2.93700 31.87400
C  18.94700 -2.10400 34.17400
C  15.15400 -1.63300 33.98600
C  15.10000 -2.43400 35.33400
H  16.14200 -2.00900 36.41200
N  18.35100 -3.72200 28.86200
C  18.70100 -4.38000 30.04100
C  19.47200 -5.55300 29.58600
C  19.55100 -5.54300 28.15600
C  18.85100 -4.38900 27.77500
C  19.92700 -6.53500 30.57700
C  20.30100 -6.50200 27.22800
O  20.29500 -6.38000 26.02900
C  21.16500 -7.59100 27.70800
N  17.16300 -2.00800 26.60000
C  17.82400 -2.95500 25.91700
C  17.60400 -2.71900 24.31300
C  16.62100 -1.56800 24.30400
C  16.37100 -1.29200 25.73700
C  18.89100 -2.44500 23.62800
C  15.31900 -1.81500 23.49800
C  15.03700 -0.76700 22.38000
N  15.65500 -0.63300 28.66800
C  15.14700 0.08700 27.56900
C  14.30800 1.13600 28.12400
C  14.49200 1.06400 29.51600
C  15.35500 0.00300 29.80600
C  13.45800 2.14300 27.47600
C  14.07500 1.69000 30.75400
O  13.26200 2.58300 31.02400
C  14.86800 0.93300 31.85400
C  15.53500 1.93200 32.82500
O  16.58200 2.51800 32.62500
O  14.67000 2.16800 33.86800
C  15.35300 2.85500 34.99500
H  19.09300 -4.43800 32.14700
H  18.99800 -4.55700 25.63700
H  14.84300 0.33100 25.53000
H  16.92400 -0.54600 33.89800
H  17.37200 -3.40500 33.98300
H  18.72500 -2.08000 35.24100
H  19.28100 -1.11500 33.86000
H  19.77400 -2.78300 33.96700
H  14.44600 -1.93300 33.21400
H  14.86300 -0.64800 34.35100
H  15.00500 -3.49600 35.10600
H  14.17400 -2.11800 35.81300
H  19.12900 -6.78100 31.27800
H  20.72500 -6.17000 31.22400
H  20.21400 -7.51100 30.18500
H  21.53100 -8.21800 26.89500
H  20.57700 -8.26000 28.33500
H  22.01000 -7.12900 28.21900
H  17.25500 -3.60600 23.78500
H  17.16100 -0.75700 23.81600
H  18.81700 -1.86800 22.70600
H  19.40400 -3.38900 23.44400
H  19.48100 -1.83700 24.31300
H  14.48600 -1.92300 24.19200
H  15.42200 -2.73900 22.92900
H  14.04600 -0.32000 22.46000
H  15.01300 -1.31000 21.43500
H  15.79300 0.00900 22.25200
H  13.49900 2.01800 26.39400
H  13.76200 3.15500 27.74300
H  12.44300 1.95100 27.82200
H  14.16200 0.38700 32.48100
H  15.40600 2.12100 35.79900
H  14.81400 3.74100 35.33100
H  16.37700 3.16900 34.79200
Mg 30.89400 59.46600 40.60200
C  27.94100 57.88100 39.42300
C  32.57800 56.84900 39.19900
C  33.81000 61.14800 41.25500
C  29.03900 62.30400 41.37000
N  30.29400 57.58900 39.34100
C  29.04400 57.17900 39.03900
C  29.13300 55.88500 38.12600
C  30.62300 55.41000 38.43900
C  31.16000 56.72200 38.97200
C  30.75100 54.30000 39.54400
C  29.01500 56.22300 36.57700
C  27.83200 55.57600 35.82300
H  27.99400 55.61600 34.31300
N  32.97000 59.05300 40.24000
C  33.38500 57.87100 39.74700
C  34.84000 57.87700 39.79600
C  35.23200 59.13300 40.30500
C  34.00900 59.85200 40.60300
C  35.71300 56.76700 39.15900
C  36.66000 59.62500 40.45100
O  37.69800 59.00000 40.17100
C  36.92900 60.98700 40.87900
N  31.38200 61.43400 41.15300
C  32.60700 61.86200 41.50800
C  32.55300 63.31600 41.98300
C  31.02600 63.57300 42.21700
C  30.44100 62.38600 41.53800
C  33.46300 63.67300 43.07900
C  30.45400 64.96400 41.82400
C  29.29300 65.57800 42.71400
N  28.84900 59.99000 40.57700
C  28.22700 61.15400 40.95300
C  26.78900 61.08800 40.71100
C  26.63900 59.75200 40.12000
C  27.90300 59.20100 40.06000
C  25.74800 62.15600 40.92700
C  25.71500 58.73200 39.54100
O  24.53100 58.86000 39.34700
C  26.50000 57.53400 39.16100
C  26.03200 56.35100 39.89000
O  26.45600 55.94700 40.95600
O  24.93000 55.87000 39.11900
C  24.13000 54.86500 39.77500
H  33.14400 55.96300 38.90300
H  34.67600 61.72900 41.57900
H  28.30900 63.04800 41.69400
H  28.37800 55.12500 38.33000
H  31.04000 54.95900 37.53800
H  30.97300 54.54900 40.58200
H  31.56900 53.64800 39.23700
H  29.90300 53.61900 39.46500
H  29.91800 56.17600 35.96700
H  28.69600 57.26300 36.51800
H  26.90900 55.99400 36.22500
H  27.97900 54.52900 36.09000
H  36.10200 57.03400 38.17600
H  35.21500 55.80100 39.07100
H  36.51200 56.58200 39.87700
H  36.67000 61.16000 41.92400
H  36.31600 61.58300 40.20300
H  37.96500 61.22200 40.63600
H  32.96800 63.93600 41.18700
H  30.85100 63.42600 43.28200
H  32.93000 64.30800 43.78700
H  34.34600 64.24200 42.78800
H  33.88600 62.76900 43.51800
H  30.01900 64.75300 40.84700
H  31.26000 65.69000 41.71300
H  28.42700 65.70000 42.06400
H  29.58300 66.59800 42.96700
H  29.00700 64.98700 43.58400
H  25.97100 62.76500 41.80200
H  24.85000 61.57900 41.15100
H  25.62400 62.76300 40.03000
H  26.25200 57.34000 38.11700
H  24.32200 54.73200 40.84000
H  24.24500 53.90300 39.27500
H  23.06500 55.09600 39.76300

