158

Mg -2.46700 17.28900 26.75700
C  -2.61900 14.73500 29.01000
C  -3.24800 19.61000 29.21500
C  -2.99700 19.59300 24.42300
C  -2.55600 14.75600 24.17900
N  -2.97200 17.16800 28.84000
C  -2.87800 16.02200 29.62900
C  -3.15000 16.34000 31.09700
C  -3.37700 17.95400 31.03300
C  -3.16200 18.28900 29.57500
C  -4.77600 18.36300 31.48900
C  -2.01500 15.78500 32.01700
C  -1.69300 16.64200 33.29300
H  -1.33100 16.01100 34.56200
N  -2.78100 19.37300 26.81400
C  -3.08400 20.15400 27.90300
C  -3.23100 21.50600 27.47900
C  -3.23800 21.52900 26.07600
C  -2.97200 20.14000 25.70000
C  -3.35200 22.70500 28.35100
C  -3.58200 22.58300 25.08000
O  -3.55100 22.38300 23.89500
C  -3.92100 23.94200 25.64200
N  -2.45400 17.24600 24.58200
C  -2.83600 18.28300 23.90000
C  -3.10900 17.92300 22.36200
C  -2.77800 16.40300 22.37700
C  -2.56800 16.10100 23.84800
C  -4.51000 18.16100 21.79100
C  -1.58600 16.02400 21.48800
C  -1.97300 15.25300 20.19700
N  -2.42600 15.13500 26.56400
C  -2.47900 14.25100 25.47900
C  -2.45100 12.92800 25.99900
C  -2.43700 13.08200 27.35600
C  -2.43200 14.46800 27.68500
C  -2.57700 11.68900 25.22900
C  -2.38600 12.36900 28.54700
O  -2.29100 11.13700 28.66700
C  -2.67700 13.31300 29.69900
C  -1.65900 12.90700 30.72200
O  -0.49900 13.26800 30.67300
O  -2.16900 11.99600 31.59300
C  -1.30200 11.40800 32.59000
H  -3.36000 20.31800 30.03800
H  -3.30200 20.26400 23.61700
H  -2.57500 13.99200 23.39900
H  -4.08000 15.86700 31.41300
H  -2.64900 18.57400 31.55600
H  -4.52500 19.10300 32.24800
H  -5.45400 17.64500 31.95100
H  -5.38700 18.81800 30.70900
H  -1.13300 15.59900 31.40400
H  -2.28900 14.79900 32.39200
H  -2.44200 17.43300 33.31400
H  -0.82300 17.24200 33.02800
H  -3.19900 22.47400 29.40500
H  -4.32000 23.20400 28.29600
H  -2.62500 23.45700 28.04400
H  -4.73000 23.90700 26.37100
H  -4.18100 24.51100 24.74900
H  -3.08600 24.41500 26.15900
H  -2.44600 18.45000 21.67600
H  -3.65800 15.82600 22.09400
H  -5.05400 18.78400 22.50200
H  -5.05600 17.23300 21.62500
H  -4.35700 18.66300 20.83600
H  -0.98200 15.26400 21.98400
H  -1.01600 16.90800 21.20100
H  -1.62400 15.68500 19.25900
H  -3.05600 15.15200 20.13000
H  -1.60200 14.22800 20.22200
H  -1.79200 11.62200 24.47500
H  -3.52200 11.66400 24.68600
H  -2.48200 10.76000 25.79200
H  -3.66000 13.05000 30.09100
H  -0.74000 10.60500 32.11300
H  -1.98200 11.03800 33.35700
H  -0.66000 12.04600 33.19700
Mg 0.45900 7.91900 24.81100
C  1.32800 9.60200 27.88800
C  0.73900 4.98200 26.53600
C  0.08300 6.38500 21.95200
C  0.79300 11.12400 23.13300
N  0.90200 7.41200 26.96900
C  1.13500 8.26100 28.07700
C  1.24600 7.42000 29.34500
C  1.15300 5.92900 28.87000
C  0.89400 6.08500 27.35600
C  2.38000 4.94700 29.09000
C  0.23200 7.92400 30.37700
C  0.71000 7.76900 31.78900
H  1.89700 6.77600 32.17500
N  0.40400 5.96000 24.33500
C  0.46500 4.89800 25.19400
C  0.33000 3.66600 24.48700
C  0.17200 4.05400 23.10400
C  0.11800 5.49800 23.13200
C  0.43800 2.28400 25.00800
C  0.12500 3.25700 21.80100
O  -0.14100 3.79700 20.73800
C  0.35500 1.79500 21.80200
N  0.65900 8.73800 22.83500
C  0.30600 7.77500 21.83100
C  0.16500 8.52200 20.47800
C  0.37900 10.02700 20.86600
C  0.62000 10.03300 22.37000
C  1.05900 8.00500 19.37700
C  -0.62200 11.01700 20.41200
C  -1.90500 11.19100 21.27300
N  0.92200 9.94800 25.38200
C  0.99300 11.08900 24.54600
C  1.21400 12.19900 25.42700
C  1.43800 11.68400 26.72700
C  1.21000 10.29700 26.63300
C  1.19500 13.67500 25.06500
C  1.69000 12.04400 28.05800
O  1.88100 13.15300 28.61000
C  1.56000 10.72400 28.92400
C  2.74100 10.65100 29.83000
O  3.87300 10.39100 29.46900
O  2.37800 11.09300 31.11300
C  3.32800 11.42200 32.14800
H  0.88800 4.06700 27.11400
H  -0.00300 5.94300 20.95800
H  0.91500 12.08700 22.63300
H  2.23800 7.64400 29.73700
H  0.34500 5.43400 29.40900
H  2.86700 4.60700 28.17600
H  1.97000 4.09400 29.63100
H  3.08800 5.49800 29.70900
H  -0.61200 7.24300 30.26900
H  0.02600 8.98900 30.27500
H  -0.15000 7.37100 32.32700
H  0.93300 8.72700 32.25600
H  -0.44600 1.65500 24.90400
H  0.68400 2.30600 26.07000
H  1.29900 1.78900 24.55800
H  0.01300 1.24000 22.67500
H  1.43000 1.62600 21.73400
H  -0.12500 1.32100 20.94600
H  -0.85500 8.44900 20.10200
H  1.31200 10.29700 20.37100
H  1.59200 8.84000 18.92200
H  0.40400 7.60000 18.60600
H  1.76000 7.26000 19.75300
H  -0.92600 10.85200 19.37800
H  -0.24600 12.03900 20.39000
H  -2.88100 11.30000 20.79900
H  -1.74800 12.10900 21.84000
H  -1.92400 10.47300 22.09300
H  2.04900 13.87300 24.41700
H  1.22100 14.44800 25.83300
H  0.43000 13.84000 24.30700
H  0.64200 10.89300 29.48800
H  3.31800 12.51000 32.21700
H  4.33300 11.13800 31.83600
H  3.07900 10.80200 33.00900

