158

Mg 47.17000 15.98100 28.32000
C  45.40100 15.69000 31.25200
C  49.44200 18.02900 29.97900
C  48.77800 16.63700 25.35800
C  44.80800 14.21100 26.55500
N  47.23800 16.96100 30.37000
C  46.46900 16.57300 31.37700
C  47.10600 17.03500 32.74300
C  48.27100 18.00300 32.33000
C  48.34200 17.63500 30.78700
C  48.09000 19.54100 32.52300
C  47.61800 15.84700 33.52000
C  48.03100 16.06200 34.99800
H  47.59200 17.31700 35.72100
N  48.90800 17.14900 27.83600
C  49.78100 17.76900 28.70400
C  50.90100 18.28500 27.97800
C  50.81600 17.78700 26.58900
C  49.45800 17.18800 26.51900
C  51.99600 19.06100 28.62300
C  51.70700 18.01100 25.37100
O  51.47300 17.40800 24.34100
C  52.98800 18.86800 25.46600
N  46.70100 15.68400 26.15700
C  47.58400 15.95600 25.18600
C  47.04700 15.46100 23.78300
C  45.80100 14.59900 24.16600
C  45.74800 14.85200 25.66200
C  46.78500 16.65300 22.78500
C  45.74000 13.10600 23.73800
C  44.74300 12.71600 22.63900
N  45.39700 15.22200 28.74800
C  44.58100 14.47900 27.95800
C  43.46300 14.07700 28.76500
C  43.69000 14.48500 30.09000
C  44.93100 15.16200 30.03100
C  42.24600 13.32700 28.22500
C  43.27300 14.43100 31.45000
O  42.30500 13.92300 31.91700
C  44.38000 15.16600 32.27600
C  43.67800 16.12700 33.19400
O  43.56500 17.30800 32.95800
O  43.16800 15.48000 34.29700
C  42.73700 16.43600 35.27600
H  50.26900 18.44100 30.56100
H  49.22200 16.79100 24.37200
H  44.08700 13.56000 26.05700
H  46.36400 17.65600 33.24600
H  49.20300 17.65700 32.77600
H  48.84300 20.08100 33.09700
H  47.18600 19.63200 33.12400
H  47.94800 20.04300 31.56500
H  48.50700 15.52600 32.97700
H  46.93900 14.99600 33.47300
H  49.11400 16.03500 34.87300
H  47.78600 15.20300 35.62200
H  52.04000 20.04100 28.14800
H  52.92200 18.56200 28.33800
H  51.93900 19.15000 29.70800
H  53.26600 19.09000 24.43500
H  53.84700 18.27800 25.78700
H  52.71700 19.78800 25.98300
H  47.85400 14.85900 23.36500
H  44.86900 15.02900 23.79800
H  47.18600 16.47800 21.78600
H  47.27800 17.54500 23.17100
H  45.73400 16.89000 22.62100
H  45.40000 12.42400 24.51800
H  46.75000 12.82100 23.44300
H  45.02000 11.81200 22.09500
H  44.79000 13.47800 21.86100
H  43.70300 12.53800 22.91300
H  42.59300 12.31000 28.04100
H  41.96200 13.81200 27.29100
H  41.36400 13.40400 28.86100
H  44.78700 14.36600 32.89500
H  43.59500 17.09100 35.42400
H  42.55700 15.98600 36.25200
H  41.86600 17.03700 35.01500
Mg 48.93200 45.68700 42.29000
C  45.61600 46.51500 41.62300
C  48.67900 42.84500 40.43500
C  52.28200 45.19000 42.51500
C  49.33600 49.06600 43.47800
N  47.35700 44.82700 41.17300
C  46.04600 45.27300 41.06200
C  45.22600 44.36900 40.13300
C  46.14400 43.07400 40.08000
C  47.50100 43.62200 40.56100
C  45.55700 41.84600 40.87200
C  44.99500 44.89100 38.71500
C  43.64800 44.55800 37.98300
H  43.75100 43.51900 36.87200
N  50.33200 44.12500 41.64400
C  49.93500 42.99400 40.97700
C  51.07300 42.13100 40.90600
C  52.21600 42.82700 41.38800
C  51.62500 44.11300 41.90500
C  51.04900 40.76000 40.24500
C  53.53400 42.32800 41.36100
O  53.79300 41.23700 40.87400
C  54.64900 43.12900 41.86600
N  50.59200 46.93700 42.86300
C  51.86000 46.50600 42.88500
C  52.78100 47.64800 43.32900
C  51.77500 48.67900 43.89400
C  50.45200 48.25900 43.35200
C  53.95500 47.28300 44.38400
C  52.14100 50.17600 43.70000
C  51.73000 51.10200 44.87300
N  47.69400 47.44200 42.64200
C  48.02800 48.70200 43.07700
C  46.80200 49.54800 43.15300
C  45.82200 48.62400 42.63500
C  46.41000 47.42400 42.32000
C  46.59500 50.93400 43.69200
C  44.42500 48.50900 42.39100
O  43.53600 49.26600 42.64700
C  44.29900 47.19400 41.55600
C  43.03600 46.41000 42.06900
O  41.83800 46.53500 41.73400
O  43.51200 45.43500 42.95900
C  42.55500 44.61600 43.76000
H  48.58800 41.92500 39.85500
H  53.33500 44.99400 42.72700
H  49.39700 50.07300 43.89500
H  44.27900 44.16900 40.63500
H  46.20600 42.70200 39.05700
H  45.38000 41.15300 40.04900
H  44.66800 42.20900 41.38800
H  46.21600 41.42800 41.63300
H  45.79600 44.61600 38.02900
H  45.01300 45.97000 38.86800
H  43.28900 45.50900 37.58800
H  42.88000 44.09800 38.60500
H  51.86400 40.60400 39.53800
H  50.09600 40.50800 39.78000
H  51.24500 40.02400 41.02500
H  54.72800 43.09600 42.95300
H  54.57800 44.15000 41.49200
H  55.58100 42.82800 41.38800
H  53.25400 47.96000 42.39800
H  51.82200 48.46000 44.96100
H  54.89100 46.93300 43.94900
H  53.65300 46.51300 45.09500
H  54.20500 48.17300 44.96200
H  51.80100 50.57600 42.74500
H  53.21600 50.34500 43.64100
H  51.34300 50.57600 45.74500
H  50.90900 51.74900 44.56300
H  52.52400 51.72300 45.28800
H  45.53600 50.95400 43.94900
H  46.77000 51.69900 42.93600
H  47.17600 51.32500 44.52700
H  44.16200 47.44400 40.50400
H  41.67700 45.24000 43.92800
H  43.05000 44.24500 44.65700
H  42.28000 43.77800 43.12000

