158

Mg 2.13000 -2.05600 43.80900
C  5.57000 -0.91100 43.20600
C  1.09200 0.65400 42.01400
C  -0.81800 -3.49300 43.54500
C  3.48600 -4.95300 45.17200
N  3.31400 -0.44600 42.53400
C  4.64700 -0.02000 42.65600
C  4.88300 1.38600 42.04000
C  3.38600 1.88400 41.90900
C  2.51300 0.63700 42.17300
C  3.05900 2.95800 42.99600
C  5.64000 1.31300 40.64900
C  6.37000 2.63500 40.35900
H  6.38700 3.19100 38.94300
N  0.37400 -1.46100 42.91200
C  0.09900 -0.28000 42.31600
C  -1.34900 -0.15300 42.11700
C  -1.94000 -1.34000 42.62100
C  -0.74100 -2.17100 43.01100
C  -2.02600 0.92000 41.22000
C  -3.43200 -1.65000 42.56300
O  -4.15000 -0.85800 42.01000
C  -4.05500 -2.85100 43.11200
N  1.47000 -3.96600 44.25300
C  0.14100 -4.29600 44.20700
C  -0.16100 -5.70400 44.71600
C  1.17600 -6.11000 45.38200
C  2.12000 -4.94300 44.91600
C  -1.38000 -6.07100 45.54800
C  1.78700 -7.50700 44.96500
C  2.51200 -8.15100 46.21200
N  4.14200 -2.83400 44.17500
C  4.47400 -4.00400 44.79400
C  5.89700 -4.10400 44.75600
C  6.39400 -2.91700 44.25700
C  5.24100 -2.19900 43.79700
C  6.73800 -5.16100 45.30400
C  7.60600 -2.13200 44.04800
O  8.76300 -2.33800 44.39800
C  7.12400 -0.81200 43.29900
C  7.51200 0.36900 44.12900
O  7.23800 0.57300 45.27200
O  8.19600 1.30300 43.33800
C  8.47700 2.65900 43.82000
H  0.77400 1.64000 41.66900
H  -1.72100 -4.08300 43.37600
H  3.89000 -5.90600 45.51800
H  5.47900 2.02900 42.68800
H  3.31300 2.34100 40.92200
H  2.51000 2.53400 43.83700
H  2.40400 3.73200 42.59700
H  3.93500 3.32700 43.53000
H  4.96400 1.12000 39.81600
H  6.27600 0.43000 40.59700
H  7.39300 2.62500 40.73700
H  5.92700 3.37500 41.02500
H  -2.42700 0.46500 40.31400
H  -1.23900 1.64400 41.01000
H  -2.80900 1.51400 41.69300
H  -5.13900 -2.86700 43.22300
H  -3.72700 -3.11400 44.11800
H  -3.78800 -3.74600 42.55000
H  -0.29000 -6.35600 43.85200
H  1.06000 -5.98100 46.45800
H  -2.09400 -6.68700 45.00100
H  -1.91400 -5.18300 45.88600
H  -1.25100 -6.66300 46.45400
H  2.42800 -7.37100 44.09500
H  1.04200 -8.21000 44.59200
H  1.97800 -9.04900 46.52300
H  2.69100 -7.44700 47.02500
H  3.47500 -8.53900 45.88100
H  7.65400 -4.83300 45.79400
H  7.08400 -5.68500 44.41300
H  6.20400 -5.94500 45.84100
H  7.63700 -0.71100 42.34300
H  7.77400 3.02000 44.57100
H  8.49900 3.43800 43.05800
H  9.47600 2.48700 44.22000
Mg 47.26900 25.21100 28.60900
C  48.34200 27.23600 31.07800
C  46.39100 22.83900 31.04500
C  46.42500 23.07900 26.14800
C  48.34600 27.49600 26.25000
N  47.30300 25.07400 30.74600
C  47.68800 26.08300 31.63200
C  47.38100 25.82600 33.08600
C  46.85500 24.36100 33.06900
C  46.88200 24.00500 31.56800
C  47.65700 23.28900 33.87600
C  46.36200 26.83200 33.67100
C  46.72000 27.61500 34.97800
H  45.95100 27.46300 36.26800
N  46.58300 23.24100 28.54400
C  46.31300 22.42100 29.66600
C  45.95100 21.11900 29.24800
C  45.82000 21.17000 27.77900
C  46.30900 22.53300 27.45300
C  45.64900 19.96300 30.15300
C  45.31200 20.07400 26.77900
O  45.40100 20.16500 25.54300
C  44.69000 18.79800 27.27300
N  47.39000 25.21300 26.45000
C  47.00900 24.24200 25.68900
C  47.05700 24.68400 24.22700
C  47.88500 25.96700 24.27800
C  47.84000 26.30800 25.72300
C  47.73000 23.65200 23.25900
C  47.29100 27.08200 23.33300
C  48.34000 27.69100 22.41200
N  48.09900 27.03400 28.61000
C  48.54100 27.88000 27.60000
C  49.20800 29.03100 28.17400
C  49.15700 28.90400 29.58100
C  48.51200 27.64800 29.77600
C  49.90400 30.03500 27.29200
C  49.41900 29.47100 30.87700
O  50.05700 30.48700 31.16500
C  48.99200 28.35000 31.90600
C  50.05300 27.98400 32.87600
O  50.76300 26.96500 32.79300
O  50.02800 28.94100 33.89600
C  50.92500 28.61600 34.99800
H  46.15400 22.12200 31.83300
H  46.16500 22.54200 25.23300
H  48.67100 28.23100 25.51100
H  48.34300 25.91900 33.58900
H  45.82900 24.28800 33.43000
H  47.97200 22.42200 33.29500
H  47.21500 22.88800 34.78800
H  48.63600 23.74100 34.03100
H  45.43400 26.28600 33.83900
H  46.04300 27.54900 32.91400
H  46.64700 28.67600 34.73800
H  47.74300 27.28000 35.15100
H  44.57400 19.78100 30.15700
H  46.07000 20.08700 31.15000
H  46.16900 19.13400 29.67200
H  44.18600 18.92900 28.23100
H  45.59400 18.20000 27.39000
H  44.11900 18.20100 26.56100
H  46.03800 24.82500 23.86900
H  48.93700 25.84100 24.02100
H  48.31200 22.92100 23.82100
H  48.34700 24.24600 22.58600
H  47.05400 23.29600 22.48200
H  46.73900 27.82700 23.90700
H  46.62800 26.64400 22.58800
H  48.46500 27.38900 21.37200
H  49.33700 27.36600 22.70900
H  48.26000 28.75900 22.61500
H  49.62900 29.88900 26.24800
H  50.98900 29.92600 27.28100
H  49.65900 31.05300 27.59700
H  48.14400 28.76400 32.45200
H  50.96800 27.55900 35.25700
H  50.75500 29.21600 35.89200
H  51.93200 28.89300 34.68600

