158

Mg 40.49500 9.36400 29.67700
C  42.58100 10.62500 32.28500
C  38.40500 8.26100 32.09100
C  38.65900 8.02900 27.27000
C  42.98300 10.32500 27.36200
N  40.52100 9.45900 31.97100
C  41.39800 10.06400 32.81600
C  41.08000 9.85100 34.28600
C  39.84200 8.78900 34.15600
C  39.54700 8.74400 32.68400
C  40.03900 7.39800 34.89400
C  40.77400 11.19600 35.06000
C  39.87300 11.08800 36.31000
H  40.30200 11.98900 37.49000
N  38.64800 8.55000 29.65800
C  37.92600 8.14900 30.77400
C  36.59000 7.68500 30.39600
C  36.69900 7.57600 28.93600
C  38.00700 8.07000 28.56000
C  35.51500 7.32200 31.36600
C  35.62500 7.18600 27.92600
O  35.88100 7.11300 26.74700
C  34.30200 6.70800 28.30700
N  40.87000 8.99600 27.65900
C  39.94100 8.45300 26.88200
C  40.33500 8.50100 25.40500
C  41.80100 9.11000 25.45600
C  41.87700 9.54600 26.95500
C  40.25400 7.04300 24.73900
C  42.22400 10.09500 24.30400
C  42.26700 11.64900 24.59800
N  42.46700 10.23900 29.73800
C  43.25300 10.70000 28.68400
C  44.29900 11.49400 29.28300
C  44.09700 11.45900 30.67800
C  42.95900 10.71000 30.94600
C  45.31000 12.24100 28.44400
C  44.52700 12.03400 31.90700
O  45.46200 12.82400 32.05000
C  43.51100 11.55100 32.99900
C  44.42400 10.91700 34.04200
O  44.61400 9.70200 34.21200
O  44.74500 11.86900 34.97500
C  45.57600 11.45400 36.08500
H  37.66200 8.16300 32.88500
H  38.12400 7.46600 26.50300
H  43.69800 10.75900 26.66100
H  41.88200 9.29000 34.76500
H  38.97400 9.17500 34.69000
H  41.01200 7.34600 35.38100
H  39.98400 6.60500 34.14800
H  39.21100 7.12800 35.54900
H  40.38200 11.94500 34.37200
H  41.69900 11.55200 35.51300
H  39.88900 10.03200 36.57700
H  38.83300 11.29200 36.05200
H  34.64400 7.96600 31.24100
H  35.86900 7.49300 32.38200
H  35.20100 6.28000 31.30700
H  33.86900 7.21900 29.16800
H  34.45100 5.64700 28.50700
H  33.69500 6.83600 27.41100
H  39.58700 9.12800 24.92100
H  42.49200 8.26700 25.47800
H  40.20300 6.36500 25.59000
H  41.22900 6.81800 24.30600
H  39.57300 6.92700 23.89600
H  41.52800 10.01400 23.46900
H  43.13300 9.79900 23.77900
H  41.75400 11.86800 25.53500
H  41.77800 12.02700 23.70000
H  43.31800 11.91600 24.48400
H  44.78400 12.85500 27.71300
H  45.93100 11.56300 27.85900
H  45.92500 12.91200 29.04300
H  43.08500 12.42600 33.48900
H  45.94100 12.34500 36.59600
H  46.41900 10.92800 35.63700
H  45.11000 10.79400 36.81600
Mg 49.01500 46.52200 42.61800
C  45.74400 47.37100 41.77400
C  48.46300 43.55200 40.86000
C  52.26700 46.00600 42.62800
C  49.52300 49.87400 43.50900
N  47.30200 45.62700 41.37400
C  46.00900 46.05900 41.27000
C  44.98700 45.03000 40.80800
C  45.88600 43.75700 40.85300
C  47.28300 44.27500 41.05900
C  45.42400 42.71300 41.90800
C  44.24200 45.36000 39.49900
C  44.90600 46.30800 38.46500
H  45.80700 45.71400 37.42100
N  50.13600 44.85800 42.03800
C  49.76900 43.76600 41.30200
C  50.93000 42.91000 41.25700
C  52.00300 43.62900 41.87500
C  51.48600 44.96900 42.19300
C  50.94300 41.55700 40.66500
C  53.42700 42.98300 41.94000
O  53.54500 41.76300 41.78000
C  54.61300 43.77400 42.34700
N  50.73100 47.87100 42.70900
C  51.94000 47.34400 42.91800
C  52.96700 48.42100 43.34900
C  52.02600 49.62700 43.70100
C  50.68000 49.09700 43.23400
C  53.87900 47.95000 44.49600
C  52.34200 51.09400 43.08600
C  52.37600 52.20900 44.11600
N  47.90600 48.29300 42.66300
C  48.21300 49.52300 43.24000
C  46.99200 50.36200 43.29900
C  45.97900 49.54400 42.67600
C  46.57100 48.29500 42.41100
C  46.77400 51.82000 43.73200
C  44.60600 49.43300 42.28500
O  43.66700 50.23500 42.30500
C  44.37700 48.05600 41.78900
C  43.38300 47.40000 42.62300
O  43.55300 47.36200 43.81800
O  42.39300 46.82400 41.90800
C  41.49000 46.03100 42.76200
H  48.33900 42.58700 40.36300
H  53.34700 45.88000 42.72700
H  49.68200 50.89700 43.85700
H  44.28700 44.87700 41.62900
H  45.87800 43.25800 39.88400
H  46.20400 42.54300 42.65000
H  45.09900 41.78900 41.43100
H  44.51900 42.95500 42.46600
H  43.22800 45.66300 39.76000
H  44.07000 44.38200 39.05000
H  45.64200 46.93800 38.96400
H  44.16700 46.92800 37.95700
H  50.01500 41.54500 40.09300
H  50.87400 40.81700 41.46200
H  51.81900 41.30500 40.06800
H  54.33700 44.23700 43.29500
H  54.79500 44.39500 41.47000
H  55.40200 43.07400 42.62000
H  53.51700 48.77400 42.47700
H  52.02700 49.67100 44.79000
H  53.73500 46.87600 44.61400
H  53.58700 48.51900 45.37900
H  54.92800 48.11700 44.25000
H  51.58200 51.37100 42.35500
H  53.34000 50.99100 42.66200
H  51.99800 51.90600 45.09200
H  51.72900 53.03200 43.81200
H  53.35500 52.68000 44.20400
H  47.59500 52.13700 44.37400
H  45.82800 51.98100 44.24900
H  46.70100 52.44400 42.84100
H  43.93600 48.26200 40.81400
H  41.83300 45.00300 42.64400
H  40.50000 46.14600 42.32100
H  41.46900 45.97100 43.85000

