158

Mg 17.11900 -1.36800 27.72700
C  16.20200 0.49700 30.57700
C  19.05800 -3.47500 29.81400
C  18.42300 -2.79900 24.99100
C  15.80200 1.17900 25.71500
N  17.62100 -1.43000 29.89900
C  17.13700 -0.54900 30.83500
C  17.60000 -0.93700 32.25600
C  18.66400 -2.07100 31.97600
C  18.45000 -2.38500 30.46200
C  20.17800 -1.66700 32.39000
C  16.35500 -1.25800 33.15700
C  16.41300 -0.86500 34.66100
H  17.83900 -0.37000 35.14600
N  18.48900 -2.92500 27.44100
C  19.13400 -3.67800 28.42300
C  19.72100 -4.85200 27.86100
C  19.60800 -4.67400 26.41200
C  18.78000 -3.41600 26.25100
C  20.34900 -5.99500 28.53900
C  20.31400 -5.41500 25.27300
O  19.99900 -5.35500 24.07500
C  21.28800 -6.56900 25.57600
N  16.94600 -0.95800 25.67800
C  17.65600 -1.62500 24.70500
C  17.62800 -1.03900 23.29600
C  16.63200 0.17000 23.51700
C  16.36500 0.12100 25.04600
C  18.94300 -0.77100 22.55400
C  15.32000 0.04800 22.68200
C  15.11900 1.30600 21.70300
N  16.00000 0.29000 28.02100
C  15.60400 1.24600 27.12500
C  14.90700 2.25800 27.81800
C  15.09900 1.95400 29.13100
C  15.83600 0.78800 29.25200
C  14.19000 3.41500 27.26400
C  14.85500 2.52900 30.42700
O  14.20300 3.53900 30.71600
C  15.54200 1.58100 31.37900
C  16.54900 2.44200 32.07600
O  17.73800 2.55300 31.71800
O  15.96600 2.83400 33.23600
C  16.79200 3.68000 34.13100
H  19.55500 -4.18100 30.48300
H  18.73600 -3.22400 24.03500
H  15.39800 2.02000 25.14600
H  18.16600 -0.07300 32.60300
H  18.45100 -2.84800 32.70900
H  20.91000 -1.86600 31.60700
H  20.45300 -2.28900 33.24200
H  20.35100 -0.65400 32.75100
H  16.08300 -2.30600 33.02900
H  15.52900 -0.71800 32.69400
H  16.11100 -1.68500 35.31300
H  15.62800 -0.11100 34.72700
H  20.06700 -6.98700 28.18400
H  20.17200 -5.98600 29.61400
H  21.43300 -5.87800 28.53100
H  21.95900 -6.32400 26.40000
H  21.96700 -6.63000 24.72500
H  20.78900 -7.44800 25.98400
H  17.14900 -1.77100 22.64500
H  17.10300 1.14700 23.41300
H  18.93200 0.27500 22.24700
H  19.06200 -1.41800 21.68400
H  19.75200 -0.98900 23.25200
H  14.43300 0.25400 23.28200
H  15.23100 -0.93400 22.21700
H  14.85000 0.92500 20.71800
H  16.06000 1.84700 21.80700
H  14.30300 1.88100 22.14000
H  13.54900 3.07600 26.45000
H  14.80400 4.22300 26.86800
H  13.50700 3.78800 28.02800
H  14.79900 1.22800 32.09400
H  17.58000 4.19100 33.57800
H  17.08300 3.11300 35.01500
H  16.08600 4.37500 34.58500
Mg 26.51300 50.05900 26.11800
C  24.58400 51.35300 28.73700
C  28.99900 49.42800 28.24500
C  28.31000 48.82700 23.45900
C  24.14000 51.36200 23.88900
N  26.79100 50.62100 28.22300
C  25.81300 50.96000 29.15100
C  26.24300 50.65300 30.61200
C  27.77100 50.32600 30.37900
C  27.88300 50.07700 28.81700
C  28.52400 51.63500 30.75000
C  25.52600 49.42500 31.25300
C  25.23700 49.37300 32.75600
H  26.04500 50.16400 33.71400
N  28.35200 49.27500 25.85100
C  29.24600 49.06700 26.90200
C  30.42300 48.42800 26.45200
C  30.18800 48.11100 25.06000
C  28.96000 48.80300 24.69600
C  31.58300 48.16800 27.38100
C  31.03400 47.38700 24.14300
O  30.82500 47.40300 22.98400
C  32.24400 46.66200 24.55000
N  26.31500 50.15100 23.92200
C  27.06400 49.34000 23.09500
C  26.49800 49.41600 21.65800
C  25.07700 50.02000 21.87000
C  25.15800 50.51000 23.31900
C  27.37400 50.34800 20.74500
C  23.81500 49.19400 21.55500
C  24.00200 47.70300 21.91700
N  24.67900 51.01000 26.21400
C  23.85200 51.50200 25.22300
C  22.76600 52.21200 25.88200
C  22.91600 52.02000 27.23800
C  24.14100 51.43900 27.37000
C  21.69400 52.97200 25.23300
C  22.35200 52.27100 28.53400
O  21.25800 52.77200 28.75500
C  23.35500 51.75200 29.64000
C  23.58100 52.82900 30.56600
O  24.33600 53.74000 30.35400
O  22.76100 52.76800 31.65700
C  23.04100 53.71200 32.73300
H  29.64500 49.07900 29.05300
H  28.69900 48.42000 22.52300
H  23.40800 51.84600 23.23900
H  25.91800 51.51500 31.19500
H  28.08900 49.48300 30.99200
H  28.87700 52.08900 29.82300
H  29.47500 51.49800 31.26500
H  27.91600 52.37200 31.27500
H  26.14600 48.58500 30.93900
H  24.53200 49.24800 30.84200
H  25.46800 48.36200 33.09200
H  24.16700 49.54000 32.87500
H  32.60700 48.12700 27.01200
H  31.31100 47.28300 27.95500
H  31.68100 48.93800 28.14600
H  32.70900 46.13400 23.71700
H  31.84900 45.89200 25.21300
H  32.96700 47.30200 25.05600
H  26.54900 48.45200 21.15100
H  25.01400 50.86200 21.18100
H  26.86300 51.09400 20.13700
H  28.18700 49.86400 20.20300
H  27.91300 50.94800 21.47900
H  23.61800 49.18600 20.48300
H  22.90200 49.61200 21.97800
H  24.21800 47.10500 21.03200
H  23.08800 47.28800 22.34200
H  24.79300 47.62000 22.66200
H  21.58900 52.74500 24.17200
H  21.85700 54.03600 25.40600
H  20.80100 52.62900 25.75500
H  22.95900 50.89300 30.18200
H  22.09400 53.69100 33.27300
H  23.30800 54.73000 32.45300
H  23.88700 53.48400 33.38100

