158

Mg 1.25000 -2.60900 44.84400
C  4.39400 -1.47400 43.76300
C  -0.24300 -0.06900 43.02600
C  -1.75700 -4.02800 45.43800
C  2.77200 -5.32300 46.08900
N  2.04900 -1.03000 43.48700
C  3.39600 -0.71000 43.20600
C  3.49600 0.58900 42.41300
C  1.96400 1.03100 42.32600
C  1.18500 -0.11000 43.04400
C  1.72800 2.45700 42.79300
C  4.24900 0.37200 41.04700
C  5.48300 1.31800 40.85600
H  6.47200 1.21000 39.64400
N  -0.73300 -2.10300 44.28500
C  -1.13700 -1.01700 43.57800
C  -2.56100 -0.87800 43.56600
C  -2.99100 -2.01200 44.34000
C  -1.82800 -2.75900 44.72000
C  -3.36200 0.08900 42.78200
C  -4.47500 -2.34400 44.66800
O  -5.27600 -1.56500 44.20300
C  -4.95400 -3.57900 45.41900
N  0.55700 -4.43300 45.64500
C  -0.70600 -4.79700 45.85000
C  -0.87700 -6.28500 46.36500
C  0.58500 -6.61900 46.70100
C  1.35900 -5.40500 46.13000
C  -1.97800 -6.46300 47.50200
C  1.13700 -7.95000 46.06800
C  1.70100 -8.96000 47.15500
N  3.14200 -3.29100 45.00300
C  3.61700 -4.38500 45.56800
C  5.05900 -4.32400 45.61500
C  5.41200 -3.19400 44.93900
C  4.19700 -2.67000 44.51300
C  6.05600 -5.26200 46.34100
C  6.51500 -2.42500 44.48700
O  7.73500 -2.67000 44.74400
C  5.89900 -1.17400 43.69800
C  6.13000 0.11600 44.38000
O  5.27400 0.77900 44.96000
O  7.42800 0.41700 44.34900
C  7.89400 1.56200 45.16200
H  -0.72200 0.77000 42.51600
H  -2.71000 -4.52500 45.62900
H  3.26500 -6.23100 46.44100
H  4.05200 1.34600 42.96600
H  1.61000 1.07400 41.29600
H  2.65100 2.97700 43.04900
H  1.04600 2.40000 43.64200
H  1.22400 3.02400 42.01000
H  3.55600 0.62100 40.24300
H  4.53100 -0.68000 41.02000
H  6.12200 1.12400 41.71800
H  5.06300 2.31400 40.98900
H  -3.67800 -0.59600 41.99600
H  -2.74000 0.95400 42.54900
H  -4.25300 0.50600 43.25100
H  -4.75900 -4.53500 44.93300
H  -6.04200 -3.55600 45.46700
H  -4.66800 -3.62100 46.47000
H  -1.22800 -6.91800 45.55000
H  0.73200 -6.64400 47.78100
H  -2.13300 -5.51800 48.02200
H  -1.60000 -7.13700 48.27100
H  -2.88000 -6.92900 47.10400
H  1.97900 -7.84600 45.38400
H  0.30900 -8.42000 45.53700
H  2.76100 -9.08000 46.92900
H  1.20900 -9.92700 47.25200
H  1.65800 -8.63300 48.19400
H  5.66200 -6.26900 46.20300
H  6.01600 -5.02000 47.40300
H  7.03800 -5.28400 45.86800
H  6.24200 -1.18600 42.66400
H  8.93800 1.28500 45.30500
H  7.45000 1.57400 46.15800
H  7.90400 2.53100 44.66300
Mg 44.22500 5.10000 46.18700
C  42.44700 8.08900 45.92100
C  41.25100 3.42200 45.09200
C  45.91900 2.33700 45.61500
C  47.20000 6.91200 46.34300
N  42.06500 5.74700 45.44800
C  41.55200 7.01000 45.62100
C  40.07500 7.06300 45.51100
C  39.75400 5.52100 45.38400
C  41.07200 4.80600 45.29500
C  38.88900 4.79300 46.47000
C  39.46600 7.93600 44.41400
C  40.29600 8.07600 43.15000
H  39.62100 7.81100 41.79700
N  43.68300 3.08300 45.67500
C  42.44500 2.62700 45.25300
C  42.47400 1.21600 45.10000
C  43.82200 0.80200 45.26500
C  44.54900 2.07100 45.54400
C  41.31700 0.40900 44.82700
C  44.35800 -0.68100 45.17800
O  43.58600 -1.56700 44.79500
C  45.78000 -1.03300 45.56600
N  46.27900 4.71000 45.69300
C  46.72200 3.43800 45.70400
C  48.27100 3.37000 45.71500
C  48.64700 4.95600 45.72300
C  47.28700 5.56900 45.95800
C  48.87300 2.54200 46.91500
C  49.28400 5.47100 44.40700
C  50.87700 5.52300 44.41000
N  44.73300 7.11600 46.21700
C  45.98600 7.63900 46.39500
C  45.83500 9.02500 46.60700
C  44.48700 9.27000 46.47800
C  43.82400 8.06800 46.11200
C  46.91500 10.08500 46.82000
C  43.40200 10.27400 46.47300
O  43.43800 11.49700 46.62900
C  42.07100 9.58600 46.13100
C  41.10400 9.78300 47.19300
O  40.94300 9.03400 48.12000
O  40.24800 10.77200 46.91400
C  39.08600 10.92800 47.75900
H  40.34000 2.82000 45.08900
H  46.58100 1.47100 45.54200
H  48.13800 7.41000 46.59700
H  39.74700 7.40500 46.49300
H  39.14300 5.47800 44.48300
H  39.45200 4.74700 47.40200
H  38.74900 3.75300 46.17400
H  37.97300 5.38100 46.41200
H  39.19900 8.88200 44.88600
H  38.49900 7.56300 44.07600
H  41.16400 7.41800 43.11400
H  40.60000 9.11900 43.05600
H  41.44200 -0.15700 43.90400
H  40.35400 0.91400 44.90200
H  41.40400 -0.32500 45.62800
H  45.92000 -2.10800 45.67100
H  46.06700 -0.48600 46.46400
H  46.55000 -0.83300 44.82000
H  48.58800 2.87400 44.79800
H  49.27400 5.10100 46.60200
H  49.69200 3.07800 47.39500
H  49.37600 1.64100 46.56500
H  48.09700 2.33800 47.65200
H  48.92000 6.47700 44.20000
H  49.06100 4.72800 43.64100
H  51.13200 6.51900 44.04900
H  51.42000 4.84700 43.75100
H  51.21000 5.38200 45.43900
H  46.55900 11.11200 46.91000
H  47.49000 10.30700 45.92000
H  47.61800 9.78500 47.59700
H  41.72000 10.04700 45.20800
H  39.17400 11.68300 48.54000
H  38.79400 9.95000 48.14400
H  38.25300 11.32100 47.17600

