158

Mg 47.08200 15.46800 28.40500
C  44.99800 14.83800 31.09900
C  49.23800 17.00700 30.44600
C  48.74900 16.57700 25.66700
C  44.60500 14.16000 26.22700
N  47.02200 15.95700 30.55200
C  46.13900 15.52100 31.49300
C  46.62900 15.84900 32.94300
C  47.83600 16.71900 32.61400
C  48.10700 16.49200 31.11600
C  47.82600 18.19300 33.13300
C  46.82000 14.66400 33.91900
C  46.31900 14.81500 35.35000
H  46.15900 16.14700 35.98100
N  48.88700 16.48200 28.11800
C  49.65700 17.00900 29.10400
C  50.90700 17.53000 28.50100
C  50.73200 17.49400 27.10800
C  49.47900 16.86400 26.92300
C  52.11600 18.02500 29.34200
C  51.69300 17.91900 26.03400
O  51.43900 17.72700 24.84700
C  53.02100 18.56800 26.43700
N  46.74100 15.29900 26.30700
C  47.56700 15.89800 25.42500
C  47.12300 15.68100 23.96400
C  46.01200 14.64400 24.15300
C  45.69100 14.75900 25.67000
C  46.68200 17.04700 23.37000
C  46.47500 13.23200 23.67800
C  45.67500 12.76100 22.44100
N  45.12400 14.69100 28.58500
C  44.24700 14.17900 27.63400
C  43.18200 13.50300 28.36600
C  43.51600 13.71200 29.72900
C  44.59800 14.54500 29.79000
C  42.10300 12.72900 27.62700
C  42.95600 13.44200 31.03400
O  42.00200 12.79200 31.40600
C  43.85600 14.35700 32.06100
C  43.03900 15.35800 32.74500
O  42.42200 16.26100 32.16400
O  42.90400 15.11900 34.06700
C  42.10500 16.17700 34.79800
H  49.96500 17.46200 31.12200
H  49.23400 16.99400 24.78100
H  43.87300 13.79100 25.50500
H  45.86000 16.48000 33.38900
H  48.77700 16.34600 33.01800
H  47.68600 18.88000 32.29900
H  48.70700 18.40500 33.73800
H  46.97700 18.18000 33.81600
H  47.90600 14.63700 34.01200
H  46.37600 13.75500 33.51300
H  47.09700 14.32800 35.93900
H  45.38500 14.25600 35.40500
H  52.93300 17.34200 29.57700
H  51.67900 18.24300 30.31600
H  52.55500 18.95800 28.98800
H  53.64400 17.97100 27.10200
H  52.77400 19.52900 26.89000
H  53.60400 18.71400 25.52800
H  47.95200 15.34900 23.33800
H  45.09500 14.92100 23.63300
H  45.69300 17.02000 22.91300
H  47.34400 17.48600 22.62400
H  46.49100 17.80600 24.12900
H  46.09300 12.61600 24.49100
H  47.56300 13.16200 23.69600
H  46.41400 12.43400 21.71000
H  45.12600 13.55100 21.92800
H  45.06200 11.89800 22.69900
H  42.48800 12.25800 26.72200
H  41.32200 13.43100 27.33700
H  41.54100 11.98900 28.19700
H  44.14300 13.72000 32.89700
H  41.08400 16.28700 34.43400
H  42.77500 17.03200 34.88900
H  41.99200 15.84000 35.82800
Mg 0.11900 44.27100 25.77400
C  2.30600 43.51300 28.36400
C  -2.54300 43.56100 27.82300
C  -1.95300 44.30400 23.03300
C  2.82800 44.66500 23.69100
N  0.00200 43.55100 27.75000
C  0.96400 43.33900 28.66200
C  0.36700 43.31000 30.09500
C  -1.07400 42.99400 29.78500
C  -1.22600 43.32700 28.33100
C  -1.50700 41.58000 30.17200
C  0.52200 44.67900 30.90400
C  0.54900 44.66700 32.43100
H  0.58600 43.30200 33.14400
N  -1.98100 44.17200 25.50100
C  -2.90700 43.86100 26.46400
C  -4.24100 43.91400 25.96500
C  -4.07800 44.18200 24.54200
C  -2.66100 44.23700 24.30000
C  -5.42300 43.58400 26.76700
C  -5.16800 44.28400 23.45200
O  -4.91200 44.57000 22.25800
C  -6.57600 44.11000 23.79900
N  0.34200 44.43500 23.65600
C  -0.61400 44.50900 22.73200
C  -0.10200 45.06000 21.36900
C  1.43900 45.03500 21.60100
C  1.57200 44.74400 23.06300
C  -0.57900 44.37500 20.03600
C  2.25200 46.24000 20.92800
C  2.45500 47.38900 21.84900
N  2.16900 43.95300 25.92200
C  3.20600 44.17300 24.98500
C  4.47800 44.00400 25.62500
C  4.20200 43.71300 26.93900
C  2.80100 43.75900 27.10000
C  5.73200 44.22500 24.92100
C  4.82300 43.51800 28.26000
O  6.02700 43.41600 28.57600
C  3.57600 43.42400 29.23800
C  3.63700 42.15200 30.11200
O  3.37900 41.06500 29.68800
O  4.15300 42.46600 31.36800
C  4.34800 41.25300 32.21100
H  -3.29800 43.34600 28.58200
H  -2.63700 44.30200 22.18200
H  3.69100 44.95100 23.08600
H  0.83400 42.49100 30.64200
H  -1.77200 43.63200 30.32600
H  -2.03300 41.27700 29.26700
H  -2.15000 41.63700 31.05000
H  -0.64300 40.93900 30.34200
H  -0.22400 45.41100 30.59600
H  1.49100 45.08500 30.61400
H  -0.32700 45.18400 32.82200
H  1.38700 45.25200 32.81100
H  -5.17000 43.13100 27.72500
H  -6.19600 42.97100 26.30300
H  -5.98700 44.46300 27.07700
H  -6.81300 43.09200 24.10800
H  -7.08800 44.31500 22.85800
H  -6.83200 44.88100 24.52600
H  -0.39600 46.10900 21.32800
H  1.86000 44.22600 21.00300
H  0.09500 44.51100 19.19000
H  -1.56000 44.81200 19.85300
H  -0.75700 43.31200 20.19900
H  1.77300 46.65000 20.03800
H  3.25300 45.94600 20.61200
H  2.36100 48.24000 21.17300
H  3.47100 47.60600 22.17700
H  1.69000 47.52600 22.61400
H  6.48800 43.53800 25.30000
H  6.10000 45.21400 25.19500
H  5.76000 43.98300 23.85800
H  3.59500 44.34300 29.82400
H  4.92900 40.43000 31.79600
H  3.43200 40.81900 32.61100
H  4.75700 41.60700 33.15700

