158

Mg 47.04000 17.20300 29.42300
C  45.11600 16.46700 32.21400
C  49.11700 19.00300 31.45400
C  48.68800 18.00900 26.78800
C  44.62000 15.55900 27.41700
N  47.13000 17.60100 31.68100
C  46.25600 17.17600 32.61000
C  46.64800 17.82000 33.94600
C  47.72600 18.90400 33.53800
C  48.07200 18.46000 32.17600
C  47.26500 20.38500 33.67300
C  47.13300 16.70100 34.95100
C  46.38400 16.62500 36.28600
H  46.09900 17.98900 36.92400
N  48.79400 18.26700 29.17300
C  49.52700 18.89600 30.13600
C  50.73900 19.40400 29.55800
C  50.69400 19.09400 28.15300
C  49.33000 18.43900 27.95700
C  51.87000 19.94300 30.31600
C  51.67400 19.39800 27.04600
O  51.47800 18.94800 25.89200
C  52.92000 20.18600 27.32500
N  46.54200 16.99100 27.34300
C  47.51300 17.38800 26.47700
C  47.16000 16.89200 25.07400
C  46.02500 15.80600 25.35700
C  45.76800 16.06900 26.80000
C  46.94200 18.04800 24.01900
C  46.41300 14.27100 25.11400
C  45.31100 13.42200 24.39900
N  45.17400 16.34600 29.66100
C  44.29500 15.70200 28.77400
C  43.21200 15.19300 29.51900
C  43.44700 15.46500 30.80400
C  44.71700 16.06100 30.87800
C  42.08000 14.32900 29.05000
C  42.91600 15.30000 32.15000
O  41.80600 14.89700 32.55800
C  43.98500 15.97400 33.10200
C  43.30600 17.15900 33.71400
O  42.90400 18.18500 33.10100
O  43.07400 16.89800 35.01200
C  42.47400 17.99100 35.70900
H  49.66100 19.67400 32.12200
H  49.18600 18.22900 25.84100
H  43.87800 15.00100 26.84200
H  45.73800 18.24100 34.37400
H  48.57600 18.73600 34.19800
H  46.83000 20.69200 32.72200
H  48.17600 20.95800 33.84200
H  46.56500 20.53000 34.49600
H  48.16900 16.95100 35.17900
H  47.18400 15.82200 34.30900
H  47.01400 16.14200 37.03300
H  45.58100 15.88900 36.23500
H  51.55100 20.36200 31.27000
H  52.43200 20.73600 29.82500
H  52.50900 19.06900 30.44600
H  53.40200 19.70400 28.17600
H  52.65900 21.22400 27.52900
H  53.50500 20.18000 26.40500
H  48.05600 16.33400 24.80200
H  45.12800 16.06600 24.79400
H  45.92000 18.18200 23.66400
H  47.58500 17.76700 23.18500
H  47.14400 19.00800 24.49500
H  46.68700 13.85400 26.08300
H  47.35800 14.27000 24.57000
H  45.71100 13.17100 23.41600
H  44.35000 13.92900 24.30600
H  45.06600 12.50600 24.93700
H  41.33300 15.01900 28.65800
H  41.66000 13.78300 29.89500
H  42.47900 13.70200 28.25200
H  44.21100 15.27300 33.90500
H  41.45700 18.09600 35.33300
H  43.17200 18.82200 35.61000
H  42.56700 17.85200 36.78700
Mg 30.31600 57.41900 39.52000
C  27.81500 55.36000 38.40800
C  32.70100 55.08200 38.78800
C  32.67300 59.84700 39.89700
C  27.80700 60.11200 39.84400
N  30.23700 55.58000 38.47800
C  29.09400 54.78700 38.31500
C  29.42900 53.29500 38.09800
C  30.86900 53.24400 38.59000
C  31.32100 54.72000 38.62400
C  31.15600 52.38000 39.85800
C  29.04100 52.74500 36.73100
C  29.40300 53.59500 35.51600
H  28.17800 54.01300 34.52800
N  32.44400 57.43700 39.38700
C  33.22000 56.37100 39.05400
C  34.58300 56.85900 39.05900
C  34.64400 58.21900 39.32400
C  33.16900 58.52500 39.56800
C  35.73500 56.07700 38.57700
C  35.90900 59.06000 39.29900
O  36.97600 58.59600 38.98000
C  35.89600 60.46100 39.59700
N  30.23800 59.64500 39.77900
C  31.37400 60.33100 40.02100
C  31.06300 61.80800 40.35400
C  29.47800 61.93500 40.15000
C  29.13700 60.45600 39.93500
C  31.41700 62.22500 41.77900
C  28.92700 62.71100 38.93700
C  27.93800 63.85500 39.16600
N  28.19100 57.72700 39.30200
C  27.34900 58.81100 39.44900
C  25.99000 58.37300 39.02900
C  26.12800 57.00800 38.74200
C  27.48300 56.74800 38.86100
C  24.77800 59.23600 38.78900
C  25.40300 55.82500 38.38700
O  24.20800 55.69500 38.10500
C  26.49700 54.66000 38.30200
C  26.22500 53.70800 39.45300
O  26.82300 53.54900 40.53400
O  25.16500 52.94900 39.00500
C  24.68800 51.97600 39.97500
H  33.39300 54.24900 38.92900
H  33.35000 60.67200 40.12800
H  27.06400 60.90700 39.93500
H  28.76600 52.72500 38.74700
H  31.50100 52.87300 37.78300
H  30.61500 51.44700 39.69800
H  30.73800 52.93600 40.69800
H  32.21800 52.14100 39.90000
H  27.95200 52.72000 36.75700
H  29.52900 51.77400 36.64600
H  30.17700 53.05700 34.96900
H  29.85200 54.53200 35.84300
H  36.49800 56.60500 38.00600
H  35.31600 55.27700 37.96700
H  36.16700 55.55100 39.42900
H  35.26600 61.01600 38.90200
H  36.91700 60.83800 39.53100
H  35.58700 60.61100 40.63100
H  31.63700 62.43200 39.66800
H  29.07400 62.24800 41.11200
H  32.41300 61.86400 42.03600
H  30.70800 61.91000 42.54500
H  31.53800 63.30500 41.86900
H  28.54100 62.03500 38.17400
H  29.81300 63.13800 38.46900
H  27.06200 63.61600 38.56400
H  28.30100 64.87900 39.07200
H  27.54500 63.76200 40.17900
H  24.58800 59.68600 39.76400
H  23.85400 58.67000 38.66700
H  24.81200 60.00800 38.02100
H  26.30100 54.13700 37.36700
H  25.53400 51.44500 40.41100
H  24.17500 51.15100 39.48000
H  24.04000 52.41500 40.73300

