158

Mg 39.99700 40.74400 26.79300
C  39.59100 43.03500 29.27300
C  41.18500 38.45100 29.22800
C  40.70700 38.55600 24.29900
C  39.09600 43.10100 24.37800
N  40.26300 40.73200 28.96900
C  39.73700 41.70800 29.78100
C  39.68200 41.19800 31.17700
C  40.44100 39.85100 31.14900
C  40.67300 39.66100 29.66200
C  41.83200 39.71100 31.83200
C  38.29100 41.19400 32.05100
C  38.49200 42.05500 33.37700
H  37.82800 41.48900 34.60900
N  40.76900 38.86000 26.81400
C  41.24500 38.09900 27.85500
C  41.72600 36.79300 27.47500
C  41.55100 36.80400 26.06000
C  40.90800 38.10400 25.67200
C  42.35600 35.72100 28.45400
C  41.73200 35.61900 25.05800
O  41.30600 35.70300 23.88700
C  42.36200 34.41400 25.46500
N  39.95000 40.77400 24.64200
C  40.19700 39.74300 23.83700
C  40.05100 40.07300 22.31800
C  39.26800 41.44300 22.49000
C  39.40400 41.83700 23.94800
C  41.47300 40.18200 21.49500
C  37.81600 41.31800 21.95500
C  36.83900 40.67800 22.94500
N  39.49900 42.66500 26.72800
C  39.21500 43.57100 25.68500
C  39.05100 44.91900 26.23400
C  39.23200 44.75200 27.62100
C  39.42100 43.33900 27.88200
C  38.81900 46.19200 25.49100
C  39.15800 45.45300 28.82300
O  38.88200 46.63100 29.04600
C  39.35700 44.31700 30.02400
C  40.55000 44.87000 30.86000
O  41.73000 44.82500 30.53600
O  40.08300 45.13000 32.05100
C  40.88700 45.68200 33.09500
H  41.49500 37.72000 29.97800
H  41.14000 37.92300 23.52100
H  38.76300 43.86000 23.66700
H  40.34900 41.92500 31.64100
H  39.74200 39.06800 31.44200
H  41.86400 40.42800 32.65100
H  42.69300 39.88800 31.18800
H  41.97500 38.74600 32.31900
H  37.96700 40.17400 32.25900
H  37.54700 41.61400 31.37400
H  38.05900 43.02200 33.12000
H  39.56900 42.08400 33.54600
H  41.88300 34.75500 28.28000
H  42.12900 35.90400 29.50500
H  43.42800 35.64700 28.27000
H  42.61300 33.72200 24.66100
H  41.65400 33.76500 25.98100
H  43.26700 34.52600 26.06100
H  39.51100 39.24100 21.86600
H  39.75700 42.26600 21.96900
H  41.60400 41.23500 21.24400
H  41.40000 39.69000 20.52500
H  42.39200 39.92100 22.01800
H  37.79000 40.73900 21.03200
H  37.51800 42.29400 21.57200
H  37.15900 40.37600 23.94200
H  36.39000 39.79200 22.49700
H  36.02300 41.39000 23.06900
H  37.73900 46.25300 25.35700
H  39.33100 46.20700 24.52900
H  39.12300 47.01600 26.13600
H  38.45100 44.11400 30.59400
H  41.91000 45.84700 32.75700
H  40.87700 44.79500 33.72700
H  40.38400 46.56300 33.49200
Mg -11.01100 17.19700 41.24600
C  -7.47300 16.75900 41.60400
C  -10.30600 20.43800 40.67600
C  -14.11400 17.50500 40.47400
C  -11.26300 13.59000 41.44900
N  -9.10600 18.44300 41.09900
C  -7.80900 18.12600 41.34800
C  -6.84800 19.35500 41.21000
C  -7.86000 20.51900 41.44400
C  -9.20100 19.78500 41.01100
C  -7.95100 21.01500 42.93900
C  -6.15100 19.42700 39.78500
C  -4.68700 19.28700 39.83700
H  -4.10600 18.47200 38.68100
N  -12.09100 18.73100 40.51700
C  -11.60300 19.99000 40.38100
C  -12.71800 20.79100 39.95900
C  -13.90400 20.05900 39.86800
C  -13.44400 18.72800 40.31300
C  -12.54600 22.26100 39.67200
C  -15.29100 20.47100 39.37100
O  -15.55500 21.61000 38.97200
C  -16.47200 19.52200 39.47900
N  -12.34900 15.68400 40.75600
C  -13.63500 16.22800 40.80100
C  -14.61700 15.07900 40.90000
C  -13.79500 13.80900 41.20900
C  -12.34700 14.34700 41.15500
C  -15.81100 15.33800 41.81800
C  -14.01700 12.61000 40.18400
C  -14.70500 11.31200 40.67700
N  -9.73700 15.48900 41.61800
C  -10.01200 14.14200 41.64100
C  -8.77100 13.44300 41.93200
C  -7.68900 14.37400 41.96000
C  -8.34100 15.61800 41.73700
C  -8.75700 11.85900 42.19200
C  -6.28500 14.63700 42.17100
O  -5.37200 13.89000 42.48300
C  -6.06300 16.18200 41.89200
C  -5.36600 16.71200 43.13800
O  -4.14900 16.98700 43.21500
O  -6.18100 16.72800 44.26600
C  -5.61700 16.92500 45.58300
H  -10.11700 21.51100 40.76200
H  -15.18400 17.45100 40.26400
H  -11.56700 12.55000 41.59000
H  -6.17000 19.18800 42.04700
H  -7.46300 21.33300 40.83700
H  -7.38100 20.25900 43.48000
H  -8.96700 21.15700 43.30700
H  -7.43900 21.96000 43.11500
H  -6.25000 20.44900 39.42200
H  -6.49900 18.75300 39.00200
H  -4.32000 18.81100 40.74500
H  -4.09400 20.19600 39.93500
H  -12.28000 22.30100 38.61500
H  -11.75500 22.72700 40.25900
H  -13.50900 22.75300 39.80800
H  -16.31000 18.61200 38.90200
H  -17.31100 20.03500 39.00800
H  -16.55100 19.33400 40.55000
H  -15.17000 15.13200 39.96200
H  -13.96900 13.52100 42.24600
H  -16.24000 14.33600 41.82000
H  -16.48600 16.05800 41.35700
H  -15.54000 15.85700 42.73800
H  -13.07500 12.26600 39.75700
H  -14.56700 13.01700 39.33500
H  -14.70000 11.34600 41.76700
H  -14.10600 10.42700 40.46400
H  -15.77100 11.28000 40.45200
H  -8.35400 11.29400 41.35100
H  -9.71700 11.45900 42.51600
H  -8.04100 11.67600 42.99300
H  -5.29200 16.25400 41.12500
H  -6.41000 16.91300 46.33200
H  -5.27300 17.95900 45.57800
H  -4.84600 16.16800 45.72600

