158

Mg 8.96500 3.66400 27.84500
C  10.31600 2.08700 30.78200
C  7.31300 5.72600 29.84400
C  7.53900 4.76800 25.00000
C  10.31800 1.00000 26.03800
N  8.71100 3.77500 30.09000
C  9.48100 3.13100 31.09900
C  9.16000 3.75000 32.45000
C  8.13900 4.86800 32.11400
C  7.93800 4.72200 30.60800
C  6.73800 4.82700 32.76500
C  10.44700 4.36700 33.09700
C  10.32400 5.04100 34.49200
H  10.98500 4.23400 35.61500
N  7.68000 5.13800 27.41100
C  7.14400 5.87400 28.40000
C  6.32200 6.86700 27.73600
C  6.40300 6.67100 26.30000
C  7.22300 5.50400 26.15100
C  5.64700 7.91900 28.51600
C  5.75900 7.43000 25.21100
O  5.90000 7.12000 24.03700
C  4.85600 8.53700 25.55500
N  9.05000 2.96800 25.84100
C  8.43500 3.69300 24.82400
C  8.78800 3.15800 23.43900
C  9.70800 1.97200 23.77200
C  9.63200 1.89500 25.29500
C  7.63700 2.73100 22.48700
C  11.10400 1.91200 23.17200
C  11.26900 1.16600 21.86100
N  10.16300 1.90100 28.21100
C  10.57900 0.91200 27.38700
C  11.31400 -0.03600 28.06000
C  11.30700 0.42000 29.36900
C  10.49600 1.52600 29.44100
C  11.98300 -1.30400 27.47800
C  11.65200 0.08500 30.77100
O  12.29400 -0.87500 31.24700
C  11.18500 1.23500 31.66500
C  10.48600 0.71300 32.80100
O  9.46200 0.04700 32.83900
O  11.23600 0.85700 33.89100
C  10.96800 0.17300 35.16300
H  6.70300 6.48400 30.34100
H  7.25500 5.15500 24.01900
H  10.77500 0.20600 25.44400
H  8.84200 2.95000 33.11800
H  8.61000 5.81300 32.38400
H  6.84200 4.55100 33.81500
H  6.18100 4.13200 32.13800
H  6.30400 5.82200 32.66500
H  10.92000 5.09600 32.43900
H  11.15900 3.54800 33.20100
H  9.25600 4.96900 34.69800
H  10.64800 6.07700 34.58600
H  5.74600 8.86000 27.97600
H  5.84600 8.10800 29.57100
H  4.59900 7.62300 28.58100
H  4.55200 9.07900 24.65900
H  5.60100 9.25300 25.90100
H  4.03100 8.27200 26.21600
H  9.26200 4.06400 23.06300
H  9.24300 0.99000 23.68600
H  7.38800 3.61400 21.89800
H  6.74600 2.49800 23.07100
H  7.85900 1.89100 21.82900
H  11.83800 1.59300 23.91200
H  11.35700 2.94600 22.93700
H  11.73600 1.78200 21.09200
H  10.27200 1.03100 21.44100
H  11.83900 0.24300 21.96700
H  13.01300 -0.98100 27.32600
H  11.48600 -1.53000 26.53400
H  11.98400 -2.22400 28.06200
H  12.12600 1.68500 31.97900
H  9.93700 -0.17600 35.22400
H  11.25100 0.73900 36.05100
H  11.60300 -0.70900 35.24500
Mg 24.52200 -8.08600 47.95600
C  26.89800 -5.71000 46.95600
C  22.33300 -6.61900 45.63600
C  22.48900 -10.77900 48.09600
C  26.95100 -9.77200 49.81500
N  24.61800 -6.19000 46.61200
C  25.67700 -5.37300 46.29500
C  25.46400 -4.45500 45.09200
C  23.92200 -4.68600 44.86000
C  23.51600 -5.88000 45.80400
C  22.92700 -3.53800 45.01500
C  26.36700 -4.89400 43.85300
C  26.83900 -3.70100 42.90500
H  26.19800 -3.59700 41.51400
N  22.64000 -8.64900 46.97200
C  21.88800 -7.87000 46.10100
C  20.70900 -8.61900 45.77700
C  20.71900 -9.80800 46.49200
C  22.00700 -9.76900 47.20600
C  19.60600 -8.09400 44.79100
C  19.65300 -10.92000 46.53500
O  18.60000 -10.74200 46.01000
C  19.83200 -12.14900 47.29800
N  24.65300 -9.96100 48.91600
C  23.62800 -10.87000 48.87500
C  23.93500 -12.09000 49.75900
C  25.28200 -11.71500 50.49900
C  25.65400 -10.44200 49.71500
C  22.76900 -12.34500 50.77400
C  26.35800 -12.89700 50.41700
C  27.48100 -12.85500 51.50100
N  26.46900 -7.81400 48.42500
C  27.33600 -8.54000 49.16200
C  28.68200 -7.97900 49.17400
C  28.48900 -6.82200 48.40000
C  27.15200 -6.78900 47.90300
C  29.96200 -8.48300 49.82400
C  29.14600 -5.63100 47.87500
O  30.28700 -5.24200 48.03600
C  28.20800 -4.94600 46.85100
C  28.06000 -3.47600 47.16800
O  27.56800 -2.90500 48.17100
O  28.72600 -2.77800 46.20000
C  28.54500 -1.28400 46.24800
H  21.70100 -6.22200 44.83900
H  21.92400 -11.67600 48.36000
H  27.70300 -10.26600 50.43400
H  25.67400 -3.44100 45.43200
H  23.82600 -5.05300 43.83800
H  22.56500 -3.29700 44.01500
H  23.51300 -2.66100 45.29200
H  22.10400 -3.73500 45.70100
H  25.76800 -5.62200 43.30600
H  27.08300 -5.55800 44.33700
H  27.88100 -3.94700 42.69800
H  26.94000 -2.79100 43.49600
H  19.88100 -7.27100 44.13100
H  18.75800 -7.70000 45.35000
H  19.16100 -8.97300 44.32400
H  20.70800 -12.70100 46.95800
H  19.01800 -12.87100 47.23500
H  19.83900 -11.95300 48.37000
H  23.93600 -12.84700 48.97500
H  25.22800 -11.40200 51.54100
H  22.56200 -13.41300 50.83000
H  21.85900 -11.77800 50.57700
H  23.22800 -12.13800 51.74100
H  26.87600 -12.75600 49.46800
H  25.87400 -13.87400 50.41800
H  27.28100 -12.16100 52.31800
H  28.44300 -12.67300 51.02300
H  27.42700 -13.88300 51.85900
H  29.81500 -8.87600 50.83000
H  30.69700 -7.68100 49.89700
H  30.29900 -9.33600 49.23500
H  28.66900 -5.08600 45.87400
H  29.17300 -0.79600 46.99300
H  27.51500 -0.96700 46.41000
H  28.84300 -0.95700 45.25200

