158

Mg 43.41000 3.84900 47.23000
C  41.35400 6.62900 46.73300
C  40.82100 1.79900 46.62200
C  45.48400 1.23100 47.26700
C  46.06300 5.95200 47.65000
N  41.28100 4.21500 46.68700
C  40.64800 5.40800 46.57500
C  39.18800 5.19300 46.29500
C  39.07600 3.62100 46.42000
C  40.44700 3.17100 46.60900
C  38.17400 3.04700 47.57300
C  38.72900 5.84500 44.93600
C  37.35900 5.28300 44.52100
H  37.52200 4.62300 43.19900
N  43.17900 1.77000 46.82200
C  41.98700 1.08900 46.61100
C  42.21900 -0.33600 46.41900
C  43.63800 -0.52000 46.61100
C  44.17500 0.83800 46.93900
C  41.09600 -1.32000 45.99400
C  44.27900 -1.84100 46.56900
O  43.62800 -2.84800 46.35400
C  45.77500 -2.06200 46.75500
N  45.50800 3.59900 47.20700
C  46.05300 2.43000 47.41500
C  47.59300 2.58100 47.54100
C  47.79400 4.09900 47.56100
C  46.34300 4.57700 47.49600
C  48.28800 1.72800 48.65900
C  48.69600 4.60900 46.40300
C  50.17900 4.44500 46.61900
N  43.64100 5.87600 47.30000
C  44.82000 6.61300 47.38100
C  44.58000 8.03100 47.40200
C  43.21300 8.07600 47.21000
C  42.69900 6.73200 47.02700
C  45.53100 9.14900 47.66500
C  42.07000 9.01200 46.98400
O  42.08000 10.23800 47.06100
C  40.75300 8.07500 46.86700
C  39.98300 8.34900 48.09500
O  39.83100 7.60000 49.06900
O  39.24700 9.45700 47.76500
C  38.05900 9.60000 48.58000
H  39.97900 1.10700 46.55600
H  46.17700 0.40500 47.44200
H  46.98700 6.50400 47.83400
H  38.65800 5.68100 47.11300
H  38.71600 3.13000 45.51700
H  38.70200 2.78700 48.49000
H  37.79100 2.05000 47.36000
H  37.34600 3.73200 47.75900
H  39.53700 5.64500 44.23200
H  38.50900 6.90700 45.04100
H  36.63600 6.09700 44.45700
H  36.97200 4.55000 45.22900
H  40.86900 -2.11800 46.70100
H  41.34400 -1.93700 45.13000
H  40.09600 -0.91200 45.84400
H  46.19900 -1.31800 46.07900
H  46.10800 -3.08600 46.58600
H  45.99400 -1.70500 47.76100
H  47.92800 2.15900 46.59400
H  48.22300 4.31200 48.54100
H  47.62100 1.23300 49.36400
H  49.07500 2.32000 49.12600
H  48.85600 0.93800 48.16600
H  48.54800 5.68800 46.44500
H  48.51500 4.25800 45.38700
H  50.67300 5.38800 46.38600
H  50.66700 3.62500 46.09200
H  50.37700 4.17300 47.65500
H  46.44400 8.90500 47.12200
H  45.60900 9.22400 48.74900
H  45.04100 10.00100 47.19200
H  40.12600 8.38100 46.02900
H  38.17300 10.45100 49.25100
H  37.78500 8.71500 49.15300
H  37.21600 9.82900 47.92800
Mg 47.75400 45.58700 42.52000
C  44.34500 44.85700 42.28300
C  48.40900 42.32600 42.18100
C  50.95900 46.45700 42.15400
C  46.81200 49.04500 42.47800
N  46.51100 43.83300 42.06400
C  45.11100 43.70700 42.11600
C  44.66800 42.27900 42.14200
C  45.99900 41.53100 42.33000
C  47.04700 42.58200 42.13300
C  46.16500 40.59200 43.62300
C  43.75700 41.75900 40.97700
C  43.86100 42.56600 39.67400
H  43.52900 41.89400 38.33000
N  49.45700 44.58800 42.29200
C  49.53200 43.17700 42.20100
C  50.90200 42.86900 42.09100
C  51.72900 43.95600 42.16800
C  50.70800 45.03600 42.17200
C  51.30600 41.42200 42.00000
C  53.30500 44.03100 42.12600
O  53.99400 42.98500 41.97900
C  54.03500 45.22900 42.34300
N  48.76200 47.48500 42.13500
C  50.09500 47.56200 42.28000
C  50.48600 49.06700 42.33000
C  49.28200 49.87200 42.32900
C  48.23000 48.71600 42.34700
C  51.42700 49.50300 43.50000
C  49.14000 50.87200 41.11000
C  48.71600 52.35600 41.39700
N  45.98100 46.73000 42.36600
C  45.72900 48.13600 42.54000
C  44.34900 48.43900 42.57100
C  43.78600 47.13200 42.58200
C  44.77600 46.18600 42.33400
C  43.63300 49.74500 42.69600
C  42.49400 46.43800 42.54100
O  41.37900 46.90000 42.58000
C  42.82100 44.89400 42.44700
C  42.26000 44.15000 43.62500
O  41.39800 43.31000 43.62500
O  42.88100 44.60100 44.75300
C  42.41900 44.03300 45.99400
H  48.69600 41.27300 42.14500
H  52.00900 46.71100 41.99300
H  46.49000 50.08800 42.51100
H  44.12900 42.02200 43.05400
H  46.18400 40.91500 41.45000
H  47.05800 39.97400 43.52300
H  45.29200 39.94000 43.65600
H  46.29100 41.16800 44.53900
H  42.71200 41.85300 41.27300
H  44.02700 40.72700 40.75500
H  44.88100 42.92000 39.52400
H  43.22500 43.44000 39.81300
H  50.92200 40.90200 42.87800
H  52.37600 41.21900 41.96400
H  50.93300 41.05500 41.04400
H  54.00000 45.90000 41.48500
H  55.07100 44.92100 42.48500
H  53.76300 45.73100 43.27100
H  51.02600 49.20800 41.39400
H  49.07700 50.42300 43.24700
H  52.28200 50.06100 43.12000
H  51.65600 48.56500 44.00700
H  50.86800 50.14300 44.18300
H  48.35500 50.43000 40.49600
H  49.99500 50.66800 40.46500
H  49.33900 53.01800 40.79500
H  48.94400 52.62500 42.42800
H  47.66700 52.53900 41.16500
H  44.24700 50.55900 43.08200
H  42.69200 49.64800 43.23700
H  43.41100 49.97700 41.65400
H  42.25400 44.58400 41.56900
H  41.34300 43.87900 45.91900
H  42.74800 44.64100 46.83700
H  42.98800 43.10400 46.02200

