158

Mg 1.79900 -1.25100 44.53000
C  4.95500 -0.04000 43.52800
C  0.42400 1.49300 42.95500
C  -1.29600 -2.68400 44.70900
C  3.20900 -4.12900 45.69600
N  2.63500 0.41100 43.33500
C  3.94300 0.71900 43.08800
C  4.06500 2.07000 42.43800
C  2.67700 2.70500 42.73600
C  1.83000 1.48700 43.01700
C  2.72100 3.77600 43.87100
C  4.48600 2.02900 41.00700
C  5.93800 2.50700 40.72100
H  6.86200 1.75900 39.77100
N  -0.20000 -0.64900 43.82400
C  -0.54300 0.50500 43.26500
C  -1.99300 0.54000 42.99700
C  -2.46200 -0.63100 43.66100
C  -1.32200 -1.38000 44.13200
C  -2.68900 1.70000 42.28900
C  -3.99800 -0.89200 43.77900
O  -4.82100 -0.04400 43.44100
C  -4.50800 -2.03100 44.48700
N  1.06100 -3.23000 44.98600
C  -0.28800 -3.57700 45.12800
C  -0.46200 -5.02800 45.70200
C  0.99100 -5.32100 46.11000
C  1.82900 -4.20700 45.53400
C  -1.53700 -5.19400 46.74900
C  1.51900 -6.72800 45.70900
C  1.58600 -7.77300 46.83300
N  3.73400 -1.95200 44.63700
C  4.12400 -3.09400 45.25400
C  5.63100 -3.08300 45.35400
C  6.02900 -1.84200 44.70400
C  4.81900 -1.28800 44.25300
C  6.51600 -4.24800 45.88100
C  7.11700 -1.02700 44.27700
O  8.33100 -1.16100 44.51100
C  6.46800 0.16700 43.46600
C  6.86800 1.41400 44.23600
O  6.44000 1.74800 45.31000
O  7.81300 2.08300 43.59000
C  8.21200 3.40200 44.25000
H  0.08000 2.44800 42.55300
H  -2.25100 -3.20700 44.80000
H  3.60600 -5.03500 46.15800
H  4.81000 2.67100 42.96000
H  2.22000 3.16400 41.86000
H  3.68000 3.65000 44.37500
H  1.94500 3.55200 44.60400
H  2.73600 4.67400 43.25300
H  3.85700 2.65600 40.37500
H  4.28900 0.99100 40.73600
H  6.56400 2.62700 41.60600
H  5.92100 3.46800 40.20800
H  -3.34800 1.34100 41.49800
H  -2.03600 2.43900 41.82400
H  -3.32300 2.23100 42.99900
H  -5.59500 -1.96500 44.53600
H  -4.21600 -2.01800 45.53700
H  -4.27700 -2.93800 43.93000
H  -0.83200 -5.57400 44.83400
H  1.05900 -5.26200 47.19600
H  -2.12800 -6.04700 46.41400
H  -2.19200 -4.32500 46.80800
H  -1.05200 -5.35300 47.71200
H  2.51800 -6.64900 45.28100
H  0.80800 -7.07500 44.95900
H  2.65000 -7.90500 47.03200
H  1.12200 -8.70800 46.52100
H  1.07300 -7.35600 47.70000
H  7.12100 -4.67000 45.07800
H  5.84700 -5.04900 46.19600
H  7.11500 -3.77000 46.65600
H  6.85100 0.21600 42.44600
H  9.10700 3.90100 43.87700
H  8.35600 3.28000 45.32300
H  7.39000 4.11400 44.18600
Mg 5.32600 54.12900 41.38000
C  5.00800 50.69900 40.88500
C  8.73400 53.79500 40.41000
C  5.76900 57.39400 41.54600
C  2.00600 54.22700 42.07000
N  6.61400 52.55200 40.48800
C  6.18900 51.25100 40.40100
C  7.38800 50.38100 39.90500
C  8.58800 51.32200 40.18400
C  7.92500 52.62600 40.37500
C  9.61200 50.91200 41.32500
C  7.27800 49.84600 38.45300
C  6.52000 50.84500 37.41700
H  5.83600 50.20000 36.16500
N  7.03100 55.43300 41.01800
C  8.30100 55.13800 40.65100
C  9.07800 56.35500 40.64000
C  8.29400 57.45300 41.04900
C  6.97000 56.77900 41.28100
C  10.54900 56.41500 40.25400
C  8.70600 58.94200 41.15200
O  9.78800 59.36200 40.68400
C  7.77300 59.97000 41.79700
N  4.07200 55.67100 41.71500
C  4.48300 56.90300 41.87000
C  3.20600 57.84700 41.96600
C  2.07900 56.82000 42.12800
C  2.76000 55.48000 41.90800
C  3.23000 58.82500 43.08600
C  0.96500 56.94700 41.16100
C  0.45200 58.32900 40.70400
N  3.79000 52.76300 41.52800
C  2.51500 52.91300 41.94500
C  1.89600 51.60400 42.01900
C  2.85700 50.73600 41.65300
C  3.94200 51.44600 41.36600
C  0.42800 51.35800 42.51500
C  3.08900 49.29100 41.54300
O  2.34700 48.30000 41.67800
C  4.57500 49.25800 41.04500
C  4.44900 48.55000 39.79000
O  4.09100 49.07500 38.74400
O  4.72000 47.24400 39.95400
C  4.65500 46.33200 38.77400
H  9.82000 53.68400 40.36700
H  5.71300 58.48400 41.50500
H  0.93200 54.36700 42.20600
H  7.46400 49.53400 40.58700
H  9.14800 51.49700 39.26600
H  9.51600 49.84600 41.53300
H  9.45100 51.47100 42.24700
H  10.62500 51.16300 41.00900
H  6.76200 48.88600 38.42000
H  8.29500 49.87000 38.06200
H  7.21900 51.58500 37.02900
H  5.71000 51.36100 37.93300
H  10.65000 56.82000 39.24700
H  10.96300 55.41000 40.16700
H  11.19600 56.99200 40.91400
H  8.39200 60.82100 42.08000
H  7.49200 59.48000 42.72900
H  6.94000 60.10400 41.10700
H  3.14100 58.38300 41.01900
H  1.62000 56.83800 43.11600
H  3.14100 59.80000 42.60800
H  4.21200 58.79800 43.55900
H  2.47600 58.72400 43.86700
H  0.14900 56.47100 41.70500
H  1.23500 56.34900 40.29100
H  0.85800 58.46000 39.70100
H  0.83600 59.11700 41.35100
H  -0.63700 58.28700 40.70600
H  0.49800 51.66200 43.55900
H  0.20100 50.31900 42.27500
H  -0.16000 52.09400 41.96500
H  5.19500 48.68600 41.73600
H  5.04900 46.71500 37.83300
H  3.66600 45.93100 38.55400
H  5.42200 45.56500 38.88500

