158

Mg 23.80700 -6.47700 46.62200
C  26.50000 -4.42100 45.68200
C  22.02500 -4.91500 44.18000
C  21.45400 -8.65400 47.35700
C  26.06300 -8.25700 48.57800
N  24.30600 -4.94700 44.99500
C  25.38000 -4.10800 44.94100
C  25.29300 -3.00900 43.78000
C  23.78800 -3.16200 43.34200
C  23.31700 -4.41000 44.21900
C  22.90400 -1.89400 43.48100
C  26.27400 -3.17800 42.59800
C  26.97700 -1.84500 42.23300
H  27.03200 -1.34700 40.73600
N  21.99100 -6.78900 45.80600
C  21.36100 -5.96400 44.88300
C  19.96800 -6.40800 44.76900
C  19.72100 -7.39800 45.71500
C  21.08300 -7.70800 46.36600
C  18.99300 -5.81600 43.75000
C  18.45800 -8.04900 45.96100
O  17.43200 -7.73400 45.32700
C  18.24300 -9.12700 47.01100
N  23.82700 -8.19200 47.73500
C  22.67100 -8.84000 47.93000
C  22.91300 -10.12200 48.81700
C  24.34300 -9.98400 49.29000
C  24.80400 -8.76700 48.47000
C  21.89800 -10.11000 50.00300
C  25.20500 -11.23500 49.04100
C  25.72600 -11.63800 47.69200
N  25.87500 -6.21200 47.25900
C  26.67900 -7.13100 48.00100
C  28.01800 -6.55300 48.15700
C  28.00300 -5.42400 47.34500
C  26.67800 -5.35800 46.73400
C  29.22800 -7.25000 48.85000
C  28.78600 -4.36500 46.74600
O  30.02700 -4.19100 46.81700
C  27.86500 -3.72900 45.65100
C  27.91100 -2.28900 45.80500
O  28.65200 -1.51300 45.26400
O  26.88500 -1.87900 46.55100
C  26.66700 -0.44000 46.69800
H  21.47800 -4.25000 43.50800
H  20.69100 -9.36400 47.68100
H  26.71000 -8.82500 49.25000
H  25.52500 -2.08500 44.30800
H  23.85600 -3.46700 42.29800
H  22.53700 -1.51900 42.52500
H  23.37100 -1.00000 43.89400
H  22.06400 -2.17300 44.11700
H  25.86900 -3.63200 41.69300
H  27.05800 -3.86700 42.90900
H  27.99200 -1.99300 42.60100
H  26.54100 -1.04100 42.82500
H  18.84300 -6.46200 42.88500
H  19.30500 -4.81100 43.46900
H  18.02800 -5.74100 44.25100
H  17.19000 -9.39500 47.09800
H  18.61400 -8.74600 47.96300
H  18.78000 -10.03800 46.74700
H  22.82500 -10.95300 48.11800
H  24.36500 -9.75300 50.35500
H  22.18900 -10.23800 51.04600
H  21.22200 -10.95600 49.87600
H  21.42600 -9.12900 49.95200
H  24.66700 -12.09200 49.44400
H  25.97300 -11.12900 49.80700
H  26.73500 -12.02600 47.83200
H  25.88900 -10.68700 47.18500
H  25.12000 -12.38500 47.17800
H  28.98900 -8.31300 48.80800
H  29.29500 -6.92300 49.88700
H  30.18700 -7.01200 48.38900
H  28.42400 -3.77600 44.71600
H  27.42400 0.08300 47.28200
H  25.78800 -0.20900 47.30000
H  26.53300 0.06400 45.74100
Mg 26.77900 49.94000 27.42400
C  24.80300 51.04500 30.10800
C  29.05200 48.93800 29.71500
C  28.82600 49.56700 24.76000
C  24.47800 51.53200 25.33400
N  26.92900 50.14400 29.69400
C  25.93000 50.36800 30.60600
C  26.37700 50.04600 32.05500
C  27.80200 49.54800 31.81900
C  27.98400 49.59300 30.31800
C  28.91000 50.34900 32.56000
C  25.41400 48.97700 32.72500
C  24.64300 49.54700 33.96500
H  24.69000 48.71800 35.25200
N  28.58000 49.21700 27.25300
C  29.39400 48.86300 28.35100
C  30.68900 48.42100 27.81600
C  30.74800 48.68300 26.41600
C  29.31200 49.21300 26.08800
C  31.78700 47.83500 28.66200
C  31.97300 48.55700 25.40100
O  31.81000 48.83400 24.23600
C  33.32000 48.15200 25.82200
N  26.52700 50.28500 25.24600
C  27.52900 50.01500 24.38000
C  27.01100 50.18500 22.96700
C  25.50500 50.66100 23.20600
C  25.43000 50.88200 24.67700
C  27.83700 51.15100 22.11900
C  24.43800 49.66700 22.72700
C  23.22200 50.40200 21.99000
N  25.05900 51.16500 27.60000
C  24.18600 51.62900 26.70000
C  23.02700 52.21000 27.30400
C  23.20100 52.03500 28.69600
C  24.45200 51.40100 28.77500
C  21.93200 52.94900 26.70600
C  22.68200 52.17500 30.01900
O  21.55400 52.60100 30.29600
C  23.73900 51.64100 30.97500
C  24.25800 52.79900 31.81200
O  25.11100 53.64300 31.46900
O  23.68200 52.74400 33.07700
C  24.30100 53.73300 34.00200
H  29.82900 48.42600 30.28600
H  29.49800 49.36300 23.92400
H  23.71400 51.96500 24.68500
H  26.52500 50.99600 32.56900
H  27.96400 48.52700 32.16600
H  29.62700 50.83700 31.90000
H  29.54700 49.69900 33.15900
H  28.59500 51.13500 33.24600
H  25.88700 48.03000 32.98400
H  24.69400 48.68700 31.96100
H  23.61400 49.76200 33.67700
H  25.28500 50.40100 34.18100
H  32.52100 48.46000 29.17000
H  32.29600 47.09800 28.04000
H  31.27000 47.23000 29.40700
H  33.21600 47.13800 26.20900
H  33.59900 48.83000 26.62900
H  34.10400 48.20500 25.06700
H  26.99500 49.19100 22.52100
H  25.27900 51.61500 22.72900
H  28.73400 51.40500 22.68400
H  27.41600 52.15600 22.12100
H  27.92700 50.74500 21.11200
H  24.00900 49.16700 23.59500
H  24.89500 48.86300 22.15000
H  22.87600 49.95200 21.06000
H  23.33000 51.48100 21.88200
H  22.32500 50.23000 22.58500
H  21.06300 52.54100 27.22200
H  21.85900 52.67000 25.65400
H  22.02700 54.02400 26.85900
H  23.22900 50.98200 31.67700
H  25.35100 53.89300 33.75600
H  24.36900 53.23500 34.96900
H  23.88700 54.72600 34.17200

