158

Mg 54.22400 24.66100 45.18400
C  51.74000 26.80300 43.86900
C  52.37900 21.98000 44.28100
C  57.02100 22.80000 45.38300
C  56.09900 27.51200 45.91600
N  52.29600 24.51700 44.14800
C  51.39500 25.45500 43.77300
C  50.10500 24.83000 43.27500
C  50.25500 23.40800 43.83300
C  51.73100 23.23900 44.14100
C  49.29900 22.97700 45.10200
C  49.94400 24.90500 41.74500
C  48.53600 24.83300 41.11800
H  48.34200 24.61300 39.61100
N  54.70600 22.64000 44.73700
C  53.75400 21.71800 44.48300
C  54.39200 20.38600 44.44300
C  55.72000 20.55000 44.90500
C  55.91600 22.02100 45.00300
C  53.68900 19.16300 43.99500
C  56.75800 19.46600 45.24800
O  56.31800 18.32400 45.43400
C  58.13700 19.61700 45.56300
N  56.19800 25.09400 45.51900
C  57.19900 24.13200 45.63500
C  58.59700 24.73500 45.94000
C  58.27200 26.16500 46.26800
C  56.79600 26.30100 45.77600
C  59.45700 23.96500 46.99000
C  59.28500 27.23700 45.78500
C  59.35600 27.46000 44.21500
N  53.96200 26.81100 45.12500
C  54.77300 27.82300 45.54300
C  54.05800 29.13500 45.49100
C  52.86700 28.71500 44.85700
C  52.89500 27.32500 44.53900
C  54.48600 30.44400 45.96100
C  51.63200 29.24700 44.35400
O  51.12700 30.35900 44.40600
C  50.82400 27.98900 43.73100
C  50.39200 28.31900 42.41500
O  51.11500 28.47500 41.44400
O  49.03000 28.39600 42.41700
C  48.37900 28.89000 41.24600
H  51.71100 21.11700 44.23500
H  57.86100 22.11800 45.53100
H  56.62400 28.44600 46.12600
H  49.23000 25.26800 43.75600
H  50.01600 22.73600 43.01000
H  50.00700 23.05900 45.92600
H  48.86200 21.98300 45.00400
H  48.52100 23.72400 45.25700
H  50.39200 24.02000 41.29300
H  50.30000 25.84900 41.33100
H  48.20000 25.83800 41.37400
H  48.01100 24.03500 41.64400
H  54.22800 18.30500 43.59500
H  52.91700 19.35300 43.24900
H  53.02400 18.83800 44.79500
H  58.71300 18.70500 45.40300
H  58.19000 19.97800 46.59000
H  58.67500 20.22500 44.83500
H  59.03800 24.70900 44.94400
H  58.18600 26.25600 47.35100
H  60.36900 23.65900 46.47600
H  59.05800 23.03500 47.39400
H  59.80400 24.62800 47.78300
H  60.29900 26.87000 45.94200
H  59.26000 28.12700 46.41300
H  60.26000 27.03300 43.78100
H  59.39600 28.49500 43.87300
H  58.56500 26.94100 43.67400
H  54.83500 30.32300 46.98700
H  53.72100 31.21500 45.86900
H  55.33900 30.76600 45.36500
H  49.91400 27.86300 44.31800
H  48.20100 29.96100 41.34200
H  47.36300 28.55500 41.45500
H  48.70700 28.52700 40.27200
Mg 9.82600 47.69400 26.09200
C  8.15800 47.53800 29.22400
C  12.61700 48.71000 27.80200
C  11.32000 47.76700 23.14600
C  6.76900 46.82500 24.53600
N  10.34500 48.00600 28.32100
C  9.49900 47.84400 29.35100
C  10.12800 48.32000 30.68300
C  11.53500 48.86000 30.21800
C  11.50900 48.60500 28.68600
C  11.71600 50.38300 30.59700
C  10.25900 47.18800 31.78200
C  9.87900 47.58000 33.23300
H  10.00600 46.43300 34.26300
N  11.70600 48.27500 25.51000
C  12.68700 48.54100 26.34600
C  13.94600 48.52700 25.62000
C  13.58900 48.34300 24.25500
C  12.16300 48.17000 24.25300
C  15.35700 48.60200 26.25300
C  14.42800 48.07800 22.99900
O  13.95000 48.06800 21.85700
C  15.90000 48.15100 23.10200
N  9.09000 47.57400 24.10000
C  9.95900 47.50100 23.05200
C  9.23100 47.00000 21.76700
C  7.87400 46.52000 22.25900
C  7.88200 46.97400 23.69800
C  9.27600 48.01200 20.53800
C  7.55600 45.01000 22.11600
C  8.61900 44.14800 22.77900
N  7.93700 47.26000 26.72000
C  6.75100 46.94000 25.97300
C  5.62200 46.71500 26.81800
C  6.11000 46.94000 28.10100
C  7.55500 47.19800 28.00200
C  4.26800 46.33500 26.43700
C  5.74000 47.04800 29.47500
O  4.67300 47.04800 30.03200
C  7.08000 47.28600 30.31600
C  7.30700 45.92400 31.01800
O  7.95100 44.97100 30.59000
O  6.51600 45.87300 32.14400
C  6.65900 44.70400 33.03100
H  13.52600 48.98900 28.33900
H  11.72900 47.62400 22.14400
H  5.83300 46.37300 24.20200
H  9.45800 49.06100 31.11900
H  12.33000 48.20600 30.57500
H  12.66200 50.45200 31.13300
H  10.92300 50.76000 31.24400
H  11.81000 51.04200 29.73400
H  11.26200 46.79900 31.95600
H  9.76800 46.25100 31.51900
H  8.82600 47.85200 33.16200
H  10.55700 48.37800 33.53500
H  15.35000 48.86100 27.31200
H  15.96800 49.39400 25.82000
H  15.99100 47.71600 26.22900
H  16.19600 47.41800 23.85300
H  16.25200 49.10400 23.49800
H  16.41900 47.84000 22.19600
H  9.81300 46.16900 21.36600
H  6.97800 46.88800 21.75900
H  9.68700 48.95300 20.90500
H  8.23400 48.32300 20.45700
H  9.59900 47.58100 19.59100
H  7.47700 44.80400 21.04800
H  6.57400 44.85000 22.56100
H  8.22100 43.66100 23.67000
H  9.43800 44.75300 23.16900
H  9.08100 43.47800 22.05400
H  3.74300 47.28400 26.33600
H  3.97700 45.76600 27.32000
H  4.09700 45.75600 25.53000
H  6.97800 48.11900 31.01200
H  5.94300 43.90600 32.83500
H  6.28500 45.03100 34.00100
H  7.70400 44.39900 33.08000

