158

Mg 30.40500 58.08100 40.27900
C  28.11800 56.25400 38.35300
C  32.89100 56.03700 39.06900
C  32.66100 60.38600 41.27900
C  27.87600 60.55300 40.78000
N  30.49900 56.52600 38.75100
C  29.43000 55.79700 38.23600
C  29.87300 54.47900 37.35100
C  31.35700 54.37400 37.88100
C  31.62200 55.77300 38.56100
C  31.68700 53.06300 38.71000
C  29.79100 54.65500 35.79100
C  28.76800 53.72600 35.16900
H  27.70800 54.45600 34.36800
N  32.52600 58.09100 40.28500
C  33.36600 57.12400 39.78700
C  34.77100 57.50400 40.04500
C  34.70500 58.80500 40.70900
C  33.25000 59.15200 40.79200
C  35.96100 56.69400 39.53600
C  35.88600 59.56200 41.25000
O  37.01500 58.99300 41.19500
C  35.83100 60.93000 41.88800
N  30.26400 60.18600 40.96100
C  31.33300 60.86800 41.25700
C  31.02300 62.35100 41.59000
C  29.45200 62.31400 41.64300
C  29.17000 60.95700 41.10100
C  31.76400 62.93200 42.82800
C  28.67900 63.43500 40.82300
C  27.51400 64.10600 41.47100
N  28.34600 58.31500 39.89800
C  27.41500 59.33500 40.23200
C  26.13300 59.00900 39.63300
C  26.29300 57.75100 39.03400
C  27.68300 57.46500 39.09500
C  24.99300 59.85900 39.75400
C  25.62300 56.65200 38.27200
O  24.46500 56.59700 37.92300
C  26.77800 55.66000 37.88300
C  26.46800 54.38500 38.47800
O  26.65800 54.01900 39.61600
O  25.76000 53.62600 37.56500
C  25.09400 52.40900 38.01300
H  33.67500 55.29700 38.89400
H  33.30000 61.23100 41.54300
H  27.11600 61.31500 40.96600
H  29.25800 53.67100 37.74700
H  31.96800 54.25100 36.98700
H  32.30300 52.36600 38.14100
H  30.80800 52.51000 39.04200
H  32.16500 53.43200 39.61700
H  30.76100 54.40900 35.35900
H  29.66400 55.71400 35.56300
H  28.32400 53.04300 35.89300
H  29.30500 52.94500 34.63100
H  36.33000 56.16000 40.41200
H  36.61200 57.38300 38.99900
H  35.68200 55.93500 38.80600
H  35.76100 61.72800 41.14900
H  36.74500 60.99000 42.47900
H  35.03400 60.88300 42.63100
H  31.30900 62.88700 40.68600
H  29.07600 62.33100 42.66600
H  30.99700 62.99600 43.60000
H  32.02800 63.93900 42.50200
H  32.65400 62.43800 43.21700
H  28.46700 62.98400 39.85300
H  29.44300 64.20500 40.71800
H  27.33200 63.82200 42.50800
H  26.55100 63.82300 41.04600
H  27.61300 65.19100 41.50400
H  25.42000 60.83600 39.97900
H  24.34200 59.45900 40.53100
H  24.54200 60.04700 38.77900
H  26.92500 55.48400 36.81800
H  25.81900 51.84000 38.59500
H  24.76200 51.81800 37.15900
H  24.20000 52.61100 38.60300
Mg -12.64400 17.00100 42.32200
C  -9.72700 15.14200 41.83600
C  -10.95800 19.62900 40.98900
C  -15.65900 18.62700 41.88600
C  -14.27700 13.99400 43.08300
N  -10.60400 17.22700 41.26400
C  -9.60600 16.36800 41.26400
C  -8.28900 17.06000 40.71800
C  -8.62300 18.60700 40.80400
C  -10.11900 18.49300 40.99800
C  -7.88000 19.42300 41.85400
C  -7.85800 16.54500 39.32700
C  -6.47900 15.86900 39.41400
H  -6.02500 14.82200 38.40200
N  -13.23900 18.87100 41.75500
C  -12.32300 19.83000 41.26000
C  -13.07900 20.98200 40.97700
C  -14.47600 20.72300 41.15500
C  -14.53500 19.37000 41.64500
C  -12.41300 22.25500 40.41900
C  -15.55900 21.72800 40.76900
O  -15.32300 22.83700 40.44600
C  -17.03400 21.43100 41.01700
N  -14.71400 16.38500 42.25200
C  -15.73100 17.23500 42.21300
C  -17.01900 16.51500 42.59800
C  -16.53700 15.13700 43.12400
C  -15.05800 15.12900 42.81400
C  -17.95000 17.34300 43.50000
C  -17.32800 13.86500 42.60800
C  -17.91100 12.80800 43.65900
N  -12.18000 14.96600 42.46400
C  -12.84500 13.84500 42.91300
C  -12.03500 12.72400 43.13500
C  -10.78400 13.14400 42.72600
C  -10.89700 14.51500 42.30400
C  -12.50600 11.41000 43.61500
C  -9.48800 12.71500 42.57900
O  -9.03200 11.60300 42.79600
C  -8.63900 14.03100 41.99600
C  -7.60400 14.40800 42.99500
O  -7.85700 14.70600 44.18700
O  -6.37500 14.23800 42.49000
C  -5.28700 14.66300 43.41400
H  -10.48700 20.51100 40.54900
H  -16.64200 19.10100 41.91000
H  -14.86300 13.16600 43.48700
H  -7.43500 16.87200 41.36900
H  -8.31500 19.06400 39.86400
H  -7.27300 18.75600 42.46600
H  -8.50500 19.96100 42.56700
H  -7.23100 20.16400 41.38800
H  -7.83300 17.31300 38.55400
H  -8.68000 15.91600 38.98400
H  -6.26200 15.37900 40.36300
H  -5.83800 16.74900 39.36800
H  -13.05100 23.12900 40.54600
H  -11.90600 22.16900 39.45800
H  -11.55000 22.34100 41.07800
H  -17.17200 21.30600 42.09100
H  -17.23400 20.50000 40.48600
H  -17.72800 22.17900 40.63200
H  -17.64300 16.22200 41.75500
H  -16.49000 14.97900 44.20200
H  -17.41200 18.19300 43.92000
H  -18.41700 16.70200 44.24700
H  -18.65500 17.81500 42.81500
H  -16.60800 13.34300 41.97800
H  -18.11100 14.17600 41.91800
H  -17.91700 13.13100 44.70000
H  -17.28900 11.94300 43.43100
H  -18.92800 12.54600 43.36600
H  -13.18400 11.57700 44.45200
H  -11.56100 10.97700 43.94300
H  -12.95200 10.84000 42.79900
H  -8.21100 13.84600 41.01100
H  -4.35100 14.14100 43.21400
H  -5.44400 14.37500 44.45300
H  -5.18600 15.74800 43.42100

