158

Mg 8.84600 3.70100 27.39700
C  10.01000 2.20000 30.28500
C  6.53600 5.37300 29.26900
C  7.33200 4.74000 24.51400
C  10.53300 1.14600 25.51500
N  8.18900 3.59400 29.62300
C  9.02800 3.14000 30.60900
C  8.72900 3.80400 31.93500
C  7.52800 4.75800 31.48200
C  7.40300 4.59500 30.03500
C  6.18000 4.67800 32.25700
C  9.83200 4.65500 32.63400
C  10.17500 4.16200 34.07000
H  10.27600 5.21400 35.21500
N  7.30600 4.95200 26.94100
C  6.49700 5.58300 27.84500
C  5.61800 6.50000 27.11500
C  5.88700 6.41300 25.73800
C  6.88800 5.29400 25.70300
C  4.71400 7.51400 27.87800
C  5.42400 7.27300 24.57500
O  5.54000 6.98600 23.37200
C  4.70800 8.68800 24.84700
N  8.87900 3.04900 25.27900
C  8.29100 3.71600 24.29500
C  8.77300 3.12400 22.91500
C  9.83700 2.08800 23.24600
C  9.81100 2.13900 24.76000
C  7.59400 2.60400 22.03200
C  11.23700 2.47500 22.80100
C  11.37800 2.56300 21.30300
N  10.16400 2.10500 27.76100
C  10.70900 1.15300 26.94000
C  11.55400 0.29000 27.74200
C  11.34800 0.68500 29.07000
C  10.44600 1.76100 29.01500
C  12.35500 -0.92600 27.30700
C  11.66900 0.37300 30.43800
O  12.40700 -0.46300 30.93900
C  10.95000 1.50700 31.30300
C  10.22500 0.87200 32.36500
O  9.07600 0.43400 32.24500
O  10.93800 0.77100 33.49900
C  10.24200 0.04300 34.56100
H  6.04800 6.17800 29.82400
H  7.05600 5.13100 23.53200
H  11.03400 0.31200 25.02000
H  8.27000 3.08300 32.61200
H  7.68000 5.82500 31.64600
H  5.47500 4.16100 31.60700
H  5.84600 5.63100 32.66900
H  6.21200 3.95900 33.07600
H  9.48900 5.66600 32.85100
H  10.65500 4.86300 31.95000
H  11.14900 3.69000 33.93800
H  9.49400 3.39400 34.43800
H  3.80000 7.42100 27.29200
H  5.05700 8.54700 27.83300
H  4.49400 7.35000 28.93300
H  4.52200 9.03100 23.82900
H  5.38400 9.38600 25.34000
H  3.81200 8.54600 25.45200
H  9.09100 4.04100 22.41900
H  9.59400 1.07900 22.91200
H  7.70000 1.53100 21.87200
H  7.74800 3.00700 21.03100
H  6.62800 2.83400 22.48100
H  11.80500 1.59200 23.09600
H  11.76600 3.35700 23.16200
H  11.72400 3.50300 20.87300
H  10.37700 2.28200 20.97600
H  11.99300 1.73700 20.94400
H  12.42300 -0.89600 26.22000
H  11.83700 -1.84400 27.58500
H  13.38000 -0.97600 27.67700
H  11.69200 2.16400 31.75500
H  10.05000 -1.02100 34.42000
H  9.36600 0.61900 34.85900
H  10.90800 -0.04700 35.41900
Mg 35.59200 2.20900 29.75100
C  33.64200 3.45800 32.35400
C  38.39900 2.31900 31.78300
C  37.36400 1.18400 27.13500
C  32.91500 2.81700 27.55000
N  35.98800 3.05200 31.74000
C  34.99300 3.22300 32.72200
C  35.65600 3.37100 34.13600
C  37.17900 3.14100 33.87700
C  37.22000 2.89200 32.37100
C  38.18100 4.17800 34.33300
C  34.92400 2.33900 35.06900
C  34.69800 2.73300 36.56200
H  35.49800 4.02000 37.04600
N  37.59900 1.71400 29.50100
C  38.60900 1.81300 30.46600
C  39.89400 1.17500 30.02900
C  39.56300 0.99500 28.61000
C  38.14100 1.34500 28.35900
C  41.07200 0.91500 30.98800
C  40.50000 0.42200 27.60400
O  40.15200 0.24300 26.43000
C  41.89900 -0.00600 27.93000
N  35.25300 2.12600 27.62000
C  36.10000 1.63100 26.78100
C  35.56100 1.54900 25.30900
C  34.07400 1.91900 25.58900
C  34.05200 2.31600 27.00000
C  36.24400 2.53400 24.39300
C  33.19000 0.62500 25.38200
C  32.29200 0.66300 24.22600
N  33.69900 2.94100 29.86700
C  32.72000 3.12300 28.91100
C  31.52700 3.58300 29.56400
C  31.81500 3.69000 30.88200
C  33.16500 3.33800 31.01600
C  30.16900 3.94300 28.99800
C  31.26000 4.04900 32.13900
O  30.09600 4.40000 32.39000
C  32.48000 3.87900 33.15200
C  32.66100 5.16400 33.85800
O  32.94900 6.22100 33.32400
O  32.41800 4.97800 35.21400
C  32.42000 6.14200 36.07200
H  39.27800 2.26200 32.42900
H  37.98100 0.80200 26.31900
H  31.97500 2.90500 27.00200
H  35.52900 4.39900 34.47500
H  37.42100 2.19300 34.35800
H  37.62000 4.98600 34.80300
H  38.66200 4.54700 33.42700
H  38.88600 3.78700 35.06600
H  35.46900 1.39500 35.05200
H  34.00000 1.94900 34.64400
H  35.15500 1.89900 37.09500
H  33.65000 2.82400 36.85000
H  41.70800 0.11900 30.59900
H  40.51600 0.63500 31.88200
H  41.61000 1.85500 31.11400
H  42.50800 0.87300 28.13900
H  42.32900 -0.42200 27.01900
H  41.76300 -0.77600 28.68900
H  35.70600 0.51400 24.99900
H  33.62400 2.73500 25.02300
H  36.65400 3.38200 24.94200
H  35.72900 2.84000 23.48200
H  37.17800 2.02500 24.15600
H  32.65300 0.40000 26.30300
H  33.80300 -0.27100 25.28000
H  32.47100 -0.19500 23.57800
H  32.06300 1.63700 23.79200
H  31.39400 0.26900 24.70000
H  29.60400 3.07700 28.65100
H  30.22400 4.64100 28.16300
H  29.52400 4.37900 29.76100
H  32.18500 3.11900 33.87600
H  32.62700 5.85300 37.10200
H  31.36200 6.40700 36.08900
H  33.16600 6.86500 35.74400

