158

Mg 47.46700 24.37500 28.12800
C  48.33500 26.66700 30.70500
C  46.93800 22.06400 30.63600
C  46.80500 22.16200 25.74500
C  48.47300 26.77300 25.69400
N  47.58600 24.48400 30.45600
C  47.98600 25.45700 31.29200
C  47.85400 25.03100 32.73800
C  47.60900 23.50700 32.61700
C  47.39600 23.29000 31.12400
C  48.64100 22.51600 33.20900
C  46.78600 25.90400 33.46100
C  46.45400 25.42700 34.89800
H  46.55700 26.54100 35.95400
N  46.97300 22.43400 28.14000
C  46.70800 21.62200 29.25500
C  46.22700 20.30600 28.87100
C  46.31300 20.29400 27.44400
C  46.67700 21.66200 27.05800
C  45.86300 19.22800 29.92900
C  46.02700 19.07700 26.54600
O  46.06500 19.17100 25.31200
C  45.57400 17.69400 27.17800
N  47.87900 24.38600 25.95400
C  47.35800 23.39200 25.23300
C  47.24100 23.77700 23.71600
C  47.70400 25.26800 23.70600
C  47.99900 25.50600 25.18600
C  47.93400 22.81600 22.76000
C  46.70700 26.28100 23.11000
C  47.31900 27.36500 22.20200
N  48.21300 26.30400 28.13600
C  48.61400 27.10700 27.05300
C  49.03300 28.43400 27.59300
C  48.92400 28.30900 29.02700
C  48.38300 26.97300 29.32000
C  49.71200 29.49600 26.80300
C  49.22300 28.95300 30.29700
O  49.72900 30.04200 30.52700
C  48.71200 27.93100 31.41100
C  49.68900 27.78200 32.52900
O  50.64300 27.06800 32.50000
O  49.35600 28.52000 33.63600
C  50.21900 28.12200 34.81500
H  46.70900 21.35100 31.43100
H  46.51000 21.46500 24.95700
H  48.70700 27.62800 25.05600
H  48.85500 25.22900 33.12100
H  46.68600 23.27200 33.14800
H  49.41800 23.03800 33.76800
H  49.03400 21.74400 32.54700
H  48.08800 21.88500 33.90400
H  45.94400 25.68200 32.80500
H  47.23500 26.89400 33.54100
H  47.11900 24.61400 35.18800
H  45.40000 25.15800 34.83100
H  44.83800 18.96700 29.66700
H  45.74700 19.59100 30.95000
H  46.47900 18.33400 29.83400
H  46.50600 17.37800 27.64700
H  45.24900 16.94300 26.45800
H  44.76400 17.78100 27.90200
H  46.17200 23.66600 23.53300
H  48.60800 25.21600 23.09900
H  48.55000 22.07200 23.26600
H  48.55100 23.31500 22.01300
H  47.16000 22.25800 22.23400
H  46.17900 26.73200 23.95000
H  45.89400 25.72800 22.64000
H  48.40200 27.26300 22.13100
H  47.18300 28.40300 22.50600
H  46.84100 27.24200 21.23100
H  50.60600 28.98000 26.45400
H  50.04600 30.26300 27.50200
H  49.16500 29.74400 25.89400
H  47.91900 28.55600 31.82200
H  49.92700 28.87500 35.54700
H  51.25700 28.23900 34.50400
H  49.98900 27.08000 35.03600
Mg 30.13900 57.35600 40.60600
C  27.30700 55.23600 39.48200
C  32.19900 55.00300 39.21400
C  32.53300 59.56200 41.01200
C  27.74600 59.88600 41.34400
N  29.72800 55.39000 39.24900
C  28.54300 54.69300 39.06500
C  28.76900 53.25100 38.47900
C  30.32900 53.11700 38.58600
C  30.82900 54.57100 39.12600
C  30.67200 51.99300 39.46300
C  28.24500 53.11800 37.01100
C  28.95500 54.11300 36.02500
H  28.09200 55.13100 35.32400
N  32.14500 57.27100 40.26400
C  32.77100 56.25100 39.68100
C  34.19200 56.59600 39.75000
C  34.40200 57.89400 40.28000
C  33.01600 58.28400 40.55100
C  35.22800 55.59900 39.30700
C  35.78300 58.56800 40.59500
O  36.74500 58.01000 40.06400
C  35.86500 59.81900 41.57500
N  30.14300 59.45200 41.20600
C  31.30400 60.12500 41.35100
C  31.08700 61.63800 41.69200
C  29.57400 61.64700 41.84100
C  29.11600 60.24800 41.42700
C  31.93100 62.31600 42.88400
C  28.73300 62.90100 41.13600
C  27.65700 63.58400 41.98200
N  27.99900 57.51500 40.47600
C  27.21800 58.60800 40.85500
C  25.83200 58.15400 40.84100
C  25.80600 56.85400 40.35400
C  27.12700 56.50800 40.14800
C  24.63300 58.98500 41.14900
C  24.93600 55.72400 39.99100
O  23.70000 55.62000 40.08900
C  25.92500 54.62100 39.46500
C  25.84100 53.40200 40.28400
O  26.33200 53.29800 41.40700
O  25.05400 52.49500 39.57000
C  24.71200 51.23300 40.27900
H  32.87800 54.22100 38.86500
H  33.37000 60.25700 41.10100
H  27.06800 60.56700 41.86300
H  28.22100 52.53700 39.09300
H  30.73500 52.90600 37.59600
H  30.29300 52.21400 40.46000
H  31.76100 51.94400 39.48200
H  30.22400 51.07400 39.08500
H  27.18900 53.38500 36.97600
H  28.34500 52.07000 36.72800
H  29.41100 53.57600 35.19300
H  29.78700 54.73800 36.35000
H  36.15400 56.00500 38.90000
H  34.81100 55.02800 38.47800
H  35.59100 54.97000 40.12000
H  35.57500 60.72700 41.04700
H  36.89600 59.99700 41.88000
H  35.22700 59.61600 42.43600
H  31.28500 62.21000 40.78600
H  29.28800 61.73900 42.88900
H  32.71100 61.62800 43.21100
H  31.23200 62.57800 43.67800
H  32.32100 63.27600 42.54400
H  28.24400 62.43400 40.28100
H  29.28200 63.81000 40.89200
H  27.91300 64.58400 42.33200
H  27.44400 63.02600 42.89400
H  26.69600 63.55100 41.46800
H  24.74200 59.88900 40.54900
H  24.65700 59.39400 42.15900
H  23.71700 58.40400 41.03800
H  25.53600 54.36800 38.47900
H  25.61500 50.62300 40.27200
H  23.91300 50.74700 39.72000
H  24.20800 51.48300 41.21200

