158

Mg 46.74900 44.47500 42.28900
C  43.39100 43.42500 42.25100
C  47.79600 41.20600 41.87600
C  49.93100 45.66000 42.25000
C  45.52000 47.76000 42.34900
N  45.67000 42.59500 42.00000
C  44.31000 42.37100 42.04200
C  44.02800 40.86100 41.78300
C  45.40400 40.18700 41.98900
C  46.36500 41.38000 41.93000
C  45.45600 39.29100 43.26800
C  43.21400 40.54100 40.49300
C  43.63400 41.27000 39.24000
H  43.37600 40.65900 37.84400
N  48.62500 43.57500 42.07700
C  48.81700 42.19600 41.98400
C  50.22900 41.96200 41.95200
C  50.96500 43.18300 42.11700
C  49.88800 44.21500 42.15200
C  50.75700 40.51800 41.78300
C  52.48400 43.37900 42.04300
O  53.20000 42.41200 41.87900
C  52.99800 44.73900 42.32200
N  47.61500 46.43600 42.01200
C  48.92600 46.68700 42.19800
C  49.34300 48.16600 42.36300
C  47.88000 48.76800 42.17400
C  46.85600 47.57000 42.12800
C  50.07300 48.46500 43.74000
C  47.55500 49.81100 41.04100
C  48.17800 51.21000 41.35700
N  44.86900 45.50900 42.33800
C  44.46400 46.83800 42.44900
C  43.04200 47.00900 42.77800
C  42.61600 45.65500 42.61700
C  43.72100 44.82800 42.33200
C  42.31900 48.28400 43.15500
C  41.43600 44.87000 42.52900
O  40.26600 45.09800 42.81200
C  41.84200 43.39700 42.21300
C  41.17100 42.40200 43.11700
O  41.44700 42.22000 44.27100
O  40.20600 41.71200 42.28600
C  39.52300 40.59300 42.86600
H  47.97800 40.14800 41.67700
H  50.84500 46.21600 42.46600
H  45.13100 48.75700 42.56800
H  43.29900 40.58800 42.54600
H  45.72400 39.52000 41.18900
H  44.48000 38.98500 43.64400
H  46.01100 39.91500 43.96800
H  46.14700 38.45600 43.15400
H  42.19900 40.79500 40.79900
H  43.29500 39.46700 40.32200
H  44.71900 41.35500 39.29500
H  43.21200 42.26600 39.37600
H  50.79600 40.12600 40.76700
H  50.11500 39.88700 42.39800
H  51.76900 40.37500 42.16200
H  52.63400 45.45500 41.58600
H  54.08600 44.77500 42.27300
H  52.58900 45.11200 43.26100
H  49.96600 48.60000 41.58200
H  47.51900 49.31200 43.04700
H  50.37700 47.49100 44.12400
H  49.32600 48.82200 44.44800
H  50.93300 49.13300 43.69400
H  46.50800 50.04300 40.84700
H  48.13000 49.52200 40.16200
H  48.68600 51.25000 42.32100
H  47.50700 52.05200 41.18600
H  49.08100 51.31300 40.75700
H  42.46900 48.44600 44.22300
H  41.27500 48.14100 42.87500
H  42.85500 49.10100 42.67200
H  41.49300 43.11900 41.21900
H  40.21900 40.13100 43.56600
H  39.19800 39.79800 42.19500
H  38.63100 40.96900 43.36600
Mg 25.82200 51.00000 26.57500
C  23.82700 52.33800 29.00500
C  28.15100 50.11000 29.12400
C  28.16500 50.37600 24.17700
C  23.74700 52.44300 24.21000
N  25.87900 51.23700 28.74500
C  24.94000 51.76000 29.53900
C  25.27800 51.45700 30.99400
C  26.78700 51.09900 31.02400
C  26.97500 50.77100 29.51500
C  27.86700 52.17500 31.36600
C  24.30600 50.48000 31.83100
C  23.93800 51.01100 33.16500
H  25.17300 51.02500 34.11200
N  27.78800 50.23200 26.66400
C  28.61100 49.89900 27.79000
C  29.84500 49.29000 27.35000
C  29.80500 49.37500 25.92200
C  28.53200 49.99800 25.54000
C  30.99300 48.85600 28.34700
C  30.86500 48.92200 24.91600
O  30.71300 49.13700 23.68200
C  31.95000 47.93800 25.32100
N  25.95700 51.42600 24.52700
C  26.94500 51.03500 23.71200
C  26.65200 51.50100 22.26900
C  25.21500 51.98500 22.29300
C  24.92200 51.99600 23.76700
C  27.88400 52.38600 21.73200
C  24.14900 51.09200 21.51400
C  23.94100 51.47900 20.10800
N  24.06700 52.09700 26.54800
C  23.32400 52.59100 25.54400
C  22.09100 53.35500 26.06100
C  22.24400 53.20900 27.45700
C  23.43400 52.48100 27.65200
C  21.02900 54.09600 25.21700
C  21.67300 53.49800 28.78300
O  20.60000 53.97100 29.07500
C  22.76900 53.00700 29.78700
C  23.24700 54.06900 30.67400
O  24.04300 54.89500 30.37700
O  22.49600 54.14700 31.80100
C  22.58100 55.35500 32.58900
H  28.80900 49.83500 29.95100
H  28.81000 50.19400 23.31500
H  23.10100 52.92200 23.47200
H  25.24200 52.42300 31.49900
H  26.96500 50.19600 31.60800
H  28.37500 52.51700 30.46500
H  28.59900 51.68000 32.00400
H  27.41200 53.04600 31.83900
H  24.75000 49.48700 31.89700
H  23.34800 50.42700 31.31400
H  23.15400 50.37500 33.57500
H  23.67100 52.06100 33.04500
H  31.94200 49.27300 28.00900
H  31.05600 47.76700 28.34800
H  30.86200 49.07000 29.40700
H  32.83400 48.34800 25.81000
H  32.26200 47.48500 24.38000
H  31.50000 47.24900 26.03500
H  26.70300 50.58500 21.68100
H  25.01400 53.01200 21.98600
H  28.05900 51.88100 20.78100
H  28.79700 52.53900 22.30700
H  27.50700 53.36100 21.42300
H  23.14700 51.00600 21.93400
H  24.53800 50.08200 21.63800
H  24.68600 50.94100 19.52200
H  24.00300 52.53300 19.83900
H  22.99900 51.03300 19.78600
H  20.61500 53.37200 24.51500
H  21.44800 54.89200 24.60200
H  20.28100 54.48300 25.91000
H  22.18600 52.32400 30.40400
H  22.51600 55.14100 33.65600
H  21.70800 55.94400 32.30700
H  23.40500 56.02900 32.35900

