158

Mg 48.45600 35.86400 27.45400
C  46.20900 34.18600 29.51900
C  49.07200 38.00300 29.97100
C  50.29500 37.81900 25.28200
C  47.68500 33.61400 24.86700
N  47.85500 36.01100 29.47500
C  46.98600 35.20500 30.12000
C  47.07200 35.38900 31.64100
C  47.48500 36.87900 31.63700
C  48.23500 36.96600 30.29100
C  46.31600 37.83800 31.80000
C  48.16300 34.38600 32.25200
C  48.16100 34.29700 33.80500
H  47.18600 35.21800 34.62600
N  49.56000 37.69600 27.61600
C  49.72400 38.41400 28.76200
C  50.49200 39.60300 28.48400
C  50.76000 39.66800 27.10000
C  50.19500 38.40500 26.59300
C  50.72900 40.69900 29.52200
C  51.43500 40.66200 26.22800
O  51.56000 40.59500 25.00900
C  51.93300 41.91600 26.92500
N  48.84700 35.80700 25.37500
C  49.70700 36.67300 24.70300
C  49.92600 36.29900 23.20600
C  49.26000 34.84800 23.17400
C  48.54600 34.71200 24.55500
C  49.16400 37.32300 22.30300
C  50.29600 33.65000 22.88700
C  49.82000 32.73400 21.69600
N  47.20900 34.21200 27.20000
C  47.03300 33.34300 26.14300
C  46.05900 32.24800 26.49800
C  45.64400 32.63000 27.80000
C  46.41200 33.80100 28.16900
C  45.55800 31.09500 25.71900
C  44.74200 32.20200 29.00900
O  44.01600 31.22900 29.19200
C  44.99200 33.33700 30.04100
C  45.04400 32.66000 31.44700
O  46.03000 32.08500 31.85400
O  43.88400 32.93700 32.13300
C  43.95600 32.77800 33.55100
H  49.23900 38.68900 30.80400
H  50.83400 38.38200 24.51800
H  47.53500 32.82900 24.12200
H  46.09600 35.27100 32.11300
H  48.26200 37.14300 32.35300
H  45.38300 37.32600 32.03200
H  46.28300 38.40700 30.87000
H  46.52700 38.63400 32.51400
H  49.11000 34.88300 32.04100
H  48.17400 33.44000 31.71100
H  49.15800 34.44700 34.22000
H  47.80900 33.28000 33.98200
H  51.79500 40.92500 29.53900
H  50.39900 40.21100 30.44000
H  50.05600 41.52400 29.29000
H  52.23300 42.71700 26.25000
H  52.70400 41.66700 27.65400
H  51.07600 42.27200 27.49800
H  50.95900 36.18200 22.87800
H  48.50800 34.81200 22.38600
H  48.42500 36.86900 21.64300
H  49.97400 37.68500 21.66900
H  48.71900 38.11100 22.91100
H  50.43500 33.01900 23.76500
H  51.32200 33.97100 22.70500
H  48.73200 32.71900 21.64900
H  50.29000 31.76700 21.87700
H  50.22500 33.08400 20.74600
H  44.83600 30.49800 26.27600
H  46.36600 30.45700 25.36300
H  45.12600 31.44100 24.78000
H  44.17900 34.06000 30.10800
H  43.84000 31.70200 33.68000
H  43.21300 33.28800 34.16500
H  44.91000 33.10500 33.96300
Mg -13.05400 16.96500 41.84800
C  -10.01800 15.08000 41.23800
C  -11.48200 19.67900 40.68600
C  -15.93700 18.56700 42.14600
C  -14.60000 13.95300 42.50000
N  -10.99100 17.27400 41.02500
C  -9.93700 16.47300 40.94300
C  -8.73100 17.32000 40.49400
C  -9.30800 18.73100 40.34400
C  -10.67000 18.53700 40.76800
C  -8.63700 19.90000 40.98700
C  -7.96800 16.76200 39.18200
C  -6.55600 16.22500 39.38400
H  -6.01800 15.24200 38.40600
N  -13.62400 18.86800 41.56200
C  -12.84900 19.85100 41.08400
C  -13.60000 21.10400 40.99100
C  -14.97200 20.77600 41.45200
C  -14.90000 19.37000 41.75600
C  -13.07400 22.35500 40.45200
C  -16.15800 21.74900 41.65600
O  -15.98900 22.91700 41.33900
C  -17.60600 21.44700 42.10700
N  -15.02000 16.34200 42.20600
C  -16.03400 17.16700 42.33500
C  -17.40600 16.47100 42.42800
C  -16.91500 14.98300 42.55900
C  -15.40700 15.09300 42.44200
C  -18.26100 17.08200 43.52900
C  -17.62600 13.85800 41.75800
C  -17.37100 13.93600 40.22700
N  -12.42800 14.91300 41.93800
C  -13.23000 13.81100 42.23400
C  -12.42400 12.61300 42.10100
C  -11.15800 13.03000 41.68200
C  -11.21900 14.43300 41.66900
C  -12.91600 11.17900 42.25000
C  -9.81600 12.59500 41.35100
O  -9.22400 11.51100 41.35300
C  -8.99700 13.96600 41.10500
C  -7.76400 14.17700 42.00700
O  -7.44800 15.21300 42.55900
O  -6.99700 13.05100 42.05700
C  -5.58900 13.23700 42.59300
H  -11.02400 20.58100 40.27400
H  -16.93100 19.00800 42.24200
H  -15.27000 13.11800 42.71500
H  -8.06400 17.46400 41.34300
H  -9.31900 19.05000 39.30100
H  -7.62600 19.60700 41.27300
H  -9.07400 20.01000 41.97900
H  -8.57700 20.78900 40.36000
H  -7.90500 17.61000 38.50000
H  -8.50700 15.93400 38.72000
H  -6.42400 15.77800 40.37000
H  -5.82300 17.03100 39.41200
H  -12.35200 22.05400 39.69200
H  -12.67500 23.03600 41.20300
H  -13.86600 22.92900 39.97000
H  -18.14700 22.39300 42.11300
H  -17.46900 21.06000 43.11600
H  -18.14100 20.63400 41.61600
H  -17.82100 16.64300 41.43600
H  -17.05500 14.79700 43.62400
H  -18.38300 16.48000 44.42900
H  -19.26200 17.17100 43.10700
H  -18.01000 18.05200 43.95900
H  -18.66900 14.17100 41.80700
H  -17.34100 12.90500 42.20300
H  -18.31300 14.20500 39.75000
H  -17.00000 12.95700 39.92400
H  -16.70300 14.75200 39.95000
H  -13.24000 10.94400 41.23600
H  -13.71000 11.16000 42.99600
H  -12.06000 10.55800 42.51500
H  -8.45500 14.01200 40.16100
H  -5.17200 12.23000 42.58000
H  -5.52600 13.57000 43.62900
H  -5.16200 13.95500 41.89200

