158

Mg 40.88000 9.37200 30.09200
C  42.74600 10.59900 32.78500
C  38.58000 8.14400 32.32600
C  39.16400 8.12000 27.52200
C  43.65800 10.10300 27.94500
N  40.80900 9.19900 32.34400
C  41.56000 9.95500 33.20200
C  41.00100 9.83500 34.63600
C  39.73600 9.07000 34.48500
C  39.71000 8.73500 32.93100
C  39.56600 7.72800 35.38600
C  40.79100 11.23100 35.40400
C  40.16500 11.21600 36.81000
H  41.09100 11.81700 37.93200
N  39.08600 8.44700 29.95900
C  38.26100 8.03300 30.94300
C  36.93900 7.64900 30.36000
C  37.10300 7.66200 29.00600
C  38.47300 8.06100 28.77400
C  35.86200 7.25200 31.20100
C  36.09400 7.42400 27.83500
O  36.47200 7.59700 26.69400
C  34.77700 6.90400 28.06800
N  41.34500 9.15700 27.98800
C  40.45100 8.58800 27.12600
C  41.09300 8.46400 25.72100
C  42.33700 9.41700 25.86000
C  42.50200 9.56700 27.38500
C  41.47500 7.01300 25.35600
C  42.26300 10.74100 25.08800
C  41.50200 11.91600 25.75200
N  42.87700 10.01000 30.29800
C  43.82700 10.38900 29.34800
C  44.86800 11.17800 29.98400
C  44.53400 11.17500 31.35200
C  43.28800 10.55500 31.44100
C  46.05600 11.78700 29.26600
C  44.95300 11.62400 32.68900
O  46.01800 12.16700 33.03600
C  43.82200 11.34400 33.59000
C  44.51600 10.48800 34.53400
O  44.69800 9.26900 34.48700
O  44.89100 11.22100 35.67000
C  45.55100 10.41100 36.73100
H  37.90600 7.77300 33.10000
H  38.88300 7.52700 26.64900
H  44.47300 10.34100 27.25800
H  41.74400 9.25800 35.18600
H  38.82700 9.63300 34.69400
H  38.88700 7.86100 36.22900
H  40.51400 7.57300 35.90200
H  39.43400 6.80800 34.81700
H  40.21600 11.92800 34.79500
H  41.80300 11.59000 35.59100
H  39.99000 10.18400 37.11600
H  39.17700 11.65300 36.95200
H  35.91600 6.31600 31.75700
H  34.93700 7.31500 30.62800
H  35.67300 8.01300 31.95800
H  34.27400 6.56800 27.16200
H  34.20200 7.64800 28.62000
H  34.76400 6.01600 28.70000
H  40.38300 8.86700 24.99900
H  43.21700 8.96000 25.40700
H  41.08700 6.83800 24.35200
H  41.01600 6.26600 26.00300
H  42.56200 6.92800 25.34000
H  41.95600 10.55600 24.05900
H  43.29600 11.08800 25.06100
H  42.07100 12.82800 25.57500
H  41.19200 11.77600 26.78800
H  40.63500 12.04400 25.10400
H  46.01500 11.68300 28.18100
H  46.90000 11.34800 29.79800
H  46.16100 12.82700 29.57400
H  43.50200 12.21300 34.16400
H  45.51700 11.04100 37.61900
H  46.59600 10.22400 36.48400
H  44.99700 9.49800 36.95100
Mg -1.44000 34.46600 27.44100
C  -3.19400 32.56100 29.82200
C  -0.01600 36.21300 29.91200
C  -0.13900 36.40600 25.05000
C  -3.23200 32.70400 25.03100
N  -1.70600 34.41200 29.55100
C  -2.37500 33.57800 30.37500
C  -2.16900 33.89000 31.88700
C  -1.31000 35.18400 31.80100
C  -1.01900 35.31500 30.32300
C  -2.00900 36.38900 32.49900
C  -1.38700 32.70800 32.63800
C  -2.12900 32.03700 33.91400
H  -1.47600 32.08400 35.28200
N  -0.15300 36.07300 27.50000
C  0.36700 36.60100 28.63100
C  1.38000 37.52200 28.25600
C  1.41800 37.62200 26.79500
C  0.30800 36.69800 26.38600
C  2.28800 38.14500 29.21700
C  2.26200 38.46900 25.87100
O  2.29300 38.33200 24.63800
C  3.17900 39.44200 26.44400
N  -1.91300 34.76100 25.31800
C  -1.10800 35.57600 24.58600
C  -1.51500 35.41900 23.04400
C  -2.35000 34.06500 23.07800
C  -2.54200 33.86100 24.55300
C  -2.20900 36.60900 22.42300
C  -1.54300 32.91600 22.48400
C  -1.75700 32.58600 20.99000
N  -2.88600 32.88700 27.40800
C  -3.39000 32.25000 26.35300
C  -4.17600 31.12700 26.80800
C  -4.14600 31.25700 28.18100
C  -3.27700 32.28600 28.47800
C  -4.89800 30.16800 25.95000
C  -4.64900 30.63800 29.33500
O  -5.33500 29.58700 29.43200
C  -4.02400 31.49400 30.48300
C  -5.13600 32.12900 31.22800
O  -5.67500 33.20300 30.96800
O  -5.43400 31.43300 32.40500
C  -6.39500 32.03600 33.31700
H  0.52300 36.69000 30.73300
H  0.31400 36.94200 24.21300
H  -3.54300 32.00500 24.25100
H  -3.15300 34.07200 32.32000
H  -0.36100 35.11600 32.33300
H  -3.01500 36.10300 32.80400
H  -2.11200 37.35300 31.99900
H  -1.49300 36.63900 33.42600
H  -0.47800 33.15200 33.04200
H  -1.02200 32.02100 31.87400
H  -2.22700 30.96700 33.73200
H  -3.19100 32.27000 33.99200
H  1.83600 38.08200 30.20700
H  2.41400 39.21100 29.02700
H  3.23500 37.60600 29.20300
H  2.57300 40.09500 27.07200
H  3.57200 39.97700 25.57900
H  4.04700 38.97100 26.90500
H  -0.65200 35.20200 22.41400
H  -3.35900 34.17800 22.68100
H  -2.15200 37.50400 23.04300
H  -3.27700 36.39600 22.39900
H  -1.86300 36.90500 21.43300
H  -1.71200 31.96300 22.98500
H  -0.47900 33.14300 22.55100
H  -2.53300 33.24500 20.59900
H  -2.11900 31.57000 20.83200
H  -0.79500 32.81000 20.53000
H  -5.32200 29.40300 26.60100
H  -4.26400 29.61900 25.25300
H  -5.70700 30.56600 25.33800
H  -3.50000 30.83200 31.17300
H  -6.58800 33.10000 33.17900
H  -5.87700 32.00000 34.27500
H  -7.34000 31.50100 33.21900

