158

Mg 43.35900 41.99500 26.71000
C  42.52300 44.41400 29.17400
C  44.03000 39.83200 29.26800
C  44.41200 39.99700 24.37200
C  43.00000 44.63900 24.37400
N  43.33100 42.12500 28.93700
C  42.88000 43.17300 29.72500
C  42.74300 42.71300 31.19400
C  43.50600 41.35500 31.17400
C  43.56000 41.06800 29.66900
C  44.90500 41.50800 31.89600
C  41.18900 42.64500 31.66800
C  40.85400 43.53800 32.84200
H  39.95800 43.12800 33.97500
N  44.06700 40.08300 26.79400
C  44.31200 39.33600 27.88900
C  44.66100 38.02200 27.50400
C  44.82700 38.04500 26.09900
C  44.41500 39.39700 25.67700
C  44.94500 36.91500 28.50600
C  45.30000 36.91700 25.17600
O  45.35900 37.06200 24.00400
C  45.83400 35.60700 25.80600
N  43.59100 42.29700 24.65100
C  44.01300 41.21400 23.84400
C  43.98600 41.58500 22.32400
C  43.71000 43.16600 22.44100
C  43.34800 43.37800 23.92700
C  45.18900 41.22300 21.41600
C  42.59400 43.53600 21.49100
C  42.85800 44.75800 20.62700
N  42.88500 44.13500 26.73600
C  42.81100 45.03500 25.67100
C  42.41500 46.33300 26.27100
C  42.22600 46.09800 27.65500
C  42.60300 44.79000 27.88500
C  42.15000 47.57300 25.61200
C  41.80400 46.69400 28.91000
O  41.35900 47.81800 29.23500
C  42.01500 45.62000 29.98800
C  43.00000 46.14300 30.91700
O  44.13100 46.45700 30.57400
O  42.47900 46.32700 32.13800
C  43.32900 47.05500 33.11800
H  44.24100 39.16400 30.10600
H  44.84000 39.37200 23.58500
H  42.84500 45.37900 23.58600
H  43.24700 43.44500 31.82500
H  42.93500 40.59200 31.70200
H  44.93300 40.80000 32.72500
H  44.96300 42.54600 32.22400
H  45.79300 41.38500 31.27600
H  40.97700 41.61000 31.93900
H  40.52000 42.73300 30.81300
H  40.54400 44.46100 32.35200
H  41.78500 43.79800 33.34500
H  46.00600 36.68800 28.40500
H  44.33600 36.02600 28.34300
H  44.85000 37.17000 29.56200
H  46.09700 34.94400 24.98200
H  44.99500 35.07800 26.25900
H  46.71500 35.80200 26.41700
H  43.12800 41.02100 21.95800
H  44.67400 43.66600 22.34200
H  46.13400 41.08800 21.94300
H  45.31800 42.13300 20.83100
H  44.85500 40.43500 20.74100
H  41.67800 43.65400 22.06900
H  42.24300 42.69300 20.89600
H  43.87000 45.16100 20.65500
H  42.30800 45.56600 21.11100
H  42.67000 44.62100 19.56200
H  41.10100 47.58000 25.31600
H  42.74800 47.48700 24.70500
H  42.38100 48.44600 26.22300
H  41.10000 45.28300 30.47500
H  43.33100 46.54200 34.07900
H  42.91500 48.06100 33.18900
H  44.38700 47.20600 32.90300
Mg -6.18700 25.09100 25.95900
C  -4.46200 25.99500 28.88000
C  -8.14200 22.95100 27.72800
C  -7.24300 23.95700 23.06600
C  -3.59600 26.75400 24.22900
N  -6.15900 24.48800 28.03700
C  -5.53600 25.20300 29.05900
C  -6.04900 24.68700 30.38300
C  -7.02400 23.51800 30.02800
C  -7.11500 23.59400 28.50400
C  -6.50800 22.17200 30.56400
C  -6.71200 25.86800 31.16600
C  -6.49500 26.05400 32.73100
H  -5.97500 24.91900 33.57200
N  -7.55900 23.64800 25.44300
C  -8.37200 22.92400 26.32400
C  -9.28200 22.08800 25.54100
C  -8.97300 22.42100 24.14700
C  -7.88200 23.40800 24.16200
C  -10.24400 21.14800 26.18500
C  -9.72800 21.95300 22.95700
O  -9.46800 22.35200 21.83700
C  -10.88300 21.02200 23.13200
N  -5.37300 25.24400 23.93700
C  -6.09600 24.69600 22.90500
C  -5.51100 24.98100 21.57500
C  -4.44100 26.04900 21.99200
C  -4.44400 26.00400 23.50200
C  -4.79200 23.71700 20.94400
C  -4.74000 27.51000 21.47200
C  -4.24500 27.74000 20.00800
N  -4.50200 26.31100 26.40400
C  -3.56900 26.94700 25.60400
C  -2.48300 27.60800 26.34900
C  -2.81500 27.30900 27.66900
C  -4.04100 26.53800 27.65400
C  -1.26500 28.39200 25.81000
C  -2.40300 27.36200 29.07200
O  -1.50100 27.87700 29.65700
C  -3.55200 26.67600 29.85900
C  -2.90800 25.84500 30.92400
O  -2.53500 24.71600 30.83000
O  -2.79100 26.44600 32.12700
C  -1.77800 26.01100 33.01300
H  -8.78400 22.25100 28.26700
H  -7.56100 23.73600 22.04500
H  -2.77600 27.24400 23.70000
H  -5.23400 24.32100 31.00700
H  -8.03400 23.71000 30.38800
H  -5.85400 22.24500 31.43300
H  -5.87300 21.90700 29.71800
H  -7.37800 21.52200 30.65400
H  -7.79700 25.90600 31.07400
H  -6.35400 26.72500 30.59700
H  -7.41600 26.50500 33.09900
H  -5.76900 26.84300 32.92700
H  -11.17500 21.69100 26.02300
H  -10.19200 20.97900 27.26000
H  -10.23700 20.16000 25.72300
H  -11.64700 21.40700 23.80600
H  -10.40200 20.14800 23.57100
H  -11.23900 20.72900 22.14400
H  -6.29100 25.45400 20.97800
H  -3.43300 25.75500 21.69800
H  -3.78600 24.05000 20.68900
H  -5.45100 23.39300 20.13900
H  -4.77100 22.98700 21.75300
H  -4.37400 28.30500 22.12100
H  -5.82100 27.65000 21.49200
H  -3.23600 28.15400 20.02900
H  -5.01300 28.34400 19.52600
H  -4.16500 26.76400 19.52800
H  -1.66600 29.32000 25.40200
H  -0.84100 27.76700 25.02400
H  -0.57000 28.57500 26.63100
H  -4.08700 27.46100 30.39300
H  -2.19000 25.15400 33.54500
H  -1.31600 26.76100 33.65600
H  -0.95600 25.79800 32.32900

