158

Mg 8.75100 3.99600 27.85100
C  9.95400 2.92900 30.88600
C  6.98200 6.55500 29.53700
C  6.94500 4.62600 24.99600
C  10.06700 1.16500 26.31100
N  8.41200 4.49700 29.97100
C  9.08700 4.01000 31.05100
C  8.71300 4.62700 32.42300
C  7.70100 5.73900 31.94300
C  7.73300 5.63400 30.37700
C  6.28500 5.67200 32.47100
C  9.94700 5.11900 33.22800
C  10.13800 4.51500 34.69900
H  10.23400 5.44900 35.93900
N  7.21700 5.44900 27.32500
C  6.73000 6.42600 28.13000
C  6.00200 7.29700 27.36200
C  5.81100 6.70600 26.13800
C  6.61700 5.53600 26.11500
C  5.33100 8.46700 27.91100
C  5.06800 7.29600 24.76200
O  4.99300 6.69500 23.67000
C  4.24100 8.60600 24.94300
N  8.41400 2.94800 25.96400
C  7.67900 3.46800 24.91400
C  7.72000 2.55800 23.67400
C  8.83200 1.45700 24.07300
C  9.13400 1.84800 25.53300
C  6.35300 2.04500 23.22900
C  9.98800 1.16700 23.17500
C  10.16100 -0.17400 22.57000
N  9.91100 2.37700 28.41300
C  10.35000 1.34100 27.69100
C  11.08400 0.42300 28.57300
C  10.92600 1.02100 29.80100
C  10.19800 2.19600 29.66600
C  11.68100 -0.91500 28.10800
C  11.25000 0.87200 31.15600
O  11.83400 0.03000 31.81800
C  10.70900 2.06900 31.94100
C  9.81800 1.53100 33.03500
O  8.61800 1.39000 32.99300
O  10.58900 1.36900 34.20700
C  9.89300 1.00300 35.46400
H  6.75400 7.44200 30.13100
H  6.49200 4.64600 24.00300
H  10.57700 0.26300 25.96800
H  8.26500 3.84100 33.03100
H  8.08100 6.70600 32.27400
H  5.73200 5.02900 31.78600
H  5.95800 6.71100 32.51200
H  6.31300 5.22300 33.46400
H  9.81900 6.19100 33.38100
H  10.87000 5.05800 32.65300
H  11.08100 3.98600 34.56000
H  9.30900 3.80800 34.70400
H  5.90900 9.35100 27.64100
H  5.24500 8.47600 28.99800
H  4.35900 8.58600 27.43200
H  3.99800 8.97600 23.94700
H  4.90900 9.33100 25.40800
H  3.30800 8.54600 25.50300
H  8.07300 3.23800 22.89900
H  8.43500 0.46500 24.28800
H  6.27100 0.97000 23.38900
H  6.12400 2.36900 22.21300
H  5.62900 2.43700 23.94300
H  10.86500 1.41500 23.77300
H  10.02400 1.80300 22.29000
H  10.46900 -0.00100 21.53900
H  9.24800 -0.77000 22.59000
H  11.00900 -0.69900 23.01000
H  12.73300 -0.72400 27.89900
H  11.16800 -1.40000 27.27700
H  11.72100 -1.59900 28.95600
H  11.51500 2.66900 32.36400
H  8.98500 0.40900 35.35700
H  9.67200 1.84300 36.12200
H  10.55700 0.41200 36.09600
Mg -5.68100 25.14900 25.95800
C  -4.11400 26.89400 28.61200
C  -6.78500 22.75800 28.04300
C  -6.98500 23.76000 23.28800
C  -3.96800 27.53700 23.77900
N  -5.51100 24.84700 28.10200
C  -4.85400 25.71900 28.95600
C  -5.30400 25.32600 30.44300
C  -5.80700 23.84100 30.24300
C  -6.07400 23.80400 28.70000
C  -4.89400 22.77400 30.74100
C  -6.36700 26.28400 31.05100
C  -6.61400 26.26800 32.50200
H  -6.07400 25.12700 33.30200
N  -6.91500 23.62000 25.71900
C  -7.25600 22.70200 26.74700
C  -8.09600 21.68400 26.13900
C  -8.18300 22.00100 24.74400
C  -7.33300 23.20300 24.52600
C  -8.79200 20.56100 26.90600
C  -8.93400 21.21100 23.69500
O  -9.04000 21.59300 22.56300
C  -9.59900 19.87200 24.08800
N  -5.54800 25.66000 23.83300
C  -6.07600 24.77200 22.98000
C  -5.79900 25.22800 21.57900
C  -4.87400 26.48900 21.69700
C  -4.79800 26.56500 23.20400
C  -5.17600 24.11900 20.61800
C  -5.45600 27.83300 21.01000
C  -4.73900 28.54100 19.84600
N  -4.18800 26.77200 26.16700
C  -3.65600 27.65100 25.19900
C  -2.75400 28.58400 25.84100
C  -2.85800 28.32600 27.21400
C  -3.84100 27.25200 27.31200
C  -1.96600 29.71800 25.12400
C  -2.41400 28.72700 28.55100
O  -1.56800 29.59700 28.79800
C  -3.31600 27.87500 29.46000
C  -2.43700 27.33300 30.54600
O  -1.49800 26.55400 30.43200
O  -2.85600 27.79500 31.80700
C  -2.24400 27.26400 33.06200
H  -7.13200 21.98300 28.73000
H  -7.29200 23.34200 22.32700
H  -3.43800 28.15500 23.05200
H  -4.47700 25.41500 31.14700
H  -6.74200 23.73000 30.79300
H  -3.89100 23.09700 30.46200
H  -5.11200 21.82800 30.24600
H  -4.92400 22.62900 31.82100
H  -7.32300 25.93900 30.65800
H  -6.24900 27.34600 30.83700
H  -7.67600 26.29100 32.74700
H  -6.17200 27.17800 32.90900
H  -8.71300 19.58600 26.42500
H  -9.86300 20.76500 26.91900
H  -8.56600 20.41200 27.96200
H  -10.40300 20.05000 24.80300
H  -8.85100 19.17700 24.46900
H  -10.08600 19.32800 23.27800
H  -6.73600 25.61000 21.17400
H  -3.86200 26.27800 21.35100
H  -4.11800 24.31300 20.44100
H  -5.62100 24.11300 19.62300
H  -5.20700 23.09500 20.99000
H  -5.43500 28.53600 21.84200
H  -6.51600 27.80700 20.75800
H  -3.96200 27.94700 19.36400
H  -4.26800 29.43200 20.26000
H  -5.46300 29.01400 19.18300
H  -1.11300 29.78500 25.79800
H  -2.59500 30.60800 25.10900
H  -1.65100 29.40200 24.12900
H  -4.02200 28.45800 30.05100
H  -3.06400 27.28700 33.78000
H  -1.38100 27.81500 33.43400
H  -1.91200 26.23000 32.97200

