158

Mg 44.09200 4.19300 46.93300
C  42.10200 7.08700 46.78000
C  41.33400 2.25400 46.95800
C  46.12300 1.71000 46.67500
C  46.98500 6.47100 46.85500
N  41.95800 4.73200 46.84700
C  41.35200 5.94900 46.79400
C  39.79900 5.79900 46.88300
C  39.63300 4.25100 46.99200
C  41.08300 3.68700 46.84400
C  38.99800 3.88000 48.31000
C  38.98200 6.48100 45.80800
C  39.53200 6.30300 44.33800
H  38.52200 6.03700 43.18400
N  43.75900 2.22100 46.77000
C  42.58900 1.58900 46.82900
C  42.76600 0.19300 46.62500
C  44.17000 -0.10900 46.55800
C  44.77800 1.27400 46.72000
C  41.66600 -0.79800 46.45100
C  44.79200 -1.45800 46.41700
O  44.04600 -2.41300 46.18900
C  46.31000 -1.78300 46.44100
N  46.32000 4.15200 46.57000
C  46.80200 2.90700 46.67500
C  48.39900 2.98000 46.73700
C  48.69400 4.54300 46.75000
C  47.30800 5.11700 46.71300
C  49.15400 2.08000 47.80000
C  49.46400 5.04300 45.49100
C  51.02800 4.86400 45.48900
N  44.52800 6.36300 46.71200
C  45.69400 7.07400 46.77000
C  45.42000 8.50600 46.81800
C  43.99300 8.55300 46.85600
C  43.49000 7.24200 46.76200
C  46.40700 9.57800 46.89500
C  42.83400 9.42500 46.83200
O  42.81600 10.64100 46.67300
C  41.55800 8.54100 46.82000
C  40.77400 8.83600 48.12500
O  40.92500 8.19500 49.16600
O  39.96900 9.91900 48.06300
C  39.09400 10.00300 49.24200
H  40.40700 1.68000 46.91500
H  46.82200 0.87000 46.67600
H  47.91700 6.99100 47.08800
H  39.43800 6.16900 47.84200
H  39.01100 3.81800 46.20900
H  38.30100 4.63600 48.67000
H  39.73200 3.61100 49.07000
H  38.53700 2.91400 48.10700
H  38.69700 7.50200 46.06200
H  38.07100 5.88500 45.76700
H  40.28400 5.52400 44.21500
H  40.02400 7.25300 44.13000
H  41.85800 -1.55500 45.69000
H  40.71500 -0.26500 46.45700
H  41.63500 -1.42300 47.34300
H  46.83100 -1.21000 45.67400
H  46.51100 -2.84200 46.27400
H  46.60600 -1.65200 47.48200
H  48.63600 2.47400 45.80100
H  49.32300 4.81900 47.59700
H  48.29800 1.77400 48.40200
H  49.85600 2.72000 48.33300
H  49.55600 1.18500 47.32500
H  49.19500 6.05600 45.19100
H  49.09600 4.37300 44.71400
H  51.34500 4.19500 44.68900
H  51.31700 4.45700 46.45800
H  51.52900 5.81300 45.29800
H  47.40100 9.19300 46.66800
H  46.51800 9.88200 47.93600
H  46.16500 10.43000 46.26000
H  40.97800 8.79500 45.93300
H  39.59000 10.63100 49.98200
H  38.69200 9.18500 49.84000
H  38.20100 10.46300 48.81700
Mg -11.30900 37.77500 41.97800
C  -9.31000 35.04600 41.21000
C  -9.12200 39.71400 40.12800
C  -13.41900 40.33700 42.34500
C  -13.70300 35.61600 43.22000
N  -9.63400 37.29500 40.46700
C  -8.89400 36.17100 40.57400
C  -7.64600 36.30300 39.65400
C  -7.39700 37.83600 39.73500
C  -8.79800 38.35300 40.08000
C  -6.23600 38.28700 40.69400
C  -7.85200 35.68900 38.21700
C  -6.73500 34.68800 37.92200
H  -5.52900 35.32900 37.14300
N  -11.29700 39.78400 41.22100
C  -10.28300 40.37000 40.58500
C  -10.68100 41.72700 40.39200
C  -11.86900 41.97300 41.10600
C  -12.23400 40.65300 41.62300
C  -9.90900 42.74000 39.71800
C  -12.54200 43.43100 41.09500
O  -12.02800 44.43900 40.64900
C  -13.99400 43.50400 41.61500
N  -13.40600 37.87900 42.34100
C  -13.89900 39.05500 42.68700
C  -15.42600 38.90900 43.08600
C  -15.60000 37.33300 43.21000
C  -14.14600 36.88200 42.86100
C  -15.74100 39.69400 44.43400
C  -16.70400 36.57400 42.37600
C  -16.82100 36.92000 40.97700
N  -11.51600 35.71100 42.22800
C  -12.46000 35.07200 42.89600
C  -11.94600 33.72500 43.09500
C  -10.72600 33.64300 42.48700
C  -10.58300 34.88500 41.86400
C  -12.51400 32.69900 43.98000
C  -9.60300 32.82400 42.16000
O  -9.48100 31.57800 42.32900
C  -8.65300 33.60800 41.20500
C  -7.21800 33.62100 41.78700
O  -6.44400 32.69400 41.64500
O  -6.96400 34.74000 42.47300
C  -5.71300 34.85200 43.20400
H  -8.40200 40.37700 39.64400
H  -14.10400 41.12300 42.66900
H  -14.41900 34.96900 43.73100
H  -6.73700 35.88500 40.08800
H  -7.05900 38.17000 38.75400
H  -6.68100 38.91500 41.46600
H  -5.55200 38.93600 40.14700
H  -5.51700 37.56500 41.08200
H  -7.98500 36.48400 37.48400
H  -8.72500 35.03500 38.20100
H  -7.07800 33.83900 37.33000
H  -6.34900 34.21500 38.82500
H  -9.68900 43.45900 40.50800
H  -10.65400 43.08000 39.00000
H  -9.00200 42.54000 39.14800
H  -13.94300 43.29800 42.68400
H  -14.51300 42.76900 41.00000
H  -14.31700 44.52300 41.40600
H  -16.08300 39.18300 42.26100
H  -15.89000 37.07800 44.23000
H  -15.71800 40.74900 44.16100
H  -14.89300 39.36500 45.03500
H  -16.69300 39.33800 44.82600
H  -17.63800 36.84400 42.86900
H  -16.64500 35.49000 42.46400
H  -15.93200 37.42200 40.59500
H  -17.62600 37.64500 40.85700
H  -17.01200 36.01600 40.39900
H  -13.01800 31.86300 43.49400
H  -13.19000 33.15800 44.70200
H  -11.67900 32.26600 44.53100
H  -8.55700 33.22700 40.18900
H  -4.88400 35.10500 42.54400
H  -5.46100 33.87200 43.60900
H  -5.93100 35.57200 43.99300

