158

Mg 45.27200 4.78900 46.93300
C  43.64700 7.75400 46.29200
C  42.29500 3.10900 46.44700
C  46.91700 1.77900 47.53100
C  48.29900 6.46500 47.11200
N  43.26500 5.28300 46.24700
C  42.80600 6.60600 46.13900
C  41.39600 6.62300 45.59200
C  40.89600 5.25500 45.99700
C  42.21800 4.50800 46.29600
C  39.78300 5.25200 47.08100
C  41.39400 6.80100 44.00400
C  40.61500 8.13100 43.52800
H  40.89300 8.72600 42.10200
N  44.69800 2.72300 46.93000
C  43.42100 2.27200 46.78900
C  43.38300 0.87400 46.79700
C  44.70500 0.45500 47.07300
C  45.54000 1.62100 47.21700
C  42.24100 0.01100 46.44700
C  45.12100 -1.05100 47.09800
O  44.40000 -1.99900 46.79100
C  46.48600 -1.50700 47.52200
N  47.30600 4.18200 47.08300
C  47.72400 2.93100 47.38500
C  49.19900 2.88700 47.83200
C  49.73900 4.32800 47.55200
C  48.33300 5.04400 47.29900
C  49.57800 2.45000 49.29500
C  50.79000 4.55500 46.40100
C  51.94100 5.53800 46.78000
N  45.90100 6.77000 46.68700
C  47.22300 7.28200 46.81000
C  47.01200 8.72100 46.71600
C  45.62400 8.98000 46.54200
C  45.03100 7.75400 46.46900
C  48.00500 9.75200 47.02500
C  44.62200 9.98800 46.52500
O  44.60500 11.16900 46.71000
C  43.24900 9.20100 46.22000
C  42.15400 9.68900 47.16500
O  41.71200 9.02400 48.13400
O  41.70700 10.89200 46.72100
C  40.53500 11.49500 47.38400
H  41.28700 2.70400 46.33500
H  47.46900 0.90700 47.88600
H  49.16000 7.07300 47.39700
H  40.90000 7.48200 46.04400
H  40.50700 4.64400 45.18200
H  39.57100 6.29100 47.33300
H  40.23900 4.75800 47.93900
H  39.04000 4.56000 46.68300
H  40.82100 5.99600 43.54400
H  42.41900 6.89800 43.64700
H  40.77000 9.00600 44.16000
H  39.54200 7.94000 43.55700
H  41.27600 0.37700 46.79500
H  42.22800 -0.97600 46.91100
H  42.17800 -0.12800 45.36700
H  46.66000 -1.00200 48.47200
H  47.15400 -1.05200 46.79000
H  46.56300 -2.58600 47.66200
H  49.70400 2.19500 47.15900
H  50.04300 4.74700 48.51100
H  49.67100 1.36400 49.29200
H  48.83800 2.48600 50.09500
H  50.56800 2.80300 49.58400
H  50.31900 5.10900 45.58900
H  51.07300 3.60000 45.95900
H  51.57000 6.54700 46.60100
H  52.68000 5.17900 46.06400
H  52.19500 5.54400 47.84000
H  48.88900 9.43200 47.57600
H  47.50000 10.59200 47.50200
H  48.28100 10.20900 46.07400
H  43.01200 9.57000 45.22200
H  39.80400 10.71600 47.59800
H  40.06200 12.26900 46.77900
H  40.85800 12.02800 48.27800
Mg 26.94700 51.34800 26.36100
C  24.98800 52.09000 29.20100
C  29.32200 50.05400 28.70800
C  29.00600 50.67300 23.75000
C  24.64300 52.62100 24.27800
N  27.17700 51.05600 28.69300
C  26.17100 51.47600 29.57500
C  26.46700 50.98800 30.99700
C  28.03900 50.67800 30.87200
C  28.22900 50.58200 29.31000
C  29.01600 51.63500 31.57300
C  25.53700 49.87100 31.55400
C  25.02400 49.93700 32.99300
H  25.86400 50.64500 34.07800
N  28.91300 50.55300 26.21100
C  29.72300 50.03800 27.23600
C  30.91000 49.50400 26.71800
C  30.84700 49.81700 25.33100
C  29.57500 50.44000 25.03000
C  31.77800 48.64100 27.56800
C  31.90100 49.57500 24.35000
O  31.74300 49.91000 23.16500
C  33.12900 48.83900 24.64800
N  26.84300 51.56600 24.32800
C  27.76800 51.20900 23.39000
C  27.30200 51.34600 21.87300
C  25.81800 51.79400 22.07100
C  25.74400 52.08400 23.65400
C  28.18200 52.25800 21.05700
C  24.74500 50.75600 21.66400
C  23.49200 51.41600 21.01900
N  25.19100 52.24100 26.62000
C  24.36400 52.77200 25.66700
C  23.18600 53.33600 26.37300
C  23.44100 53.11500 27.75500
C  24.61000 52.42700 27.87200
C  21.99300 53.97600 25.62700
C  22.89000 53.41100 29.05700
O  21.91900 54.01000 29.41200
C  23.82300 52.57100 30.04300
C  24.23700 53.69000 30.97900
O  25.17600 54.33400 30.88900
O  23.32300 53.83900 31.95600
C  23.72100 54.73200 33.06700
H  29.93700 49.63800 29.50800
H  29.55500 50.47200 22.82700
H  23.81900 52.90000 23.61800
H  26.33500 51.89200 31.59200
H  28.17100 49.66100 31.24000
H  29.71300 51.86000 30.76600
H  29.38900 51.19300 32.49700
H  28.43100 52.50100 31.88500
H  26.15500 48.97300 31.55900
H  24.78200 49.83400 30.76800
H  24.79900 48.93600 33.36100
H  24.04800 50.40100 32.85100
H  32.68100 49.24900 27.52200
H  31.84100 47.67200 27.07100
H  31.49800 48.46000 28.60500
H  33.77200 48.75400 23.77200
H  32.72500 47.86000 24.90600
H  33.63200 49.34600 25.47200
H  27.33200 50.33700 21.46100
H  25.59700 52.77700 21.65500
H  28.71300 52.93700 21.72400
H  27.58300 52.68100 20.25100
H  28.95700 51.67200 20.56300
H  24.39000 50.22400 22.54700
H  25.14500 50.02100 20.96600
H  23.58700 51.60100 19.94900
H  23.42100 52.43900 21.38900
H  22.55000 50.97200 21.34100
H  21.73800 53.32600 24.79000
H  22.23200 54.97100 25.25400
H  21.22100 54.02400 26.39600
H  23.20400 51.98900 30.72600
H  23.85600 55.73200 32.65700
H  24.57500 54.35700 33.63200
H  22.86700 54.71300 33.74300

