158

Mg 43.41800 3.58500 47.54500
C  41.24700 6.35300 47.20500
C  40.81600 1.47900 47.22400
C  45.73200 1.09600 47.43400
C  46.07900 5.94400 47.21000
N  41.36600 3.89400 47.14800
C  40.68100 5.09100 47.06200
C  39.18000 4.84300 46.76000
C  39.10600 3.31300 46.94900
C  40.50300 2.83600 47.16700
C  38.09400 2.75900 48.01300
C  38.75100 5.42300 45.40200
C  37.69100 6.45300 45.38500
H  37.92300 7.59700 44.35100
N  43.28800 1.56400 47.42200
C  42.08900 0.85300 47.34700
C  42.42700 -0.55500 47.18700
C  43.84200 -0.67400 47.29700
C  44.37200 0.73400 47.42200
C  41.39500 -1.59900 46.89600
C  44.67300 -1.94900 47.12400
O  44.07000 -3.01300 46.93100
C  46.18500 -2.13600 47.22100
N  45.52700 3.54100 47.28600
C  46.31000 2.40300 47.29800
C  47.75700 2.67800 47.43300
C  47.86200 4.19800 47.06500
C  46.41700 4.59000 47.22700
C  48.32900 2.23500 48.83500
C  48.48600 4.39200 45.67600
C  49.35900 5.59200 45.67400
N  43.63700 5.70200 47.19300
C  44.77500 6.47800 47.21300
C  44.40600 7.81400 47.28600
C  43.02100 7.83900 47.27600
C  42.61800 6.52200 47.20700
C  45.30000 9.01100 47.31100
C  41.83300 8.71300 47.41600
O  41.71700 9.89500 47.60400
C  40.60700 7.72100 47.21800
C  39.63900 7.91800 48.28300
O  39.67500 7.31900 49.36600
O  38.82500 9.02300 47.95600
C  37.76100 9.36700 48.93200
H  39.95100 0.87400 46.94400
H  46.51900 0.34300 47.52000
H  46.81100 6.73000 47.01400
H  38.56800 5.12200 47.61700
H  38.71500 2.91300 46.01400
H  37.65200 3.57500 48.58600
H  38.61300 2.07100 48.67900
H  37.25400 2.20800 47.59000
H  38.41500 4.62300 44.74200
H  39.63800 5.71400 44.83800
H  37.61100 6.94900 46.35300
H  36.77900 5.88800 45.19400
H  41.70200 -2.55100 47.33100
H  41.19400 -1.82000 45.84800
H  40.47700 -1.20400 47.33100
H  46.78500 -1.48300 46.58700
H  46.20900 -3.13800 46.79200
H  46.37400 -1.98500 48.28400
H  48.26900 2.02400 46.72700
H  48.42500 4.72700 47.83400
H  47.69300 1.58200 49.43300
H  48.51700 3.09600 49.47600
H  49.23600 1.65900 48.65300
H  47.64400 4.39400 44.98400
H  49.15800 3.53600 45.61100
H  50.39300 5.27500 45.54200
H  49.18500 6.37400 46.41400
H  49.12700 6.22300 44.81700
H  45.09700 9.56300 48.22800
H  45.17100 9.69700 46.47400
H  46.37000 8.80900 47.36600
H  40.16600 7.75200 46.22100
H  38.13700 9.28200 49.95200
H  36.82100 8.82900 48.81100
H  37.52800 10.42000 48.77400
Mg 34.71300 1.49100 28.92900
C  32.40300 2.83700 31.33600
C  37.17600 1.85900 31.23100
C  36.70600 0.62100 26.47200
C  31.95700 1.78000 26.54800
N  34.68400 2.19600 31.08500
C  33.67900 2.63800 31.86200
C  34.18600 2.79400 33.27700
C  35.71200 2.75400 33.16900
C  35.90800 2.30300 31.73800
C  36.45900 4.09800 33.43600
C  33.54000 1.82400 34.30600
C  32.99800 2.55200 35.53400
H  33.98000 3.09900 36.64300
N  36.69000 1.19200 28.88500
C  37.52500 1.39700 29.94000
C  38.89000 1.01000 29.51200
C  38.77000 0.70300 28.11600
C  37.35200 0.87300 27.74000
C  40.05600 0.89500 30.43800
C  39.88800 0.19800 27.19200
O  39.72200 0.07400 25.97200
C  41.29800 -0.16800 27.74600
N  34.31000 1.12500 26.89500
C  35.36100 0.84000 26.06200
C  34.96200 0.92800 24.51200
C  33.36300 1.05400 24.64700
C  33.20100 1.32300 26.13900
C  35.67400 2.10000 23.78200
C  32.57900 -0.21600 24.25300
C  32.09100 -0.16600 22.82600
N  32.58600 2.04500 28.91100
C  31.64000 2.09700 27.86500
C  30.36800 2.65000 28.41300
C  30.61700 2.85200 29.74500
C  31.93500 2.52000 30.01900
C  29.06300 2.78700 27.66500
C  30.01300 3.32400 31.01300
O  28.89500 3.58500 31.24300
C  31.15400 3.31100 32.09400
C  31.31300 4.75100 32.59700
O  31.82300 5.65600 31.97900
O  30.69100 4.82000 33.76400
C  30.60700 5.97400 34.66900
H  37.96700 2.08200 31.95100
H  37.34900 0.51400 25.59600
H  31.13100 1.97500 25.86100
H  33.79500 3.80100 33.42300
H  36.24000 2.01500 33.77100
H  35.69900 4.68700 33.95000
H  36.66900 4.61400 32.49900
H  37.36000 3.92200 34.02300
H  34.31300 1.13100 34.63700
H  32.72200 1.28200 33.83200
H  32.30500 1.80700 35.92600
H  32.38100 3.36400 35.15000
H  40.72900 1.72900 30.23500
H  40.78200 0.08200 30.46800
H  39.64300 1.16300 31.41100
H  41.88600 0.69400 28.06000
H  41.85600 -0.73100 26.99700
H  41.11700 -0.76600 28.63900
H  35.19000 0.04800 23.91100
H  33.00800 1.90200 24.06200
H  35.03800 2.92600 23.46400
H  36.15400 1.69600 22.89100
H  36.43700 2.62700 24.35600
H  31.64700 -0.32000 24.80800
H  33.15200 -1.11300 24.48700
H  32.25200 -1.11300 22.31100
H  32.69900 0.56900 22.29800
H  31.06200 0.18000 22.73100
H  28.61700 1.79300 27.62400
H  29.02500 3.38700 26.75600
H  28.60100 3.39200 28.44500
H  30.97400 2.62500 32.92200
H  30.26300 6.84400 34.11000
H  31.55400 6.08300 35.19800
H  29.97200 5.78100 35.53300

