158

Mg 6.96900 53.26000 41.02800
C  6.52200 49.67000 40.88800
C  10.10200 52.67900 39.51300
C  7.04600 56.39700 40.22400
C  3.58700 53.49000 41.85700
N  8.13500 51.42500 40.24800
C  7.81700 50.08000 40.43500
C  8.94800 49.09600 39.86000
C  10.11600 50.09200 39.89900
C  9.39100 51.52200 39.84600
C  11.06400 50.05600 41.14600
C  8.68400 48.37700 38.43900
C  8.56600 49.25000 37.20700
H  7.36400 49.10500 36.29100
N  8.40600 54.39700 40.10400
C  9.67600 54.05600 39.59300
C  10.34400 55.23600 39.12600
C  9.40800 56.33900 39.31000
C  8.22700 55.73300 39.87600
C  11.68600 55.25300 38.48200
C  9.67100 57.75900 38.93100
O  10.75800 58.09900 38.50300
C  8.70200 58.88700 39.16600
N  5.39500 54.67700 40.90000
C  5.78800 55.97300 40.69600
C  4.67200 56.95100 41.04900
C  3.60900 55.91900 41.49800
C  4.24300 54.60900 41.45400
C  5.05500 58.13500 42.00600
C  2.25400 56.05300 40.63800
C  1.83000 55.12900 39.50300
N  5.40600 51.90600 41.53000
C  4.10600 52.16500 41.89300
C  3.53400 50.93300 42.34200
C  4.43300 49.92900 41.90700
C  5.53400 50.59000 41.38200
C  2.23000 50.68000 42.97300
C  4.59800 48.50200 41.83900
O  3.90100 47.62000 42.29400
C  5.92000 48.25300 41.02000
C  5.36800 47.59200 39.77600
O  4.77000 48.26700 38.88800
O  5.67700 46.24300 39.70600
C  5.44800 45.63400 38.37700
H  11.09300 52.46600 39.10500
H  6.92400 57.47500 40.09500
H  2.58100 53.77200 42.17600
H  9.16200 48.34800 40.62400
H  10.82700 49.93500 39.08800
H  11.93900 49.49800 40.81100
H  10.50500 49.37300 41.78500
H  11.33200 51.02700 41.56300
H  7.92900 47.61300 38.62300
H  9.62500 47.84700 38.29400
H  9.51800 49.14600 36.68700
H  8.57600 50.29800 37.50900
H  12.21800 54.31500 38.64100
H  12.38500 55.99300 38.87200
H  11.70300 55.43300 37.40700
H  8.57400 59.03200 40.23800
H  7.72000 58.66100 38.74900
H  9.03100 59.80500 38.67800
H  4.36400 57.46600 40.13800
H  3.35700 56.12100 42.53900
H  6.11700 58.09800 42.24900
H  4.49600 58.11000 42.94100
H  4.72400 59.04200 41.50000
H  2.23000 57.10100 40.34000
H  1.48000 55.95400 41.39800
H  1.83500 55.71300 38.58300
H  0.83800 54.73400 39.72200
H  2.55300 54.31600 39.42900
H  1.66500 49.99400 42.34200
H  1.60100 51.55800 43.12200
H  2.48600 50.18400 43.91000
H  6.60500 47.62400 41.58900
H  6.24300 44.88800 38.34900
H  5.67400 46.36100 37.59700
H  4.43300 45.27800 38.19800
Mg 0.49800 43.00600 25.56700
C  2.61500 42.72900 28.42800
C  -2.00400 41.84600 27.36400
C  -1.10900 42.59000 22.63100
C  3.45900 43.51600 23.59100
N  0.39200 42.36900 27.62000
C  1.26500 42.53700 28.66900
C  0.61200 42.59400 29.99300
C  -0.84200 42.06000 29.68400
C  -0.84300 42.01400 28.13200
C  -1.12400 40.66000 30.40900
C  0.74700 44.05100 30.65700
C  1.25700 44.00300 32.13900
H  1.16600 42.70500 32.97500
N  -1.31700 42.45500 25.06000
C  -2.26300 41.92900 25.97400
C  -3.44200 41.49800 25.28600
C  -3.22700 41.91100 23.95200
C  -1.81900 42.31200 23.81800
C  -4.58600 40.92100 26.00200
C  -4.23000 41.98100 22.73400
O  -4.00100 42.38300 21.60600
C  -5.66300 41.54800 22.97400
N  1.02200 43.24200 23.34800
C  0.21800 42.97700 22.31000
C  0.86000 43.21300 20.95600
C  2.29200 43.72800 21.30400
C  2.25600 43.47700 22.84100
C  0.89500 41.87600 20.13400
C  2.49900 45.22400 21.03000
C  3.63500 45.50700 20.05800
N  2.62600 43.13400 25.83200
C  3.62900 43.33400 24.99100
C  4.91000 43.19400 25.68100
C  4.54300 43.09500 27.01700
C  3.14400 42.97800 27.10200
C  6.31200 43.24100 25.07200
C  5.06000 43.00400 28.41200
O  6.17300 43.15900 28.81100
C  3.78200 42.87100 29.35700
C  3.92700 41.72100 30.31500
O  3.39100 40.57000 30.19100
O  4.84500 42.03400 31.21600
C  5.12300 41.23700 32.46900
H  -2.92200 41.71400 27.94000
H  -1.69800 42.33000 21.74900
H  4.40500 43.70700 23.07900
H  1.25400 41.96000 30.60500
H  -1.65600 42.74500 29.92200
H  -0.21200 40.06600 30.46300
H  -1.78500 40.04300 29.80000
H  -1.58700 40.79100 31.38800
H  -0.17200 44.63500 30.69500
H  1.44600 44.66900 30.09400
H  0.73800 44.82200 32.63600
H  2.32800 44.20200 32.18500
H  -4.26900 40.33000 26.86200
H  -5.17300 40.25900 25.36500
H  -5.23100 41.73900 26.32200
H  -5.73200 40.47000 22.83400
H  -6.34800 42.09400 22.32500
H  -5.96100 41.80800 23.99000
H  0.28900 44.01900 20.49600
H  3.08700 43.13300 20.85300
H  1.79300 41.37400 20.49400
H  1.08300 42.06500 19.07700
H  0.07300 41.19500 20.35400
H  2.74000 45.83100 21.90200
H  1.60000 45.72400 20.66900
H  4.18600 44.70300 19.57100
H  4.36100 46.09200 20.62300
H  3.27200 46.15100 19.25700
H  6.35500 42.87800 24.04500
H  7.00600 42.63800 25.65700
H  6.69100 44.26000 24.99000
H  3.60700 43.76600 29.95500
H  4.45000 40.38000 32.50300
H  5.05900 41.77700 33.41400
H  6.14600 40.86300 32.46400

