158

Mg 2.31000 -0.58500 44.25900
C  5.53300 0.34900 43.74900
C  1.27300 2.18400 42.50900
C  -0.87200 -1.95400 44.20200
C  3.52100 -3.72600 45.46500
N  3.29200 1.08400 43.15500
C  4.67100 1.20300 43.03100
C  4.95700 2.55400 42.25400
C  3.59700 3.21700 42.08100
C  2.63100 2.09800 42.56100
C  3.40100 4.57400 42.76900
C  5.62200 2.30400 40.79100
C  6.57000 3.35600 40.20200
H  6.08200 4.01700 38.90300
N  0.49700 0.11600 43.66400
C  0.27100 1.32200 42.98100
C  -1.16000 1.55600 42.92300
C  -1.82400 0.37000 43.29600
C  -0.74000 -0.58600 43.73100
C  -1.67300 2.92300 42.45500
C  -3.32100 0.19000 43.23400
O  -4.11400 1.06600 42.83500
C  -3.90500 -1.15600 43.63100
N  1.47600 -2.61700 44.61700
C  0.14800 -2.83600 44.65100
C  -0.19200 -4.16400 45.39500
C  1.23300 -4.74400 45.63600
C  2.16600 -3.72400 45.09800
C  -1.14800 -4.15500 46.67800
C  1.49000 -6.15500 44.93900
C  0.91500 -7.32800 45.72100
N  4.15800 -1.50600 44.64800
C  4.48900 -2.74200 45.15000
C  5.86800 -2.81400 45.29900
C  6.37600 -1.60100 44.80900
C  5.28700 -0.88800 44.33300
C  6.64000 -3.97300 45.80900
C  7.58100 -0.84200 44.50400
O  8.76600 -1.08200 44.79200
C  7.08700 0.44300 43.76900
C  7.52800 1.71500 44.47700
O  7.15300 2.16400 45.56900
O  8.48700 2.40000 43.76000
C  9.17000 3.58300 44.39900
H  0.96600 3.12000 42.03800
H  -1.84700 -2.24500 44.60100
H  3.99300 -4.59900 45.92100
H  5.65100 3.17900 42.81600
H  3.53100 3.37900 41.00500
H  3.59800 5.46700 42.17600
H  4.06900 4.55600 43.63100
H  2.52800 4.80800 43.37800
H  4.82900 2.02700 40.09600
H  6.20800 1.38600 40.76000
H  7.56500 2.93800 40.04700
H  6.66500 4.07700 41.01400
H  -0.98800 3.74700 42.65800
H  -2.72400 3.12700 42.66300
H  -1.71100 2.92500 41.36500
H  -4.97400 -1.17000 43.41900
H  -3.84100 -1.22900 44.71700
H  -3.45400 -2.03600 43.17300
H  -0.74800 -4.77900 44.68800
H  1.38000 -4.93500 46.69900
H  -1.42900 -3.12300 46.88900
H  -0.79800 -4.60700 47.60600
H  -2.10100 -4.63500 46.45200
H  2.56100 -6.22800 44.75100
H  0.94000 -6.19700 43.99900
H  1.60400 -8.06800 46.12800
H  0.21000 -7.82100 45.05100
H  0.29500 -7.02000 46.56200
H  7.08000 -4.50400 44.96500
H  5.97500 -4.70900 46.26100
H  7.35900 -3.72500 46.58900
H  7.49300 0.38500 42.75900
H  9.35700 3.34100 45.44500
H  8.53700 4.47000 44.37500
H  10.17600 3.63200 43.98300
Mg -10.88000 17.11900 43.31000
C  -7.40900 17.75300 43.23500
C  -11.45300 20.42800 42.52400
C  -14.03400 16.24700 42.60900
C  -9.98300 13.66700 43.50300
N  -9.55300 18.80700 43.00600
C  -8.19600 18.89000 43.07900
C  -7.67900 20.32200 42.70600
C  -8.93400 21.12700 42.99800
C  -10.10700 20.07900 42.83500
C  -9.01500 21.87100 44.37600
C  -7.17500 20.41400 41.18900
C  -5.99500 21.35900 40.82600
H  -4.89000 20.55500 40.28500
N  -12.57100 18.20900 42.61500
C  -12.57000 19.57700 42.31900
C  -13.90500 19.99400 41.97800
C  -14.69300 18.75700 41.93900
C  -13.74000 17.63800 42.38000
C  -14.31200 21.35300 41.59700
C  -16.17900 18.73600 41.47900
O  -16.73900 19.77800 41.21100
C  -17.00000 17.42500 41.27700
N  -11.84000 15.20600 42.97900
C  -13.16600 15.17500 42.87200
C  -13.66800 13.71600 43.06600
C  -12.34600 12.88700 42.94900
C  -11.35300 13.95400 43.21700
C  -14.46700 13.51000 44.38800
C  -12.17800 12.02100 41.67300
C  -12.15000 12.84600 40.30300
N  -9.08700 15.92400 43.54700
C  -8.89700 14.47700 43.57500
C  -7.49600 14.17200 43.71800
C  -6.87500 15.47900 43.67400
C  -7.88400 16.45400 43.44700
C  -6.89300 12.84200 44.07100
C  -5.61800 16.19400 43.79900
O  -4.54400 15.74200 44.06800
C  -5.84000 17.71900 43.44600
C  -5.56400 18.52700 44.69800
O  -5.95200 18.33200 45.83700
O  -4.69800 19.53800 44.33500
C  -4.35600 20.34900 45.46700
H  -11.62300 21.49700 42.67100
H  -15.08000 15.99700 42.42200
H  -9.63000 12.63400 43.56000
H  -6.93600 20.67300 43.42200
H  -9.21700 21.85300 42.23700
H  -9.71900 21.40600 45.06600
H  -9.20700 22.93400 44.23200
H  -8.05400 21.77700 44.88100
H  -7.90600 20.76700 40.46100
H  -6.95000 19.38400 40.91400
H  -5.67300 21.89100 41.72100
H  -6.34700 22.12200 40.13200
H  -14.52700 21.48100 40.53600
H  -13.53100 22.04200 41.91900
H  -15.18800 21.57900 42.20500
H  -17.97800 17.54400 40.80900
H  -17.22900 17.12200 42.29900
H  -16.45300 16.64900 40.74100
H  -14.18100 13.31400 42.19300
H  -12.28800 12.24700 43.83000
H  -14.95700 14.42100 44.73100
H  -13.86000 13.07300 45.18200
H  -15.12100 12.69200 44.08700
H  -12.98900 11.29300 41.71300
H  -11.28100 11.40100 41.66100
H  -12.76800 12.41600 39.51500
H  -11.09600 12.76100 40.03800
H  -12.52200 13.86500 40.41300
H  -5.86400 12.80500 44.42800
H  -6.95200 12.24900 43.15800
H  -7.46400 12.36600 44.86800
H  -5.32000 18.11100 42.57200
H  -5.20000 20.85000 45.94200
H  -3.60200 21.09800 45.22500
H  -4.02500 19.67400 46.25700

