158

Mg -1.67000 17.04900 26.33300
C  -2.03500 14.90600 29.05500
C  -2.11000 19.64200 28.42800
C  -1.92000 19.08100 23.53700
C  -1.68800 14.34300 24.12400
N  -2.35100 17.23800 28.52900
C  -2.22000 16.24000 29.48400
C  -2.35900 16.67300 30.87600
C  -2.47300 18.23700 30.63800
C  -2.32100 18.42400 29.11000
C  -3.72000 18.90900 31.25300
C  -1.09600 16.38700 31.79900
C  -0.80500 17.15500 33.07300
H  -0.93100 16.40700 34.29500
N  -1.79200 19.02700 26.03300
C  -1.99300 19.96400 27.04500
C  -2.02800 21.24900 26.46300
C  -1.82700 21.11900 25.10000
C  -1.94900 19.69600 24.82700
C  -2.27500 22.59400 27.24100
C  -1.54700 22.21200 24.06000
O  -1.70000 22.07400 22.81400
C  -0.98500 23.53100 24.45700
N  -1.75300 16.72800 24.04400
C  -1.78700 17.71300 23.18600
C  -1.85800 17.14600 21.79100
C  -1.38700 15.67300 21.91900
C  -1.49900 15.51000 23.47000
C  -3.27700 17.32300 21.18200
C  -0.07200 15.31300 21.16600
C  1.14600 15.60600 21.91500
N  -1.92000 15.07500 26.50800
C  -1.79800 14.06300 25.56200
C  -1.75500 12.75800 26.22300
C  -1.83000 13.08600 27.60300
C  -1.92900 14.49700 27.71100
C  -1.71900 11.41800 25.53300
C  -1.93100 12.53200 28.94800
O  -1.85600 11.36800 29.27300
C  -1.96900 13.66700 29.94500
C  -0.67100 13.55200 30.70200
O  0.36900 13.93000 30.28900
O  -0.84700 12.99000 31.98700
C  0.31100 12.97500 32.83200
H  -2.07200 20.49200 29.11400
H  -1.98700 19.74100 22.67000
H  -1.56800 13.52200 23.41400
H  -3.32800 16.30900 31.21800
H  -1.65700 18.69900 31.19400
H  -4.08000 19.56200 30.45800
H  -3.48700 19.40800 32.19400
H  -4.61000 18.30600 31.43400
H  -0.14000 16.34600 31.27700
H  -1.29100 15.36100 32.11100
H  -1.41900 18.05200 33.15600
H  0.24000 17.46200 33.02100
H  -2.83000 22.28200 28.12500
H  -2.87200 23.20900 26.56900
H  -1.36300 23.08400 27.58200
H  -0.25600 23.49900 25.26700
H  -1.82600 24.17500 24.71300
H  -0.47100 24.05000 23.64800
H  -1.14800 17.60100 21.10000
H  -2.15800 14.98600 21.57300
H  -3.25000 17.63900 20.13900
H  -3.82300 18.11600 21.69200
H  -3.71500 16.32500 21.18800
H  0.00700 15.86300 20.22900
H  -0.12400 14.25600 20.90600
H  0.89600 16.31600 22.70400
H  1.92000 16.18000 21.40400
H  1.51600 14.68000 22.35500
H  -1.31400 11.42400 24.52100
H  -2.71000 10.97200 25.44600
H  -1.13100 10.76200 26.17400
H  -2.78800 13.51000 30.64600
H  0.92000 12.14800 32.46700
H  -0.09000 12.79100 33.82800
H  0.80200 13.94700 32.80500
Mg 7.25200 53.96000 40.88400
C  7.16200 50.46400 40.52200
C  10.52200 54.00800 39.92800
C  7.00500 57.39800 40.51600
C  3.82600 53.97200 41.68000
N  8.66900 52.40700 40.22400
C  8.44200 51.08800 40.16800
C  9.71500 50.35500 39.85100
C  10.80800 51.42100 39.87000
C  10.01200 52.70500 40.07000
C  11.92000 51.29900 40.98600
C  9.62600 49.52200 38.57200
C  9.31900 50.26800 37.24800
H  8.13800 49.83400 36.39300
N  8.60700 55.48800 40.39400
C  9.94600 55.30600 39.99300
C  10.52800 56.53900 39.63600
C  9.48900 57.54300 39.65500
C  8.30200 56.80700 40.19800
C  11.97500 56.61300 39.17400
C  9.58900 59.03100 39.18700
O  10.53600 59.45600 38.67700
C  8.46100 59.96600 39.26500
N  5.46900 55.47300 40.75900
C  5.72600 56.83200 40.80500
C  4.53500 57.63500 41.27900
C  3.47000 56.46700 41.44900
C  4.32200 55.18300 41.34500
C  4.64300 58.68600 42.38400
C  2.27900 56.47500 40.44800
C  1.60500 57.83400 40.12400
N  5.78800 52.57700 41.17000
C  4.47500 52.74500 41.53200
C  3.84400 51.43300 41.67800
C  4.85700 50.50700 41.32200
C  6.04300 51.23000 40.95100
C  2.44100 51.16400 42.00700
C  5.13900 49.10200 41.14900
O  4.51700 48.07800 41.39000
C  6.56800 49.07800 40.44000
C  6.24800 48.51800 39.11300
O  5.76800 49.15500 38.21800
O  6.59900 47.14500 39.14700
C  5.97600 46.32300 38.17800
H  11.56500 53.84300 39.65000
H  7.00200 58.48900 40.57400
H  2.88600 53.98800 42.23400
H  9.86000 49.72100 40.72600
H  11.28900 51.29000 38.90100
H  11.57300 52.02800 41.71800
H  12.89100 51.47300 40.52100
H  11.95700 50.29200 41.40100
H  9.03700 48.61900 38.73100
H  10.62900 49.09900 38.52300
H  10.20900 50.19200 36.62300
H  9.24100 51.32300 37.50800
H  11.99900 56.53400 38.08700
H  12.51900 55.79700 39.65000
H  12.49400 57.54800 39.38300
H  7.51600 59.57500 38.88900
H  8.61100 60.91600 38.75100
H  8.36500 60.13700 40.33700
H  4.23900 58.17100 40.37700
H  3.06500 56.54800 42.45800
H  5.71100 58.74100 42.59200
H  4.10200 58.59400 43.32600
H  4.26600 59.63200 41.99600
H  1.41400 56.04400 40.95400
H  2.48200 55.91800 39.53300
H  2.04100 58.69200 40.63500
H  0.56700 57.71600 40.43600
H  1.56700 58.02700 39.05200
H  2.50600 50.63700 42.95900
H  1.96600 50.51500 41.27100
H  1.81400 52.03400 42.20300
H  7.10100 48.37100 41.07600
H  6.66100 46.22600 37.33600
H  5.06200 46.79200 37.81400
H  5.88300 45.38000 38.71700

