158

Mg 29.42300 58.88600 40.07800
C  26.88400 56.70200 38.78600
C  31.85200 56.40300 39.00200
C  31.83000 61.25800 40.34700
C  26.89100 61.29900 40.33900
N  29.42800 56.84200 38.88200
C  28.17300 56.14200 38.58200
C  28.56800 54.77700 37.96400
C  30.08200 54.66500 38.29700
C  30.50600 56.05200 38.76600
C  30.43700 53.61900 39.40100
C  28.30200 54.88000 36.38500
C  27.04000 54.08600 36.00500
H  26.22700 54.58800 34.80400
N  31.56100 58.80000 39.82300
C  32.33500 57.71000 39.37800
C  33.65900 58.18400 39.47500
C  33.79000 59.52200 39.99900
C  32.36300 59.94400 40.06600
C  34.74100 57.20800 38.98400
C  35.07900 60.30300 40.35900
O  36.23000 59.93800 40.11400
C  35.04800 61.63900 40.99400
N  29.33500 60.92200 40.19300
C  30.47800 61.68700 40.33000
C  30.08400 63.16700 40.57100
C  28.55700 63.24500 40.59500
C  28.22200 61.69500 40.39400
C  30.79700 63.75700 41.85500
C  27.88300 64.20200 39.59800
C  27.39900 65.61600 39.98400
N  27.34100 58.95400 39.84500
C  26.49700 59.99300 40.05400
C  25.08800 59.53300 40.00600
C  25.23600 58.27300 39.48300
C  26.55900 57.97700 39.39000
C  23.84100 60.31800 40.34200
C  24.47200 57.10400 39.02300
O  23.23300 56.96800 38.86300
C  25.51200 56.05800 38.58700
C  25.28900 54.85400 39.48600
O  25.57400 54.86900 40.67800
O  24.62600 53.85300 38.80100
C  24.31200 52.57900 39.40900
H  32.53300 55.58700 38.75000
H  32.52300 62.08600 40.51100
H  26.11500 62.04800 40.51100
H  28.04900 53.98400 38.50200
H  30.66900 54.37200 37.42700
H  31.04800 52.84900 38.93000
H  29.56600 53.04500 39.71500
H  30.95700 54.01800 40.27200
H  29.08900 54.56600 35.69800
H  28.05700 55.89500 36.07400
H  26.44600 53.86500 36.89200
H  27.33100 53.05300 35.82000
H  35.09000 56.46700 39.70300
H  35.64900 57.80100 38.87100
H  34.45700 56.63400 38.10200
H  34.61800 62.43200 40.38300
H  36.09500 61.82700 41.23600
H  34.45900 61.51000 41.90200
H  30.48500 63.75500 39.74600
H  28.25100 63.65800 41.55600
H  30.52400 63.37200 42.83800
H  30.58100 64.82400 41.80500
H  31.87300 63.64500 41.72300
H  27.09800 63.68300 39.04600
H  28.52200 64.36700 38.73100
H  27.82500 66.28400 39.23500
H  27.73900 65.79600 41.00400
H  26.31200 65.64200 39.90700
H  23.14600 59.63600 40.83200
H  23.29500 60.64600 39.45800
H  24.08900 61.13800 41.01600
H  25.34700 55.60900 37.60800
H  23.42100 52.24600 38.87600
H  24.09900 52.61500 40.47700
H  25.14800 51.91000 39.20300
Mg -2.35600 35.35300 26.38800
C  -3.46400 33.54200 29.20000
C  -0.95800 37.65600 28.54500
C  -1.34300 37.04900 23.63300
C  -4.09500 33.12000 24.40000
N  -2.24700 35.50200 28.70300
C  -2.57700 34.56700 29.65500
C  -2.03600 34.93300 31.08200
C  -1.44800 36.36500 30.79500
C  -1.53900 36.55900 29.25100
C  -2.16300 37.51300 31.63800
C  -1.14800 33.90000 31.88900
C  -1.78700 33.18200 33.04700
H  -1.08600 33.25200 34.39400
N  -1.31600 37.26600 26.10900
C  -0.73700 38.00400 27.14100
C  0.00700 39.05000 26.51700
C  0.07500 38.68500 25.08700
C  -0.85000 37.59700 24.84200
C  0.86100 40.02000 27.35200
C  0.97100 39.27200 24.02100
O  1.04900 38.73800 22.88400
C  1.84400 40.55100 24.30100
N  -2.60200 35.01700 24.26300
C  -2.20100 35.99700 23.37500
C  -2.63900 35.61300 21.98600
C  -3.27000 34.15500 22.06700
C  -3.43400 34.13400 23.61200
C  -3.55200 36.69200 21.20200
C  -2.54700 32.94800 21.46600
C  -1.70300 32.21000 22.41600
N  -3.49400 33.73200 26.64300
C  -4.13800 32.92600 25.79700
C  -4.95500 31.96100 26.44100
C  -4.65600 32.17900 27.81100
C  -3.79600 33.25000 27.85100
C  -5.68700 30.82600 25.69700
C  -4.88800 31.66100 29.15000
O  -5.54600 30.67900 29.37300
C  -4.24300 32.58000 30.13400
C  -5.34200 33.25400 30.88700
O  -6.01000 34.12500 30.40700
O  -5.50100 32.70700 32.16500
C  -6.50400 33.33800 32.99900
H  -0.32900 38.27300 29.19000
H  -1.00400 37.38700 22.65200
H  -4.57100 32.42100 23.70900
H  -2.97500 34.98600 31.63300
H  -0.38900 36.39300 31.05300
H  -1.39600 38.03000 32.21600
H  -2.93000 37.12700 32.31000
H  -2.55900 38.11400 30.82000
H  -0.18400 34.28500 32.22000
H  -0.94500 33.06400 31.21900
H  -1.89800 32.14700 32.72300
H  -2.82900 33.50000 33.03100
H  0.26500 40.14300 28.25600
H  0.98300 40.99900 26.88800
H  1.83800 39.54600 27.44900
H  1.13400 41.32700 24.58900
H  2.48500 40.74200 23.44000
H  2.51100 40.32700 25.13300
H  -1.74300 35.48400 21.37800
H  -4.26800 34.19400 21.63000
H  -4.62100 36.49000 21.26500
H  -3.27000 36.92300 20.17500
H  -3.49600 37.56100 21.85800
H  -1.99500 33.24600 20.57500
H  -3.31600 32.22800 21.18600
H  -1.29800 32.72000 23.28900
H  -0.73200 31.95900 21.98900
H  -2.09800 31.29700 22.86200
H  -6.50500 30.39900 26.27700
H  -5.03000 29.95700 25.68900
H  -5.98000 31.04500 24.67000
H  -3.58200 31.98500 30.76400
H  -7.50300 32.94000 32.82300
H  -6.56800 34.41900 32.87900
H  -6.19900 33.22000 34.03900

