158

Mg 17.07000 -2.93500 28.25500
C  16.17700 -0.82400 30.92500
C  18.71300 -5.02900 30.41200
C  18.31200 -4.51000 25.55800
C  15.94000 -0.27300 26.04700
N  17.32000 -2.93400 30.44800
C  16.91200 -1.97100 31.35900
C  17.36200 -2.31800 32.79800
C  18.27100 -3.64800 32.55700
C  18.03200 -3.95100 31.05700
C  19.81000 -3.42900 32.97000
C  16.07900 -2.63200 33.62400
C  16.05900 -1.84100 34.96600
H  17.40800 -1.45000 35.59200
N  18.29000 -4.56100 28.03000
C  18.87200 -5.34200 29.04100
C  19.63700 -6.41600 28.49300
C  19.42500 -6.36000 27.09400
C  18.68300 -5.09500 26.79800
C  20.30600 -7.48900 29.36500
C  19.91100 -7.30700 26.02200
O  19.74600 -7.09900 24.84100
C  20.68000 -8.59100 26.46200
N  17.00000 -2.50800 26.07900
C  17.65400 -3.33700 25.21900
C  17.69200 -2.75900 23.77800
C  16.67800 -1.53400 23.88500
C  16.54300 -1.41200 25.45200
C  19.08600 -2.38000 23.30800
C  15.44200 -1.85300 22.98700
C  15.39500 -1.16200 21.65100
N  16.16300 -0.97200 28.41000
C  15.69200 -0.10700 27.41900
C  15.00800 0.97900 28.10200
C  15.21300 0.73200 29.47100
C  15.91900 -0.41100 29.60100
C  14.15500 2.01300 27.41100
C  14.98700 1.28400 30.79500
O  14.54300 2.35700 31.14400
C  15.63700 0.26600 31.80800
C  16.58100 0.95600 32.67600
O  17.72000 1.38100 32.30600
O  15.98000 1.35900 33.84900
C  16.60800 2.43800 34.58800
H  19.28500 -5.59300 31.15100
H  18.66200 -4.90800 24.60400
H  15.71800 0.61100 25.44500
H  17.87600 -1.42400 33.15200
H  17.97400 -4.45700 33.22500
H  19.98300 -4.36500 33.50100
H  19.98400 -2.52400 33.55200
H  20.28800 -3.42200 31.99000
H  15.96900 -3.70100 33.80600
H  15.19000 -2.28100 33.10000
H  15.45700 -2.38700 35.69300
H  15.43300 -0.94900 34.95200
H  19.59800 -8.31800 29.36700
H  20.46800 -7.26600 30.42000
H  21.27700 -7.79500 28.97500
H  20.87300 -9.10600 25.52100
H  20.12700 -9.15400 27.21400
H  21.66900 -8.30900 26.82300
H  17.39100 -3.67100 23.26100
H  17.17300 -0.61500 23.57400
H  18.98600 -1.39600 22.85000
H  19.48300 -3.11700 22.60900
H  19.87200 -2.33400 24.06200
H  14.58300 -1.56100 23.59100
H  15.33300 -2.92800 22.84400
H  14.43800 -0.63900 21.64400
H  15.52400 -1.99700 20.96200
H  16.23000 -0.46200 21.65800
H  14.43100 2.93800 27.91600
H  13.10000 1.77500 27.54800
H  14.50600 2.22100 26.40000
H  14.79400 -0.09900 32.39500
H  16.94000 3.18800 33.87000
H  17.33500 2.14500 35.34600
H  15.86200 3.01900 35.12900
Mg 7.16400 54.49300 40.24300
C  6.07100 50.93500 39.85200
C  10.17400 53.49800 39.33900
C  7.64600 57.61100 39.61300
C  3.57600 55.08200 40.76800
N  7.96500 52.41800 39.35400
C  7.41700 51.17100 39.44100
C  8.55400 50.14400 39.20300
C  9.82500 50.94000 39.40300
C  9.30800 52.40900 39.27300
C  10.62900 50.65000 40.69900
C  8.49600 49.36800 37.87300
C  8.40200 50.10800 36.56000
H  7.14400 49.80000 35.75600
N  8.71200 55.44000 39.55000
C  9.90100 54.85000 39.29400
C  10.91600 55.91600 39.07800
C  10.25000 57.18800 39.22900
C  8.80900 56.80800 39.49100
C  12.32500 55.57900 38.74400
C  10.89100 58.61000 39.30100
O  12.12400 58.71100 39.26400
C  10.11800 59.90000 39.51700
N  5.83600 56.04700 40.25400
C  6.31400 57.26900 39.89600
C  5.24500 58.34700 39.92000
C  3.90100 57.51600 40.05800
C  4.45400 56.11100 40.46100
C  5.46600 59.43200 40.92600
C  3.02700 57.38100 38.80700
C  1.62800 57.95300 39.04400
N  5.26400 53.32500 40.48000
C  3.98200 53.72800 40.77500
C  3.10100 52.55900 40.97200
C  3.89100 51.52300 40.66600
C  5.16200 51.98600 40.23500
C  1.71300 52.65100 41.31200
C  3.87800 50.07500 40.65500
O  2.98000 49.28900 40.98400
C  5.29200 49.63100 40.08100
C  4.96300 48.75800 38.89100
O  4.39300 49.10700 37.87400
O  5.61900 47.53900 39.05700
C  5.35600 46.68300 37.90500
H  11.21600 53.18300 39.25100
H  7.80500 58.68100 39.46200
H  2.50400 55.28600 40.80600
H  8.49000 49.38900 39.98600
H  10.45600 50.83200 38.52100
H  11.66400 50.35400 40.52900
H  10.03400 49.94400 41.27900
H  10.72700 51.63400 41.15700
H  7.61700 48.73800 38.01100
H  9.31300 48.65200 37.78800
H  9.16800 49.81000 35.84300
H  8.48700 51.18700 36.68500
H  12.80100 54.90400 39.45500
H  12.99900 56.43600 38.75900
H  12.39100 55.09000 37.77200
H  9.69600 60.16600 38.54800
H  10.73800 60.62300 40.04600
H  9.30100 59.77900 40.22900
H  5.29600 58.88500 38.97400
H  3.38400 57.74800 40.99000
H  6.17900 59.11500 41.68800
H  4.56700 59.67200 41.49400
H  5.91000 60.32000 40.47600
H  2.91300 56.38800 38.37200
H  3.53400 58.00200 38.06800
H  1.65300 58.97200 38.65700
H  1.28400 57.90600 40.07700
H  0.89200 57.35600 38.50700
H  1.56300 53.67100 41.66600
H  1.39700 52.08300 42.18600
H  1.07000 52.61200 40.43300
H  5.82600 49.10200 40.86900
H  5.58500 47.30000 37.03600
H  4.32300 46.36000 37.77200
H  6.04000 45.83600 37.95700

