158

Mg 24.59900 -4.83400 46.64700
C  26.29400 -2.06300 45.32000
C  21.84500 -3.98200 44.65500
C  23.29800 -7.90700 47.15600
C  27.61300 -5.99700 48.01800
N  24.22400 -3.22000 45.16400
C  25.02500 -2.16900 44.80400
C  24.32600 -1.26100 43.81000
C  22.79900 -1.58400 44.05500
C  22.94400 -3.05000 44.61700
C  21.95300 -0.67500 45.03000
C  24.81700 -1.58700 42.37300
C  25.36500 -0.52100 41.45300
H  24.85500 -0.60700 39.99400
N  22.76600 -5.74900 46.06700
C  21.75700 -5.18300 45.35300
C  20.71100 -6.10800 45.37200
C  21.11600 -7.28200 46.09800
C  22.44800 -7.04600 46.44600
C  19.39100 -5.82400 44.69800
C  20.18900 -8.51700 46.29400
O  19.08700 -8.61400 45.70000
C  20.55800 -9.78300 47.08800
N  25.30100 -6.75200 47.37400
C  24.59000 -7.86600 47.56600
C  25.25700 -8.81400 48.60100
C  26.73600 -8.33400 48.62000
C  26.59600 -6.95300 47.90500
C  24.62000 -8.95600 50.03300
C  27.72700 -9.26000 47.94800
C  28.70600 -10.00800 48.78900
N  26.60100 -4.15800 46.70800
C  27.67400 -4.70700 47.37600
C  28.79500 -3.69200 47.38200
C  28.34600 -2.65600 46.53500
C  27.01400 -2.98200 46.12800
C  30.08300 -3.77100 48.16300
C  28.68700 -1.33800 45.94600
O  29.72000 -0.67500 46.06100
C  27.37600 -0.90100 45.06400
C  26.86000 0.49900 45.42200
O  27.15300 1.55400 44.87200
O  25.94600 0.32200 46.45400
C  25.30200 1.53600 46.90600
H  21.02200 -3.51300 44.11200
H  22.84400 -8.79400 47.60300
H  28.48800 -6.21500 48.63500
H  24.55400 -0.23900 44.11100
H  22.32800 -1.60800 43.07200
H  21.00200 -0.38900 44.58000
H  22.40100 0.27100 45.33100
H  21.69600 -1.15800 45.97300
H  24.08900 -2.18100 41.82000
H  25.66600 -2.25800 42.50700
H  26.44300 -0.68000 41.47800
H  25.07700 0.47200 41.79700
H  19.20100 -4.77200 44.91200
H  18.54800 -6.38000 45.10900
H  19.36400 -6.05200 43.63300
H  20.75500 -9.43700 48.10300
H  21.42900 -10.32000 46.71300
H  19.66000 -10.39700 47.15300
H  25.16300 -9.80300 48.15300
H  27.13800 -8.27600 49.63100
H  25.10700 -8.36100 50.80600
H  24.35500 -9.96500 50.35000
H  23.74200 -8.33700 49.85200
H  28.34900 -8.62600 47.31600
H  27.22200 -9.90600 47.23000
H  29.68100 -9.52400 48.74000
H  28.75300 -11.04400 48.45200
H  28.45400 -9.92500 49.84600
H  30.89100 -3.16200 47.75700
H  30.35500 -4.78700 48.45100
H  29.88700 -3.23300 49.09100
H  27.58800 -0.78500 44.00200
H  24.78600 2.00000 46.06600
H  25.88300 2.26700 47.47000
H  24.49300 1.30500 47.59800
Mg 30.89000 58.12000 40.23200
C  28.16400 55.99400 39.28200
C  33.02600 55.60700 39.55700
C  33.29400 60.38400 40.13100
C  28.40100 60.71800 40.50700
N  30.64600 56.16800 39.35400
C  29.45800 55.44400 39.12500
C  29.77800 54.01100 38.78400
C  31.17100 53.86100 39.38300
C  31.69200 55.26300 39.45500
C  31.25200 53.19300 40.78900
C  29.76700 53.77200 37.24700
C  28.93600 52.59400 36.75500
H  27.93000 52.94400 35.56200
N  32.95900 58.02200 39.96000
C  33.60000 56.90100 39.71900
C  35.03000 57.19100 39.54900
C  35.07100 58.61200 39.61100
C  33.72100 59.06400 39.94400
C  36.08400 56.13700 39.39200
C  36.35200 59.42300 39.23000
O  37.32100 58.82000 38.92900
C  36.28600 60.92500 39.03600
N  30.80800 60.20100 40.45800
C  31.98900 60.87000 40.46700
C  31.78100 62.42400 40.67100
C  30.18900 62.49200 40.91300
C  29.74800 61.06400 40.63700
C  32.67800 63.19600 41.60800
C  29.55000 63.61600 40.02500
C  28.30000 64.34300 40.59100
N  28.71300 58.36600 39.91300
C  27.85600 59.48600 40.07400
C  26.50900 59.10400 39.68800
C  26.55000 57.73800 39.39200
C  27.89800 57.34000 39.50000
C  25.33700 59.96000 39.76500
C  25.78100 56.54600 39.05700
O  24.56100 56.39900 38.84600
C  26.84300 55.39400 39.09900
C  26.43600 54.45000 40.23700
O  27.01900 54.30400 41.31900
O  25.31800 53.73900 39.83000
C  24.68500 52.79500 40.78100
H  33.60900 54.69200 39.43300
H  33.94400 61.26200 40.16100
H  27.73900 61.56700 40.69000
H  29.10100 53.34300 39.31600
H  31.81400 53.33300 38.67800
H  31.63300 53.94200 41.48200
H  31.78100 52.24200 40.72400
H  30.23700 53.09100 41.17400
H  30.72000 53.51500 36.78300
H  29.32500 54.63400 36.74800
H  28.31000 52.31200 37.60200
H  29.51100 51.73700 36.40300
H  36.22000 55.90600 38.33500
H  35.93200 55.20200 39.93100
H  36.99900 56.52400 39.84100
H  35.66600 61.25800 38.20400
H  37.32400 61.19900 38.84900
H  36.13800 61.50800 39.94500
H  32.03800 62.91700 39.73300
H  29.85800 62.61500 41.94400
H  32.10800 63.53000 42.47600
H  32.98700 64.11700 41.11400
H  33.53800 62.60500 41.92500
H  29.15900 63.13400 39.12900
H  30.29500 64.40100 39.89800
H  28.48200 65.41000 40.46200
H  28.01400 63.97100 41.57500
H  27.41200 64.14200 39.99200
H  24.54300 59.46500 39.20500
H  25.68700 60.94100 39.44100
H  25.00200 60.11000 40.79100
H  26.59300 54.91700 38.15200
H  24.43800 51.87300 40.25500
H  23.80800 53.14500 41.32400
H  25.43800 52.50300 41.51300

