158

Mg 23.80900 -6.76000 46.45100
C  26.12600 -4.58500 45.13300
C  21.55700 -5.47300 43.94600
C  21.60700 -9.34500 47.02700
C  26.29000 -8.54400 48.12700
N  23.85300 -5.30500 44.74100
C  24.90300 -4.46600 44.45200
C  24.61600 -3.40700 43.43900
C  22.99100 -3.41400 43.39900
C  22.74100 -4.78800 44.05300
C  22.32400 -2.31200 44.20000
C  25.34300 -3.58100 41.99800
C  26.27000 -2.46000 41.50300
H  26.11000 -1.95600 40.04700
N  21.83800 -7.24200 45.73500
C  21.12100 -6.59000 44.71700
C  19.76500 -7.06000 44.69300
C  19.70300 -8.17500 45.67100
C  21.05200 -8.30900 46.25600
C  18.67500 -6.64700 43.80500
C  18.41100 -9.00700 46.11400
O  17.29100 -8.65200 45.69500
C  18.46500 -10.09600 47.12800
N  23.88600 -8.67200 47.49500
C  22.86700 -9.50800 47.63800
C  23.31400 -10.76500 48.42300
C  24.83200 -10.49600 48.76200
C  25.00700 -9.10300 48.15800
C  22.43400 -11.07800 49.68500
C  25.81800 -11.48200 48.17700
C  26.56900 -12.20600 49.30300
N  25.71800 -6.51500 46.74800
C  26.64900 -7.33500 47.44300
C  27.94200 -6.73300 47.24500
C  27.76800 -5.62700 46.40500
C  26.41100 -5.62200 46.11400
C  29.29200 -7.33500 47.49600
C  28.41500 -4.53700 45.74100
O  29.64200 -4.18400 45.81200
C  27.39500 -3.87200 44.78600
C  27.40700 -2.44800 45.16900
O  26.89200 -1.91200 46.14300
O  28.21100 -1.82200 44.29700
C  28.41000 -0.37800 44.47100
H  20.80000 -5.01200 43.30800
H  20.88900 -10.12600 47.28400
H  27.14800 -9.03200 48.59400
H  24.95800 -2.48200 43.90300
H  22.56000 -3.41300 42.39800
H  21.99400 -1.56100 43.48300
H  23.12400 -1.84200 44.77200
H  21.45400 -2.57800 44.80100
H  24.52400 -3.70400 41.29000
H  25.87300 -4.52500 42.12300
H  27.32700 -2.56000 41.74900
H  25.87900 -1.56600 41.98800
H  18.27300 -5.68800 44.13300
H  17.93200 -7.41000 43.57300
H  19.04900 -6.48700 42.79400
H  17.45800 -10.45700 47.33500
H  18.74900 -9.52900 48.01400
H  19.06400 -10.91200 46.72300
H  23.20800 -11.55700 47.68200
H  25.09800 -10.18800 49.77300
H  22.95300 -10.89000 50.62400
H  22.13500 -12.12300 49.59600
H  21.57100 -10.42200 49.79400
H  26.57400 -11.10000 47.49100
H  25.32700 -12.25900 47.59200
H  26.37500 -13.27000 49.44100
H  26.38300 -11.75500 50.27700
H  27.63500 -12.16500 49.08200
H  29.11400 -8.09400 48.25800
H  29.98900 -6.57900 47.85700
H  29.51500 -7.89500 46.58800
H  27.86000 -3.95300 43.80300
H  27.48500 0.04900 44.86000
H  28.50200 0.10600 43.49800
H  29.13000 -0.12100 45.24800
Mg 36.05700 49.11600 25.17400
C  36.25500 47.27200 28.13600
C  34.85500 51.80100 26.92100
C  35.41600 50.62100 22.13900
C  37.25100 46.30500 23.43300
N  35.61400 49.45200 27.23600
C  35.84500 48.60600 28.30700
C  35.76400 49.31300 29.67900
C  35.27100 50.72300 29.22700
C  35.25000 50.65500 27.66900
C  33.92900 51.18800 29.80400
C  37.14600 49.23300 30.42500
C  37.21000 48.86100 31.92500
H  36.00000 49.09800 32.76800
N  35.21600 50.98700 24.52100
C  34.89200 51.99500 25.42700
C  34.58800 53.13600 24.69800
C  34.79800 52.87600 23.35200
C  35.14800 51.44300 23.24900
C  34.23300 54.47000 25.33800
C  34.69600 53.77300 22.14600
O  34.63900 53.29000 21.01900
C  34.72000 55.32100 22.36300
N  36.22600 48.51700 23.08300
C  35.83100 49.29200 22.08900
C  36.21300 48.62400 20.71300
C  37.06400 47.36500 21.11600
C  36.85300 47.40600 22.66300
C  34.99900 48.18800 19.78300
C  38.54300 47.45400 20.82500
C  39.09200 46.04200 20.41200
N  36.75300 47.21500 25.58000
C  37.17000 46.10600 24.77800
C  37.40900 44.93300 25.59300
C  37.12900 45.42200 26.88300
C  36.70200 46.73100 26.86400
C  37.72700 43.55900 25.13200
C  36.98700 44.90100 28.24100
O  37.24300 43.79800 28.67000
C  36.51900 46.12600 29.07800
C  35.36000 45.77000 30.05100
O  34.21400 45.91100 29.75700
O  35.89400 45.27100 31.22500
C  34.77700 45.10100 32.10700
H  34.67200 52.73800 27.45100
H  35.34400 51.06100 21.14200
H  37.86700 45.57700 22.90100
H  34.96000 48.74700 30.14800
H  36.03000 51.48900 29.38900
H  33.38600 50.34100 30.22400
H  33.32200 51.70600 29.06200
H  34.20000 51.89900 30.58500
H  37.57600 50.23400 30.42000
H  37.87100 48.63600 29.87200
H  38.10100 49.36600 32.29700
H  37.26700 47.77400 31.86200
H  34.86100 55.31400 25.05400
H  34.13100 54.34900 26.41600
H  33.30800 54.68300 24.80100
H  33.80300 55.78300 22.72900
H  34.88200 55.74300 21.37100
H  35.57300 55.42400 23.03300
H  36.86800 49.40700 20.33100
H  36.64900 46.40700 20.80200
H  35.11200 48.65000 18.80200
H  34.14900 48.58600 20.33600
H  34.84700 47.11800 19.64600
H  39.08600 47.79200 21.70800
H  38.76000 48.20200 20.06300
H  39.75300 46.13200 19.55000
H  38.29300 45.37100 20.09700
H  39.71700 45.60300 21.19000
H  37.43000 43.42000 24.09300
H  37.14600 42.86600 25.74100
H  38.79500 43.35700 25.21500
H  37.29100 46.43100 29.78400
H  35.42200 44.92200 32.96700
H  34.11300 44.25600 31.92300
H  34.29100 46.07600 32.06600

