158

Mg 40.84200 9.27900 29.22800
C  42.46300 10.76600 31.96700
C  38.54400 7.99900 31.45600
C  39.12300 8.07100 26.60300
C  43.38000 10.41400 27.28000
N  40.60300 9.38300 31.44700
C  41.38500 10.06100 32.39900
C  40.77000 10.02500 33.77400
C  39.67300 8.90900 33.54100
C  39.54900 8.74300 32.02700
C  40.01300 7.61800 34.30800
C  40.19500 11.26800 34.45300
C  39.76300 11.21600 35.92800
H  40.24300 12.41700 36.77100
N  39.00500 8.22800 29.05900
C  38.23900 7.79600 30.05000
C  37.03300 7.17100 29.52700
C  37.06400 7.40900 28.08300
C  38.43600 7.94900 27.83400
C  36.00200 6.60200 30.40500
C  36.02300 7.15700 27.07400
O  36.19400 7.26100 25.86900
C  34.73800 6.79200 27.50400
N  41.24400 9.11900 27.28000
C  40.39900 8.63100 26.37300
C  41.01800 8.61400 24.94200
C  42.31900 9.49300 25.19700
C  42.32600 9.78600 26.67600
C  41.12300 7.16800 24.35600
C  42.41000 10.83900 24.37600
C  41.56500 12.09300 24.87900
N  42.63000 10.20600 29.51100
C  43.52500 10.62000 28.60900
C  44.55600 11.39800 29.23700
C  44.17200 11.54800 30.55600
C  42.97500 10.80800 30.70500
C  45.77000 11.87000 28.47700
C  44.56000 12.02600 31.86400
O  45.57400 12.67800 32.17200
C  43.38200 11.59700 32.86100
C  44.01000 10.82500 33.98800
O  44.90700 10.06600 33.86400
O  43.58000 11.22300 35.13800
C  44.15300 10.80700 36.40000
H  37.80400 7.56200 32.12900
H  38.63400 7.65400 25.72000
H  44.15000 10.92800 26.70200
H  41.45700 9.64900 34.53300
H  38.75200 9.30500 33.97000
H  41.03100 7.65000 34.69600
H  39.99900 6.76300 33.63100
H  39.30200 7.41700 35.11000
H  39.37900 11.59100 33.80600
H  40.91600 12.05700 34.23600
H  39.97700 10.24700 36.37900
H  38.68600 11.33400 36.04100
H  36.52100 6.24600 31.29400
H  35.50500 5.73700 29.96600
H  35.27400 7.39500 30.57900
H  34.63200 5.70700 27.52700
H  33.99400 7.09100 26.76600
H  34.41000 7.27400 28.42400
H  40.30400 9.20300 24.36600
H  43.15000 8.84000 24.92800
H  40.65100 7.19900 23.37400
H  40.62800 6.44600 25.00500
H  42.18600 6.93000 24.40400
H  42.20100 10.70700 23.31400
H  43.45600 11.13000 24.47700
H  40.95000 11.67000 25.67300
H  41.10900 12.37600 23.93000
H  42.22500 12.89400 25.21000
H  46.24200 11.05500 27.92900
H  46.46100 12.16800 29.26500
H  45.59000 12.65500 27.74300
H  42.98600 12.54100 33.23600
H  45.22000 10.61900 36.27900
H  43.68000 9.88300 36.73100
H  43.87800 11.53900 37.15900
Mg 48.20900 25.34500 27.73300
C  48.94900 27.82700 30.18900
C  47.40500 23.30200 30.44800
C  47.63200 22.81700 25.55900
C  49.62500 27.35100 25.35300
N  48.15100 25.62300 30.07100
C  48.40200 26.72500 30.83500
C  48.12500 26.49800 32.32800
C  48.02800 24.93500 32.39600
C  47.79300 24.57800 30.83400
C  49.31700 24.38700 33.01200
C  46.87900 27.27300 32.93100
C  47.25900 28.27900 34.02400
H  46.22800 28.44900 35.13200
N  47.57500 23.35800 28.01000
C  47.18300 22.70500 29.17900
C  46.45800 21.59000 28.77400
C  46.49700 21.41900 27.36600
C  47.28500 22.54200 26.93300
C  45.91000 20.67700 29.77400
C  45.95700 20.35900 26.38500
O  46.11900 20.36600 25.20400
C  45.00300 19.39900 26.98700
N  48.87400 25.01900 25.78300
C  48.39200 23.92500 25.09300
C  48.71300 24.12900 23.54500
C  49.11400 25.71700 23.48600
C  49.26800 26.08000 24.97500
C  49.74800 23.11900 22.98200
C  48.05400 26.50300 22.61900
C  48.31300 26.73600 21.12800
N  49.13800 27.22300 27.69600
C  49.69200 27.89700 26.67900
C  50.20400 29.16900 27.09900
C  49.91100 29.19800 28.48800
C  49.26000 28.00600 28.81400
C  50.79900 30.12900 26.11300
C  50.07400 29.97400 29.74400
O  50.62400 31.03000 29.96800
C  49.46400 29.05300 30.89700
C  50.62600 28.89800 31.83600
O  51.17400 27.85800 32.02400
O  50.78800 30.01300 32.63200
C  51.34700 29.54500 33.89200
H  47.03600 22.68500 31.27000
H  47.38500 22.26900 24.64800
H  50.07200 27.91500 24.53200
H  49.05700 26.80600 32.80300
H  47.26600 24.61800 33.10700
H  49.81000 23.71600 32.30800
H  49.06700 23.71600 33.83400
H  50.12500 25.10100 33.17300
H  46.14800 26.53000 33.25000
H  46.39400 27.85200 32.14500
H  47.50900 29.26400 33.63000
H  48.16200 27.86500 34.47200
H  46.55000 19.80400 29.64700
H  44.92000 20.36000 29.44700
H  45.99300 20.98200 30.81800
H  44.57500 18.85500 26.14500
H  44.20500 19.94700 27.48700
H  45.52000 18.74400 27.68900
H  47.77100 23.97900 23.01800
H  50.09500 25.81700 23.02200
H  50.74400 23.55300 22.90500
H  49.47500 23.00000 21.93400
H  49.70200 22.13200 23.44400
H  48.09300 27.50000 23.05800
H  47.03300 26.12400 22.64200
H  49.14200 26.08000 20.86100
H  48.53600 27.76400 20.84400
H  47.41900 26.49400 20.55500
H  50.18800 30.07100 25.21200
H  51.83600 29.93100 25.84300
H  50.75000 31.15700 26.47100
H  48.59500 29.55900 31.31700
H  51.35900 30.38600 34.58700
H  52.39400 29.24400 33.85000
H  50.65000 28.76600 34.19800

