158

Mg 24.03100 -5.49500 45.16800
C  26.02900 -3.11300 43.73000
C  21.59900 -4.64200 42.94400
C  22.33600 -8.33600 46.10700
C  26.74000 -6.79100 46.87800
N  23.87800 -4.09100 43.33600
C  24.74700 -3.19600 43.06500
C  24.24900 -2.26300 41.85900
C  22.73900 -2.57300 41.91200
C  22.73000 -3.83100 42.75400
C  21.87500 -1.41300 42.44900
C  24.91200 -2.71800 40.53600
C  25.70700 -1.59900 39.93000
H  25.19300 -1.11500 38.60400
N  22.18600 -6.28000 44.80600
C  21.34900 -5.74300 43.86500
C  20.18400 -6.60300 43.76100
C  20.39600 -7.69700 44.57100
C  21.69400 -7.46900 45.23300
C  18.95200 -6.17800 42.95300
C  19.36900 -8.74800 44.85800
O  18.39600 -8.87700 44.12500
C  19.50300 -9.79500 45.85300
N  24.53100 -7.49300 46.24800
C  23.59500 -8.28300 46.69700
C  24.11400 -9.28700 47.82300
C  25.55600 -8.71600 48.06400
C  25.61500 -7.67200 47.00300
C  23.14100 -9.57100 48.99500
C  26.66300 -9.80200 47.80700
C  28.00900 -9.88200 48.56400
N  25.93800 -5.07600 45.40100
C  26.86900 -5.59300 46.18100
C  28.16500 -4.86800 45.92000
C  27.81800 -3.90300 44.98300
C  26.51000 -4.07600 44.66600
C  29.48800 -5.27600 46.37600
C  28.38500 -2.78600 44.14100
O  29.55100 -2.34000 44.11700
C  27.18700 -2.20400 43.37800
C  26.95300 -0.70200 43.57000
O  26.02700 -0.14800 44.11200
O  28.01700 -0.18600 42.85400
C  27.91400 1.28200 42.88000
H  20.81600 -4.44100 42.20900
H  21.81400 -9.15800 46.60100
H  27.59800 -6.93000 47.54000
H  24.34500 -1.23800 42.21900
H  22.32300 -2.64000 40.90700
H  22.29800 -0.46800 42.10900
H  21.91400 -1.58000 43.52600
H  20.84500 -1.51700 42.10800
H  24.21300 -3.15400 39.82200
H  25.65800 -3.46700 40.79600
H  26.71400 -1.97600 39.75100
H  25.87700 -0.72800 40.56200
H  18.76400 -5.13100 42.71700
H  18.16500 -6.42400 43.66600
H  19.00700 -6.73000 42.01400
H  18.52100 -10.23500 46.03000
H  19.88900 -9.34600 46.76800
H  20.17200 -10.47600 45.32700
H  24.33500 -10.28600 47.44600
H  25.57900 -8.35500 49.09200
H  22.62400 -10.51700 48.83200
H  22.52700 -8.67500 49.08300
H  23.70800 -9.70200 49.91700
H  26.89800 -9.73100 46.74500
H  26.24000 -10.80500 47.86400
H  28.81600 -9.59100 47.89300
H  28.18100 -10.89000 48.94100
H  28.07500 -9.14100 49.36100
H  29.37800 -5.64600 47.39500
H  30.14200 -4.40700 46.30200
H  29.97700 -6.05200 45.78700
H  27.31800 -2.38300 42.31100
H  28.73900 1.50200 42.20300
H  28.07000 1.74000 43.85700
H  27.04600 1.68700 42.35900
Mg 43.86900 43.04600 26.81000
C  42.54600 44.88200 29.46500
C  45.37200 40.99000 28.87300
C  45.08100 41.43700 23.96500
C  42.42500 45.56400 24.61200
N  43.90500 43.00000 28.88300
C  43.25500 43.77700 29.84600
C  43.67900 43.20900 31.27300
C  44.76700 42.12800 31.02600
C  44.68900 42.08300 29.43300
C  46.17800 42.37400 31.63100
C  42.38100 42.65000 32.07000
C  42.31100 43.15200 33.48900
H  41.02400 42.84000 34.29200
N  45.12500 41.44400 26.52300
C  45.61600 40.66300 27.48700
C  46.32400 39.50300 26.96400
C  46.17600 39.63900 25.49900
C  45.49300 40.87000 25.25300
C  47.11500 38.60800 27.88700
C  46.48800 38.68900 24.45500
O  46.11900 38.81100 23.30500
C  47.20900 37.41700 24.85500
N  43.82500 43.45500 24.65600
C  44.31200 42.59200 23.72100
C  44.02100 43.07000 22.29500
C  42.88100 44.13300 22.50200
C  42.98400 44.45200 24.04800
C  45.16000 43.67800 21.50600
C  41.43200 43.68100 22.02100
C  40.82800 42.56600 22.84200
N  42.84100 44.92100 27.01000
C  42.26900 45.78100 26.02100
C  41.64600 46.89600 26.69500
C  41.64600 46.52900 28.02900
C  42.36100 45.32100 28.14500
C  40.97500 48.04500 25.97700
C  41.28600 46.97800 29.35200
O  40.66600 47.97200 29.68700
C  41.79500 45.93200 30.32400
C  42.61500 46.61300 31.37300
O  43.77500 46.84300 31.30700
O  41.82900 46.96100 32.44000
C  42.49700 47.59000 33.60000
H  45.71000 40.27900 29.63000
H  45.41000 41.01000 23.01500
H  41.92000 46.29100 23.97200
H  44.07600 44.07200 31.80900
H  44.42000 41.15700 31.38000
H  46.94000 42.40700 30.85100
H  46.27000 41.52700 32.31100
H  46.19200 43.28700 32.22600
H  42.30200 41.56300 32.07900
H  41.49200 43.08300 31.61100
H  42.45400 44.23200 33.43600
H  43.13400 42.58500 33.92400
H  46.47200 38.19900 28.66700
H  47.73600 39.36200 28.37000
H  47.67400 37.80000 27.41600
H  46.73800 36.80900 25.62700
H  48.15400 37.87500 25.14400
H  47.27700 36.72400 24.01700
H  43.47000 42.29200 21.76600
H  43.04200 45.00500 21.86800
H  46.07800 43.15900 21.78300
H  45.27700 44.76000 21.57200
H  44.97900 43.39900 20.46900
H  41.49500 43.33800 20.98800
H  40.84800 44.58700 22.17800
H  41.43200 42.24500 23.69100
H  40.66100 41.77700 22.10900
H  39.88800 42.81800 23.33400
H  40.74000 47.88400 24.92500
H  41.58600 48.93900 26.09900
H  40.01300 48.36600 26.37800
H  41.04800 45.39100 30.90500
H  42.22100 46.84200 34.34400
H  42.18600 48.61400 33.80800
H  43.57200 47.74700 33.51700

