158

Mg 7.88900 2.41500 27.28400
C  9.22700 0.77700 30.03700
C  6.20800 4.58000 29.08900
C  6.35000 3.45400 24.43400
C  9.29400 -0.32700 25.30500
N  7.74200 2.60300 29.27100
C  8.42700 1.94500 30.28200
C  8.19100 2.62200 31.62500
C  6.98300 3.62800 31.34700
C  7.04800 3.65600 29.80600
C  5.55800 3.09600 31.83300
C  9.50900 3.30700 32.13700
C  9.29100 4.22300 33.42400
H  10.25600 3.99100 34.56500
N  6.54400 3.90800 26.82100
C  6.04500 4.79100 27.74100
C  5.18700 5.71800 27.09600
C  5.19800 5.46800 25.67200
C  6.02700 4.27700 25.53100
C  4.47000 6.84500 27.90800
C  4.41600 6.18500 24.54700
O  4.57100 5.89600 23.36300
C  3.56100 7.30200 24.92200
N  7.96300 1.66500 25.17200
C  7.18400 2.27100 24.29000
C  7.16000 1.49600 22.99100
C  8.28300 0.43100 23.12900
C  8.50400 0.57000 24.58800
C  5.82000 0.91400 22.62700
C  9.65200 0.84800 22.43500
C  10.52100 -0.31600 21.90200
N  9.09600 0.57600 27.58800
C  9.61200 -0.37000 26.71000
C  10.32200 -1.30500 27.47300
C  10.31500 -0.82600 28.76700
C  9.45000 0.24900 28.78400
C  11.13000 -2.43100 27.00200
C  10.83900 -1.07200 30.07300
O  11.70700 -1.81900 30.44200
C  10.14200 -0.03400 31.00600
C  9.37500 -0.68200 32.10800
O  8.49300 -1.58100 32.02800
O  9.93500 -0.24200 33.27500
C  9.47300 -0.77500 34.58700
H  5.60500 5.26700 29.68600
H  5.95000 3.81100 23.48300
H  9.69400 -1.15300 24.71300
H  7.94400 1.94300 32.44100
H  7.21400 4.63500 31.69600
H  5.07500 2.48000 31.07400
H  4.88100 3.88400 32.16400
H  5.71600 2.50700 32.73700
H  9.85000 3.84300 31.25200
H  10.17700 2.53000 32.50900
H  8.40600 3.79700 33.89800
H  9.18000 5.29400 33.25500
H  3.41800 6.57700 28.01200
H  4.63500 7.75600 27.33300
H  4.95000 7.00900 28.87300
H  4.27000 8.07800 25.20800
H  2.93600 7.09600 25.79100
H  2.86800 7.62500 24.14500
H  7.39200 2.21500 22.20500
H  7.91900 -0.58400 22.97400
H  5.17700 0.91200 23.50800
H  5.75000 -0.10400 22.24600
H  5.35700 1.56900 21.88900
H  10.27300 1.44400 23.10300
H  9.52100 1.56700 21.62600
H  10.97800 -0.13500 20.92900
H  9.89900 -1.21000 21.86800
H  11.21100 -0.52600 22.71900
H  10.55300 -3.18700 26.47000
H  11.66500 -2.80600 27.87300
H  11.78000 -2.04100 26.21900
H  10.98000 0.57700 31.34200
H  9.17700 0.09100 35.18000
H  10.29800 -1.26900 35.10000
H  8.66500 -1.50500 34.62800
Mg -11.80700 37.49600 41.85700
C  -9.31700 35.15400 40.92400
C  -9.65000 39.98700 40.62200
C  -14.33100 39.47300 42.11500
C  -13.81400 34.82100 42.95400
N  -9.72700 37.49000 40.90100
C  -8.92800 36.45400 40.60600
C  -7.65900 36.94400 39.92300
C  -7.59400 38.52800 40.15700
C  -9.05000 38.70300 40.65100
C  -6.50500 39.00100 41.13500
C  -7.66300 36.53300 38.42100
C  -6.40600 35.79500 37.84600
H  -5.90900 36.25900 36.45300
N  -12.01700 39.44300 41.41600
C  -11.02600 40.33900 40.91700
C  -11.71200 41.59000 40.74800
C  -12.99800 41.50100 41.29200
C  -13.12500 40.11500 41.64500
C  -10.99500 42.81000 40.16900
C  -14.05700 42.58400 41.27200
O  -13.77700 43.70200 40.97200
C  -15.47300 42.27900 41.63500
N  -13.86900 37.15700 42.29900
C  -14.68100 38.18800 42.38600
C  -15.98000 37.79600 43.00400
C  -15.85000 36.28200 43.33800
C  -14.44900 36.03300 42.87000
C  -16.47900 38.68500 44.17700
C  -16.85700 35.32400 42.62500
C  -17.71800 34.42400 43.54200
N  -11.62700 35.51600 41.94300
C  -12.49400 34.55800 42.50000
C  -11.95300 33.24600 42.43300
C  -10.78000 33.45100 41.74500
C  -10.53700 34.88000 41.57600
C  -12.47400 31.92500 42.91200
C  -9.47000 32.80000 41.27200
O  -9.14900 31.62800 41.24300
C  -8.60400 33.82700 40.70200
C  -7.32700 33.64600 41.40100
O  -6.46100 32.88100 41.03400
O  -7.28000 34.54100 42.47100
C  -5.98200 34.45800 43.13900
H  -9.07900 40.77100 40.12000
H  -15.25900 40.04100 42.20300
H  -14.48800 34.03400 43.30000
H  -6.85900 36.39500 40.41900
H  -7.40400 39.03500 39.21100
H  -5.58400 38.42900 41.01800
H  -6.72600 38.89500 42.19700
H  -6.28900 40.04300 40.90100
H  -8.05500 37.42900 37.94000
H  -8.47600 35.80800 38.39200
H  -6.66100 34.73600 37.88100
H  -5.51900 35.86100 38.47600
H  -11.44300 43.05500 39.20700
H  -9.92500 42.61900 40.07900
H  -11.09100 43.67100 40.83100
H  -16.00900 43.22800 41.61900
H  -15.62000 41.95500 42.66600
H  -15.95800 41.63300 40.90400
H  -16.67800 37.84800 42.16800
H  -15.61500 36.04300 44.37500
H  -17.44000 39.03800 43.80200
H  -15.76800 39.48200 44.39200
H  -16.68700 38.01700 45.01200
H  -16.29300 34.65500 41.97600
H  -17.66200 35.82700 42.09000
H  -18.77500 34.69000 43.54600
H  -17.31300 34.76500 44.49400
H  -17.47800 33.36200 43.48200
H  -11.76000 31.37500 43.52500
H  -12.79900 31.36800 42.03400
H  -13.27200 32.08400 43.63700
H  -8.47400 33.64600 39.63500
H  -5.28000 34.61200 42.32000
H  -5.87200 33.43600 43.50300
H  -6.07300 35.13700 43.98600

