158

Mg 53.73800 24.76900 44.18400
C  50.80400 26.76100 43.71400
C  51.61900 21.92300 43.89600
C  56.40900 22.99200 43.66500
C  55.55600 27.70900 44.40100
N  51.52300 24.41400 43.80100
C  50.52800 25.39400 43.56900
C  49.17700 24.69300 43.40100
C  49.50400 23.24000 43.87500
C  51.01000 23.17500 43.80200
C  49.10500 22.83300 45.32100
C  48.42800 24.77100 42.04300
C  49.24000 25.22300 40.87800
H  49.28700 24.55400 39.55500
N  54.06400 22.71800 43.77700
C  53.07600 21.70800 43.73000
C  53.64700 20.45100 43.62300
C  55.01300 20.65700 43.67300
C  55.24000 22.16600 43.66200
C  52.83500 19.17500 43.55700
C  56.12400 19.65500 43.75500
O  55.82800 18.43700 43.72700
C  57.57500 20.13000 44.09800
N  55.60700 25.24600 43.98500
C  56.59400 24.32100 43.81100
C  57.98700 25.00800 43.50100
C  57.72500 26.50100 43.85500
C  56.22200 26.49800 44.20000
C  59.20000 24.31200 44.16800
C  58.12400 27.45500 42.69300
C  59.06000 28.63500 43.01900
N  53.31900 26.75600 44.19800
C  54.19000 27.88600 44.44600
C  53.40400 29.04200 44.67700
C  52.08000 28.64700 44.33000
C  52.05500 27.28800 44.01000
C  53.76100 30.42100 44.89700
C  50.72300 29.13700 44.17100
O  50.24800 30.24700 44.38900
C  49.89200 27.93900 43.76100
C  49.33900 28.37000 42.45300
O  49.97400 28.47100 41.43000
O  48.01900 28.81800 42.63400
C  47.31800 29.19400 41.34500
H  50.90800 21.10400 44.01800
H  57.31100 22.47300 43.33500
H  56.25900 28.54400 44.44500
H  48.47400 25.11500 44.12000
H  49.11100 22.52800 43.15000
H  49.88500 22.18400 45.71900
H  48.21800 22.23400 45.11600
H  48.78400 23.70700 45.88800
H  47.67200 25.55200 42.12300
H  48.00000 23.78300 41.87100
H  50.28700 25.27900 41.17400
H  48.87300 26.20700 40.58900
H  51.91700 19.29900 42.98400
H  52.71500 18.62400 44.49000
H  53.45800 18.46600 43.01000
H  58.07100 19.18500 44.32200
H  57.65200 20.74400 44.99500
H  58.07400 20.54700 43.22300
H  58.04500 24.81800 42.43000
H  58.24100 26.67000 44.80000
H  58.99800 23.49400 44.85900
H  59.67000 25.10000 44.75700
H  59.85000 23.99300 43.35300
H  57.17100 27.92600 42.45200
H  58.50900 26.96300 41.80000
H  59.43600 28.40800 44.01600
H  58.59100 29.61700 43.08900
H  59.87100 28.66200 42.29100
H  54.76400 30.65600 44.54300
H  53.72100 30.64700 45.96300
H  53.12200 31.17200 44.43200
H  49.15900 27.75900 44.54800
H  47.26400 28.42200 40.57700
H  47.77600 30.06600 40.87800
H  46.28900 29.45600 41.59400
Mg 47.39800 25.09300 28.76300
C  48.29300 27.18500 31.32900
C  46.14800 22.97500 31.25600
C  46.80400 22.96900 26.40000
C  48.77600 27.30700 26.42200
N  47.02800 25.18000 31.02400
C  47.46200 26.17200 31.82700
C  47.07100 25.96800 33.26800
C  46.54600 24.43700 33.27300
C  46.56800 24.17400 31.76500
C  47.24800 23.29800 34.06500
C  46.02700 26.99300 33.78100
C  46.23800 27.75800 35.13800
H  44.95600 28.08100 35.98700
N  46.51700 23.34300 28.79800
C  46.04200 22.59500 29.85100
C  45.43800 21.42600 29.43900
C  45.61800 21.35700 27.99000
C  46.38300 22.57200 27.67300
C  44.79400 20.41900 30.31400
C  45.32000 20.20100 27.04200
O  45.69100 20.25900 25.86200
C  44.74200 18.80700 27.49400
N  48.09200 24.98900 26.66800
C  47.40900 24.07700 25.91300
C  47.84600 24.24600 24.47000
C  48.14400 25.77900 24.41800
C  48.38500 26.07200 25.90200
C  49.09900 23.32200 24.16800
C  46.98700 26.59100 23.79300
C  47.03800 26.47900 22.21200
N  48.39100 26.86900 28.83900
C  48.86900 27.72000 27.79600
C  49.33000 28.93800 28.38300
C  49.22000 28.70600 29.75600
C  48.61200 27.48000 29.99200
C  49.84000 30.12800 27.64800
C  49.40100 29.31800 31.09500
O  49.82200 30.41500 31.45300
C  48.96800 28.25800 32.17300
C  50.05700 27.79200 33.11100
O  51.05400 27.15600 32.76100
O  49.82700 28.33100 34.38300
C  51.02300 28.23500 35.28500
H  45.64400 22.28900 31.94000
H  46.45300 22.28700 25.62200
H  49.10600 27.98100 25.63000
H  48.01100 26.02600 33.81700
H  45.48500 24.31700 33.49200
H  47.96600 22.70600 33.49800
H  46.56100 22.56300 34.48500
H  47.74900 23.79100 34.89900
H  45.04000 26.53300 33.79800
H  45.94200 27.79500 33.04700
H  46.77700 28.70500 35.11200
H  46.77500 27.10400 35.82500
H  45.54400 19.71000 30.66400
H  44.00200 19.84200 29.83800
H  44.36600 20.86700 31.21100
H  45.42400 18.43300 28.25800
H  44.67500 18.11000 26.65900
H  43.76100 18.97000 27.94200
H  47.06500 24.01100 23.74700
H  49.06300 25.99400 23.87300
H  49.16900 22.70200 25.06100
H  50.09100 23.76900 24.09400
H  48.98100 22.68100 23.29400
H  47.02700 27.63500 24.10500
H  46.04800 26.08300 24.00900
H  46.19900 26.07100 21.64700
H  47.93900 26.00300 21.82600
H  47.17100 27.51800 21.90900
H  50.88300 30.28100 27.92300
H  49.24400 30.97400 27.99000
H  49.71800 30.12800 26.56500
H  48.17100 28.81200 32.66800
H  50.88000 27.41200 35.98500
H  51.12700 29.21400 35.75200
H  51.93300 28.06400 34.71100

