158

Mg 1.15200 8.29500 25.57300
C  1.88800 10.28900 28.36000
C  1.84100 5.60900 27.49100
C  0.90100 6.45800 22.79400
C  1.22500 11.13800 23.67200
N  1.98800 8.03000 27.71800
C  1.86700 8.90500 28.71600
C  1.85400 8.28000 30.07400
C  2.08000 6.76100 29.68600
C  1.94700 6.79000 28.23200
C  3.37900 6.05600 30.16400
C  0.55800 8.56700 30.80000
C  0.64600 8.76000 32.28100
H  1.71600 7.91200 33.01200
N  1.17800 6.33500 25.21600
C  1.42800 5.34000 26.17600
C  1.26100 4.06400 25.50200
C  0.82300 4.34000 24.17900
C  0.99600 5.80600 24.00100
C  1.24000 2.76000 26.28400
C  0.23600 3.39000 23.15300
O  -0.27800 3.73400 22.09100
C  0.14300 1.84900 23.38600
N  0.86200 8.81400 23.45500
C  0.85700 7.81300 22.53300
C  0.78400 8.48500 21.11400
C  0.66600 9.99000 21.43900
C  0.83900 10.00400 22.93100
C  2.03400 8.09000 20.11900
C  -0.57800 10.67500 20.95600
C  -0.52900 12.17100 20.49200
N  1.62000 10.20100 25.85500
C  1.55300 11.28000 25.01300
C  1.71000 12.52100 25.72300
C  1.83200 12.20400 27.00800
C  1.88900 10.77900 27.07400
C  1.60100 13.93500 25.12600
C  2.02800 12.66800 28.44000
O  2.13700 13.80000 28.86600
C  1.95000 11.45800 29.33000
C  3.14300 11.59400 30.25600
O  4.33400 11.47500 29.97200
O  2.75500 11.80300 31.59000
C  3.91100 12.01800 32.46300
H  1.91600 4.71100 28.10700
H  0.84400 5.71100 21.99900
H  1.35100 12.02100 23.04200
H  2.72900 8.65500 30.60500
H  1.27800 6.10700 30.02800
H  4.01000 6.77300 30.68900
H  4.08400 5.81200 29.36900
H  3.04600 5.25200 30.82100
H  -0.16700 7.75600 30.74200
H  0.04200 9.44700 30.41500
H  -0.27500 8.48200 32.79400
H  0.92700 9.80700 32.39300
H  1.90100 2.00500 25.85800
H  0.24000 2.34100 26.17000
H  1.32000 2.84500 27.36800
H  1.11100 1.53100 23.77400
H  -0.22200 1.49200 22.42300
H  -0.57400 1.71100 24.19500
H  -0.13600 8.04000 20.73400
H  1.58100 10.45500 21.07400
H  2.75200 7.51100 20.69900
H  2.59900 9.00400 19.94000
H  1.65900 7.57400 19.23500
H  -1.34500 10.48100 21.70600
H  -0.86400 10.05100 20.11000
H  -1.19200 12.17100 19.62700
H  0.50000 12.49200 20.33200
H  -0.90500 12.72700 21.35100
H  1.18600 13.88300 24.11900
H  2.52800 14.50200 25.04100
H  0.96600 14.47200 25.83200
H  1.01700 11.57600 29.88000
H  4.64600 12.72900 32.08600
H  4.24000 10.99600 32.65100
H  3.53400 12.26900 33.45500
Mg 53.21800 23.27500 44.47500
C  50.51500 25.54300 43.72700
C  50.96200 20.77000 43.49500
C  55.79600 21.23700 44.54900
C  55.22200 25.94200 45.28000
N  51.19200 23.15500 43.37800
C  50.36900 24.26900 43.14100
C  49.12300 23.83500 42.29300
C  48.99500 22.33300 42.75700
C  50.42900 22.09500 43.29700
C  47.79700 22.11600 43.81300
C  49.45100 24.06800 40.82900
C  48.30300 24.66300 39.99900
H  47.82900 23.86900 38.79100
N  53.35200 21.26900 44.16500
C  52.29600 20.40900 43.82500
C  52.87200 19.02100 43.99400
C  54.25100 19.17900 44.24100
C  54.49100 20.61500 44.35600
C  51.94500 17.81400 43.93300
C  55.22100 18.01000 44.47800
O  54.79900 16.84000 44.39700
C  56.74000 18.14900 44.72400
N  55.34700 23.59200 44.42600
C  56.18100 22.53400 44.64000
C  57.61000 23.02300 44.84500
C  57.42300 24.52100 45.19000
C  55.91000 24.73400 44.92900
C  58.48700 22.21500 45.84800
C  58.43000 25.51100 44.57000
C  59.84900 25.64300 45.20900
N  52.97500 25.34500 44.48900
C  53.84100 26.25300 45.01900
C  53.09700 27.45200 45.23000
C  51.73600 27.27400 44.73600
C  51.76500 25.95600 44.23800
C  53.66200 28.69400 45.91400
C  50.44600 27.83300 44.44000
O  49.90500 28.91800 44.61900
C  49.54300 26.72200 43.78900
C  49.16600 27.21400 42.50900
O  49.91500 27.33900 41.49300
O  47.84700 27.52200 42.56500
C  47.38100 28.36500 41.52400
H  50.28500 19.92500 43.35100
H  56.71000 20.64500 44.46600
H  55.89700 26.72400 45.63300
H  48.24100 24.38200 42.62700
H  48.76500 21.77100 41.85200
H  47.41800 23.06200 44.19800
H  48.15600 21.50400 44.64000
H  46.94200 21.69400 43.28400
H  49.85500 23.19300 40.31800
H  50.33400 24.70300 40.76300
H  48.72200 25.58900 39.60600
H  47.50600 24.90700 40.70100
H  51.66800 17.44500 42.94500
H  51.00900 18.11600 44.40400
H  52.23600 16.99600 44.59100
H  57.16500 18.63600 43.84700
H  57.14900 17.15200 44.88700
H  56.85400 18.76700 45.61500
H  58.01700 22.91300 43.84100
H  57.53600 24.60800 46.27100
H  57.81200 21.78900 46.59000
H  59.22700 22.88700 46.28300
H  59.04000 21.45700 45.29300
H  58.02100 26.52100 44.53600
H  58.55600 25.27300 43.51400
H  60.61900 25.50900 44.44900
H  59.93300 24.95000 46.04600
H  60.06200 26.61400 45.65600
H  53.09000 28.94200 46.80800
H  53.62800 29.54100 45.22900
H  54.66900 28.45600 46.25800
H  48.65300 26.50800 44.38200
H  47.21200 27.73300 40.65300
H  48.04900 29.18300 41.25300
H  46.44200 28.79700 41.87000

