158

Mg -1.56100 18.10700 26.87300
C  -2.34700 15.90600 29.61400
C  -2.10500 20.80000 28.99300
C  -1.53600 20.18400 24.26000
C  -2.14600 15.43200 24.79400
N  -2.20200 18.25500 29.04300
C  -2.34600 17.31400 29.96800
C  -2.30300 17.86800 31.41200
C  -2.64600 19.37700 31.14200
C  -2.22300 19.50800 29.66200
C  -4.19600 19.68300 31.16600
C  -1.05600 17.65500 32.35700
C  -1.39500 17.11700 33.70200
H  -0.29700 16.91700 34.73800
N  -1.73100 20.18800 26.67400
C  -1.77300 21.15200 27.68900
C  -1.43600 22.44100 27.15400
C  -1.30400 22.35300 25.75000
C  -1.42500 20.84000 25.53000
C  -1.46900 23.57900 28.02200
C  -0.94200 23.37200 24.68800
O  -0.87700 23.08400 23.48200
C  -0.63800 24.71600 25.12300
N  -1.86700 17.77600 24.81500
C  -1.81700 18.86200 23.91500
C  -1.97300 18.34900 22.48000
C  -2.05100 16.77400 22.67400
C  -2.19300 16.66900 24.16100
C  -3.25400 18.82900 21.67100
C  -0.72600 16.03000 22.16800
C  -0.89700 14.53600 21.59100
N  -1.88500 16.01200 27.11500
C  -2.04900 15.09500 26.13400
C  -2.33500 13.80200 26.88900
C  -2.37700 14.09800 28.24800
C  -2.14500 15.48400 28.30200
C  -2.68100 12.51100 26.12100
C  -2.62800 13.47500 29.48000
O  -2.69500 12.30800 29.86800
C  -2.47900 14.69000 30.46200
C  -1.28100 14.44700 31.33200
O  -0.08800 14.75900 31.01000
O  -1.54600 13.68600 32.37700
C  -0.33500 13.19700 33.12200
H  -2.13800 21.61000 29.72500
H  -1.50600 20.80300 23.36100
H  -2.46200 14.59900 24.16300
H  -3.11200 17.46900 32.02400
H  -2.03000 20.09500 31.68400
H  -4.57700 19.77400 30.14900
H  -4.33800 20.68000 31.58300
H  -4.77400 18.94500 31.72300
H  -0.72700 18.65000 32.65500
H  -0.23700 17.09500 31.90500
H  -1.94600 16.18800 33.55400
H  -2.09800 17.84200 34.11100
H  -1.49400 23.31800 29.08000
H  -2.39700 24.07300 27.73700
H  -0.56000 24.16500 27.88700
H  -0.59000 25.47300 24.34000
H  0.30900 24.57300 25.64300
H  -1.35100 25.08400 25.86000
H  -1.18400 18.72200 21.82700
H  -2.92600 16.31500 22.21300
H  -3.50600 19.75600 22.18500
H  -3.98500 18.03300 21.81400
H  -3.06900 19.09500 20.63100
H  0.01200 15.86700 22.95300
H  -0.29100 16.62700 21.36700
H  -0.27000 13.84600 22.15500
H  -0.57300 14.35000 20.56700
H  -1.96300 14.31000 21.61100
H  -3.44600 12.69300 25.36500
H  -3.02400 11.74400 26.81600
H  -1.79000 12.22400 25.56300
H  -3.29600 14.72200 31.18300
H  -0.61900 13.29700 34.16900
H  0.55900 13.76900 32.87700
H  -0.21600 12.14700 32.85600
Mg 16.83500 -1.06200 27.68500
C  15.88700 1.09700 30.19300
C  18.59000 -2.85800 30.08900
C  18.39300 -2.78800 25.23500
C  15.46900 1.09800 25.30100
N  17.20600 -0.85600 29.89000
C  16.71500 0.11600 30.70900
C  17.08100 -0.13600 32.21100
C  18.17000 -1.25600 32.00000
C  18.00600 -1.67500 30.52500
C  19.63700 -0.84600 32.17800
C  15.80800 -0.53500 33.09100
C  16.38200 -0.83500 34.50600
H  17.58200 -0.13300 35.10200
N  18.19100 -2.71100 27.64300
C  18.68500 -3.36800 28.76700
C  19.34800 -4.55800 28.29200
C  19.24800 -4.57700 26.87700
C  18.59800 -3.36000 26.53100
C  20.02700 -5.57300 29.20800
C  19.87700 -5.56800 25.91700
O  19.83400 -5.50800 24.68600
C  20.55600 -6.79000 26.37200
N  17.03000 -0.78000 25.59800
C  17.72600 -1.66700 24.78800
C  17.63800 -1.30800 23.30300
C  16.61000 -0.12200 23.32000
C  16.37100 0.10200 24.84300
C  19.00200 -0.92300 22.70000
C  15.32300 -0.40100 22.48000
C  14.07400 -0.79400 23.30200
N  15.83000 0.73600 27.73400
C  15.29400 1.46900 26.66600
C  14.53500 2.54300 27.12100
C  14.74100 2.46200 28.54500
C  15.61300 1.40700 28.85400
C  13.84700 3.60100 26.35900
C  14.39700 3.12100 29.80700
O  13.75000 4.11500 30.06000
C  15.09900 2.20700 30.99100
C  16.00100 3.06900 31.75400
O  17.23100 3.22500 31.55800
O  15.26500 3.62300 32.82000
C  16.10000 4.44100 33.70300
H  19.22500 -3.47900 30.72500
H  18.80800 -3.36500 24.40500
H  14.98500 1.67300 24.50900
H  17.48500 0.75900 32.68400
H  18.01300 -2.11900 32.64800
H  20.07600 -1.58900 32.84400
H  19.77800 0.11000 32.68100
H  20.25700 -0.87600 31.28200
H  15.54700 -1.53200 32.73500
H  14.95300 0.13400 33.18400
H  16.40900 -1.92100 34.58700
H  15.55100 -0.49100 35.12200
H  21.09200 -5.34100 29.19400
H  19.77000 -6.59200 28.91800
H  19.63200 -5.53100 30.22300
H  20.90500 -7.37600 25.52200
H  19.79600 -7.35900 26.90900
H  21.48900 -6.61400 26.90800
H  17.39100 -2.16100 22.67000
H  17.11500 0.73900 22.88200
H  19.21500 0.14600 22.70700
H  19.17000 -1.29100 21.68800
H  19.80900 -1.29500 23.33100
H  15.30300 -1.13500 21.67400
H  15.09900 0.56000 22.01700
H  14.30500 -1.49800 24.10100
H  13.31400 -1.25000 22.66700
H  13.62300 0.10100 23.73000
H  14.46300 3.56200 25.46000
H  13.82900 4.60100 26.79200
H  12.84100 3.20900 26.21300
H  14.31100 1.80900 31.63000
H  16.56200 5.23300 33.11300
H  16.80000 3.73600 34.15100
H  15.59800 4.97800 34.50800

