158

Mg 40.06700 9.31000 30.31600
C  42.13500 10.67700 32.92400
C  38.26500 7.60900 32.74900
C  38.26700 7.89700 27.77900
C  42.17500 10.74000 27.98900
N  40.17200 9.16400 32.59900
C  41.01600 9.90600 33.41500
C  40.62200 9.76900 34.87300
C  39.37200 8.76100 34.84600
C  39.19500 8.50100 33.32800
C  39.50000 7.48800 35.79000
C  40.21700 11.16300 35.53400
C  40.91800 11.63500 36.80400
H  40.01800 12.52800 37.73300
N  38.47000 8.02600 30.28900
C  37.90300 7.41000 31.36200
C  36.69100 6.69900 30.89400
C  36.73600 6.64700 29.40500
C  37.90000 7.51400 29.06900
C  35.68900 6.09500 31.99800
C  35.86200 5.85000 28.43100
O  36.09600 5.73900 27.21800
C  34.54900 5.32300 29.07400
N  40.14800 9.35000 28.20200
C  39.26800 8.77100 27.41500
C  39.46000 9.22500 25.98000
C  40.51400 10.37300 26.10600
C  40.98900 10.14500 27.48700
C  39.66900 8.28300 24.71100
C  39.84400 11.75100 25.86900
C  40.69400 12.74300 24.96500
N  41.89100 10.46600 30.40400
C  42.57400 10.88400 29.33800
C  43.73700 11.70300 29.85900
C  43.54600 11.69900 31.26800
C  42.43400 10.85900 31.55100
C  44.82100 12.18800 29.04800
C  44.08100 12.16300 32.51600
O  45.13500 12.78100 32.70400
C  43.22900 11.54200 33.66200
C  44.01700 10.67700 34.60200
O  44.52000 9.53800 34.40800
O  44.05400 11.38000 35.82500
C  44.45400 10.46100 36.92000
H  37.51100 7.20000 33.42500
H  37.60700 7.66400 26.94100
H  42.85000 11.22300 27.27800
H  41.49100 9.38900 35.41000
H  38.43400 9.27400 35.05800
H  39.18000 6.52400 35.39400
H  38.74600 7.71200 36.54400
H  40.45400 7.48700 36.31600
H  39.14400 11.18300 35.72300
H  40.28700 11.90100 34.73500
H  41.78400 12.22300 36.50000
H  41.25500 10.75500 37.35300
H  35.56400 6.75800 32.85400
H  36.01900 5.08900 32.25700
H  34.70400 5.96200 31.55200
H  33.95400 4.79100 28.33200
H  34.07100 6.21200 29.48500
H  34.75500 4.57000 29.83500
H  38.49300 9.69100 25.79300
H  41.43900 10.24800 25.54300
H  39.82900 7.27500 25.09300
H  40.55100 8.49600 24.10700
H  38.83500 8.27200 24.00900
H  39.74400 12.20000 26.85700
H  38.80900 11.64300 25.54400
H  40.96100 13.71200 25.38600
H  40.32100 12.80600 23.94300
H  41.63500 12.23300 24.75900
H  44.91400 11.77400 28.04400
H  45.73900 11.87800 29.54600
H  44.73300 13.27400 29.02500
H  42.77200 12.34800 34.23700
H  43.79300 9.59400 36.92600
H  44.42100 11.04100 37.84200
H  45.46600 10.11200 36.71500
Mg 27.02000 49.78200 26.70100
C  24.75500 51.00800 29.28200
C  29.27600 49.28700 29.16600
C  29.08000 49.16900 24.28300
C  24.65900 51.30300 24.39900
N  26.90000 50.07000 28.99100
C  25.89200 50.42200 29.88200
C  26.34000 50.29400 31.31600
C  27.93100 50.09700 31.14100
C  28.05700 49.75400 29.63900
C  28.74600 51.41000 31.60000
C  25.61000 49.06600 32.01400
C  24.88600 49.37200 33.29800
H  25.76200 49.92200 34.47400
N  28.88300 49.25600 26.75100
C  29.67600 49.00700 27.86500
C  30.99300 48.52400 27.41600
C  30.96400 48.55600 25.96200
C  29.58400 49.02000 25.60100
C  32.08300 48.17200 28.35800
C  32.05800 48.17400 24.95300
O  31.89500 48.02400 23.75300
C  33.50500 47.88200 25.39200
N  26.90200 50.19500 24.69500
C  27.88500 49.70600 23.87400
C  27.50100 49.75000 22.35100
C  25.96600 50.20000 22.53500
C  25.82700 50.63300 23.92100
C  28.36200 50.68700 21.48300
C  24.92200 49.14700 21.97000
C  24.57700 47.97800 22.83900
N  25.07900 50.89400 26.77100
C  24.26300 51.43600 25.75800
C  23.15600 52.16000 26.35100
C  23.24200 51.93300 27.73000
C  24.44000 51.21700 27.93300
C  22.15300 52.93200 25.56400
C  22.57300 52.18800 28.95400
O  21.49700 52.64500 29.17000
C  23.58700 51.68500 30.08400
C  23.93600 52.71900 31.07800
O  24.53800 53.75900 30.98100
O  23.46300 52.22600 32.27900
C  23.56000 53.16200 33.39400
H  29.96400 49.07800 29.98800
H  29.86000 49.11400 23.52100
H  24.03700 51.70400 23.59600
H  26.13800 51.17000 31.93300
H  28.32600 49.26900 31.73000
H  29.64300 51.15500 32.16600
H  28.15500 52.06300 32.24200
H  29.05900 51.98600 30.73000
H  26.33900 48.28100 32.21200
H  24.75600 48.74400 31.41900
H  24.23900 48.57000 33.65400
H  24.30200 50.27600 33.12600
H  33.06600 48.58100 28.12200
H  32.21300 47.09000 28.32600
H  31.93300 48.50800 29.38300
H  34.13900 47.46200 24.61200
H  33.55000 47.22600 26.26200
H  33.93300 48.84300 25.67900
H  27.59700 48.72400 21.99800
H  25.88400 51.07300 21.88800
H  27.65700 51.20500 20.83300
H  29.00700 50.18000 20.76500
H  28.96400 51.35700 22.09700
H  25.28000 48.67800 21.05400
H  24.03800 49.70200 21.65800
H  24.52400 48.29000 23.88200
H  25.33900 47.20600 22.73300
H  23.58100 47.60500 22.60100
H  22.45600 53.08200 24.52700
H  21.93700 53.90500 26.00500
H  21.31200 52.25400 25.70800
H  23.05600 50.87700 30.58700
H  24.32700 52.84500 34.10100
H  22.67100 53.19200 34.02400
H  23.74300 54.20500 33.13500

