158

Mg 47.56200 25.18600 28.37700
C  48.49700 27.53000 30.79200
C  46.68800 23.05500 31.01200
C  46.96400 22.86600 26.16300
C  48.68800 27.26400 25.87300
N  47.56500 25.36300 30.57700
C  47.96300 26.38900 31.34000
C  47.67400 26.22200 32.83500
C  47.10300 24.72800 32.85600
C  47.10800 24.36600 31.35200
C  47.87700 23.78000 33.70800
C  46.78500 27.29400 33.45900
C  46.02000 26.83200 34.68200
H  45.88100 27.80500 35.88000
N  46.88600 23.29700 28.53800
C  46.55700 22.61900 29.64800
C  45.98300 21.32600 29.29100
C  46.15900 21.16200 27.88100
C  46.66800 22.48100 27.47400
C  45.38100 20.35400 30.33300
C  45.85800 19.91800 27.06600
O  46.14700 19.84400 25.86100
C  45.30200 18.70900 27.62800
N  47.76900 25.12100 26.25700
C  47.38400 24.04900 25.56900
C  47.80900 24.24300 24.07500
C  48.02100 25.80200 23.93200
C  48.10500 26.13400 25.44800
C  49.07900 23.36200 23.87000
C  46.97400 26.54800 23.07800
C  47.10300 26.63400 21.51200
N  48.36500 27.04300 28.33900
C  48.84700 27.70600 27.23100
C  49.48300 28.84100 27.73600
C  49.39400 28.86500 29.13000
C  48.65600 27.74600 29.40800
C  50.21800 29.83800 26.87600
C  49.67100 29.56800 30.35900
O  50.23400 30.67500 30.53700
C  49.09800 28.68100 31.51600
C  50.35300 28.21200 32.23300
O  51.12100 27.34400 31.86600
O  50.49700 28.86600 33.41100
C  51.58800 28.50800 34.30400
H  46.35700 22.54000 31.91600
H  46.88600 22.07400 25.41500
H  48.90800 27.96500 25.06600
H  48.68100 26.33900 33.23500
H  46.05300 24.70100 33.14700
H  48.25800 22.94100 33.12500
H  47.25500 23.40400 34.52000
H  48.70900 24.27600 34.20700
H  46.04600 27.64900 32.74100
H  47.39000 28.15300 33.74900
H  46.45500 25.93600 35.12400
H  44.97100 26.67900 34.43000
H  45.91300 19.40300 30.31600
H  44.32300 20.22400 30.10500
H  45.44300 20.77900 31.33500
H  45.75000 18.26000 28.51400
H  45.35300 17.95500 26.84200
H  44.29200 19.09800 27.75400
H  47.05400 23.91300 23.36200
H  48.99900 26.09200 23.54900
H  49.99400 23.94000 23.74000
H  48.82400 22.76300 22.99600
H  49.37400 22.69400 24.67900
H  47.02200 27.55100 23.50100
H  46.00400 26.19100 23.42500
H  47.79500 25.89800 21.10300
H  47.41200 27.66800 21.35800
H  46.17000 26.29000 21.06500
H  49.60400 30.73600 26.80400
H  50.45700 29.53800 25.85600
H  51.17400 30.05600 27.35200
H  48.28300 29.17500 32.04500
H  51.24200 27.60700 34.81000
H  51.64100 29.32400 35.02500
H  52.56300 28.32200 33.85300
Mg 49.36400 47.29400 42.28900
C  46.03600 47.32900 41.46800
C  49.84100 44.32400 40.63800
C  52.61800 47.79500 42.59600
C  48.99300 50.84000 43.25300
N  48.00900 46.05200 41.07400
C  46.65600 46.22100 40.99100
C  46.12300 45.03100 40.11200
C  47.31200 43.95100 40.09100
C  48.46100 44.81700 40.64800
C  47.02000 42.57600 40.92600
C  45.71900 45.58400 38.68900
C  44.48800 44.91900 38.04300
H  44.98100 43.91700 36.92500
N  50.94500 46.16500 41.82100
C  50.94100 44.94800 41.16600
C  52.27000 44.44200 41.14000
C  53.10600 45.46000 41.70000
C  52.20600 46.53600 42.12300
C  52.72300 43.17700 40.58300
C  54.63000 45.30200 41.87400
O  55.29200 44.30300 41.47800
C  55.42600 46.26600 42.87100
N  50.67400 49.05200 42.91400
C  51.98200 48.92200 42.95800
C  52.66600 50.24800 43.22900
C  51.50700 51.27700 43.28100
C  50.29400 50.37400 43.15900
C  53.70900 50.36200 44.37700
C  51.46000 52.48300 42.38200
C  51.30600 53.79900 43.22100
N  47.83500 48.78200 42.51800
C  47.79500 50.14900 42.87500
C  46.45600 50.64200 42.68200
C  45.72100 49.56600 42.21000
C  46.61300 48.43100 42.09300
C  45.97000 51.96300 43.05100
C  44.40600 49.17500 41.84200
O  43.37200 49.88000 41.84200
C  44.58000 47.65000 41.51400
C  43.81800 46.87000 42.58000
O  44.03900 47.08400 43.77300
O  43.11500 45.87400 41.98300
C  42.44900 44.81700 42.78700
H  49.93200 43.30200 40.26400
H  53.69800 47.93900 42.52500
H  48.77000 51.88600 43.47200
H  45.23000 44.72700 40.65800
H  47.43300 43.69200 39.03900
H  46.80000 41.71400 40.29700
H  46.08600 42.70500 41.47400
H  47.88600 42.30700 41.53000
H  46.62100 45.48200 38.08500
H  45.60900 46.65800 38.83800
H  43.88100 45.74400 37.66900
H  43.79100 44.32500 38.63400
H  51.95500 42.61800 40.04800
H  53.10300 42.52600 41.37000
H  53.48000 43.39000 39.82800
H  55.73800 47.17600 42.35900
H  56.31800 45.73100 43.19800
H  54.86500 46.49200 43.77800
H  53.15900 50.28300 42.25800
H  51.41800 51.61200 44.31400
H  54.62600 50.88700 44.10900
H  54.02800 49.36600 44.68300
H  53.25700 50.83500 45.24800
H  50.58300 52.37100 41.74400
H  52.35200 52.28800 41.78600
H  51.34800 53.69100 44.30400
H  50.26100 54.07600 43.08200
H  51.97300 54.53800 42.77800
H  46.39500 52.25500 44.01200
H  44.89900 51.92900 43.25200
H  46.39500 52.77000 42.45400
H  44.02000 47.29700 40.64800
H  43.23500 44.22300 43.25400
H  42.01600 44.09700 42.09300
H  41.77700 45.19800 43.55600

