158

Mg 45.06800 3.03000 46.96300
C  42.67900 5.81800 46.60700
C  42.42900 0.90200 46.69600
C  47.28300 0.65900 46.97400
C  47.61100 5.50600 46.91600
N  42.88600 3.41100 46.81200
C  42.18700 4.55000 46.45000
C  40.75600 4.12900 46.11800
C  40.64700 2.66800 46.69100
C  42.08400 2.29300 46.81000
C  39.87200 2.56400 48.03000
C  40.38700 4.28500 44.56500
C  39.25400 5.21600 44.15400
H  39.62600 6.13100 43.02300
N  44.84100 1.01000 46.83700
C  43.66800 0.34800 46.70300
C  44.04000 -1.07600 46.53600
C  45.45600 -1.18100 46.63200
C  45.88100 0.17700 46.82800
C  42.98700 -2.15400 46.28700
C  46.25900 -2.48200 46.58800
O  45.66000 -3.51200 46.31900
C  47.75000 -2.66700 46.87500
N  47.16100 3.04500 46.65600
C  47.83300 1.91900 47.06800
C  49.30700 2.19200 47.42400
C  49.46000 3.74700 47.14200
C  47.96600 4.13500 46.93400
C  49.73000 1.60500 48.81800
C  50.35400 4.08900 45.87700
C  51.63100 4.90700 46.20300
N  45.13300 5.24500 46.79800
C  46.26900 6.07200 46.90800
C  45.93500 7.46700 46.87100
C  44.48200 7.44700 46.81600
C  44.05800 6.05000 46.80000
C  46.90900 8.64300 46.79400
C  43.28800 8.25200 46.77600
O  43.18000 9.44400 46.64000
C  42.05700 7.23600 46.69900
C  41.39800 7.32500 48.01500
O  41.61900 6.70700 49.04500
O  40.46200 8.36800 47.77100
C  39.53900 8.58100 48.92400
H  41.53500 0.27500 46.67900
H  47.90600 -0.20100 47.22900
H  48.45400 6.15600 47.15800
H  40.13300 4.83500 46.66600
H  40.03600 2.00200 46.08100
H  40.51200 2.20300 48.83500
H  39.09100 1.81700 47.88800
H  39.30200 3.43200 48.36000
H  40.13300 3.27800 44.23400
H  41.26100 4.59200 43.99100
H  38.97500 5.66900 45.10500
H  38.42200 4.58800 43.83700
H  42.08000 -1.75500 45.83400
H  42.70200 -2.72500 47.17000
H  43.34600 -2.88500 45.56200
H  47.97500 -3.73000 46.95600
H  48.15000 -2.27500 47.81000
H  48.34900 -2.20800 46.08800
H  49.96900 1.72400 46.69500
H  49.85100 4.25300 48.02500
H  50.41900 0.76600 48.72700
H  48.81800 1.37500 49.36800
H  50.26600 2.33900 49.42000
H  49.86400 4.66100 45.08900
H  50.54400 3.16800 45.32500
H  52.41300 4.45500 45.59300
H  51.96500 4.77300 47.23200
H  51.62000 5.97400 45.97900
H  47.49200 8.42500 47.68900
H  46.45700 9.63200 46.86900
H  47.70300 8.60400 46.04900
H  41.31700 7.42900 45.92300
H  38.79900 7.78400 48.86400
H  38.95800 9.49700 48.80900
H  40.11200 8.49200 49.84700
Mg 49.25700 45.79400 42.01000
C  45.85300 46.52200 41.12100
C  48.88200 42.79200 40.55000
C  52.59900 45.46400 42.21500
C  49.61600 49.23700 42.98100
N  47.60300 44.85200 40.92700
C  46.28500 45.27000 40.74200
C  45.40600 44.13900 40.10800
C  46.39000 42.96300 40.06000
C  47.72200 43.57000 40.55300
C  46.03100 41.69300 40.78100
C  45.00900 44.53900 38.62700
C  43.48000 44.28500 38.19800
H  43.23500 43.27100 37.16300
N  50.55300 44.30000 41.55200
C  50.15400 43.08100 41.01500
C  51.27900 42.20200 40.88800
C  52.46900 42.93300 41.33300
C  51.91200 44.31400 41.76600
C  51.16700 40.68700 40.49700
C  53.92700 42.45400 41.40900
O  54.14100 41.32400 41.03200
C  55.05900 43.36200 41.71000
N  50.88500 47.15300 42.44100
C  52.13700 46.74100 42.50200
C  53.04000 47.85200 42.99600
C  52.09900 49.05400 43.25100
C  50.76200 48.49600 42.76900
C  53.97400 47.39100 44.14700
C  52.49100 50.46500 42.61500
C  53.33400 51.35900 43.53800
N  48.03000 47.58000 42.08400
C  48.27000 48.87300 42.61500
C  47.00500 49.58800 42.51600
C  46.02400 48.63100 42.11900
C  46.71800 47.53500 41.69600
C  46.78300 51.01200 43.09000
C  44.59800 48.43600 42.04400
O  43.62700 49.12400 42.34300
C  44.39400 47.07900 41.23500
C  43.37600 46.25300 41.84100
O  42.24200 46.02600 41.33900
O  43.73200 45.67700 43.02100
C  42.91100 44.56200 43.45500
H  48.63500 41.78400 40.21100
H  53.68700 45.42800 42.30700
H  49.51900 50.21800 43.45100
H  44.43000 44.06700 40.58800
H  46.51400 42.66000 39.02000
H  46.37700 41.56200 41.80600
H  46.39500 40.88700 40.14300
H  44.95000 41.55800 40.80100
H  45.75900 44.21100 37.90700
H  45.06100 45.61500 38.46100
H  43.12800 45.20700 37.73400
H  42.80100 44.14600 39.03900
H  50.99600 40.47300 39.44100
H  50.43400 40.22700 41.15900
H  52.09800 40.17800 40.74500
H  55.00300 43.67100 42.75300
H  55.11900 44.30300 41.16300
H  55.99000 42.83600 41.50000
H  53.69900 48.11700 42.16900
H  52.09900 49.15700 44.33600
H  54.07800 48.17500 44.89600
H  54.94000 47.05300 43.77200
H  53.48300 46.47800 44.48300
H  51.57800 50.95000 42.27000
H  53.14300 50.39400 41.74400
H  54.35100 51.55800 43.20000
H  53.36000 50.94000 44.54400
H  52.80800 52.30900 43.63600
H  47.31000 51.03100 44.04400
H  45.75100 51.26300 43.33500
H  47.20100 51.78300 42.44300
H  44.18300 47.34500 40.19900
H  42.85600 43.84900 42.63200
H  41.91900 44.91000 43.74400
H  43.37800 44.22400 44.38000

