158

Mg -12.94200 16.36600 42.87700
C  -9.95500 14.60500 42.36600
C  -11.55400 19.14200 41.46800
C  -16.12100 17.64800 42.67600
C  -14.47800 13.15100 43.55400
N  -10.89900 16.71500 41.79200
C  -9.78900 15.98000 41.95200
C  -8.55400 16.70500 41.52500
C  -9.12100 18.19200 41.31500
C  -10.64600 18.09200 41.63500
C  -8.37700 19.26800 42.14500
C  -8.06900 16.10400 40.19700
C  -6.52300 16.08300 39.91500
H  -5.86100 15.07900 38.98500
N  -13.78400 18.20500 42.13400
C  -12.98100 19.19900 41.70700
C  -13.79200 20.36400 41.55100
C  -15.13700 20.02600 41.93500
C  -15.07600 18.62500 42.28700
C  -13.16100 21.72400 41.12400
C  -16.37500 20.97000 41.86200
O  -16.27400 22.07800 41.32400
C  -17.71000 20.52100 42.38900
N  -15.01400 15.51000 43.12700
C  -16.12300 16.25100 42.99500
C  -17.43200 15.45300 43.17000
C  -16.84400 14.04100 43.50200
C  -15.37100 14.26000 43.44400
C  -18.59300 15.98100 44.06000
C  -17.51000 12.86700 42.72900
C  -18.05700 11.78300 43.69200
N  -12.37900 14.29400 43.08500
C  -13.10800 13.15900 43.35200
C  -12.23500 11.96100 43.44800
C  -10.99400 12.50400 43.03700
C  -11.11600 13.92100 42.85000
C  -12.57300 10.57700 43.94400
C  -9.57000 12.26500 42.78400
O  -8.92200 11.21000 42.81500
C  -8.89500 13.50200 42.28800
C  -7.67800 13.82700 43.08800
O  -7.57800 14.07300 44.28100
O  -6.61900 13.85200 42.20200
C  -5.35500 14.18900 42.82100
H  -11.14600 20.12200 41.21200
H  -17.13300 18.05400 42.62100
H  -15.01800 12.21400 43.70500
H  -7.81400 16.58600 42.31700
H  -9.01100 18.54600 40.29000
H  -7.55200 18.87400 42.73800
H  -9.08500 19.79900 42.78200
H  -7.91600 19.98800 41.46800
H  -8.48600 16.66000 39.35700
H  -8.51700 15.11700 40.07300
H  -6.00100 16.11400 40.87200
H  -6.22700 17.04900 39.50600
H  -12.57400 22.12800 41.94900
H  -13.95500 22.41400 40.83800
H  -12.53400 21.61100 40.23900
H  -18.13500 19.64000 41.90700
H  -18.38600 21.37600 42.41600
H  -17.55700 20.33200 43.45200
H  -17.88600 15.47500 42.18000
H  -16.89400 13.83200 44.57100
H  -18.67900 17.06700 44.01700
H  -18.57700 15.52200 45.04800
H  -19.52700 15.65200 43.60600
H  -16.85500 12.49000 41.94400
H  -18.34300 13.31200 42.18400
H  -17.75300 10.82900 43.26000
H  -19.12900 11.63900 43.82600
H  -17.49000 11.81300 44.62200
H  -13.23700 9.91700 43.38600
H  -12.94600 10.69900 44.96100
H  -11.62700 10.03700 43.91200
H  -8.48900 13.31100 41.29400
H  -5.09400 13.42900 43.55700
H  -5.45100 15.21700 43.17000
H  -4.67400 14.23000 41.97100
Mg -6.18700 25.09100 25.95900
C  -4.46200 25.99500 28.88000
C  -8.14200 22.95100 27.72800
C  -7.24300 23.95700 23.06600
C  -3.59600 26.75400 24.22900
N  -6.15900 24.48800 28.03700
C  -5.53600 25.20300 29.05900
C  -6.04900 24.68700 30.38300
C  -7.02400 23.51800 30.02800
C  -7.11500 23.59400 28.50400
C  -6.50800 22.17200 30.56400
C  -6.71200 25.86800 31.16600
C  -6.49500 26.05400 32.73100
H  -5.97500 24.91900 33.57200
N  -7.55900 23.64800 25.44300
C  -8.37200 22.92400 26.32400
C  -9.28200 22.08800 25.54100
C  -8.97300 22.42100 24.14700
C  -7.88200 23.40800 24.16200
C  -10.24400 21.14800 26.18500
C  -9.72800 21.95300 22.95700
O  -9.46800 22.35200 21.83700
C  -10.88300 21.02200 23.13200
N  -5.37300 25.24400 23.93700
C  -6.09600 24.69600 22.90500
C  -5.51100 24.98100 21.57500
C  -4.44100 26.04900 21.99200
C  -4.44400 26.00400 23.50200
C  -4.79200 23.71700 20.94400
C  -4.74000 27.51000 21.47200
C  -4.24500 27.74000 20.00800
N  -4.50200 26.31100 26.40400
C  -3.56900 26.94700 25.60400
C  -2.48300 27.60800 26.34900
C  -2.81500 27.30900 27.66900
C  -4.04100 26.53800 27.65400
C  -1.26500 28.39200 25.81000
C  -2.40300 27.36200 29.07200
O  -1.50100 27.87700 29.65700
C  -3.55200 26.67600 29.85900
C  -2.90800 25.84500 30.92400
O  -2.53500 24.71600 30.83000
O  -2.79100 26.44600 32.12700
C  -1.77800 26.01100 33.01300
H  -8.78400 22.25100 28.26700
H  -7.56100 23.73600 22.04500
H  -2.77600 27.24400 23.70000
H  -5.23400 24.32100 31.00700
H  -8.03400 23.71000 30.38800
H  -5.85400 22.24500 31.43300
H  -5.87300 21.90700 29.71800
H  -7.37800 21.52200 30.65400
H  -7.79700 25.90600 31.07400
H  -6.35400 26.72500 30.59700
H  -7.41600 26.50500 33.09900
H  -5.76900 26.84300 32.92700
H  -11.17500 21.69100 26.02300
H  -10.19200 20.97900 27.26000
H  -10.23700 20.16000 25.72300
H  -11.64700 21.40700 23.80600
H  -10.40200 20.14800 23.57100
H  -11.23900 20.72900 22.14400
H  -6.29100 25.45400 20.97800
H  -3.43300 25.75500 21.69800
H  -3.78600 24.05000 20.68900
H  -5.45100 23.39300 20.13900
H  -4.77100 22.98700 21.75300
H  -4.37400 28.30500 22.12100
H  -5.82100 27.65000 21.49200
H  -3.23600 28.15400 20.02900
H  -5.01300 28.34400 19.52600
H  -4.16500 26.76400 19.52800
H  -1.66600 29.32000 25.40200
H  -0.84100 27.76700 25.02400
H  -0.57000 28.57500 26.63100
H  -4.08700 27.46100 30.39300
H  -2.19000 25.15400 33.54500
H  -1.31600 26.76100 33.65600
H  -0.95600 25.79800 32.32900

