158

Mg 42.41200 40.99300 27.10000
C  41.42900 43.35100 29.42300
C  42.68900 38.64400 29.63700
C  43.59300 38.87000 24.77100
C  42.26500 43.46700 24.61900
N  42.22100 40.99500 29.30700
C  41.70000 42.09300 30.00400
C  41.51700 41.75800 31.44400
C  42.20100 40.37400 31.66400
C  42.39900 39.93900 30.10900
C  43.52000 40.28000 32.46500
C  40.00500 41.86900 31.94400
C  39.86200 42.55000 33.27500
H  39.58300 41.59800 34.50300
N  43.05500 39.05000 27.20600
C  43.10100 38.17000 28.28700
C  43.61600 36.90400 27.82700
C  43.86200 37.03100 26.40100
C  43.40800 38.36200 26.03900
C  44.13600 35.86200 28.82100
C  44.59900 35.99600 25.46300
O  45.02400 36.29400 24.36300
C  44.72100 34.53500 25.84600
N  43.11200 41.17700 25.08800
C  43.41500 40.12700 24.28200
C  43.69300 40.44200 22.83200
C  43.16900 41.88900 22.80500
C  42.82300 42.24200 24.29800
C  45.30100 40.29200 22.42900
C  41.98600 42.17600 21.91900
C  40.70800 41.48300 22.30200
N  42.04000 43.06700 27.00700
C  41.99800 43.94200 25.89800
C  41.50600 45.24300 26.29200
C  41.23300 45.04400 27.69300
C  41.61000 43.71600 28.04700
C  41.23600 46.42000 25.40500
C  40.68500 45.62200 28.85200
O  40.29600 46.77500 28.94800
C  40.92500 44.65300 30.05700
C  41.90100 45.08800 31.05400
O  43.11700 45.11400 30.81300
O  41.30100 45.45800 32.17700
C  42.18400 45.89000 33.28700
H  42.58000 37.76300 30.27200
H  43.62600 38.12000 23.97900
H  42.02900 44.25700 23.90300
H  42.17800 42.46100 31.95000
H  41.42800 39.79100 32.16500
H  44.38000 40.46100 31.82000
H  43.73800 39.25900 32.78100
H  43.48600 40.88600 33.37000
H  39.58000 40.86900 32.03800
H  39.34500 42.31500 31.20100
H  39.02500 43.23600 33.14100
H  40.70300 43.19400 33.53200
H  43.35400 35.16900 29.13100
H  44.31000 36.39600 29.75500
H  45.01000 35.24700 28.60700
H  45.75100 34.45500 26.19500
H  44.47100 33.95500 24.95800
H  43.98700 34.28000 26.61100
H  43.15100 39.72700 22.21300
H  43.97200 42.59000 22.57700
H  45.93000 39.86700 23.21100
H  45.69800 41.23600 22.05500
H  45.50900 39.60100 21.61300
H  42.19600 41.80000 20.91800
H  41.77900 43.24300 21.84100
H  40.46100 40.60300 21.70900
H  39.96000 42.24900 22.09800
H  40.73000 41.14900 23.34000
H  42.23100 46.80700 25.18600
H  40.58100 47.17100 25.84600
H  40.80100 46.21700 24.42600
H  39.99000 44.38700 30.55100
H  42.08000 46.92000 33.62800
H  43.22000 45.83600 32.95300
H  42.08100 45.24700 34.16100
Mg 0.45400 42.07700 26.13600
C  1.57500 42.50900 29.40300
C  -2.56900 40.90800 27.29300
C  -0.28100 41.40300 22.91100
C  3.61600 43.09500 25.02900
N  -0.36900 41.72700 28.06400
C  0.22800 42.19200 29.26900
C  -0.77700 42.03200 30.46400
C  -2.02200 41.32200 29.76700
C  -1.65300 41.25600 28.27700
C  -2.47900 40.04300 30.41100
C  -1.08300 43.16100 31.55300
C  -0.35900 43.13500 32.93300
H  -1.17400 43.12500 34.17100
N  -1.21500 41.47500 25.26700
C  -2.37000 40.95400 25.86300
C  -3.40300 40.65700 24.86200
C  -2.73300 40.74000 23.65200
C  -1.35900 41.25300 23.88100
C  -4.74700 40.05600 25.10900
C  -3.37200 40.63600 22.26300
O  -2.68200 40.87300 21.25900
C  -4.84400 40.33300 22.00100
N  1.47900 42.26900 24.22500
C  0.99300 41.90000 23.08300
C  1.97800 42.06500 21.91900
C  3.11600 42.87800 22.56600
C  2.74800 42.75900 24.08500
C  2.39000 40.84000 21.19800
C  3.10100 44.38000 22.13900
C  3.62000 44.61200 20.67700
N  2.30600 42.54200 26.99600
C  3.51900 42.98000 26.43300
C  4.50700 43.26500 27.44500
C  3.78300 43.02700 28.64400
C  2.46100 42.65700 28.31700
C  5.90800 43.67600 27.27900
C  3.84100 43.09600 30.09300
O  4.69800 43.35000 30.95800
C  2.38500 42.64100 30.61500
C  2.68300 41.37700 31.40500
O  2.93700 40.29300 30.88100
O  2.64200 41.69400 32.73500
C  2.77300 40.69700 33.75000
H  -3.52600 40.62600 27.73800
H  -0.44000 41.12200 21.86800
H  4.63800 43.35900 24.75100
H  -0.24900 41.28600 31.05800
H  -2.84100 42.02300 29.93000
H  -2.36500 39.31400 29.60900
H  -3.44600 40.18000 30.89600
H  -1.76200 39.69500 31.15400
H  -2.15200 43.20200 31.76000
H  -0.65800 44.06500 31.11600
H  0.32600 43.97300 33.05900
H  0.24500 42.22800 32.94200
H  -5.65300 40.59600 24.83400
H  -4.79800 40.05800 26.19800
H  -4.86200 39.03200 24.75400
H  -5.33600 41.24800 22.32800
H  -5.26600 39.46400 22.50600
H  -4.98000 40.20000 20.92800
H  1.44900 42.70400 21.21100
H  4.15900 42.56600 22.51500
H  1.59300 40.10000 21.12400
H  3.39600 40.48200 21.41700
H  2.42000 41.22700 20.18000
H  3.62700 45.09900 22.76800
H  2.09800 44.78600 22.26800
H  4.27300 43.78400 20.40200
H  4.21500 45.52300 20.75200
H  2.89900 44.74800 19.87100
H  6.55300 42.83500 27.53300
H  6.23000 44.49500 27.92300
H  6.06200 44.05000 26.26700
H  2.03800 43.38100 31.33600
H  3.45000 39.90300 33.43300
H  1.76800 40.48800 34.11600
H  3.12300 41.24500 34.62500

