158

Mg 16.52600 52.82400 26.73100
C  18.45600 51.20300 29.15500
C  14.44200 53.96500 29.13000
C  14.33700 53.84400 24.37600
C  18.50900 51.27800 24.32900
N  16.40900 52.53400 28.88900
C  17.38800 51.92300 29.65800
C  17.15400 52.28700 31.12200
C  15.71800 52.93300 31.10300
C  15.48500 53.14800 29.63400
C  14.56900 52.00900 31.75900
C  18.16200 53.27400 31.70000
C  18.54800 53.23400 33.20200
H  17.58400 52.39700 34.05800
N  14.65500 53.75200 26.75100
C  14.04600 54.21100 27.82000
C  12.91600 55.01400 27.53000
C  12.83400 54.98300 26.09400
C  14.00600 54.21000 25.64400
C  11.93200 55.69400 28.48700
C  11.83200 55.61800 25.14800
O  11.84200 55.46700 23.93700
C  10.79200 56.55800 25.67800
N  16.35200 52.44500 24.69800
C  15.39500 52.99200 23.89700
C  15.67400 52.81900 22.40600
C  17.06400 52.02900 22.34700
C  17.36800 51.96000 23.85300
C  14.49600 52.30800 21.53400
C  18.21500 52.73400 21.47200
C  18.85800 54.00800 22.02100
N  18.27200 51.58200 26.66100
C  18.91400 51.03200 25.60900
C  19.99600 50.27100 26.07900
C  19.87200 50.32900 27.45400
C  18.77900 51.08500 27.80000
C  21.12100 49.60800 25.31500
C  20.50400 49.87400 28.71400
O  21.47900 49.17600 28.95400
C  19.57200 50.42100 29.86700
C  19.12400 49.32900 30.71600
O  18.06600 48.69100 30.65900
O  19.98000 49.23000 31.78300
C  19.71700 48.21200 32.81000
H  13.82500 54.27100 29.97700
H  13.73600 54.26900 23.57000
H  19.28300 50.86000 23.68200
H  17.16200 51.33100 31.64700
H  15.55200 53.82600 31.70500
H  13.87800 52.64700 32.31000
H  15.07200 51.35300 32.47000
H  13.97500 51.46300 31.02600
H  17.79500 54.25400 31.39800
H  19.08600 53.26600 31.12100
H  18.56300 54.20500 33.69700
H  19.51300 52.74700 33.34500
H  12.01600 56.78000 28.53400
H  11.98700 55.36000 29.52300
H  10.89400 55.44000 28.27200
H  9.93400 56.02300 26.08600
H  10.47800 57.12000 24.79800
H  11.21300 57.31300 26.34300
H  15.88100 53.76800 21.91100
H  16.84700 51.03900 21.94600
H  14.60900 51.29500 21.14900
H  14.46500 52.92700 20.63700
H  13.56900 52.52200 22.06600
H  17.90000 53.08000 20.48700
H  18.93400 51.94800 21.24400
H  18.64500 54.04800 23.08900
H  18.48600 54.84900 21.43500
H  19.93500 53.87200 21.93100
H  20.77500 48.66300 24.89500
H  21.90500 49.41600 26.04800
H  21.40100 50.21900 24.45700
H  20.17700 51.08600 30.48200
H  19.16900 48.69800 33.61700
H  20.60300 47.82100 33.31000
H  19.23800 47.31300 32.42000
Mg -10.38600 17.29100 41.17600
C  -6.92800 16.68300 41.10100
C  -9.63400 20.54900 40.69600
C  -13.53300 17.62200 40.08800
C  -10.90600 13.82500 41.22200
N  -8.43400 18.41400 41.05600
C  -7.18700 17.99500 41.00300
C  -6.16400 19.14100 40.67200
C  -7.09800 20.40400 40.96300
C  -8.47900 19.75900 40.88100
C  -7.01400 21.18600 42.29300
C  -5.67800 18.89600 39.18900
C  -4.24800 18.53800 38.87200
H  -3.98700 17.30500 37.98700
N  -11.56700 18.94400 40.76500
C  -11.03900 20.18900 40.50900
C  -12.11400 21.05100 40.20100
C  -13.30900 20.21800 40.04400
C  -12.82400 18.84100 40.25600
C  -11.99300 22.54700 40.04900
C  -14.69500 20.74000 39.75000
O  -14.99100 21.87600 39.47900
C  -15.84500 19.81300 39.79400
N  -11.98900 15.84700 40.73000
C  -13.13600 16.27600 40.30700
C  -14.14600 15.14600 39.95600
C  -13.42500 13.94600 40.64100
C  -12.07400 14.55300 40.95600
C  -15.58400 15.09200 40.52100
C  -13.52700 12.68200 39.77600
C  -14.12500 11.45600 40.51000
N  -9.24400 15.53500 41.26100
C  -9.58200 14.21000 41.40100
C  -8.41300 13.42500 41.38000
C  -7.30500 14.32800 41.27300
C  -7.87300 15.62300 41.25500
C  -8.34300 11.86500 41.44600
C  -5.93500 14.33700 41.16600
O  -5.20000 13.34500 41.08200
C  -5.58800 15.91800 41.17200
C  -4.79000 16.33100 42.31400
O  -3.99700 17.20000 42.29000
O  -5.01700 15.58800 43.48300
C  -4.00900 15.64500 44.59000
H  -9.35200 21.59900 40.59700
H  -14.53300 17.62100 39.65000
H  -11.06200 12.74800 41.31000
H  -5.35500 19.06900 41.40000
H  -6.83600 21.12400 40.18700
H  -7.99200 21.34900 42.74400
H  -6.45900 22.10900 42.12800
H  -6.44300 20.50400 42.92500
H  -5.91500 19.84900 38.71700
H  -6.22000 18.12200 38.64600
H  -3.77600 18.39200 39.84400
H  -3.75700 19.41000 38.44100
H  -12.94400 23.06900 40.16000
H  -11.62800 22.77200 39.04700
H  -11.20600 22.81600 40.75400
H  -15.69300 19.13900 38.95200
H  -16.80800 20.31500 39.70100
H  -15.68800 19.18500 40.67100
H  -14.16500 15.12500 38.86700
H  -13.86500 13.76900 41.62300
H  -15.63400 16.05700 41.02700
H  -15.81700 14.32700 41.26100
H  -16.39100 15.10600 39.78900
H  -12.47100 12.42700 39.69200
H  -13.87600 12.71000 38.74400
H  -14.98800 11.70500 41.12700
H  -13.34600 10.87300 41.00200
H  -14.52900 10.77100 39.76500
H  -7.53700 11.62900 40.75100
H  -9.26000 11.32900 41.20100
H  -8.04800 11.60200 42.46200
H  -5.13300 16.15300 40.20900
H  -4.10700 16.50800 45.24900
H  -2.97900 15.69900 44.23900
H  -4.08500 14.65900 45.04800

