158

Mg 50.50800 45.62000 42.30300
C  47.49100 47.05000 41.04100
C  49.54300 42.59600 41.23400
C  53.70200 44.62700 42.78300
C  51.62300 48.96800 42.82000
N  48.84200 44.99200 41.13600
C  47.71100 45.69600 40.83300
C  46.63500 44.73100 40.31900
C  47.19100 43.38200 40.53500
C  48.62200 43.64900 41.06900
C  46.33200 42.43100 41.50900
C  46.39200 45.05800 38.81000
C  44.91200 45.11800 38.37400
H  44.29500 43.91000 37.59700
N  51.53000 43.77500 42.03500
C  50.88500 42.64000 41.67800
C  51.87600 41.57800 41.70100
C  53.12500 42.15200 42.09100
C  52.85100 43.59200 42.30500
C  51.52600 40.14300 41.30700
C  54.43800 41.42700 42.25700
O  54.48800 40.20800 42.22000
C  55.74500 42.12500 42.46200
N  52.37200 46.75200 42.65000
C  53.48500 46.03200 42.95700
C  54.65300 46.87300 43.46500
C  54.00800 48.20400 43.36800
C  52.51200 48.00200 43.09000
C  55.29800 46.56900 44.89200
C  54.66900 49.30800 42.42500
C  55.64300 50.32200 42.99800
N  49.72400 47.58500 42.04900
C  50.30600 48.86100 42.30200
C  49.36900 49.95600 42.01900
C  48.21700 49.24000 41.66900
C  48.49400 47.83900 41.63100
C  49.61100 51.40600 42.15300
C  46.80200 49.41500 41.34300
O  46.06700 50.38200 41.28400
C  46.37800 48.04100 40.80400
C  45.10300 47.63400 41.55600
O  44.96400 47.44900 42.74500
O  44.11600 47.41600 40.58800
C  42.86700 47.16500 41.21100
H  48.98900 41.71800 40.89400
H  54.71300 44.40800 43.13200
H  52.07600 49.88000 43.21400
H  45.81000 44.84300 41.02300
H  47.41600 42.83200 39.62200
H  45.44200 42.92700 41.89500
H  46.97100 42.05900 42.31000
H  45.95100 41.61900 40.88900
H  46.94200 44.27700 38.28600
H  46.75700 46.04600 38.52800
H  44.73800 46.13900 38.03400
H  44.33800 45.01900 39.29500
H  52.09400 39.78100 40.45000
H  50.48100 39.94900 41.06900
H  51.79300 39.48800 42.13700
H  55.93300 42.57700 43.43600
H  55.84200 42.96300 41.77300
H  56.55800 41.42700 42.26000
H  55.34400 46.63800 42.65500
H  53.90500 48.58100 44.38600
H  56.30000 46.21600 44.65100
H  54.76100 45.64900 45.12400
H  55.14700 47.36100 45.62600
H  53.93100 49.77100 41.77000
H  55.30000 48.72100 41.75700
H  56.61700 50.14700 42.54000
H  55.78000 50.15000 44.06600
H  55.17700 51.28800 42.80300
H  48.72800 52.01300 41.95500
H  50.40500 51.71000 41.47100
H  49.96500 51.67000 43.15000
H  46.07600 48.15200 39.76200
H  42.66700 47.79300 42.07800
H  42.66600 46.12300 41.45900
H  42.16600 47.42600 40.41800
Mg -5.50000 25.68100 26.03200
C  -4.26500 27.22900 29.05600
C  -7.35300 23.53600 28.10700
C  -6.38800 23.91100 23.40100
C  -3.23400 27.60700 24.21700
N  -5.82700 25.51100 28.31400
C  -5.23200 26.23000 29.27700
C  -5.80400 25.88600 30.67700
C  -6.46900 24.56400 30.36800
C  -6.52700 24.47800 28.80400
C  -5.54000 23.29200 30.83200
C  -6.67800 26.99100 31.35100
C  -6.79200 26.96700 32.86900
H  -6.07500 25.79900 33.63400
N  -6.74300 23.94300 25.74000
C  -7.42400 23.19800 26.75000
C  -8.33600 22.28100 26.05300
C  -8.06000 22.40900 24.65400
C  -7.02200 23.44500 24.56200
C  -9.29900 21.37800 26.78200
C  -8.70100 21.70500 23.48500
O  -8.37200 21.96300 22.31400
C  -9.63500 20.53100 23.74200
N  -4.81100 25.71500 24.10100
C  -5.38300 24.84700 23.14900
C  -4.55500 24.98700 21.90000
C  -3.65500 26.28600 21.98500
C  -3.91100 26.58800 23.53600
C  -3.76500 23.70900 21.59100
C  -4.16400 27.54400 21.10700
C  -3.28700 28.21900 20.04100
N  -4.02600 27.21300 26.53100
C  -3.23900 27.94500 25.67700
C  -2.54000 28.96400 26.45800
C  -2.88300 28.70700 27.78700
C  -3.77400 27.62400 27.82900
C  -1.58100 29.95500 25.95800
C  -2.64700 29.07500 29.14200
O  -1.86800 29.92600 29.57700
C  -3.62200 28.23000 30.04300
C  -2.79400 27.53300 31.06000
O  -1.99400 26.62300 30.79400
O  -3.08000 28.13500 32.31600
C  -2.23600 27.54900 33.36700
H  -7.94300 22.83900 28.70600
H  -6.66100 23.41900 22.46500
H  -2.54100 28.18600 23.60400
H  -4.89200 25.78800 31.26700
H  -7.49200 24.61500 30.74000
H  -4.46900 23.42800 30.98300
H  -5.68400 22.50600 30.09100
H  -5.91800 23.02100 31.81800
H  -7.71800 26.83300 31.06400
H  -6.35900 27.97000 30.99200
H  -7.83500 27.05100 33.17400
H  -6.32400 27.91700 33.12600
H  -10.28400 21.84400 26.80200
H  -8.86500 21.20200 27.76600
H  -9.34100 20.33600 26.46500
H  -9.11800 19.72800 24.26700
H  -10.14200 20.21400 22.83100
H  -10.46100 20.85000 24.37900
H  -5.26900 25.17400 21.09900
H  -2.59100 26.11700 21.82100
H  -4.00400 23.49500 20.54900
H  -4.13600 22.90400 22.22500
H  -2.68900 23.88400 21.57700
H  -4.40000 28.37900 21.76700
H  -5.10700 27.26100 20.63800
H  -3.89200 28.37400 19.14700
H  -2.48700 27.54000 19.74700
H  -2.82600 29.17700 20.28000
H  -0.97600 29.50100 25.17300
H  -1.03200 30.39900 26.78900
H  -2.26800 30.70300 25.56300
H  -4.44500 28.85700 30.38400
H  -2.79100 27.60800 34.30300
H  -1.33300 28.13900 33.52800
H  -1.97600 26.50800 33.17300

