158

Mg 8.86900 3.24900 28.04000
C  10.15500 1.83800 30.95300
C  6.75300 5.17300 30.04900
C  7.51400 4.60100 25.28700
C  10.40400 0.75100 26.20100
N  8.41300 3.39700 30.34700
C  9.18700 2.81000 31.32400
C  8.73100 3.25800 32.72300
C  7.66000 4.32300 32.47400
C  7.55700 4.28900 30.86700
C  6.34500 4.07600 33.23600
C  10.00700 3.90400 33.60200
C  10.11300 3.43700 35.07200
H  10.26000 4.45600 36.19600
N  7.37600 4.65300 27.74400
C  6.69600 5.40300 28.66700
C  5.95600 6.44100 28.04700
C  6.27000 6.40500 26.66900
C  7.08400 5.14600 26.48200
C  5.19600 7.66400 28.77900
C  5.84500 7.39700 25.51700
O  6.26000 7.20800 24.40800
C  4.84300 8.46800 25.79500
N  8.96600 2.78200 26.10000
C  8.39700 3.52000 25.14100
C  8.71500 2.97300 23.74400
C  9.78900 1.88400 24.03600
C  9.72800 1.78100 25.54600
C  7.52600 2.56500 22.88400
C  11.23300 2.20000 23.49500
C  11.54500 1.71400 22.06600
N  10.08700 1.69900 28.46800
C  10.52600 0.64700 27.58500
C  11.34700 -0.26600 28.28200
C  11.25100 0.16600 29.61600
C  10.40100 1.33200 29.65700
C  12.18000 -1.37100 27.64700
C  11.76300 -0.11000 30.93500
O  12.62300 -0.91600 31.33400
C  11.02500 0.96400 31.85900
C  10.27500 0.07700 32.77100
O  9.48400 -0.80300 32.36600
O  10.52400 0.36600 34.11300
C  9.71900 -0.45200 35.07700
H  6.13100 5.85500 30.63300
H  7.13100 5.09800 24.39400
H  10.72600 0.01600 25.45900
H  8.40500 2.44300 33.37000
H  8.10300 5.27200 32.77500
H  5.63800 3.89500 32.42500
H  6.06700 4.81900 33.98300
H  6.35500 3.14800 33.80700
H  10.00200 4.99200 33.66500
H  10.94700 3.70700 33.08600
H  10.89900 2.71400 35.29100
H  9.18600 2.93100 35.33800
H  5.42000 7.60300 29.84400
H  4.14600 7.41000 28.63400
H  5.44800 8.65600 28.40300
H  5.27700 9.33800 26.28700
H  4.05100 8.12600 26.46100
H  4.37200 8.65400 24.82900
H  9.28000 3.82300 23.36000
H  9.32300 0.97600 23.65400
H  6.58300 2.63600 23.42600
H  7.57600 1.51700 22.58800
H  7.46900 3.17000 21.97900
H  11.98200 1.87000 24.21500
H  11.32300 3.27900 23.37300
H  12.40600 1.04900 22.00900
H  11.45400 2.58400 21.41500
H  10.57900 1.24700 21.87200
H  11.59800 -1.91500 26.90300
H  12.46000 -2.04800 28.45400
H  13.00200 -0.79500 27.22000
H  11.67400 1.61800 32.44000
H  10.19800 -0.17200 36.01500
H  9.89500 -1.51300 34.89900
H  8.67200 -0.20800 34.89900
Mg 23.90000 -6.34600 46.54100
C  26.02300 -3.99300 45.13700
C  21.41900 -5.37000 44.42500
C  21.87400 -9.21400 47.18500
C  26.58200 -7.76600 48.12700
N  23.76700 -4.88600 44.94200
C  24.75600 -4.00800 44.56100
C  24.22500 -3.07400 43.55700
C  22.68000 -3.22700 43.67400
C  22.61700 -4.59000 44.36200
C  21.87400 -2.09400 44.40600
C  24.87900 -3.33400 42.17100
C  25.48400 -2.16000 41.42400
H  24.51000 -1.64200 40.34300
N  21.88800 -7.15500 45.98500
C  21.08200 -6.53600 45.07100
C  19.89700 -7.27600 44.77400
C  19.94300 -8.41100 45.66500
C  21.24500 -8.30300 46.31100
C  18.81900 -7.02000 43.64200
C  18.84600 -9.41200 45.77200
O  17.88400 -9.50600 45.01100
C  18.86500 -10.38500 46.95700
N  24.12800 -8.13800 47.63000
C  23.20400 -9.20100 47.79000
C  23.80100 -10.39100 48.57200
C  25.33800 -9.98200 48.72000
C  25.35700 -8.54500 48.13700
C  23.02400 -10.70500 49.89600
C  26.33800 -10.88500 48.10200
C  26.17600 -12.42700 48.38800
N  25.97900 -6.01500 46.67400
C  26.88400 -6.64600 47.43300
C  28.12000 -5.85100 47.33500
C  27.82600 -4.80300 46.51000
C  26.49500 -4.95300 46.07500
C  29.44100 -6.28300 48.05300
C  28.33200 -3.56900 45.98600
O  29.38300 -2.94300 46.28900
C  27.14400 -2.96600 45.00700
C  26.76500 -1.62100 45.43900
O  25.90600 -1.26500 46.23000
O  27.46100 -0.68800 44.71600
C  27.25800 0.72600 45.11000
H  20.55800 -4.88700 43.95800
H  21.40200 -10.19400 47.27400
H  27.42000 -8.22000 48.66100
H  24.50900 -2.08000 43.90300
H  22.24200 -3.17000 42.67700
H  22.49400 -1.67100 45.19600
H  20.92100 -2.43700 44.81000
H  21.68500 -1.29400 43.69100
H  24.27900 -3.86600 41.43300
H  25.62400 -4.11100 42.34200
H  26.43100 -2.35100 40.92000
H  25.62600 -1.32900 42.11500
H  19.27200 -6.42400 42.85100
H  18.02700 -6.39500 44.05500
H  18.35800 -7.89800 43.18900
H  17.82700 -10.59100 47.22100
H  19.30800 -9.87800 47.81400
H  19.40500 -11.26500 46.60700
H  23.73900 -11.30100 47.97500
H  25.53000 -9.89300 49.78900
H  21.98900 -10.78800 49.56400
H  23.30600 -9.97500 50.65400
H  23.22200 -11.66300 50.37600
H  27.33400 -10.60900 48.44700
H  26.36800 -10.66600 47.03400
H  26.17700 -13.02200 47.47500
H  25.23900 -12.66400 48.89200
H  26.97800 -12.82500 49.01100
H  29.25400 -6.03100 49.09700
H  30.34900 -5.78100 47.72000
H  29.55800 -7.36500 48.10600
H  27.63600 -2.90800 44.03600
H  27.52600 0.91900 46.14800
H  26.21800 1.04300 45.03300
H  27.78900 1.37500 44.41300

