158

Mg 25.37700 1.50300 29.21000
C  27.30000 0.90300 32.23000
C  22.67500 1.27500 31.20000
C  23.55700 1.69300 26.38100
C  28.26900 0.93100 27.39300
N  25.04900 0.99300 31.58200
C  25.95700 0.91900 32.56700
C  25.15800 1.06300 33.92800
C  23.76700 0.67400 33.49400
C  23.79900 1.04900 32.02000
C  23.50000 -0.84500 33.72500
C  25.27700 2.50100 34.58300
C  26.12500 2.45600 35.89200
H  25.70400 3.45900 36.90800
N  23.43700 1.71100 28.85800
C  22.46900 1.58000 29.81700
C  21.13000 1.81300 29.11100
C  21.34500 1.91100 27.71000
C  22.84000 1.81300 27.62500
C  19.82600 1.92000 29.82300
C  20.37600 1.96000 26.51200
O  20.76900 2.21600 25.34400
C  18.95700 1.82700 26.73500
N  25.83600 1.29600 27.25900
C  24.94400 1.47300 26.23300
C  25.57300 1.36600 24.82700
C  27.11100 1.30600 25.16800
C  27.10100 1.16100 26.66100
C  25.06500 0.08200 24.02300
C  27.88600 2.58400 24.76200
C  27.24800 4.00200 24.83900
N  27.35300 1.08700 29.64200
C  28.47900 0.96600 28.82500
C  29.65400 0.76400 29.54300
C  29.25900 0.80800 30.90000
C  27.81200 0.88500 30.89500
C  31.08200 0.50400 29.09500
C  29.77400 0.82100 32.25100
O  30.89200 0.71000 32.63700
C  28.55700 0.92400 33.18300
C  28.52900 -0.11100 34.22200
O  27.83400 -1.15400 34.18300
O  29.29300 0.26500 35.34700
C  29.34200 -0.68900 36.41400
H  21.68500 1.35700 31.65100
H  22.98400 1.78700 25.45600
H  29.20200 0.72300 26.86400
H  25.47300 0.34300 34.68300
H  23.08000 1.29300 34.07000
H  22.64700 -0.85400 34.40300
H  24.30700 -1.32300 34.28100
H  23.15000 -1.33800 32.81800
H  24.29500 2.79300 34.95500
H  25.61000 3.19700 33.81400
H  27.08500 2.77400 35.48700
H  26.30000 1.44200 36.25200
H  19.43500 2.88400 29.49700
H  19.85200 1.89800 30.91200
H  19.08500 1.18800 29.50200
H  18.55400 2.33800 27.60900
H  18.86200 0.74300 26.79000
H  18.45100 2.19000 25.84100
H  25.44000 2.25100 24.20500
H  27.58200 0.40500 24.77300
H  24.03300 -0.18800 24.24600
H  25.64700 -0.79000 24.32100
H  25.25100 0.22700 22.95900
H  28.24000 2.29600 23.77300
H  28.84300 2.58700 25.28300
H  27.98600 4.76900 25.07600
H  26.56700 4.01000 25.69100
H  26.79400 4.24900 23.88000
H  31.27000 -0.56200 28.96300
H  31.62500 0.94400 29.93100
H  31.30600 1.06400 28.18700
H  28.55000 1.89200 33.68400
H  30.26700 -0.62100 36.98600
H  29.26400 -1.73300 36.10900
H  28.57300 -0.49100 37.16000
Mg -0.85500 33.66500 27.25800
C  -2.76200 32.14600 29.86800
C  0.60500 35.65700 29.64200
C  0.63600 35.42300 24.69700
C  -2.86700 31.97300 24.99600
N  -1.29700 33.99400 29.53800
C  -1.89300 33.16300 30.38900
C  -1.53100 33.54400 31.86100
C  -0.76400 34.87400 31.71500
C  -0.42800 34.91600 30.19000
C  -1.47200 36.19600 32.11300
C  -0.82800 32.41700 32.62800
C  -0.38400 32.69700 34.08800
H  -1.25100 31.97100 35.21100
N  0.49800 35.24300 27.22400
C  1.06100 35.89100 28.31400
C  2.07400 36.88900 27.86900
C  1.98400 36.87100 26.43400
C  1.01600 35.79400 26.02100
C  2.89300 37.75500 28.74100
C  2.61100 37.81200 25.43300
O  2.37700 37.72100 24.21700
C  3.52200 38.96800 25.88100
N  -1.15900 33.70800 25.15500
C  -0.34900 34.49700 24.29500
C  -0.71700 34.17100 22.82100
C  -1.74400 33.00100 22.98400
C  -2.01000 32.94500 24.48100
C  -1.22400 35.39400 22.07900
C  -1.23000 31.68400 22.41500
C  -0.00300 31.00600 22.90100
N  -2.38200 32.23300 27.35700
C  -3.20400 31.75000 26.36300
C  -4.13700 30.84300 26.88000
C  -3.95300 30.93400 28.28900
C  -2.95100 31.87500 28.53000
C  -5.16700 30.04700 26.09000
C  -4.31200 30.34500 29.58200
O  -5.07400 29.41300 29.79900
C  -3.59800 31.15200 30.69000
C  -4.66200 31.74500 31.54400
O  -5.56100 32.41200 31.10600
O  -4.42100 31.53300 32.88600
C  -5.37800 32.14700 33.78900
H  1.17100 36.25100 30.36300
H  1.15400 35.85100 23.83600
H  -3.56300 31.51500 24.29100
H  -2.46800 33.77400 32.36900
H  0.16000 34.81600 32.29000
H  -1.91500 36.64100 31.22200
H  -0.75100 36.91000 32.51300
H  -2.24400 36.00200 32.85800
H  0.11900 32.17100 32.14700
H  -1.45700 31.53100 32.54600
H  -0.49200 33.75800 34.31700
H  0.62700 32.38700 34.35500
H  3.92600 37.83300 28.40500
H  2.89100 37.38300 29.76600
H  2.49900 38.76800 28.66300
H  3.66700 39.65900 25.05100
H  4.47300 38.61700 26.28200
H  3.12600 39.53400 26.72400
H  0.11300 33.66900 22.32500
H  -2.71100 33.16800 22.51100
H  -0.92200 36.35800 22.48900
H  -2.30800 35.49200 22.14100
H  -0.86900 35.38600 21.04800
H  -1.02800 31.90500 21.36700
H  -2.09100 31.01700 22.45100
H  0.18200 31.47500 23.86700
H  0.87800 30.95200 22.26200
H  -0.48700 30.07600 23.19600
H  -4.63800 29.33500 25.45700
H  -5.59900 30.92200 25.60600
H  -5.80800 29.63100 26.86700
H  -3.02100 30.38400 31.20600
H  -4.85500 32.88900 34.39200
H  -5.71300 31.52800 34.62100
H  -6.26400 32.63100 33.37700

