158

Mg 16.77100 -2.14500 27.77400
C  16.07000 0.07000 30.64900
C  18.45300 -4.16200 29.98700
C  17.84400 -3.53500 25.13000
C  15.23300 0.47900 25.80100
N  17.19700 -1.98800 30.10300
C  16.77900 -1.07500 30.99700
C  17.29800 -1.47700 32.39400
C  18.18400 -2.78900 32.11700
C  17.92300 -3.03800 30.64700
C  19.68900 -2.66700 32.51800
C  16.11000 -1.81200 33.40700
C  16.42400 -1.58500 34.87300
H  17.73700 -0.95800 35.31100
N  17.89100 -3.74800 27.59000
C  18.47900 -4.48300 28.58700
C  19.12100 -5.59600 27.95400
C  18.94100 -5.41500 26.57700
C  18.21200 -4.17900 26.38500
C  19.84200 -6.68300 28.66500
C  19.33300 -6.35000 25.50100
O  19.20900 -6.00500 24.33200
C  19.91000 -7.73700 25.76000
N  16.50800 -1.58800 25.74200
C  17.20100 -2.31300 24.84700
C  17.00300 -1.72600 23.34400
C  16.02500 -0.55600 23.64200
C  15.89700 -0.56300 25.14000
C  18.39400 -1.53700 22.78100
C  14.64200 -0.59600 22.80100
C  13.32400 -0.60300 23.61000
N  15.80300 -0.20200 28.09400
C  15.16700 0.66500 27.19400
C  14.55400 1.82600 27.87000
C  14.95500 1.59400 29.22100
C  15.68700 0.35700 29.29100
C  13.94300 3.13700 27.19500
C  14.98200 2.24000 30.45100
O  14.60800 3.38400 30.76600
C  15.69100 1.26400 31.51400
C  16.90000 1.91900 32.00700
O  18.00600 1.95200 31.61500
O  16.40500 2.65900 33.09500
C  17.47200 3.25800 33.95100
H  19.05900 -4.87500 30.55000
H  18.22100 -3.98100 24.20800
H  14.72500 1.28100 25.26200
H  17.84900 -0.60000 32.73500
H  17.79000 -3.57000 32.76700
H  19.94700 -3.41300 33.27100
H  19.84900 -1.74900 33.08400
H  20.36100 -2.72800 31.66200
H  15.83300 -2.86500 33.36600
H  15.11200 -1.41000 33.23200
H  16.32400 -2.49500 35.46400
H  15.54200 -0.99900 35.13400
H  20.93000 -6.63100 28.64600
H  19.51200 -7.68800 28.40000
H  19.76200 -6.63800 29.75100
H  20.79800 -7.77200 26.39100
H  20.17300 -8.07800 24.75800
H  19.13300 -8.42900 26.08400
H  16.40200 -2.41400 22.74900
H  16.48400 0.38500 23.33900
H  19.22800 -1.88300 23.39200
H  18.59700 -0.47200 22.67300
H  18.43300 -2.16000 21.88800
H  14.68800 -1.40400 22.07100
H  14.69800 0.28100 22.15600
H  12.54300 -0.90900 22.91500
H  12.96000 0.37000 23.94100
H  13.36400 -1.38300 24.37100
H  14.31500 3.06000 26.17300
H  14.29600 4.09600 27.57300
H  12.86100 3.00900 27.17700
H  14.93900 1.03800 32.27000
H  18.48400 3.03700 33.61000
H  17.35200 2.97800 34.99800
H  17.25400 4.32100 33.85700
Mg 48.18300 15.89700 28.48400
C  46.17700 15.61900 31.38800
C  50.25000 18.00000 30.21800
C  50.07200 16.06100 25.81000
C  45.83200 14.00900 26.75700
N  48.09500 16.77700 30.55800
C  47.23200 16.36400 31.57100
C  47.75800 16.94700 32.94600
C  48.94300 17.86600 32.47300
C  49.05700 17.57200 30.96000
C  48.74200 19.44500 32.68500
C  48.19900 15.90200 33.92300
C  48.03200 16.33700 35.45200
H  49.10900 15.89200 36.41400
N  49.86800 16.96100 28.16500
C  50.59500 17.77600 28.95600
C  51.82200 18.21300 28.31200
C  51.79700 17.64900 26.96900
C  50.56900 16.80300 26.91600
C  52.89800 19.02100 29.02000
C  52.86100 17.74700 25.86800
O  52.81200 17.09800 24.82800
C  54.09800 18.54900 26.03800
N  47.88400 15.29300 26.53300
C  48.91500 15.37100 25.60500
C  48.58300 14.68200 24.27700
C  47.14500 14.23100 24.53100
C  46.92900 14.51200 25.99900
C  48.57900 15.70400 23.00500
C  46.97600 12.72800 24.14500
C  47.80100 11.64500 24.93800
N  46.38100 15.05700 28.94100
C  45.54500 14.25200 28.11500
C  44.37000 13.97900 28.83300
C  44.57000 14.45200 30.14300
C  45.82500 15.09200 30.16300
C  43.18600 13.19800 28.26700
C  43.95800 14.47300 31.43400
O  42.89600 14.00600 31.85900
C  44.98700 15.16800 32.34300
C  44.43100 16.48400 32.88500
O  44.11800 17.50400 32.23800
O  44.29500 16.38000 34.28100
C  44.08500 17.70200 34.93600
H  50.88200 18.68800 30.78300
H  50.74700 16.17000 24.95900
H  45.08100 13.41000 26.23700
H  46.98300 17.57200 33.39000
H  49.86300 17.56200 32.97100
H  48.58700 20.05700 31.79600
H  49.56900 19.82500 33.28400
H  47.86000 19.73400 33.25600
H  49.25600 15.73000 33.72200
H  47.67100 14.97800 33.68800
H  47.12000 15.80700 35.72400
H  47.86400 17.41000 35.53300
H  52.81600 19.10200 30.10400
H  53.06800 19.98700 28.54500
H  53.76900 18.39400 28.83100
H  53.85000 19.38000 26.69900
H  54.30600 18.86500 25.01600
H  54.99300 18.05800 26.42200
H  49.26000 13.85100 24.08000
H  46.35800 14.85000 24.10100
H  47.58100 15.84500 22.58800
H  49.22300 15.34100 22.20400
H  48.85000 16.72300 23.27900
H  47.42800 12.64500 23.15700
H  45.90200 12.58200 24.03200
H  47.08100 10.87400 25.21200
H  48.34200 12.02800 25.80200
H  48.57700 11.19300 24.32100
H  42.80900 13.40500 27.26500
H  42.36900 13.46700 28.93600
H  43.38000 12.12600 28.30200
H  45.34300 14.42300 33.05500
H  44.50600 18.49600 34.31900
H  44.60800 17.67300 35.89200
H  43.00100 17.81600 34.92600

