158

Mg 26.70700 49.96300 25.73800
C  24.86100 51.58800 28.40000
C  29.03600 49.26600 28.17100
C  28.71000 49.01300 23.31000
C  24.72000 51.79500 23.52800
N  26.70400 50.17800 28.09100
C  25.90400 50.87100 28.93300
C  26.35100 50.71700 30.39600
C  27.79300 50.13200 30.24100
C  27.84700 49.83800 28.73200
C  28.90500 51.09300 30.68000
C  25.36200 49.86500 31.23600
C  24.96200 50.42000 32.60900
H  25.92500 50.49100 33.84300
N  28.49100 49.10800 25.69900
C  29.31700 48.88700 26.84500
C  30.45500 48.07000 26.42200
C  30.27600 47.90000 24.98200
C  29.16100 48.70600 24.58200
C  31.59200 47.56100 27.23800
C  30.86900 46.79300 24.02400
O  30.56100 46.66700 22.83400
C  31.80000 45.75800 24.52900
N  26.57100 50.11100 23.74000
C  27.53300 49.70700 22.92400
C  27.32200 50.01400 21.48200
C  25.89400 50.74600 21.45800
C  25.71600 50.94400 23.00900
C  28.37900 50.93800 20.79400
C  24.76900 49.92100 20.87400
C  24.70500 48.49300 21.41000
N  25.05300 51.33300 25.86800
C  24.37900 51.97500 24.90000
C  23.42100 52.89400 25.39300
C  23.49400 52.75000 26.77500
C  24.56700 51.79500 27.05200
C  22.61400 53.89700 24.65100
C  22.97100 53.10700 28.10200
O  22.03800 53.79400 28.40200
C  23.90700 52.45700 29.19500
C  24.28100 53.55300 30.09500
O  25.22500 54.37300 29.91000
O  23.30500 53.58600 31.11200
C  23.58300 54.70500 32.02300
H  29.72500 49.04300 28.98900
H  29.43100 48.72500 22.54300
H  24.09600 52.35100 22.82400
H  26.44400 51.69300 30.87300
H  27.95900 49.21500 30.80600
H  29.03600 51.75600 29.82400
H  29.80700 50.53000 30.91900
H  28.61200 51.67700 31.55200
H  25.79600 48.87000 31.32800
H  24.47300 49.62700 30.65200
H  24.06900 49.87000 32.90600
H  24.55000 51.41600 32.44400
H  31.46200 47.99000 28.23200
H  32.57100 47.83300 26.84400
H  31.66000 46.47400 27.28700
H  31.21000 45.31600 25.33200
H  32.76200 46.14800 24.86300
H  32.03400 45.15600 23.65100
H  27.34400 49.07900 20.92200
H  25.91100 51.65100 20.85000
H  29.40300 50.96900 21.16800
H  28.13600 52.00000 20.76400
H  28.46600 50.52500 19.78900
H  24.93700 49.88000 19.79700
H  23.83400 50.43800 21.09100
H  25.01900 48.63100 22.44400
H  25.29700 47.81600 20.79500
H  23.66000 48.21000 21.28400
H  23.26200 54.44200 23.96500
H  22.13900 54.68900 25.22900
H  21.87000 53.36000 24.06300
H  23.32700 51.77000 29.81100
H  22.78500 54.79400 32.75900
H  23.68400 55.66500 31.51600
H  24.47900 54.48900 32.60600
Mg 9.17200 49.36600 24.79500
C  7.16100 49.51200 27.54100
C  12.02200 50.07300 26.73200
C  11.25600 48.87200 22.07400
C  6.45500 48.82600 22.70500
N  9.49500 49.94200 26.84700
C  8.54000 49.75700 27.86700
C  9.19500 49.94500 29.18300
C  10.52800 50.57900 28.79100
C  10.74200 50.12900 27.30700
C  10.68600 52.10600 29.10700
C  9.32600 48.68800 30.08700
C  8.74100 48.97200 31.47200
H  8.60300 47.78300 32.44800
N  11.31900 49.51400 24.43300
C  12.32100 49.67100 25.40300
C  13.65800 49.71000 24.68900
C  13.41600 49.47900 23.34000
C  11.94500 49.32800 23.23100
C  14.96600 49.92400 25.43200
C  14.35800 49.41300 22.26300
O  14.01700 49.35900 21.12600
C  15.80700 49.52900 22.47100
N  8.94900 49.20000 22.59900
C  9.92300 48.84000 21.74000
C  9.41000 48.35300 20.40900
C  7.83400 48.27100 20.63700
C  7.72600 48.73400 22.13100
C  9.82300 49.21100 19.19300
C  7.21800 46.95200 20.29200
C  7.53100 45.71700 21.09600
N  7.19400 49.19300 25.01500
C  6.20200 48.98900 24.11300
C  4.87000 48.80300 24.82400
C  5.18600 49.12900 26.19300
C  6.61000 49.29600 26.24200
C  3.60200 48.42000 24.17300
C  4.61600 49.30200 27.54100
O  3.46300 49.20900 27.98400
C  5.88100 49.43300 28.43100
C  5.82900 48.27400 29.42300
O  6.13500 47.10600 29.16500
O  5.06600 48.68500 30.53900
C  4.67300 47.61300 31.44700
H  12.89800 50.28500 27.35000
H  11.83900 48.52000 21.22000
H  5.62100 48.52900 22.06600
H  8.71600 50.72200 29.77800
H  11.37100 50.03900 29.22300
H  11.52000 52.25000 29.79300
H  9.75600 52.45500 29.55800
H  10.95900 52.51800 28.13600
H  10.37700 48.55400 30.34600
H  8.98000 47.75800 29.63600
H  7.73500 49.38100 31.37600
H  9.31800 49.72800 32.00400
H  15.59600 49.03900 25.35600
H  14.79000 49.98800 26.50500
H  15.55200 50.77900 25.09200
H  16.05200 50.46400 22.97400
H  16.25000 49.71200 21.49200
H  16.16100 48.69700 23.07900
H  9.77300 47.35700 20.15500
H  7.37400 49.07500 20.06100
H  10.55300 49.83400 19.71000
H  9.04100 49.64700 18.57100
H  10.40500 48.64000 18.47000
H  7.59000 46.72000 19.29400
H  6.13600 46.99100 20.16700
H  6.64300 45.08500 21.10200
H  8.04900 45.99100 22.01600
H  8.26700 45.13900 20.53700
H  3.66400 47.37200 23.88300
H  3.55400 49.03600 23.27400
H  2.79000 48.64700 24.86500
H  5.79100 50.34300 29.02300
H  4.98700 46.57000 31.40800
H  3.59100 47.54600 31.33300
H  4.90400 47.98000 32.44700

