158

Mg 0.79000 7.61200 26.26400
C  1.53900 9.56000 29.17300
C  0.25900 4.99900 28.35600
C  0.60200 5.90200 23.58600
C  1.22700 10.59500 24.46400
N  0.87400 7.30700 28.53200
C  1.22000 8.23900 29.46600
C  0.99700 7.62600 30.84300
C  0.80900 6.13400 30.57500
C  0.60000 6.12700 29.06600
C  1.99100 5.23100 31.08000
C  -0.16400 8.19800 31.61900
C  0.02400 8.55500 33.10200
H  1.28700 7.98800 33.77600
N  0.46900 5.69100 25.94500
C  0.22400 4.72000 26.90500
C  0.14700 3.44100 26.21200
C  0.16600 3.70600 24.81200
C  0.42700 5.09600 24.71300
C  -0.10600 2.19100 27.01400
C  -0.07400 2.73400 23.68200
O  -0.25600 2.98700 22.48900
C  -0.20200 1.32300 24.09800
N  0.95200 8.22100 24.24800
C  0.71100 7.28100 23.30700
C  1.00100 7.91200 21.92700
C  0.89700 9.46100 22.23100
C  0.95700 9.45900 23.75800
C  2.52900 7.59500 21.50500
C  -0.53700 10.04900 21.76000
C  -0.50200 11.55500 21.52200
N  1.23500 9.71400 26.68900
C  1.35800 10.77700 25.85800
C  1.78400 11.97800 26.52900
C  1.96900 11.55700 27.86600
C  1.52200 10.17000 27.91600
C  2.02400 13.36100 25.87100
C  2.28500 11.93700 29.23400
O  2.67400 13.05500 29.59400
C  1.91500 10.64200 30.15900
C  3.09800 10.35800 30.97700
O  3.97600 9.57600 30.64400
O  3.16500 11.23000 32.10600
C  4.41500 11.14100 32.93800
H  0.09600 4.15700 29.03200
H  0.67000 5.33700 22.65300
H  1.28500 11.50900 23.86900
H  1.89400 7.84400 31.42300
H  -0.10600 5.77600 31.04700
H  1.59100 4.46800 31.74900
H  2.87900 5.74300 31.45000
H  2.32500 4.78800 30.14200
H  -1.01100 7.51100 31.62500
H  -0.49200 9.11000 31.11900
H  -0.91500 8.21700 33.53900
H  0.18200 9.62000 33.27500
H  0.68300 1.57000 26.58700
H  -1.09600 1.78400 26.81000
H  0.15000 2.33700 28.06400
H  -0.25300 0.69600 23.20800
H  -1.14900 1.29600 24.63800
H  0.62300 0.97900 24.72200
H  0.37900 7.58300 21.09400
H  1.58600 10.16400 21.76300
H  2.66300 6.56600 21.16900
H  3.10900 7.90800 22.37200
H  2.90000 8.14200 20.63800
H  -1.19800 9.82000 22.59500
H  -1.01400 9.50000 20.94800
H  -0.98300 11.91300 22.43200
H  -1.07600 11.76900 20.62000
H  0.48200 12.01900 21.45900
H  2.72000 13.83800 26.56100
H  1.04600 13.82800 25.75100
H  2.36100 13.18700 24.84900
H  1.15000 10.83700 30.91000
H  4.53100 12.11100 33.42200
H  5.26500 11.05700 32.26100
H  4.34000 10.30400 33.63200
Mg -5.48600 25.24200 26.44000
C  -4.06300 26.34000 29.39400
C  -7.03300 22.66200 28.29300
C  -6.12600 23.53500 23.55000
C  -3.30900 27.33100 24.61800
N  -5.48000 24.53900 28.62900
C  -5.00200 25.36200 29.64000
C  -5.62000 24.78600 30.98200
C  -6.07500 23.31100 30.67400
C  -6.23000 23.47900 29.09900
C  -5.14000 22.14500 31.07200
C  -6.81400 25.68300 31.45400
C  -6.71400 26.11200 33.02000
H  -5.93800 25.09800 33.95000
N  -6.71800 23.65400 25.97500
C  -7.31500 22.77900 26.87800
C  -8.10400 21.82600 26.11400
C  -7.75900 21.96500 24.79000
C  -6.79900 23.07500 24.69800
C  -9.07000 20.79900 26.77400
C  -8.25700 21.18700 23.55900
O  -7.82700 21.31000 22.42500
C  -9.29100 20.04400 23.72400
N  -4.88600 25.42900 24.35800
C  -5.32000 24.65300 23.34900
C  -4.80000 25.16400 21.98800
C  -3.99000 26.37100 22.37000
C  -4.06500 26.38800 23.93300
C  -4.00100 24.19000 21.11200
C  -4.47500 27.61400 21.63000
C  -3.52800 28.85100 21.42000
N  -3.99500 26.53600 26.90200
C  -3.34600 27.43200 26.06400
C  -2.43600 28.17900 26.93500
C  -2.77600 27.86200 28.21900
C  -3.66300 26.81600 28.13600
C  -1.35000 29.13000 26.47700
C  -2.32500 28.08600 29.63900
O  -1.44600 28.74200 30.17100
C  -3.24200 27.08800 30.46200
C  -2.34900 26.18600 31.23800
O  -1.45900 25.54200 30.68700
O  -2.40700 26.54000 32.50700
C  -1.31800 26.13300 33.36200
H  -7.45000 21.84700 28.88800
H  -6.28500 23.02900 22.59600
H  -2.57200 27.94600 24.09600
H  -4.85500 24.71300 31.75500
H  -7.04900 23.14000 31.13100
H  -5.87400 21.55000 31.61700
H  -4.41600 22.62300 31.73100
H  -4.64500 21.70800 30.20500
H  -7.79900 25.21700 31.41600
H  -6.92700 26.56900 30.82900
H  -7.71500 26.01700 33.44100
H  -6.20700 27.06800 33.14700
H  -8.73700 19.78000 26.57900
H  -10.11800 21.00000 26.55100
H  -9.08900 21.03100 27.83900
H  -9.03500 19.11500 24.23400
H  -9.54100 19.89200 22.67400
H  -10.11600 20.49200 24.28000
H  -5.55000 25.45000 21.25100
H  -2.95800 26.20200 22.06100
H  -4.15700 23.25800 21.65500
H  -2.92100 24.29300 21.21700
H  -4.34900 24.13900 20.08000
H  -5.40300 27.91000 22.11800
H  -4.83000 27.33300 20.63900
H  -3.54000 29.16300 20.37500
H  -2.50600 28.57000 21.67400
H  -3.75700 29.61600 22.16000
H  -1.73000 30.12000 26.22300
H  -0.83300 28.75600 25.59300
H  -0.66500 29.23000 27.31900
H  -3.90900 27.71900 31.04900
H  -0.41700 26.51400 32.88300
H  -1.37300 25.04900 33.45700
H  -1.39100 26.65400 34.31700

