158

Mg 0.60100 8.25600 26.84600
C  1.19600 10.16900 29.65800
C  0.84800 5.42300 28.92300
C  0.56700 6.22600 24.14800
C  0.79500 11.01500 24.83700
N  0.99800 7.85600 29.08400
C  0.96000 8.82100 30.02800
C  0.86200 8.21500 31.39700
C  1.17100 6.65400 31.15000
C  1.01400 6.61200 29.64200
C  2.55200 6.18700 31.58600
C  -0.51500 8.49300 32.13300
C  -0.49800 8.29800 33.68800
H  0.63600 7.71600 34.50600
N  0.65400 6.09300 26.54900
C  0.64700 5.15000 27.55900
C  0.36100 3.85800 26.99500
C  0.28000 4.07600 25.60600
C  0.46200 5.48900 25.36300
C  0.29500 2.59000 27.78400
C  0.10900 3.02800 24.37100
O  -0.18400 3.42400 23.20200
C  0.32000 1.63700 24.71200
N  0.91200 8.54500 24.76200
C  0.71500 7.55400 23.83000
C  0.83900 8.10700 22.45900
C  0.62700 9.64800 22.72400
C  0.73500 9.75200 24.22300
C  2.12000 7.75500 21.57400
C  -0.75300 10.19800 22.24600
C  -0.82200 11.42700 21.28300
N  0.87000 10.17500 27.13800
C  0.88700 11.21200 26.21200
C  1.14700 12.47000 26.85000
C  1.27400 12.08800 28.19800
C  1.13700 10.70100 28.30900
C  1.27900 13.84600 26.29100
C  1.47600 12.62400 29.50000
O  1.66500 13.80800 29.90600
C  1.28800 11.44100 30.51100
C  2.23000 11.44000 31.67600
O  3.45100 11.69800 31.60500
O  1.56400 11.13900 32.81600
C  2.41600 11.02000 34.03900
H  0.76200 4.52700 29.54100
H  0.55200 5.59800 23.25500
H  0.82100 11.90600 24.20600
H  1.63400 8.72600 31.97200
H  0.38600 6.01400 31.55200
H  2.93200 5.46300 30.86500
H  2.42000 5.61700 32.50500
H  3.28000 6.98200 31.74500
H  -1.30500 7.80900 31.82400
H  -0.76600 9.46700 31.71300
H  -1.35600 7.65200 33.87200
H  -0.68900 9.28800 34.10300
H  1.27100 2.11600 27.68200
H  -0.46600 1.99300 27.28000
H  0.15100 2.78900 28.84600
H  0.63600 0.94600 23.93000
H  -0.52100 1.25800 25.29200
H  1.19000 1.68000 25.36700
H  -0.06400 7.68100 22.02200
H  1.46600 10.26200 22.39800
H  2.75300 7.16900 22.24000
H  2.65200 8.61300 21.16300
H  1.83600 7.10600 20.74500
H  -1.27500 10.55800 23.13300
H  -1.35000 9.36800 21.86900
H  0.20300 11.60300 20.95600
H  -1.30100 12.23700 21.83300
H  -1.53400 11.10100 20.52500
H  0.28800 14.13500 25.94100
H  1.95200 13.73200 25.44100
H  1.70100 14.53200 27.02500
H  0.35000 11.77200 30.95700
H  2.76800 11.96200 34.46000
H  3.36800 10.53500 33.82200
H  1.80600 10.45900 34.74700
Mg -11.72900 38.74900 42.87600
C  -9.50100 36.42500 41.56100
C  -9.79400 41.27800 41.15200
C  -14.01400 41.10600 43.82700
C  -13.75400 36.19000 43.94700
N  -10.03200 38.84400 41.37100
C  -9.19700 37.73200 41.10100
C  -8.01700 38.10400 40.18200
C  -8.04700 39.66100 40.26600
C  -9.35400 39.95300 40.89900
C  -6.77900 40.23500 40.87300
C  -8.23600 37.35500 38.78900
C  -7.09300 36.51600 38.38000
H  -6.15500 37.23900 37.40000
N  -11.89300 40.94200 42.54100
C  -11.00000 41.75600 41.86500
C  -11.45000 43.08800 41.96700
C  -12.62000 43.08900 42.79100
C  -12.91300 41.67500 43.11600
C  -10.78300 44.24300 41.23400
C  -13.48700 44.32200 43.21500
O  -13.24500 45.41900 42.71500
C  -14.61400 44.27800 44.13600
N  -13.80300 38.63300 43.46600
C  -14.34000 39.74900 44.02700
C  -15.58900 39.19400 44.66400
C  -15.50000 37.69200 44.91900
C  -14.29600 37.48000 44.00800
C  -16.25700 39.96500 45.84900
C  -16.78000 36.90500 44.51900
C  -17.14600 35.67300 45.25000
N  -11.63400 36.68700 42.91800
C  -12.46700 35.79100 43.47400
C  -11.92300 34.41900 43.31000
C  -10.70400 34.61400 42.69300
C  -10.60500 36.01000 42.36000
C  -12.47200 33.08800 43.73700
C  -9.50900 34.01700 42.17100
O  -9.09300 32.86800 42.25800
C  -8.74300 35.13400 41.36900
C  -7.36700 35.05400 42.02100
O  -7.06900 35.50200 43.10800
O  -6.63100 34.25300 41.21700
C  -5.27700 34.07500 41.74200
H  -9.24600 42.06200 40.62400
H  -14.76800 41.80400 44.19800
H  -14.18100 35.35700 44.50900
H  -7.08700 37.77000 40.64300
H  -8.05700 40.10900 39.27200
H  -6.99700 40.96900 41.64900
H  -6.30100 40.79600 40.07000
H  -6.00900 39.54800 41.22300
H  -8.43900 38.06400 37.98600
H  -9.17900 36.80800 38.81100
H  -7.56000 35.66400 37.88600
H  -6.50000 36.14300 39.21500
H  -10.51800 43.82000 40.26500
H  -9.87600 44.52800 41.76700
H  -11.37300 45.14800 41.08700
H  -15.52100 44.00000 43.60000
H  -14.70300 45.25800 44.60600
H  -14.40700 43.66000 45.00900
H  -16.25200 39.20900 43.80000
H  -15.24600 37.51900 45.96500
H  -15.73100 40.79100 46.32700
H  -16.38700 39.29100 46.69500
H  -17.21900 40.31000 45.47100
H  -16.65700 36.53600 43.50100
H  -17.69000 37.50000 44.58700
H  -18.00400 35.92700 45.87200
H  -16.39100 35.33100 45.95800
H  -17.40400 34.91100 44.51400
H  -12.49000 32.36100 42.92500
H  -13.44000 33.18600 44.22900
H  -11.81500 32.55400 44.42300
H  -8.71600 34.79900 40.33200
H  -4.92200 35.08000 41.97100
H  -4.78400 33.70200 40.84400
H  -5.21400 33.29000 42.49600

