158

Mg -1.91400 17.78400 27.41300
C  -2.18000 15.54900 30.01500
C  -2.39100 20.43400 29.54900
C  -1.81300 19.95100 24.78700
C  -1.51200 15.04800 25.15200
N  -2.26500 17.93900 29.60000
C  -2.36500 16.88500 30.52500
C  -2.79700 17.41400 31.89400
C  -2.72000 18.92300 31.74900
C  -2.41800 19.17200 30.19200
C  -3.85800 19.74700 32.37200
C  -1.98100 16.77900 33.05600
C  -1.83800 17.47800 34.41200
H  -0.78100 16.98000 35.38700
N  -2.01500 19.84900 27.21200
C  -2.19200 20.76100 28.21900
C  -2.23600 22.09400 27.70100
C  -1.94300 22.01300 26.35100
C  -1.87100 20.52600 26.01300
C  -2.28900 23.35700 28.56900
C  -1.70300 23.09200 25.38700
O  -1.48500 22.90700 24.18900
C  -1.78200 24.59000 25.74900
N  -1.87700 17.51200 25.20900
C  -1.83500 18.57500 24.37900
C  -1.74200 18.12900 22.94400
C  -1.36300 16.63800 23.08500
C  -1.64900 16.32400 24.56800
C  -3.14400 18.33900 22.21000
C  0.11800 16.28400 22.56200
C  1.20900 16.90700 23.38700
N  -1.87900 15.74800 27.53000
C  -1.71200 14.77300 26.53000
C  -1.90300 13.50100 27.10700
C  -2.07800 13.75800 28.50200
C  -2.01700 15.14900 28.71100
C  -1.92300 12.14800 26.41900
C  -2.33700 13.06200 29.77100
O  -2.64300 11.88700 30.07800
C  -2.31400 14.23100 30.79200
C  -1.15600 13.98700 31.66100
O  -0.04200 14.40400 31.46500
O  -1.49900 13.20800 32.69500
C  -0.41600 12.66700 33.52500
H  -2.64700 21.19500 30.28900
H  -1.61200 20.61400 23.94300
H  -1.26500 14.23200 24.47000
H  -3.82200 17.04500 31.86800
H  -1.84900 19.22300 32.33200
H  -3.57300 20.77300 32.60200
H  -4.34000 19.22700 33.20000
H  -4.63400 19.79600 31.60700
H  -0.99800 16.45300 32.71700
H  -2.57000 15.87800 33.22700
H  -2.83400 17.49800 34.85400
H  -1.66000 18.55200 34.34900
H  -1.29100 23.79000 28.51000
H  -2.44800 23.19500 29.63500
H  -3.06400 24.02600 28.19500
H  -2.69900 24.85500 26.27600
H  -1.68700 25.21200 24.85900
H  -0.83600 24.71100 26.27600
H  -0.97100 18.67800 22.40300
H  -1.97600 15.91100 22.55200
H  -3.75600 17.46900 22.44900
H  -2.92200 18.45000 21.14900
H  -3.67500 19.14200 22.72200
H  0.42500 16.70300 21.60300
H  0.23800 15.20200 22.60300
H  1.03200 17.49000 24.29200
H  1.81400 17.59400 22.79600
H  1.97400 16.21700 23.74300
H  -1.79700 12.23200 25.33900
H  -2.86900 11.63700 26.59700
H  -1.17900 11.46300 26.82500
H  -3.23600 14.19000 31.37300
H  0.07200 11.77700 33.12700
H  -0.98200 12.28200 34.37300
H  0.37000 13.36500 33.81200
Mg -11.77000 38.74700 40.77200
C  -9.90200 35.81900 39.98200
C  -9.12400 40.57400 39.30000
C  -13.71500 41.47800 40.61500
C  -14.40300 36.64900 41.44400
N  -9.72900 38.29700 39.72200
C  -9.23000 37.01600 39.48100
C  -7.97800 37.03700 38.61100
C  -7.66300 38.58900 38.59600
C  -8.88300 39.22300 39.31300
C  -6.33500 38.99300 39.24600
C  -8.22600 36.38500 37.23900
C  -6.96800 35.62800 36.74400
H  -6.39600 36.02300 35.40000
N  -11.38300 40.81400 40.34600
C  -10.22300 41.39900 39.81800
C  -10.47200 42.85500 39.84800
C  -11.80400 43.07200 39.98600
C  -12.38700 41.75700 40.30100
C  -9.32800 43.71200 39.36300
C  -12.53900 44.42600 39.96800
O  -11.78400 45.39600 40.02600
C  -14.02200 44.67800 40.08500
N  -13.72500 39.04500 40.92300
C  -14.27700 40.27700 41.04800
C  -15.84200 40.16600 41.22000
C  -16.05900 38.59800 41.20700
C  -14.61600 38.03400 41.27300
C  -16.56900 40.82900 42.44200
C  -16.75300 38.09400 39.88800
C  -17.59900 36.80200 40.06700
N  -12.11700 36.67900 40.90700
C  -13.19700 35.96200 41.27400
C  -12.92000 34.57800 41.32700
C  -11.66700 34.46500 40.85600
C  -11.19300 35.74700 40.59900
C  -13.93300 33.48900 41.57900
C  -10.59400 33.55300 40.59500
O  -10.56400 32.35200 40.68900
C  -9.38600 34.35700 39.98200
C  -8.32300 34.09500 40.92000
O  -7.54400 33.14900 40.74500
O  -8.07500 35.17800 41.79600
C  -6.89700 35.11500 42.73800
H  -8.47700 41.20200 38.68400
H  -14.45000 42.28500 40.62500
H  -15.27100 36.03600 41.69500
H  -7.27100 36.51300 39.25500
H  -7.57800 38.91000 37.55800
H  -5.58900 39.55200 38.68300
H  -5.83100 38.13400 39.69000
H  -6.55700 39.75400 39.99400
H  -8.60200 37.13100 36.53900
H  -9.07900 35.70800 37.29100
H  -7.19400 34.56500 36.66100
H  -6.13000 35.65300 37.44100
H  -8.32700 43.35900 39.61200
H  -9.36100 44.73400 39.74000
H  -9.36900 43.76400 38.27500
H  -14.27700 45.69500 39.78700
H  -14.33600 44.45800 41.10500
H  -14.68800 44.13400 39.41400
H  -16.28300 40.66900 40.36000
H  -16.67900 38.23000 42.02500
H  -17.22300 41.64200 42.12500
H  -15.80900 41.24600 43.10300
H  -17.15900 40.08800 42.98300
H  -15.93100 37.91500 39.19400
H  -17.42900 38.82400 39.44300
H  -17.89400 36.63700 41.10300
H  -17.03800 35.99600 39.59400
H  -18.59900 36.84300 39.63700
H  -14.72300 33.55300 40.83000
H  -14.24900 33.58500 42.61800
H  -13.60200 32.46400 41.41100
H  -9.05500 33.92900 39.03600
H  -6.33000 34.20500 42.54400
H  -7.22700 35.29400 43.76100
H  -6.21700 35.89600 42.39700

