158

Mg 36.57100 49.02800 24.27100
C  36.75300 47.27200 27.45900
C  35.41600 51.77500 26.01200
C  35.93200 50.43400 21.29900
C  37.55900 46.09700 22.69700
N  35.97100 49.35400 26.44900
C  36.36300 48.60500 27.58900
C  36.17700 49.39600 28.86200
C  35.44100 50.76400 28.35300
C  35.67300 50.65900 26.80300
C  33.93000 50.80500 28.64700
C  37.45000 49.58500 29.74900
C  37.32300 49.00700 31.12700
H  35.89300 48.92500 31.79500
N  35.87300 50.83200 23.76200
C  35.48200 51.87000 24.62200
C  35.08600 53.04000 23.84700
C  35.15800 52.62900 22.43100
C  35.71400 51.25300 22.43000
C  34.73200 54.41400 24.46400
C  34.90500 53.49800 21.20200
O  34.98300 53.05400 20.08600
C  34.34000 54.96800 21.29500
N  36.54400 48.29500 22.25500
C  36.34400 49.10400 21.14200
C  36.72900 48.42000 19.83100
C  37.35400 47.10300 20.33200
C  37.25000 47.18100 21.87100
C  35.54600 48.25200 18.90300
C  38.74000 46.82600 19.82300
C  40.03200 47.31700 20.62600
N  37.01600 47.09800 24.87300
C  37.36900 45.99800 24.09800
C  37.65000 44.84500 24.95800
C  37.48000 45.31200 26.26200
C  36.97100 46.68600 26.17900
C  38.16400 43.49900 24.60900
C  37.57900 44.95800 27.65700
O  37.94600 43.94200 28.23600
C  37.04900 46.28000 28.47000
C  35.84600 45.77600 29.16600
O  34.66300 45.88900 28.90200
O  36.29900 45.10900 30.34700
C  35.19100 44.77000 31.28500
H  35.09300 52.59500 26.65700
H  35.71700 50.91500 20.34200
H  38.08800 45.25300 22.25100
H  35.44800 48.85900 29.46900
H  35.93800 51.69600 28.62200
H  33.65300 50.16500 29.48400
H  33.36300 50.66800 27.72600
H  33.70000 51.83500 28.91600
H  37.76400 50.61500 29.91300
H  38.20800 49.12800 29.11100
H  37.88300 49.65600 31.80000
H  37.81400 48.03500 31.16700
H  35.24400 54.49000 25.42300
H  33.65200 54.56600 24.46300
H  35.27400 55.22400 23.97600
H  33.99800 55.19900 20.28600
H  35.11700 55.59500 21.73300
H  33.45800 54.87800 21.92900
H  37.43200 49.06700 19.30600
H  36.74900 46.28500 19.94000
H  35.62100 47.29100 18.39400
H  35.59400 49.11600 18.23900
H  34.58100 48.31100 19.40500
H  38.85200 47.31900 18.85700
H  38.85300 45.78100 19.53500
H  40.60600 47.94800 19.94700
H  40.56200 46.41600 20.93600
H  39.95800 48.00500 21.46900
H  37.40000 42.75200 24.39200
H  38.79800 43.11900 25.40900
H  38.76400 43.65500 23.71300
H  37.73500 46.54000 29.27600
H  34.79100 43.77600 31.08900
H  34.39000 45.50800 31.30400
H  35.61500 44.89200 32.28300
Mg -11.80600 39.10500 42.70100
C  -10.00700 36.46000 41.50600
C  -9.28900 41.23600 41.53600
C  -14.00400 41.72400 43.08600
C  -14.48300 36.97200 43.57800
N  -9.92000 38.94900 41.51000
C  -9.39500 37.64400 41.19200
C  -8.08700 37.86000 40.43100
C  -7.78700 39.39800 40.48700
C  -9.01200 39.90300 41.31000
C  -6.36700 39.78000 41.09200
C  -8.02800 37.23200 38.92600
C  -6.80900 36.27000 38.69600
H  -5.86700 36.79200 37.64100
N  -11.67800 41.14600 42.37500
C  -10.55500 41.84700 41.87600
C  -10.82100 43.27000 41.86400
C  -12.16700 43.44000 42.31600
C  -12.70900 42.11700 42.63100
C  -9.82600 44.41400 41.43000
C  -12.82800 44.82900 42.41700
O  -12.29600 45.82800 42.01200
C  -14.21500 44.96800 43.02900
N  -13.98900 39.36200 43.19100
C  -14.65700 40.50300 43.42200
C  -16.04300 40.33100 44.01900
C  -16.18600 38.71900 43.85500
C  -14.78100 38.30900 43.54700
C  -16.16100 40.93800 45.47000
C  -17.17800 38.20900 42.73900
C  -18.23600 37.11500 43.26000
N  -12.15700 37.09600 42.78100
C  -13.22700 36.39100 43.11100
C  -12.86700 34.98400 42.94600
C  -11.59900 35.00800 42.31300
C  -11.29500 36.32000 42.10400
C  -13.66400 33.73800 43.36800
C  -10.55900 34.13100 41.75700
O  -10.51400 32.90700 41.70300
C  -9.48900 35.01900 41.26400
C  -8.33700 34.66000 42.14700
O  -8.37500 34.43200 43.37400
O  -7.24300 34.54400 41.36900
C  -5.98400 34.23900 42.01000
H  -8.51100 41.94500 41.24400
H  -14.62400 42.60000 43.29000
H  -15.18200 36.20600 43.92000
H  -7.39700 37.36200 41.11200
H  -7.65500 39.80200 39.48300
H  -6.00700 38.98700 41.74700
H  -6.60400 40.61100 41.75600
H  -5.62900 40.08000 40.34800
H  -8.02600 38.00700 38.16000
H  -8.90100 36.64700 38.63600
H  -7.21900 35.26800 38.57500
H  -6.18300 36.24700 39.58800
H  -10.24800 44.97100 40.59300
H  -8.83000 43.98300 41.32800
H  -9.75900 45.22800 42.15200
H  -14.85200 44.45600 42.30700
H  -14.50400 46.01700 43.08700
H  -14.25600 44.60600 44.05600
H  -16.74200 40.84900 43.36300
H  -16.39000 38.22900 44.80700
H  -15.23700 41.41900 45.79200
H  -16.36000 40.17300 46.22100
H  -16.96400 41.67500 45.49300
H  -16.63300 37.80200 41.88800
H  -17.84800 39.01000 42.42800
H  -19.16500 37.39300 42.76200
H  -18.37000 37.14500 44.34100
H  -17.92200 36.18200 42.79200
H  -14.13400 33.89200 44.33900
H  -12.96500 32.90200 43.34900
H  -14.43200 33.55700 42.61700
H  -9.28800 34.84900 40.20600
H  -5.95600 33.15100 41.95700
H  -5.89500 34.73500 42.97700
H  -5.35100 34.73600 41.27500

