158

Mg 35.66000 0.91700 29.19500
C  33.50700 2.41400 31.71100
C  38.15400 1.08500 31.47400
C  37.86300 0.44400 26.72900
C  33.16500 1.67100 26.80000
N  35.78300 1.53900 31.38400
C  34.79200 2.17200 32.23200
C  35.31000 2.36100 33.64700
C  36.88300 2.30400 33.37300
C  36.95900 1.55000 31.99700
C  37.51200 3.73100 33.26200
C  34.69800 1.31700 34.67500
C  34.31400 1.95500 36.03700
H  35.23200 3.02000 36.63400
N  37.66900 0.41500 29.18700
C  38.52500 0.57800 30.18500
C  39.91100 0.21800 29.78000
C  39.75700 -0.10100 28.37700
C  38.40000 0.25000 27.98600
C  41.10200 0.05000 30.74700
C  40.82600 -0.56400 27.39100
O  40.59600 -0.86800 26.20300
C  42.27500 -0.61200 27.84200
N  35.47500 0.84100 27.12800
C  36.56800 0.74200 26.25400
C  36.27300 1.02000 24.80300
C  34.75500 1.44800 24.91800
C  34.36700 1.19000 26.36200
C  37.11600 2.10100 24.00000
C  33.83000 0.73900 23.85200
C  33.17600 1.77800 22.84000
N  33.70400 1.76200 29.19400
C  32.79600 1.94900 28.16500
C  31.61900 2.66900 28.62600
C  31.81300 2.77100 29.99600
C  33.11000 2.21800 30.29600
C  30.52100 3.01400 27.79300
C  31.20800 3.27800 31.22700
O  30.16800 3.85200 31.42500
C  32.22200 2.88100 32.42300
C  32.41000 4.13600 33.23600
O  33.11600 5.10600 33.00700
O  31.51100 3.99700 34.28600
C  31.31100 5.10500 35.20900
H  39.00300 1.32400 32.11800
H  38.57300 0.22900 25.92800
H  32.41500 1.77900 26.01400
H  35.20700 3.41100 33.92300
H  37.39800 1.80500 34.19400
H  38.25900 3.82500 34.05000
H  36.78800 4.53400 33.39900
H  38.00300 3.85900 32.29700
H  35.35600 0.50200 34.97400
H  33.83200 0.83600 34.22200
H  34.20900 1.17300 36.78800
H  33.26000 2.19400 35.89600
H  40.75200 -0.63700 31.51800
H  41.49100 0.94600 31.22900
H  42.05200 -0.33400 30.37500
H  42.54700 -1.33200 28.61400
H  42.60500 0.40900 28.03700
H  42.90700 -0.74900 26.96500
H  36.32500 0.08600 24.24400
H  34.75400 2.53800 24.92500
H  36.50000 2.90900 23.60400
H  37.57300 1.59300 23.15100
H  37.91600 2.44500 24.65700
H  33.11200 0.16900 24.44100
H  34.44800 0.00300 23.33800
H  33.40700 1.42400 21.83600
H  33.57400 2.79000 22.91100
H  32.09300 1.78800 22.96500
H  29.90900 3.78000 28.26900
H  29.95800 2.13100 27.49200
H  30.96600 3.49200 26.92100
H  31.71700 2.12900 33.03000
H  30.79700 5.94600 34.74300
H  32.30900 5.38900 35.54400
H  30.69800 4.74200 36.03300
Mg 46.67400 24.37200 28.53900
C  46.95700 26.61900 31.39200
C  45.77000 21.96000 30.68400
C  46.65200 22.45500 25.71600
C  47.90900 27.12900 26.52900
N  46.46800 24.33100 30.88100
C  46.52600 25.32300 31.78100
C  46.21400 24.74700 33.19800
C  45.96900 23.14700 32.91200
C  45.95300 23.13900 31.39600
C  47.07600 22.21600 33.53200
C  45.02000 25.53500 33.79300
C  45.18300 25.96800 35.25700
H  45.37100 24.95600 36.35800
N  46.30900 22.46200 28.25800
C  45.93700 21.58700 29.27800
C  45.69800 20.24900 28.66400
C  45.85200 20.45200 27.23400
C  46.32100 21.88200 26.99500
C  45.25500 19.06600 29.50200
C  45.43100 19.47600 26.07700
O  45.50000 19.85600 24.95000
C  44.78200 18.14300 26.50500
N  47.05200 24.78900 26.43700
C  46.99200 23.82400 25.46900
C  47.29100 24.36700 24.07400
C  47.47900 25.89100 24.33800
C  47.57100 25.92900 25.86200
C  48.48200 23.73800 23.40200
C  46.35800 26.73600 23.68600
C  44.95000 26.39700 24.18600
N  47.17800 26.41000 28.82900
C  47.66600 27.44000 27.86000
C  48.03100 28.62200 28.63200
C  47.61200 28.33500 29.95700
C  47.17800 27.01100 30.03000
C  48.56500 29.83600 28.04300
C  47.66200 28.93300 31.31200
O  48.00000 30.04300 31.70300
C  47.24100 27.79700 32.22600
C  48.36400 27.56100 33.22000
O  48.94900 26.51200 33.38800
O  48.55000 28.60900 34.14700
C  49.11800 28.17900 35.43500
H  45.44500 21.08800 31.25400
H  46.67800 21.79900 24.84300
H  48.22400 27.99500 25.94300
H  47.16200 24.83300 33.72900
H  45.00900 22.76000 33.25200
H  47.45000 21.74700 32.62200
H  46.69900 21.38900 34.13400
H  47.79800 22.81700 34.08500
H  44.27700 24.74300 33.89200
H  44.59000 26.27000 33.11200
H  44.35400 26.62400 35.52000
H  46.07400 26.59100 35.33600
H  44.16900 18.99000 29.43900
H  45.53400 19.26200 30.53700
H  45.74000 18.18900 29.07400
H  45.40800 17.35200 26.91900
H  44.53500 17.71300 25.53400
H  43.88200 18.25400 27.10900
H  46.42300 24.07800 23.48100
H  48.36800 26.29700 23.85500
H  48.42600 23.64700 22.31700
H  48.58500 22.73300 23.81200
H  49.37300 24.29500 23.68800
H  46.19400 26.66000 22.61100
H  46.50600 27.79900 23.87500
H  44.55700 25.44300 23.83500
H  44.29300 27.16400 23.77700
H  44.83500 26.30400 25.26600
H  48.22800 29.87600 27.00700
H  49.65100 29.76300 28.10100
H  48.20200 30.68400 28.62300
H  46.36000 28.03700 32.82100
H  48.22400 27.79600 35.92600
H  49.58000 28.96300 36.03500
H  49.89000 27.41100 35.39600

