158

Mg 16.56700 -1.40900 28.18900
C  15.46300 0.46300 30.93800
C  18.64500 -3.08500 30.27600
C  17.56400 -3.06600 25.62000
C  14.65000 0.72800 26.21600
N  17.05600 -1.24400 30.38800
C  16.38900 -0.48400 31.33300
C  16.83500 -0.82200 32.79500
C  18.17700 -1.66400 32.52900
C  18.05600 -2.00100 30.96900
C  19.54600 -0.84800 32.89900
C  15.72700 -1.67200 33.42700
C  15.39900 -1.34300 34.87900
H  16.43900 -0.63200 35.72800
N  17.81500 -3.00400 27.99500
C  18.53000 -3.63800 28.98700
C  19.18400 -4.87300 28.41100
C  18.88700 -4.78300 27.03700
C  18.02500 -3.61100 26.83800
C  20.13900 -5.73800 29.24700
C  19.50700 -5.56700 25.91800
O  19.12100 -5.45500 24.76000
C  20.48300 -6.55500 26.19000
N  16.12100 -1.17700 26.14800
C  16.75900 -1.99900 25.24600
C  16.36000 -1.59600 23.81600
C  15.39400 -0.35500 24.13000
C  15.31700 -0.29000 25.57700
C  17.63800 -1.32900 22.92500
C  13.99500 -0.47300 23.49000
C  12.85300 -1.24100 24.10700
N  15.33100 0.26200 28.46100
C  14.56700 1.04200 27.59000
C  13.83700 2.08400 28.25400
C  14.10400 1.84500 29.57200
C  15.07200 0.81700 29.60700
C  12.83100 3.00900 27.70900
C  13.61700 2.16200 30.94500
O  12.75100 2.95800 31.30000
C  14.67300 1.39000 31.93200
C  15.32300 2.56200 32.63000
O  16.03700 3.33800 32.03400
O  15.11800 2.63600 33.98700
C  15.65200 3.69400 34.86000
H  19.20100 -3.73700 30.95200
H  17.76600 -3.73900 24.78400
H  14.08700 1.44500 25.61500
H  16.99600 0.07400 33.39400
H  18.22700 -2.56600 33.13800
H  19.33300 0.16700 33.23400
H  20.10200 -0.91500 31.96400
H  20.03400 -1.49400 33.63000
H  15.93400 -2.74100 33.45100
H  14.82500 -1.50600 32.83800
H  15.18800 -2.29300 35.37000
H  14.51200 -0.71500 34.96100
H  19.94500 -5.55600 30.30400
H  21.20900 -5.53600 29.22300
H  19.93600 -6.76000 28.92500
H  20.21100 -7.55700 26.52100
H  21.24700 -6.03300 26.76600
H  20.96500 -6.76400 25.23500
H  15.67700 -2.39300 23.52200
H  15.89700 0.55100 23.79400
H  18.28500 -0.58400 23.38800
H  17.15100 -0.80900 22.10000
H  18.16500 -2.20500 22.54500
H  14.12800 -0.85300 22.47800
H  13.70000 0.56900 23.36700
H  12.50200 -1.89800 23.31100
H  12.05700 -0.52900 24.32600
H  13.14700 -1.93100 24.89800
H  13.27500 4.00500 27.72700
H  11.96000 3.15900 28.34700
H  12.51300 2.74400 26.70000
H  14.20500 0.83800 32.74700
H  16.09500 3.03700 35.60900
H  14.90200 4.16300 35.49700
H  16.24600 4.50600 34.44200
Mg -12.66400 17.00000 40.84200
C  -9.59600 15.20700 40.72400
C  -11.19400 19.73600 39.31600
C  -15.72900 18.57900 40.94400
C  -14.07700 14.05000 41.85500
N  -10.66900 17.40900 40.14200
C  -9.56000 16.55700 40.14300
C  -8.35900 17.32000 39.53500
C  -8.84800 18.73800 39.19100
C  -10.33800 18.68700 39.58400
C  -8.03700 19.86200 39.95800
C  -7.74500 16.64700 38.37800
C  -6.34600 17.07600 38.05300
H  -6.09700 17.73500 36.70600
N  -13.35800 18.86600 40.28600
C  -12.55700 19.89100 39.71100
C  -13.34900 21.06800 39.54700
C  -14.64900 20.82100 40.00000
C  -14.64000 19.35900 40.42500
C  -12.78800 22.35600 39.00600
C  -15.78800 21.85200 40.09300
O  -15.75200 22.99900 39.62100
C  -17.06600 21.36200 40.80700
N  -14.61200 16.42300 41.24100
C  -15.65200 17.27600 41.33500
C  -16.93700 16.51800 41.74400
C  -16.44600 15.12400 42.08700
C  -14.94500 15.16400 41.68800
C  -17.68600 17.35600 42.88300
C  -17.27500 14.01800 41.41100
C  -17.66500 12.94100 42.42800
N  -12.07600 14.98100 41.14800
C  -12.69000 13.92700 41.70300
C  -11.86200 12.76300 41.90900
C  -10.58600 13.17700 41.50100
C  -10.77300 14.54500 41.10800
C  -12.34600 11.42900 42.28400
C  -9.19800 12.79100 41.27100
O  -8.64600 11.68000 41.34900
C  -8.50500 14.08900 40.70500
C  -7.32600 14.37400 41.53500
O  -7.28700 14.64200 42.77000
O  -6.19300 14.36500 40.68900
C  -4.85800 14.69200 41.29000
H  -10.78900 20.55600 38.72000
H  -16.74800 18.96100 41.03300
H  -14.70000 13.20500 42.15400
H  -7.64000 17.30800 40.35400
H  -8.80300 18.93800 38.12000
H  -7.66700 20.57600 39.22100
H  -7.14800 19.41800 40.40500
H  -8.78000 20.25100 40.65400
H  -8.47700 16.89200 37.60900
H  -7.83800 15.56300 38.44700
H  -5.82700 16.12500 38.16900
H  -5.77100 17.67600 38.75800
H  -13.32100 23.20200 39.44100
H  -12.80500 22.37400 37.91600
H  -11.74900 22.49200 39.30500
H  -17.59300 20.72600 40.09500
H  -17.66500 22.23500 41.06600
H  -16.78400 20.85400 41.72900
H  -17.51600 16.43300 40.82500
H  -16.71200 14.97300 43.13300
H  -18.64800 17.80300 42.63100
H  -17.03300 18.20300 43.09100
H  -17.89100 16.78800 43.79100
H  -16.60500 13.52400 40.70800
H  -18.14900 14.40700 40.88900
H  -18.73100 13.01200 42.64300
H  -17.17900 12.99500 43.40200
H  -17.56100 11.95200 41.98200
H  -11.62700 10.64300 42.05300
H  -13.33200 11.19600 41.88100
H  -12.47800 11.31300 43.36000
H  -8.11400 13.88800 39.70700
H  -4.50300 15.70600 41.10600
H  -4.12400 14.04000 40.81700
H  -4.75300 14.57600 42.36800

