158

Mg 52.85800 23.54600 43.54200
C  50.02700 25.76700 43.27000
C  50.89200 20.93600 43.23400
C  55.66800 21.79800 43.30900
C  54.80600 26.63700 43.89100
N  50.69000 23.36800 42.97900
C  49.69400 24.39200 43.14300
C  48.33800 23.69400 43.18300
C  48.69500 22.28100 43.74400
C  50.14900 22.17800 43.24200
C  48.58600 22.07300 45.27900
C  47.44300 23.74900 41.93800
C  48.18600 23.96000 40.65500
H  47.54800 23.31200 39.37400
N  53.25800 21.63400 43.08000
C  52.30500 20.65500 43.06300
C  52.93100 19.43700 42.82400
C  54.33000 19.65400 42.93400
C  54.45300 21.10300 43.13800
C  52.18000 18.07200 42.93300
C  55.46700 18.61300 42.83200
O  55.13500 17.43500 42.63600
C  56.97300 18.86200 43.00500
N  54.94600 24.15100 43.42000
C  55.90300 23.19300 43.49600
C  57.25500 23.80800 43.75500
C  57.01200 25.35800 43.64500
C  55.45600 25.38800 43.65600
C  57.84200 23.34400 45.05500
C  57.49700 25.88300 42.27600
C  58.86000 26.62100 42.46500
N  52.48100 25.75800 43.75000
C  53.35800 26.79200 43.91200
C  52.61600 28.01000 44.20100
C  51.30900 27.67900 43.89600
C  51.25900 26.28300 43.51300
C  53.16600 29.32200 44.73600
C  49.94700 28.17000 43.81000
O  49.39900 29.23800 44.02900
C  49.13400 27.00200 43.21900
C  48.78500 27.37500 41.84100
O  49.46800 27.21500 40.85900
O  47.51100 27.90100 41.75000
C  46.96500 28.05400 40.37300
H  50.21900 20.11100 43.47700
H  56.60400 21.23500 43.29300
H  55.33400 27.58400 44.02200
H  47.79000 24.29200 43.91100
H  48.15000 21.49800 43.21700
H  48.33300 23.04400 45.70400
H  49.54800 21.77100 45.69500
H  47.76400 21.40300 45.53100
H  46.71800 24.54800 42.09500
H  46.91600 22.80300 41.82000
H  49.23300 23.65900 40.64600
H  48.17700 25.01900 40.39800
H  51.14900 18.03500 42.58000
H  52.05700 17.78800 43.97800
H  52.69900 17.34700 42.30500
H  57.58800 17.98300 42.81000
H  57.29300 19.35700 43.92100
H  57.21400 19.51100 42.16300
H  57.96800 23.40100 43.03800
H  57.43400 25.85100 44.52200
H  58.41500 22.43200 44.88200
H  57.04200 23.30100 45.79400
H  58.52700 24.08400 45.47000
H  56.74000 26.52400 41.82500
H  57.60400 24.98700 41.66500
H  58.95900 27.21000 43.37700
H  58.95100 27.40000 41.70800
H  59.75900 26.00800 42.40600
H  52.48900 29.65400 45.52400
H  53.09100 30.09900 43.97500
H  54.10200 29.24500 45.29000
H  48.25400 26.89300 43.85200
H  46.27600 27.21100 40.32400
H  47.64900 27.92300 39.53400
H  46.24900 28.86500 40.24100
Mg 15.89600 52.95900 25.07900
C  17.31100 51.72900 28.04600
C  13.10300 53.83000 26.96900
C  14.44500 53.98400 22.25800
C  18.54600 51.72100 23.22700
N  15.44400 52.95500 27.23400
C  16.13500 52.48200 28.26200
C  15.52500 52.79900 29.59900
C  14.11000 53.22000 29.17900
C  14.17400 53.24700 27.68200
C  12.87900 52.33700 29.60500
C  16.29400 53.84800 30.40100
C  16.52100 53.57200 31.94200
H  15.72700 52.46700 32.63400
N  14.08100 53.86800 24.66400
C  13.00900 54.11000 25.58600
C  11.94500 54.71500 24.82600
C  12.32700 54.80700 23.42100
C  13.61100 54.17700 23.41500
C  10.65100 55.07000 25.52400
C  11.59200 55.34100 22.24900
O  12.09300 55.41600 21.12700
C  10.21700 55.85500 22.36700
N  16.43600 52.88300 23.03200
C  15.69500 53.45100 22.00600
C  16.48200 53.34000 20.61300
C  17.83500 52.87700 21.05800
C  17.60700 52.41800 22.45800
C  15.77200 52.45400 19.48100
C  19.00700 53.95100 20.97300
C  20.13000 53.70200 19.89100
N  17.46300 51.74000 25.45000
C  18.47800 51.35600 24.65500
C  19.35800 50.42500 25.40600
C  18.95400 50.57500 26.77700
C  17.82200 51.37700 26.69900
C  20.62400 49.75300 24.81800
C  19.23500 50.25500 28.15000
O  20.16300 49.56800 28.60700
C  18.28000 51.04100 29.05100
C  17.55300 50.18800 30.02900
O  16.49100 49.56400 29.87000
O  18.50300 49.77700 30.93000
C  18.34700 48.72000 31.89000
H  12.30400 54.13900 27.64600
H  14.03000 54.30200 21.29900
H  19.32600 51.32400 22.57400
H  15.37300 51.84500 30.10500
H  13.89700 54.23100 29.52800
H  12.66000 51.73600 28.72300
H  12.04900 52.86000 30.08100
H  13.21800 51.63900 30.37000
H  15.86100 54.84000 30.27700
H  17.25200 53.83800 29.88100
H  16.21900 54.52500 32.37700
H  17.57700 53.37500 32.12800
H  9.88100 54.75700 24.81900
H  10.60200 56.11100 25.84400
H  10.59500 54.41400 26.39200
H  10.08100 56.57200 23.17700
H  9.43300 55.09700 22.38400
H  10.14100 56.42100 21.43900
H  16.72600 54.26300 20.08600
H  18.03600 52.07300 20.35000
H  16.41000 51.88200 18.80800
H  15.18600 53.10200 18.83000
H  15.07400 51.75600 19.94200
H  19.54000 54.07600 21.91500
H  18.57600 54.94500 20.84500
H  21.09800 53.86200 20.36400
H  20.00300 54.36300 19.03400
H  20.01900 52.64200 19.66200
H  21.34000 50.57400 24.82200
H  20.40600 49.48700 23.78300
H  20.89900 48.90200 25.44100
H  18.91400 51.73800 29.59800
H  19.01600 47.89600 31.64100
H  17.36100 48.25500 31.87000
H  18.45800 49.15400 32.88400

