158

Mg 35.12100 2.23400 29.72900
C  32.97000 3.34000 32.07800
C  37.66900 2.32800 31.97200
C  37.60100 1.86900 27.15900
C  32.65000 2.54700 27.39200
N  35.28200 2.79500 31.72700
C  34.28600 3.12500 32.58000
C  34.82700 3.51800 33.93300
C  36.30400 3.40000 33.79000
C  36.42600 2.74200 32.43500
C  37.17000 4.61600 33.90900
C  34.21200 2.58600 35.10900
C  34.03000 3.20400 36.43400
H  35.14200 4.23300 36.97100
N  37.28200 1.95300 29.65200
C  38.07100 1.91600 30.69300
C  39.40200 1.49500 30.28500
C  39.39500 1.37900 28.85400
C  38.04500 1.70900 28.47600
C  40.53100 1.38100 31.31500
C  40.45100 1.05600 27.91800
O  40.31000 0.85400 26.68900
C  41.89200 0.92800 28.50400
N  35.18100 2.60500 27.59900
C  36.24600 2.24000 26.79500
C  35.81000 1.98500 25.35600
C  34.24900 1.84500 25.42800
C  34.00600 2.51000 26.82300
C  36.30700 3.13300 24.37300
C  33.67500 0.44300 25.30800
C  32.19000 0.22200 24.84700
N  33.15500 2.75100 29.67100
C  32.31700 2.80600 28.64100
C  30.99900 3.19100 29.10100
C  31.16600 3.37100 30.48600
C  32.48900 3.17500 30.79900
C  29.76600 3.25700 28.27500
C  30.54500 3.74000 31.75200
O  29.35900 3.92500 32.00600
C  31.69100 3.75700 32.86500
C  31.74200 5.07800 33.39500
O  31.86000 6.11100 32.76000
O  31.54300 5.02600 34.74500
C  31.13700 6.23200 35.48300
H  38.46700 2.22000 32.71000
H  38.13300 1.65600 26.22900
H  31.92500 2.42700 26.58500
H  34.57700 4.55400 34.15900
H  36.75400 2.76200 34.55000
H  36.63800 5.39800 34.45100
H  37.32000 5.12000 32.95400
H  38.06900 4.21600 34.37600
H  34.76500 1.64900 35.17500
H  33.20400 2.32800 34.78700
H  34.13800 2.31600 37.05700
H  33.06600 3.69100 36.29000
H  40.75300 0.31400 31.33300
H  40.14000 1.74200 32.26600
H  41.47000 1.79700 30.94900
H  42.00900 0.01000 29.07900
H  42.23100 1.88600 28.89900
H  42.51400 0.84600 27.61200
H  36.23900 1.02000 25.08500
H  33.73600 2.53500 24.75700
H  36.57600 4.03200 24.92700
H  35.46200 3.37700 23.72900
H  37.16200 2.72900 23.83100
H  33.80900 -0.09400 26.24700
H  34.30400 -0.09500 24.59800
H  32.24900 -0.26200 23.87200
H  31.62200 1.15200 24.81200
H  31.63000 -0.37500 25.56800
H  29.40500 4.27000 28.10000
H  28.97500 2.75500 28.83200
H  29.88800 2.78600 27.29900
H  31.59500 2.91300 33.54900
H  30.87200 7.06400 34.83100
H  32.04500 6.53700 36.00300
H  30.33400 5.97500 36.17400
Mg 27.12500 50.33100 27.29300
C  25.11100 51.58400 29.91300
C  29.60100 49.64300 29.61300
C  29.13000 49.73700 24.77800
C  24.63200 51.95000 25.02600
N  27.30200 50.65400 29.44200
C  26.28200 50.96200 30.29600
C  26.65400 50.68100 31.79000
C  28.16800 50.46400 31.58500
C  28.39800 50.13400 30.15400
C  29.00500 51.62900 32.09000
C  25.84700 49.48900 32.47500
C  25.15300 49.83100 33.80400
H  25.87200 50.41400 35.02800
N  28.94400 49.52800 27.19500
C  29.82800 49.33100 28.26900
C  31.04400 48.76900 27.65800
C  30.95000 48.84600 26.26600
C  29.59400 49.42900 25.98600
C  32.28400 48.33500 28.48300
C  32.03700 48.34500 25.25500
O  31.90100 48.45900 23.99300
C  33.29800 47.81600 25.70100
N  26.85200 50.82400 25.18100
C  27.86900 50.32100 24.33800
C  27.46200 50.50900 22.85200
C  26.01000 51.04600 22.94700
C  25.76600 51.26900 24.46700
C  28.38800 51.49300 22.04400
C  24.88300 50.14700 22.36800
C  24.69300 48.73000 22.94000
N  25.29200 51.56900 27.34300
C  24.48700 52.08500 26.39100
C  23.27400 52.65600 27.03200
C  23.49200 52.51200 28.42100
C  24.69000 51.83600 28.55600
C  22.04400 53.23600 26.41100
C  22.97300 52.76400 29.72400
O  21.94400 53.31700 29.99700
C  23.92600 52.18400 30.77000
C  24.41200 53.28900 31.63500
O  25.24000 54.16900 31.31600
O  23.79200 53.28400 32.87100
C  24.22600 54.29700 33.85300
H  30.36700 49.34100 30.33000
H  29.87100 49.55600 23.99700
H  23.86700 52.38100 24.37700
H  26.34700 51.58600 32.31600
H  28.51900 49.63200 32.19500
H  29.97100 51.75500 31.60100
H  29.21500 51.52800 33.15500
H  28.43800 52.55900 32.12900
H  26.57300 48.71700 32.73200
H  25.08100 49.01300 31.86300
H  24.58200 48.97600 34.16700
H  24.51200 50.68700 33.59600
H  32.49800 47.26700 28.43800
H  32.17800 48.72100 29.49600
H  33.24300 48.74600 28.16700
H  33.77200 47.45700 24.78800
H  33.30800 47.03100 26.45700
H  33.85100 48.71600 25.96800
H  27.43800 49.61100 22.23400
H  25.88900 52.01900 22.47000
H  29.26200 51.58500 22.68800
H  27.95300 52.49200 22.00500
H  28.68000 51.08200 21.07800
H  24.86400 50.10900 21.27800
H  23.93000 50.65600 22.51700
H  23.67200 48.50400 23.24600
H  25.45700 48.56400 23.70000
H  25.03900 48.04400 22.16700
H  21.78400 52.67300 25.51500
H  22.22300 54.24900 26.05000
H  21.20200 53.09700 27.08900
H  23.32700 51.54500 31.41800
H  24.22900 53.75700 34.80000
H  23.51900 55.12600 33.90400
H  25.17800 54.81600 33.73200

