158

Mg 29.11500 57.21600 41.31400
C  26.33600 55.35400 40.24100
C  31.10500 55.10300 39.61200
C  31.47500 59.70100 41.29100
C  26.67800 59.77300 42.26800
N  28.80900 55.54600 40.03100
C  27.56900 54.94200 39.74500
C  27.75300 53.66200 38.88300
C  29.31200 53.40700 38.98400
C  29.77600 54.77700 39.45600
C  29.81900 52.19200 39.88300
C  27.18300 53.76800 37.49000
C  27.55300 55.13000 36.70900
H  27.62800 55.12000 35.25600
N  30.96400 57.33400 40.77800
C  31.69800 56.34000 40.15300
C  33.09800 56.63300 40.03700
C  33.23100 57.98400 40.54400
C  31.86200 58.36500 40.95100
C  34.18800 55.70600 39.45900
C  34.50800 58.65300 40.77400
O  35.55000 58.18900 40.34200
C  34.65200 59.97700 41.52900
N  29.03900 59.47600 41.64900
C  30.21300 60.24100 41.65100
C  29.93700 61.72100 41.97000
C  28.40200 61.68400 42.32500
C  28.01200 60.15200 42.13400
C  30.81800 62.28200 43.10400
C  27.53000 62.80900 41.68700
C  26.54800 63.55500 42.57200
N  26.93600 57.48300 41.50700
C  26.15200 58.55700 41.98900
C  24.77400 58.07000 41.95200
C  24.77500 56.84500 41.27400
C  26.11900 56.53600 41.01600
C  23.58700 58.67700 42.67700
C  23.87300 55.78600 40.80100
O  22.66400 55.59300 40.83800
C  24.81300 54.86100 40.03000
C  24.57200 53.39900 40.51000
O  24.54300 53.09700 41.68600
O  24.43700 52.63500 39.41700
C  24.31800 51.21700 39.76600
H  31.85800 54.44600 39.17100
H  32.27200 60.44700 41.26900
H  25.89700 60.44400 42.63100
H  27.44600 52.69900 39.29200
H  29.80900 53.34000 38.01600
H  29.63000 51.17900 39.52900
H  29.25700 52.43500 40.78500
H  30.86600 52.29800 40.16600
H  26.09600 53.69100 37.51000
H  27.53300 52.93100 36.88500
H  28.44400 55.64100 37.07400
H  26.70400 55.76600 36.95800
H  33.93700 55.39600 38.44500
H  34.33100 54.86800 40.14100
H  35.15500 56.14200 39.21000
H  34.27800 60.81700 40.94400
H  35.71900 60.13400 41.68800
H  34.05100 59.79500 42.42000
H  30.10700 62.30700 41.06700
H  28.42600 61.87400 43.39800
H  30.42700 62.47300 44.10400
H  31.43800 63.10900 42.75800
H  31.63500 61.56500 43.17500
H  26.95700 62.39200 40.85800
H  28.13800 63.61700 41.27900
H  26.62600 63.10100 43.56000
H  25.52900 63.28200 42.29600
H  26.77800 64.62000 42.56600
H  23.95600 59.17800 43.57200
H  22.92500 57.82800 42.84200
H  23.13400 59.44000 42.04300
H  24.52100 54.88000 38.98000
H  25.00300 50.91400 40.55800
H  24.45500 50.56500 38.90400
H  23.25000 51.10600 39.95700
Mg 27.35800 49.73400 26.91700
C  25.49000 50.92800 29.62600
C  29.93800 49.16600 29.03600
C  29.57600 49.33900 24.30600
C  25.01600 51.10600 24.81600
N  27.69500 50.15700 29.10200
C  26.71300 50.30200 30.00000
C  27.19900 50.18300 31.40800
C  28.64300 49.61400 31.28000
C  28.76400 49.64100 29.70800
C  29.81600 50.31300 32.06100
C  26.17900 49.46700 32.44200
C  25.80400 50.31700 33.64500
H  26.48300 50.03400 34.93000
N  29.30800 49.05500 26.71900
C  30.19500 48.93100 27.72600
C  31.40500 48.36000 27.26200
C  31.35200 48.38700 25.87000
C  30.03400 48.95600 25.55100
C  32.53300 47.82400 28.01400
C  32.42100 48.05000 24.88400
O  32.32100 48.29800 23.69300
C  33.72400 47.42200 25.28300
N  27.40400 50.26100 24.83000
C  28.33400 49.91600 23.93600
C  27.83500 50.08600 22.50800
C  26.32500 50.27300 22.70600
C  26.19300 50.64800 24.19200
C  28.57500 51.22900 21.78600
C  25.36200 49.20000 22.22000
C  24.02200 49.69200 21.60000
N  25.58500 50.72400 27.08900
C  24.71600 51.21600 26.14600
C  23.55800 51.80800 26.76000
C  23.75300 51.71900 28.17000
C  25.03500 51.05700 28.28400
C  22.42100 52.45300 26.08500
C  23.25400 51.96400 29.54600
O  22.19300 52.42100 29.94400
C  24.36300 51.45300 30.51000
C  24.78700 52.70200 31.23000
O  25.85000 53.29200 31.04300
O  23.88800 53.09900 32.22400
C  24.42300 54.03500 33.15200
H  30.69900 48.81600 29.73700
H  30.27200 49.15200 23.48600
H  24.19100 51.46800 24.20000
H  27.35100 51.17800 31.82500
H  28.71200 48.55200 31.51700
H  30.52500 50.74100 31.35200
H  30.27400 49.52100 32.65400
H  29.47100 51.06600 32.76900
H  26.64500 48.54100 32.78100
H  25.22400 49.17300 32.00600
H  24.76800 50.02600 33.81600
H  26.00200 51.38100 33.51200
H  32.31100 47.57200 29.05100
H  33.40900 48.47000 28.07700
H  32.84600 46.88200 27.56300
H  33.55100 46.42800 25.69600
H  34.17400 48.10600 26.00300
H  34.29500 47.38400 24.35500
H  28.05100 49.16400 21.97000
H  26.07300 51.27100 22.34800
H  28.98200 50.97600 20.80700
H  29.42400 51.61300 22.35100
H  27.94700 52.11400 21.68100
H  24.94500 48.70200 23.09600
H  25.67700 48.26700 21.75100
H  24.23200 49.99900 20.57500
H  23.67000 50.58600 22.11500
H  23.22600 48.95800 21.72300
H  21.86700 51.81800 25.39400
H  22.87800 53.29000 25.55600
H  21.81900 52.77500 26.93400
H  23.92800 50.72300 31.19200
H  24.87000 53.35600 33.87800
H  23.63100 54.66100 33.56300
H  25.19900 54.74600 32.86900

