158

Mg 47.14400 34.59900 27.19300
C  45.54000 32.84100 29.87000
C  47.75300 37.09000 29.27600
C  47.87100 36.45500 24.52300
C  46.23500 31.84200 25.03300
N  46.71200 34.85300 29.35400
C  46.19800 34.01100 30.31900
C  46.51600 34.53100 31.72000
C  46.88100 36.04600 31.46500
C  47.12200 36.01400 29.92900
C  45.80700 37.05700 31.91700
C  47.67000 33.73000 32.40300
C  47.81700 33.90600 34.00300
H  46.82700 34.91000 34.63100
N  47.75200 36.56400 26.93700
C  48.04600 37.39700 27.94500
C  48.57600 38.60100 27.45800
C  48.67100 38.47200 26.04100
C  48.10800 37.13900 25.74700
C  48.83300 39.87600 28.31100
C  49.25300 39.43600 25.01700
O  49.33300 39.12800 23.83800
C  49.97800 40.76600 25.36200
N  47.10800 34.10400 25.13300
C  47.40200 35.12700 24.22800
C  47.18400 34.67700 22.85300
C  47.05100 33.18600 22.98000
C  46.70800 33.01600 24.47900
C  45.91000 35.30700 22.28500
C  48.36800 32.35900 22.72200
C  48.32700 30.97400 22.02900
N  46.16300 32.64000 27.36400
C  45.84700 31.69000 26.42300
C  45.21600 30.55000 27.03800
C  45.00800 31.00900 28.41100
C  45.61600 32.27800 28.53800
C  44.79100 29.29600 26.40200
C  44.49200 30.62100 29.67600
O  43.86800 29.62300 29.96000
C  44.68800 31.89700 30.60900
C  45.00100 31.55600 31.98300
O  45.89700 30.75500 32.34900
O  44.00500 32.16000 32.76900
C  44.16400 31.86600 34.22200
H  48.08400 37.84200 29.99600
H  48.10300 37.10000 23.67300
H  45.85400 31.00900 24.43800
H  45.56700 34.40100 32.24100
H  47.79500 36.40500 31.93800
H  44.82900 36.62700 32.13400
H  45.58300 37.69500 31.06100
H  46.18500 37.71000 32.70300
H  48.61100 33.96400 31.90600
H  47.60900 32.67900 32.12200
H  48.82800 34.13500 34.34100
H  47.42400 32.95000 34.34900
H  49.89100 39.97400 28.55000
H  48.36100 39.82900 29.29200
H  48.56400 40.82900 27.85400
H  49.38300 41.56600 25.80200
H  50.44200 41.08100 24.42700
H  50.83300 40.51500 25.99000
H  48.06800 34.89600 22.25300
H  46.19300 32.72600 22.49000
H  45.03600 34.65900 22.35900
H  46.12400 35.55500 21.24600
H  45.75200 36.21600 22.86600
H  48.92700 32.16000 23.63700
H  49.02900 32.88800 22.03600
H  48.88900 30.23600 22.60200
H  48.73200 31.07100 21.02200
H  47.27800 30.69400 21.92600
H  44.82900 29.34500 25.31300
H  43.73700 29.16900 26.64700
H  45.49700 28.59400 26.84700
H  43.66700 32.27800 30.58000
H  44.19300 30.80200 34.45900
H  43.26000 32.16400 34.75400
H  45.08400 32.15200 34.73100
Mg 17.06300 52.51400 25.73600
C  19.02500 50.78000 28.15500
C  14.86600 53.17800 28.36400
C  15.18400 53.81300 23.39500
C  19.10200 50.93300 23.31600
N  17.06300 52.12100 28.05000
C  17.95000 51.44100 28.77400
C  17.60600 51.53400 30.26000
C  16.11100 51.93900 30.25300
C  16.02200 52.48100 28.81900
C  15.01200 50.87200 30.61400
C  18.53900 52.46100 30.93800
C  18.90200 52.23600 32.44500
H  17.75300 51.78100 33.34500
N  15.30000 53.50300 25.85800
C  14.51800 53.60500 26.98100
C  13.43200 54.52400 26.58800
C  13.46900 54.75600 25.17100
C  14.70300 54.09400 24.73100
C  12.41000 54.97900 27.60700
C  12.42000 55.41100 24.20700
O  12.67000 55.60600 22.99900
C  11.13600 55.86400 24.73500
N  17.16800 52.36300 23.65900
C  16.28700 53.06800 22.90800
C  16.41800 52.79000 21.45600
C  17.84800 52.10800 21.43600
C  18.03200 51.73000 22.86200
C  15.27900 51.98300 20.68800
C  19.05200 52.92000 20.81100
C  20.06600 53.51300 21.77900
N  18.73800 51.24400 25.71100
C  19.44700 50.74400 24.66400
C  20.61400 50.01500 25.13000
C  20.44900 49.92500 26.49900
C  19.32800 50.72700 26.84300
C  21.60500 49.32400 24.26800
C  21.05900 49.39900 27.73100
O  21.94500 48.59000 27.91300
C  20.16600 50.07400 28.89100
C  19.74900 49.03400 29.86700
O  18.84600 48.25000 29.60500
O  20.40000 49.21800 31.05000
C  20.00400 48.27100 32.05400
H  14.14500 53.34500 29.16800
H  14.48300 54.11200 22.61200
H  19.80900 50.55800 22.57200
H  17.60700 50.49100 30.57900
H  16.02800 52.77400 30.94800
H  15.42100 49.87600 30.78100
H  14.31400 50.94300 29.77900
H  14.53100 51.20400 31.53400
H  18.05800 53.43200 30.81300
H  19.48600 52.43400 30.40000
H  19.19200 53.22000 32.81200
H  19.71600 51.51500 32.51900
H  12.66600 54.90100 28.66300
H  11.50200 54.39000 27.48000
H  12.15300 56.01900 27.40500
H  10.36100 55.94800 23.97300
H  11.29300 56.82500 25.22400
H  10.68500 55.21500 25.48500
H  16.39200 53.80200 21.05100
H  17.85200 51.19200 20.84500
H  14.54300 51.84400 21.48000
H  15.78000 51.10000 20.29100
H  14.99600 52.58200 19.82300
H  18.56000 53.60500 20.12100
H  19.60900 52.20200 20.20900
H  19.84500 53.45300 22.84500
H  20.02100 54.58500 21.58800
H  21.07300 53.14100 21.59100
H  22.39600 48.81900 24.82300
H  22.04500 50.15600 23.71900
H  21.08300 48.63500 23.60300
H  20.71400 50.79900 29.49300
H  20.18900 47.27000 31.66500
H  18.98800 48.41900 32.41900
H  20.68000 48.47700 32.88400

