158

Mg 44.24500 4.43000 46.87500
C  42.51200 7.55800 46.63200
C  41.38400 2.83100 45.89100
C  46.15800 1.77900 46.14700
C  47.30800 6.31500 47.07400
N  42.19100 5.13400 46.17300
C  41.71600 6.43700 46.24000
C  40.19400 6.45200 45.89000
C  39.79400 4.94800 45.74700
C  41.17900 4.22900 46.00000
C  38.59400 4.43600 46.64900
C  39.71700 7.51700 44.78800
C  40.68800 7.60700 43.53800
H  39.98800 7.85900 42.19700
N  43.85200 2.52400 46.26200
C  42.56900 2.09600 45.87800
C  42.70700 0.70200 45.60200
C  44.05100 0.43800 45.42500
C  44.81000 1.62500 45.94800
C  41.59100 -0.21500 45.41300
C  44.57600 -0.82400 44.86300
O  43.80000 -1.76200 44.56600
C  46.04100 -1.18700 44.77600
N  46.37700 4.10500 46.74600
C  46.88900 2.86300 46.66200
C  48.45300 2.83900 46.76100
C  48.77600 4.35300 46.87500
C  47.39500 5.01500 46.89100
C  49.03500 2.00400 47.92900
C  49.70200 4.91900 45.75800
C  50.95900 5.52600 46.29100
N  44.81300 6.48100 46.87900
C  46.11300 7.09700 47.01000
C  45.95200 8.55800 47.06300
C  44.52700 8.75400 47.02900
C  43.92400 7.50300 46.89000
C  47.06500 9.50800 47.05200
C  43.53500 9.79300 46.96400
O  43.70900 11.01100 47.09700
C  42.13300 9.09500 46.86300
C  41.35900 9.19500 48.12700
O  41.54200 8.57200 49.14300
O  40.47200 10.16000 47.94900
C  39.57900 10.36300 49.07100
H  40.47800 2.38800 45.47400
H  46.84100 0.97300 45.86800
H  48.24100 6.87100 47.19600
H  39.81800 6.75700 46.86600
H  39.57100 4.73400 44.70200
H  39.01400 3.70800 47.34300
H  37.85200 4.04500 45.95300
H  38.14200 5.24500 47.22200
H  39.36400 8.43900 45.24900
H  38.75700 7.18300 44.39700
H  41.21700 6.65400 43.54500
H  41.38300 8.42200 43.74300
H  41.50100 -0.54300 44.37800
H  40.67800 0.32600 45.66300
H  41.59800 -1.09000 46.06300
H  46.24300 -2.21200 44.46700
H  46.30600 -1.05800 45.82500
H  46.42500 -0.45500 44.06500
H  48.89800 2.46400 45.84000
H  49.21800 4.36200 47.87100
H  49.93000 1.49800 47.56800
H  48.18200 1.41500 48.26700
H  49.29600 2.62000 48.79000
H  49.14600 5.71700 45.26600
H  49.90200 4.07500 45.09900
H  50.78500 5.99800 47.25900
H  51.19100 6.27200 45.53200
H  51.77600 4.80600 46.34400
H  46.71900 10.44100 46.60900
H  48.05700 9.28500 46.66000
H  47.25200 9.78300 48.09000
H  41.47300 9.50700 46.10000
H  40.14300 10.65700 49.95600
H  38.86400 9.54200 49.13500
H  39.01000 11.24500 48.77500
Mg 42.58200 42.42000 26.53100
C  41.31900 44.77500 28.92400
C  44.09600 40.69700 29.06200
C  43.98400 40.45800 24.21600
C  41.54800 44.67200 23.95100
N  42.88000 42.86700 28.79200
C  42.06100 43.75200 29.57500
C  42.07900 43.26600 31.07900
C  43.20000 42.18900 31.09400
C  43.36300 41.82700 29.53700
C  44.51400 42.79000 31.57300
C  40.72300 42.73000 31.71100
C  40.16200 43.28800 33.01100
H  40.24600 42.44200 34.22500
N  43.64300 40.57000 26.67000
C  44.20900 40.08500 27.76700
C  44.89800 38.88800 27.37500
C  44.80500 38.78300 25.99400
C  44.04100 39.95100 25.55300
C  45.69500 38.09600 28.44800
C  45.39600 37.73300 25.04100
O  45.08700 37.71300 23.85400
C  46.39900 36.74600 25.48700
N  42.79700 42.65200 24.43500
C  43.40700 41.71500 23.70300
C  43.48400 42.18900 22.19500
C  42.33600 43.12800 22.09200
C  42.15500 43.47200 23.56800
C  44.91500 42.59300 21.66600
C  41.02800 42.53000 21.41300
C  40.19600 41.54800 22.21700
N  41.59300 44.36200 26.44300
C  41.28800 45.12300 25.28100
C  40.63900 46.31200 25.71800
C  40.42800 46.11100 27.16400
C  41.20200 44.94600 27.52400
C  40.19300 47.51200 24.97500
C  39.92000 46.79800 28.34000
O  39.42000 47.89500 28.46400
C  40.38800 45.88300 29.53200
C  41.01500 46.62900 30.64200
O  42.22400 46.82000 30.84700
O  39.99700 46.86000 31.57500
C  40.57000 47.21200 32.85000
H  44.51000 40.04500 29.83400
H  44.45900 39.87900 23.42100
H  41.30300 45.26400 23.06700
H  42.41700 44.11400 31.67500
H  43.06000 41.27800 31.67600
H  45.16600 41.92600 31.70400
H  44.39900 43.23300 32.56200
H  44.90600 43.43100 30.78400
H  40.81600 41.64400 31.73300
H  40.03300 43.02700 30.92100
H  39.09800 43.48900 32.88400
H  40.68200 44.22400 33.21700
H  45.11900 37.87500 29.34700
H  46.43400 38.82800 28.77300
H  46.32100 37.24100 28.19100
H  46.04300 36.13100 26.31400
H  47.28500 37.34700 25.69400
H  46.49100 36.14300 24.58400
H  43.23500 41.28300 21.64300
H  42.50900 44.07500 21.58000
H  45.79600 42.16500 22.14400
H  45.06600 43.66200 21.51400
H  44.96000 42.08400 20.70300
H  41.47800 42.02700 20.55700
H  40.43300 43.36500 21.04500
H  40.67700 41.41300 23.18600
H  40.10700 40.57900 21.72700
H  39.20200 41.95600 22.40300
H  40.40500 48.38500 25.59300
H  39.10600 47.54400 24.89600
H  40.61200 47.60900 23.97400
H  39.44900 45.43400 29.85600
H  41.12400 46.30700 33.09600
H  39.84700 47.47700 33.62100
H  41.29200 48.02200 32.74700

