158

Mg 1.87700 8.33400 25.29000
C  2.30200 9.99900 28.34800
C  1.59500 5.29300 27.11400
C  1.23900 6.65300 22.42800
C  2.28100 11.25200 23.55200
N  2.04400 7.71200 27.49800
C  2.15000 8.62700 28.52500
C  2.18200 7.88000 29.88600
C  2.31500 6.34100 29.44100
C  1.92500 6.41600 27.92000
C  3.68600 5.67000 29.75000
C  0.99500 8.26800 30.76900
C  1.29000 8.48800 32.27700
H  2.46600 7.67500 32.99300
N  1.44700 6.21200 24.79400
C  1.33000 5.18100 25.72400
C  0.93200 4.05900 24.96700
C  0.98900 4.36500 23.57700
C  1.23200 5.78600 23.53200
C  0.57700 2.78300 25.65200
C  0.77800 3.48100 22.34600
O  0.86100 3.88200 21.17500
C  0.49600 2.06900 22.51700
N  2.13300 8.84100 23.30100
C  1.76700 7.96400 22.26700
C  2.00000 8.54900 20.89300
C  2.00000 10.12000 21.21100
C  2.24600 10.11500 22.79100
C  3.29700 8.04000 20.18800
C  0.56000 10.75300 20.89400
C  0.67500 11.89000 19.88400
N  2.19100 10.20700 25.78600
C  2.35000 11.32300 24.95400
C  2.44800 12.53900 25.78100
C  2.38900 12.05400 27.09400
C  2.36600 10.59700 27.05800
C  2.37200 13.96500 25.34300
C  2.41900 12.44100 28.49600
O  2.63200 13.49100 29.01400
C  2.35000 11.11300 29.36000
C  3.38900 10.94700 30.37400
O  4.42400 10.27100 30.23200
O  3.08900 11.77400 31.48500
C  4.26200 11.97600 32.30200
H  1.60200 4.37000 27.69800
H  1.12300 6.11800 21.48300
H  2.22400 12.18900 22.99400
H  3.10300 8.18400 30.38400
H  1.66300 5.62600 29.94200
H  4.53500 6.33600 29.90800
H  3.80400 5.01400 28.88800
H  3.53800 5.06800 30.64600
H  0.18500 7.54100 30.71600
H  0.56600 9.23200 30.49600
H  0.37600 8.33400 32.85000
H  1.47000 9.56200 32.33200
H  1.38000 2.07800 25.43800
H  -0.31400 2.42000 25.14000
H  0.27600 2.81900 26.69900
H  0.61400 1.44000 21.63500
H  -0.55100 2.06200 22.81900
H  1.19700 1.63000 23.22700
H  1.28600 8.35500 20.09200
H  2.77500 10.58400 20.60200
H  2.92300 7.05400 19.91300
H  4.15000 7.97600 20.86400
H  3.53200 8.70300 19.35600
H  0.04800 11.16900 21.76200
H  -0.09400 10.00500 20.44500
H  1.08800 11.50200 18.95300
H  1.33800 12.68200 20.23400
H  -0.35900 12.23500 19.87900
H  1.82300 14.39400 26.18100
H  1.80300 14.06000 24.41800
H  3.37500 14.39300 25.31500
H  1.44900 11.19700 29.96600
H  4.71500 11.04800 32.65200
H  3.98900 12.49600 33.22000
H  4.92800 12.60600 31.71300
Mg 47.17000 44.43000 42.78800
C  43.75200 43.89600 42.17000
C  47.65200 41.10600 42.45800
C  50.40000 45.18300 43.01400
C  46.47100 47.95600 42.68100
N  45.85100 42.74400 42.14800
C  44.51700 42.70700 42.12400
C  43.86500 41.29000 42.09100
C  45.14300 40.47800 42.24900
C  46.29000 41.47400 42.25100
C  45.00600 39.46700 43.44900
C  43.09400 40.94600 40.72100
C  43.52800 41.57200 39.33100
H  43.20000 40.98200 37.94400
N  48.79300 43.27600 42.72800
C  48.78900 41.91200 42.67200
C  50.17100 41.46200 42.81000
C  50.98400 42.64100 42.78600
C  50.06600 43.79400 42.82600
C  50.61000 39.95700 42.84000
C  52.52800 42.64300 42.67900
O  53.22300 41.56100 42.70300
C  53.30800 43.89300 42.61500
N  48.26100 46.26200 42.69700
C  49.57300 46.26400 42.96900
C  49.98900 47.66800 43.38600
C  48.73300 48.52500 43.51200
C  47.73700 47.55200 43.03000
C  50.94800 47.61300 44.61900
C  48.81200 49.85400 42.69300
C  48.32700 51.08200 43.43700
N  45.45000 45.75500 42.48800
C  45.34300 47.11800 42.49300
C  43.97900 47.51200 42.17100
C  43.30900 46.27400 42.21000
C  44.21100 45.21000 42.34300
C  43.42400 48.92500 42.03000
C  41.97800 45.63500 42.11900
O  40.84500 46.13400 41.93700
C  42.17800 44.05900 42.15200
C  41.41000 43.69900 43.39900
O  40.31300 43.11900 43.44800
O  42.26400 43.77600 44.47500
C  41.90600 43.02600 45.70000
H  47.88400 40.04000 42.49600
H  51.43200 45.50200 43.17600
H  46.15200 48.99700 42.77000
H  43.16300 41.38700 42.91900
H  45.29300 39.87800 41.35100
H  45.06200 38.48500 42.97900
H  44.13900 39.67200 44.07700
H  45.83400 39.56800 44.15000
H  42.04800 41.24900 40.75800
H  43.07500 39.87000 40.55200
H  44.61600 41.58500 39.38500
H  43.30700 42.63200 39.20800
H  50.72200 39.37500 41.92500
H  49.84400 39.45400 43.43000
H  51.37300 39.70300 43.57500
H  52.70800 44.52600 41.96100
H  54.32700 43.82000 42.23300
H  53.39500 44.34900 43.60100
H  50.57000 48.13300 42.58900
H  48.47000 48.51600 44.56900
H  51.92800 47.25600 44.30300
H  50.62700 46.93500 45.41000
H  51.01800 48.60400 45.06600
H  48.17000 49.71900 41.82200
H  49.73900 50.20800 42.24200
H  47.53800 51.65500 42.95000
H  49.09900 51.80100 43.71100
H  47.84900 50.62800 44.30500
H  43.64300 49.12900 40.98200
H  43.98000 49.57800 42.70200
H  42.33900 48.96300 42.12200
H  41.62200 43.68900 41.29100
H  41.30300 43.67700 46.33300
H  42.70500 42.65600 46.34200
H  41.43500 42.07900 45.43600

