158

Mg 48.05600 34.02400 26.77700
C  46.21500 32.76700 29.40000
C  48.35400 37.01600 28.63100
C  49.18400 35.57900 24.07900
C  47.23600 31.24000 24.93400
N  47.29700 34.85200 28.68100
C  46.84700 33.97500 29.65500
C  46.91400 34.63100 31.06200
C  47.11700 36.05700 30.65800
C  47.64100 35.99500 29.25700
C  45.94000 37.04400 30.91000
C  48.12600 34.05300 31.86100
C  48.14300 34.03200 33.40100
H  47.41100 35.09400 34.15600
N  48.67600 36.06300 26.38900
C  48.85600 37.04600 27.32300
C  49.49000 38.12700 26.62800
C  49.66200 37.79800 25.20200
C  49.15700 36.41900 25.16100
C  49.69900 39.42800 27.23000
C  50.13600 38.63500 23.99300
O  50.09000 38.26300 22.80500
C  50.76300 39.93000 24.34500
N  48.08400 33.54800 24.69400
C  48.74400 34.32000 23.81600
C  48.79300 33.60600 22.39500
C  48.29200 32.17900 22.73600
C  47.78800 32.37400 24.18100
C  47.98100 34.46500 21.36700
C  49.41900 31.10800 22.85300
C  48.88400 29.68800 22.61800
N  47.09100 32.21000 27.10600
C  46.79600 31.20600 26.26000
C  45.92600 30.19900 26.88100
C  45.67500 30.84800 28.14400
C  46.38400 32.05500 28.17700
C  45.40800 28.89600 26.35000
C  44.95400 30.65200 29.40400
O  44.25200 29.75000 29.80400
C  45.24300 31.94000 30.25100
C  45.48900 31.67700 31.67800
O  46.25800 30.83700 32.15400
O  44.71100 32.51900 32.45500
C  44.58800 32.24800 33.87000
H  48.41300 37.88900 29.28400
H  49.56100 35.85100 23.09100
H  46.92000 30.31000 24.45700
H  45.96900 34.60300 31.60400
H  47.89700 36.46500 31.30100
H  45.96800 37.86100 30.18800
H  46.05600 37.48000 31.90200
H  44.97700 36.53400 30.91100
H  49.08600 34.54900 31.72100
H  48.15900 32.98000 31.67200
H  49.18600 34.07000 33.71600
H  47.77000 33.06200 33.73000
H  50.62100 39.86200 26.84400
H  49.84000 39.29300 28.30300
H  48.82200 40.07100 27.16200
H  51.66300 39.73700 24.92900
H  49.96100 40.50600 24.80600
H  50.93900 40.43900 23.39800
H  49.84300 33.50500 22.12100
H  47.43100 31.89100 22.13200
H  47.02100 34.61300 21.86200
H  47.83900 33.91400 20.43700
H  48.38800 35.46400 21.21300
H  49.87300 31.11400 23.84300
H  50.09600 31.44600 22.06800
H  49.45500 29.12400 21.88000
H  47.90100 29.70900 22.14700
H  48.79800 29.17700 23.57700
H  45.73800 28.50200 25.38900
H  44.33300 29.07500 26.38600
H  45.80900 28.21000 27.09700
H  44.34000 32.54800 30.18900
H  45.51000 32.60000 34.33300
H  44.49900 31.20400 34.17100
H  43.81700 32.83400 34.36900
Mg 9.79400 47.81200 27.87300
C  7.74300 47.10300 30.67800
C  12.36500 48.09900 29.85500
C  11.56400 48.79900 25.15300
C  6.81300 48.23900 26.02000
N  9.97700 47.69800 30.08000
C  9.08100 47.37500 31.06300
C  9.61100 47.53600 32.45800
C  11.06900 47.99400 32.16300
C  11.17600 47.93500 30.57100
C  11.58700 49.44300 32.70500
C  9.40800 46.20100 33.18800
C  10.43000 45.69800 34.28400
H  9.83000 44.98900 35.52700
N  11.69800 48.30400 27.54300
C  12.66900 48.36900 28.48300
C  13.99000 48.51800 27.84300
C  13.79300 48.53700 26.35700
C  12.30900 48.50800 26.28200
C  15.24400 48.40700 28.70000
C  14.75600 48.56200 25.28700
O  14.45000 48.57100 24.10000
C  16.23000 48.39600 25.65300
N  9.18600 48.51600 25.99100
C  10.13500 48.74500 25.03700
C  9.51500 49.13600 23.68300
C  8.06400 48.49100 23.75800
C  7.98400 48.44100 25.34500
C  9.57300 50.68500 23.49000
C  7.95200 47.16400 22.97700
C  6.82700 47.05600 21.88100
N  7.67600 47.65400 28.21100
C  6.64000 47.87700 27.38300
C  5.33300 47.68500 28.09500
C  5.76100 47.27000 29.33400
C  7.19400 47.30400 29.39100
C  4.05300 47.81200 27.51600
C  5.22900 46.89400 30.62200
O  4.10800 46.58000 31.05700
C  6.55100 46.75900 31.58800
C  6.45400 45.35300 32.12400
O  7.13300 44.41000 31.69800
O  5.65500 45.34000 33.20600
C  5.55300 44.18500 34.08200
H  13.20800 48.18800 30.54300
H  12.21200 49.04400 24.30900
H  5.92300 48.34200 25.39600
H  9.09000 48.25400 33.09100
H  11.65600 47.16400 32.55600
H  11.73400 50.03000 31.79900
H  12.51500 49.36000 33.27200
H  10.85100 50.00000 33.28500
H  9.14100 45.40700 32.49100
H  8.46300 46.26100 33.72800
H  10.97600 46.56100 34.66700
H  11.06100 44.92300 33.84800
H  15.88900 47.58600 28.38500
H  15.07400 48.06400 29.72000
H  15.78900 49.35100 28.71000
H  16.39400 49.11300 26.45700
H  16.85600 48.75600 24.83600
H  16.33400 47.34600 25.92500
H  10.08700 48.75300 22.83800
H  7.27800 49.18300 23.45500
H  8.85700 51.10000 22.78100
H  10.55000 50.91300 23.06400
H  9.44500 51.16600 24.45900
H  7.82400 46.40300 23.74700
H  8.88900 46.98300 22.45100
H  5.99900 46.41500 22.18200
H  7.22300 46.69700 20.93100
H  6.37000 48.01800 21.64700
H  3.32800 47.69200 28.32100
H  3.79700 47.00000 26.83700
H  3.98100 48.81700 27.10000
H  6.49100 47.40300 32.46500
H  5.48900 44.62200 35.07900
H  6.29200 43.38400 34.08600
H  4.53900 43.79600 33.99700

