158

Mg -2.20900 16.93400 26.88600
C  -2.91300 14.68100 29.57600
C  -2.59800 19.50600 29.20600
C  -1.97600 19.07500 24.35500
C  -2.46600 14.21400 24.72100
N  -2.91800 17.08900 29.13300
C  -3.00100 16.00000 30.09400
C  -3.07300 16.41300 31.59400
C  -3.00000 17.98900 31.36400
C  -2.85000 18.19400 29.79900
C  -4.14100 18.84700 32.00300
C  -1.79800 15.93300 32.39000
C  -1.31900 16.72500 33.63200
H  -1.16000 15.89800 34.94400
N  -2.30200 18.94200 26.73800
C  -2.39100 19.81700 27.80100
C  -2.21800 21.17100 27.35300
C  -2.13600 21.10000 25.92900
C  -2.16000 19.68700 25.63900
C  -2.15200 22.29500 28.33300
C  -2.04800 22.19500 24.88400
O  -2.12800 22.05200 23.64700
C  -1.86400 23.61000 25.36200
N  -2.20000 16.61900 24.82300
C  -2.03800 17.70100 23.99500
C  -1.98600 17.23400 22.55900
C  -2.06800 15.66000 22.67400
C  -2.26200 15.46000 24.16600
C  -3.07300 17.64800 21.54300
C  -0.90400 14.86200 22.03600
C  -1.22600 13.90100 20.90100
N  -2.49900 14.85100 27.05400
C  -2.59800 13.92900 26.05200
C  -2.91300 12.64600 26.58900
C  -3.00200 12.87600 27.98400
C  -2.75400 14.23600 28.19900
C  -2.89600 11.35300 25.85700
C  -3.29400 12.26700 29.26300
O  -3.64500 11.09800 29.51600
C  -3.06000 13.37900 30.32600
C  -1.90100 12.92300 31.13300
O  -0.73500 13.29300 31.10700
O  -2.46600 11.99300 32.00300
C  -1.60800 11.43800 33.02700
H  -2.62000 20.34300 29.90700
H  -1.75100 19.63900 23.44800
H  -2.71700 13.35600 24.09400
H  -4.00400 16.12600 32.08300
H  -2.04400 18.30900 31.77800
H  -4.83000 18.16600 32.50300
H  -4.45100 19.42100 31.13000
H  -3.64900 19.49700 32.72700
H  -0.94200 15.73700 31.74400
H  -1.98300 14.90200 32.69000
H  -1.95700 17.59000 33.81500
H  -0.31300 17.12300 33.49900
H  -1.53700 23.08500 27.90100
H  -1.57000 22.04100 29.21900
H  -3.11600 22.71900 28.61500
H  -1.78200 24.10800 24.39600
H  -1.00500 23.72200 26.02300
H  -2.73700 24.01900 25.87200
H  -1.04100 17.53400 22.10500
H  -2.99500 15.30800 22.22200
H  -3.12700 18.72000 21.35000
H  -4.01000 17.29900 21.97600
H  -3.00200 17.18600 20.55800
H  -0.42000 14.24700 22.79500
H  -0.22800 15.65300 21.70900
H  -0.99600 12.89700 21.25900
H  -0.53300 14.14300 20.09600
H  -2.20400 14.06400 20.44800
H  -2.73900 10.64600 26.67200
H  -1.99300 11.23000 25.25800
H  -3.73500 11.30000 25.16200
H  -3.99900 13.38100 30.88000
H  -1.67700 10.35300 32.95300
H  -2.14900 11.57600 33.96300
H  -0.56600 11.75800 32.99600
Mg 43.17700 42.46300 25.75700
C  42.39400 44.85500 28.26600
C  44.46500 40.49600 28.24900
C  44.35600 40.39300 23.48800
C  42.21400 44.81100 23.37000
N  43.48000 42.76500 27.94700
C  42.94200 43.72700 28.80600
C  43.19000 43.43900 30.36800
C  44.11400 42.10100 30.27900
C  44.03500 41.76500 28.67500
C  45.50700 42.35100 30.90100
C  41.86800 43.39900 31.16600
C  41.49200 42.32900 32.26100
H  40.86000 42.89300 33.46400
N  44.09500 40.59800 25.83800
C  44.47600 39.93800 27.00500
C  44.86800 38.56900 26.63200
C  44.70600 38.53900 25.20900
C  44.42800 39.85900 24.80500
C  45.30800 37.50400 27.67300
C  44.95400 37.38100 24.22800
O  44.86000 37.46100 22.99900
C  45.18100 36.05000 24.80900
N  43.27700 42.59500 23.74800
C  43.84400 41.57300 23.00700
C  43.76100 41.91000 21.51400
C  42.73000 43.11900 21.49500
C  42.75100 43.56200 22.95000
C  45.09600 42.31500 20.88000
C  41.34000 42.74100 20.91800
C  40.36400 42.08200 21.89200
N  42.48400 44.42600 25.78300
C  42.14500 45.26500 24.74100
C  41.69700 46.52400 25.29400
C  41.78500 46.39800 26.65800
C  42.23600 45.08800 26.88600
C  41.25700 47.68700 24.47300
C  41.54300 47.10000 27.87000
O  41.31800 48.26300 28.10400
C  41.84700 46.12600 28.95100
C  42.88200 46.67800 29.90400
O  44.10800 46.59100 29.69300
O  42.38000 47.16600 31.08900
C  43.36400 47.33000 32.15400
H  44.89500 39.90000 29.05600
H  44.74300 39.72900 22.71200
H  41.91000 45.58400 22.66100
H  43.80200 44.24500 30.77300
H  43.73300 41.21600 30.78800
H  45.71800 43.40900 31.05700
H  46.23500 41.82300 30.28600
H  45.72600 41.89600 31.86700
H  41.00800 43.38300 30.49700
H  41.79200 44.42100 31.53600
H  42.37300 41.74400 32.52600
H  40.85800 41.55700 31.82500
H  45.26800 37.89500 28.69000
H  46.31500 37.17700 27.41500
H  44.66000 36.64700 27.86000
H  45.55400 35.37700 24.03800
H  44.28800 35.69500 25.32500
H  46.04800 36.17600 25.45800
H  43.42100 40.98800 21.04200
H  43.11600 43.99600 20.97500
H  45.73600 42.58700 21.71900
H  44.88800 43.25400 20.36600
H  45.52500 41.51700 20.27300
H  41.54700 42.13000 20.04000
H  41.02100 43.73300 20.60100
H  40.22000 41.10400 21.43200
H  39.42200 42.62800 21.84600
H  40.60100 42.05600 22.95600
H  40.16900 47.67400 24.40800
H  41.60900 47.51500 23.45600
H  41.66300 48.65800 24.75900
H  40.87300 46.03300 29.43000
H  44.04300 46.47800 32.18100
H  42.82800 47.43700 33.09700
H  43.79000 48.33100 32.08300

