158

Mg 36.03000 48.80100 24.71900
C  36.39400 47.06500 27.67000
C  34.91200 51.53200 26.56000
C  35.50400 50.60600 21.85100
C  37.20300 46.07100 22.93400
N  35.82000 49.26200 26.93800
C  35.83500 48.30400 27.92900
C  35.49900 48.91100 29.27400
C  34.78500 50.28200 28.89800
C  35.13300 50.36600 27.34400
C  33.31000 50.36200 29.25700
C  36.82800 49.15800 30.03200
C  36.75300 48.78200 31.50200
H  35.37500 48.81900 32.18400
N  35.29500 50.74500 24.28400
C  34.97800 51.72600 25.20300
C  34.55300 52.89000 24.45900
C  34.74400 52.69200 23.05500
C  35.21300 51.27400 22.98400
C  33.97700 54.14600 25.15400
C  34.38600 53.56100 21.83100
O  34.42000 53.16800 20.65400
C  33.93700 54.97200 22.06800
N  36.11300 48.36300 22.73000
C  35.86700 49.18600 21.69500
C  36.26300 48.55400 20.33900
C  37.01000 47.28200 20.78800
C  36.79100 47.26700 22.28600
C  34.99200 48.35000 19.45700
C  38.46300 47.14800 20.33200
C  39.46900 47.94000 21.20500
N  36.62200 46.90000 25.12600
C  37.10400 45.90200 24.32600
C  37.49500 44.82200 25.18900
C  37.31700 45.18000 26.52600
C  36.76900 46.51600 26.44900
C  38.13100 43.53200 24.78000
C  37.43400 44.78700 27.89400
O  37.77600 43.74300 28.45300
C  36.88500 46.03900 28.66100
C  35.84300 45.52800 29.50800
O  34.72200 45.16700 29.03000
O  36.25700 45.30500 30.77100
C  35.27300 44.59700 31.55700
H  34.55200 52.37800 27.15000
H  35.42500 51.03700 20.85000
H  37.60400 45.20800 22.39900
H  34.77000 48.24700 29.73900
H  35.37200 51.09800 29.32000
H  33.08700 51.28800 29.78700
H  32.86600 49.60100 29.89800
H  32.72800 50.30700 28.33700
H  37.27400 50.14100 29.88700
H  37.54900 48.49200 29.55700
H  37.18000 49.64500 32.01300
H  37.20100 47.83300 31.79600
H  33.38000 53.84300 26.01400
H  33.34000 54.69600 24.46200
H  34.75800 54.79900 25.54200
H  32.93300 55.02300 22.48900
H  33.87000 55.51900 21.12800
H  34.63600 55.48800 22.72600
H  36.95800 49.25500 19.87700
H  36.39400 46.53400 20.28800
H  34.39900 47.49700 19.78700
H  35.16200 48.20500 18.39000
H  34.40200 49.26100 19.55800
H  38.62600 47.57300 19.34200
H  38.61900 46.07000 20.32900
H  40.44000 47.46000 21.32800
H  39.05000 48.07600 22.20200
H  39.61000 48.88700 20.68400
H  37.22300 42.93700 24.68100
H  38.84000 43.12700 25.50200
H  38.67000 43.69700 23.84600
H  37.76900 46.34800 29.21800
H  35.72400 43.98100 32.33600
H  34.71600 43.89400 30.93900
H  34.61400 45.35200 31.98700
Mg -11.87700 16.58600 41.36400
C  -8.70100 15.34600 40.90900
C  -10.89300 19.57000 40.16700
C  -15.25900 17.50400 41.14300
C  -12.96000 13.34300 42.13800
N  -9.93600 17.33100 40.48500
C  -8.78500 16.72600 40.55200
C  -7.59700 17.57900 40.01300
C  -8.25600 19.02900 40.05300
C  -9.83100 18.66400 40.26800
C  -7.72000 20.04300 41.11900
C  -7.07000 17.18000 38.64100
C  -5.61900 17.49800 38.42000
H  -5.10200 18.35800 37.27900
N  -12.94400 18.21400 40.73200
C  -12.34200 19.41800 40.32900
C  -13.36500 20.42300 40.10400
C  -14.63400 19.82900 40.26000
C  -14.34200 18.45400 40.72500
C  -13.02900 21.75500 39.63700
C  -16.02000 20.48300 40.04500
O  -16.02300 21.69200 39.77300
C  -17.29000 19.79200 40.24400
N  -13.82700 15.60100 41.66100
C  -15.02200 16.18500 41.60700
C  -16.14600 15.27800 42.03300
C  -15.43200 13.90800 42.19900
C  -13.94800 14.27500 42.01400
C  -17.01700 15.78200 43.20600
C  -15.86300 12.78300 41.24800
C  -16.56400 11.64600 41.97900
N  -11.01600 14.69700 41.67000
C  -11.59500 13.46700 41.92000
C  -10.49900 12.51700 41.96500
C  -9.35000 13.25600 41.58500
C  -9.75400 14.51500 41.34400
C  -10.66800 11.11300 42.26500
C  -7.97700 13.05000 41.35700
O  -7.24900 12.10600 41.52600
C  -7.43500 14.46700 40.99600
C  -6.45300 14.87700 42.07100
O  -6.70300 15.52300 43.10800
O  -5.18900 14.58800 41.67800
C  -4.14600 15.22700 42.47300
H  -10.60400 20.62000 40.09300
H  -16.33500 17.65800 41.24900
H  -13.24000 12.34200 42.47200
H  -6.82800 17.62200 40.78400
H  -8.15800 19.58500 39.12100
H  -6.99600 20.59500 40.52000
H  -7.23600 19.51000 41.93700
H  -8.44600 20.78200 41.45700
H  -7.67900 17.64900 37.86800
H  -7.25900 16.11200 38.53400
H  -5.09800 16.54000 38.39900
H  -5.24300 17.86300 39.37600
H  -13.72900 22.55400 39.88300
H  -12.92000 21.82600 38.55500
H  -12.14500 22.08700 40.18100
H  -18.07500 20.48300 39.93800
H  -17.53000 19.56300 41.28200
H  -17.39700 18.99100 39.51200
H  -16.69100 15.29600 41.08900
H  -15.48100 13.53100 43.22100
H  -17.09100 16.86200 43.33600
H  -16.74100 15.36200 44.17300
H  -18.06000 15.55800 42.98200
H  -14.94300 12.43900 40.77400
H  -16.63600 13.19200 40.59700
H  -16.44900 11.54800 43.05900
H  -16.27200 10.74600 41.43800
H  -17.64600 11.65000 41.84200
H  -9.70300 10.65800 42.03800
H  -11.47800 10.84100 41.58900
H  -11.06400 10.92100 43.26200
H  -6.99500 14.28800 40.01500
H  -3.19300 15.00200 41.99400
H  -4.05500 14.86500 43.49700
H  -4.34100 16.28600 42.64600

