158

Mg 54.64900 24.58600 45.02100
C  51.83000 26.47900 44.03300
C  52.91800 21.80900 43.77400
C  57.47100 22.73200 45.16900
C  56.36600 27.41900 45.76700
N  52.68600 24.26200 43.91600
C  51.64100 25.13900 43.69400
C  50.36900 24.45200 43.18900
C  50.72500 22.92600 43.45600
C  52.26700 23.04000 43.67600
C  49.86100 22.28600 44.54600
C  50.00900 24.76400 41.73100
C  48.53000 24.67400 41.52700
H  48.17800 24.38400 40.09200
N  55.18400 22.52300 44.63800
C  54.23900 21.54800 44.17200
C  54.86600 20.29500 44.18000
C  56.27700 20.45200 44.43000
C  56.36300 21.93900 44.81800
C  54.06800 19.04000 44.03400
C  57.27500 19.43300 44.40300
O  57.04500 18.35000 43.92500
C  58.65600 19.71200 44.93400
N  56.62300 25.05400 45.19900
C  57.63500 24.13100 45.33400
C  59.00800 24.76100 45.72600
C  58.56800 26.20900 46.03800
C  57.07200 26.26600 45.61600
C  59.69400 23.95900 46.93300
C  59.38600 27.25700 45.20600
C  59.94500 28.40200 46.05600
N  54.17200 26.53700 45.16600
C  54.96400 27.59600 45.50100
C  54.15800 28.81200 45.58000
C  52.90500 28.36700 45.06100
C  52.96600 27.01100 44.74900
C  54.65000 30.11900 45.96900
C  51.60700 28.90200 44.61300
O  51.23400 30.06800 44.61300
C  50.94100 27.68000 43.90800
C  50.70800 28.13600 42.53700
O  51.57400 28.32200 41.66100
O  49.38000 28.44400 42.36200
C  48.98900 28.93200 41.06000
H  52.27900 20.93900 43.61300
H  58.44600 22.24800 45.25300
H  56.99500 28.30800 45.84400
H  49.47200 24.85200 43.66200
H  50.70500 22.36600 42.52000
H  49.37100 21.45000 44.04700
H  49.03000 22.84900 44.97200
H  50.54100 21.98000 45.34100
H  50.48800 23.96200 41.16900
H  50.25100 25.78700 41.44400
H  48.28100 25.71700 41.72600
H  48.01700 24.03300 42.24300
H  53.44100 19.02000 43.14300
H  53.29400 18.98800 44.79900
H  54.55800 18.07500 44.16600
H  59.05500 20.46000 44.24900
H  59.13300 18.73200 44.90600
H  58.63100 20.07200 45.96300
H  59.55100 24.70100 44.78300
H  58.63900 26.28000 47.12400
H  60.58200 23.46300 46.54200
H  58.96800 23.26700 47.36000
H  60.07500 24.60100 47.72700
H  58.73400 27.83100 44.54700
H  60.11600 26.76400 44.56400
H  59.66900 28.26200 47.10100
H  59.63900 29.38800 45.70800
H  61.02500 28.29300 45.96300
H  55.65200 30.30200 45.57900
H  54.67800 30.24800 47.05100
H  54.01700 30.90800 45.56200
H  49.96600 27.43700 44.33000
H  48.09900 29.55300 40.95700
H  48.71200 28.02600 40.52000
H  49.81500 29.32800 40.46900
Mg 31.24900 57.51400 38.63000
C  28.47400 55.45600 37.60700
C  33.24900 54.70900 38.00400
C  33.88400 59.50000 38.91800
C  29.12800 60.19000 38.73100
N  30.87300 55.35300 37.67200
C  29.68700 54.73200 37.56700
C  29.79300 53.24900 37.25900
C  31.32800 53.00400 37.56700
C  31.83400 54.41100 37.82000
C  31.62400 51.98900 38.64500
C  29.28000 52.70400 35.93100
C  29.68700 53.52000 34.67500
H  28.63000 54.08500 33.76900
N  33.33000 57.12600 38.62700
C  33.91200 55.96600 38.31000
C  35.35300 56.20000 38.11400
C  35.62500 57.59900 38.34600
C  34.25700 58.15300 38.63800
C  36.41800 55.14300 37.84500
C  36.96700 58.31100 38.22600
O  38.03700 57.77700 37.81300
C  37.11900 59.71800 38.78800
N  31.39800 59.53700 38.79200
C  32.66400 60.13300 38.96000
C  32.48000 61.61200 39.23600
C  30.91100 61.90600 39.26400
C  30.39700 60.48000 38.90900
C  33.30400 62.42000 40.32700
C  30.46100 63.00300 38.31900
C  29.78600 64.18700 38.97300
N  29.21200 57.85600 38.23200
C  28.46500 58.99000 38.45200
C  27.04500 58.73700 38.30000
C  27.05400 57.36300 37.96900
C  28.37400 56.88100 37.88100
C  25.87100 59.59700 38.54100
C  26.17500 56.27200 37.59500
O  24.99600 56.32900 37.41600
C  27.07000 54.99600 37.48200
C  26.55200 54.06700 38.48800
O  27.24000 53.74800 39.41800
O  25.44900 53.43900 37.95800
C  25.02800 52.18600 38.59200
H  33.96500 53.89500 37.87400
H  34.70400 60.21900 38.86600
H  28.46000 61.03600 38.90300
H  29.26200 52.77200 38.08300
H  31.79600 52.67800 36.63900
H  32.01100 52.51500 39.51800
H  32.34300 51.30700 38.19000
H  30.70200 51.47900 38.92700
H  28.20600 52.79000 36.09700
H  29.62600 51.67300 35.86300
H  30.25700 52.84700 34.03600
H  30.22600 54.43300 34.93000
H  37.12800 55.40000 37.05900
H  35.96400 54.24900 37.41700
H  37.02400 54.90000 38.71800
H  36.55300 59.81000 39.71500
H  36.71600 60.29600 37.95600
H  38.13900 60.01600 39.02900
H  32.95900 61.97800 38.32700
H  30.67800 62.04600 40.31900
H  33.76300 63.32000 39.91800
H  34.11300 61.85500 40.78900
H  32.62000 62.85500 41.05700
H  29.79800 62.45000 37.65300
H  31.33000 63.38700 37.78500
H  30.53800 64.97100 38.88000
H  29.58800 64.06800 40.03800
H  28.86600 64.37300 38.41900
H  24.96500 58.99200 38.54200
H  25.86500 60.48000 37.90100
H  26.10900 60.03100 39.51200
H  26.92400 54.59100 36.48100
H  25.19200 52.06200 39.66200
H  25.34400 51.33200 37.99300
H  23.96600 52.02900 38.40400

