158

Mg 6.46700 54.55900 40.43900
C  5.73700 51.09000 40.14600
C  9.66900 53.86900 39.96500
C  6.83300 57.59600 39.49400
C  2.98300 54.98500 40.90700
N  7.48200 52.75400 39.93200
C  7.04900 51.43400 39.92600
C  8.24200 50.42700 39.63100
C  9.38600 51.41100 40.05700
C  8.85200 52.77400 40.06200
C  9.98900 51.05900 41.48400
C  8.26700 49.95200 38.19300
C  8.01600 50.99300 37.09700
H  6.84100 50.65900 36.09800
N  8.15800 55.66500 39.99900
C  9.41900 55.26800 39.90400
C  10.28600 56.32800 39.64700
C  9.43800 57.50900 39.32400
C  8.05800 56.96500 39.56400
C  11.85600 56.26400 39.58900
C  9.90500 58.94400 38.98100
O  11.06900 59.25100 38.93900
C  8.97800 60.09600 38.95000
N  5.07400 56.06000 40.18000
C  5.52900 57.27000 39.81100
C  4.27400 58.27500 39.58900
C  3.09400 57.47400 40.17800
C  3.66400 56.07200 40.36200
C  4.51500 59.54500 40.49800
C  1.78800 57.47300 39.26900
C  0.43600 57.84900 39.84700
N  4.67900 53.30200 40.54600
C  3.43500 53.62500 40.92100
C  2.67600 52.47200 41.25200
C  3.53300 51.40300 40.84000
C  4.72800 51.98400 40.42600
C  1.23900 52.48100 41.65000
C  3.66500 49.91100 40.82100
O  2.96800 49.00600 41.28900
C  5.09900 49.73500 40.32800
C  5.02300 48.93500 38.99600
O  4.59800 49.45300 37.96000
O  5.37300 47.66500 39.20600
C  5.40000 46.89900 37.99000
H  10.71700 53.56800 40.02800
H  6.93000 58.60200 39.08000
H  1.97900 55.23900 41.25100
H  8.12300 49.60900 40.34200
H  10.27100 51.35100 39.42400
H  10.94700 50.58500 41.27400
H  9.35900 50.35100 42.02300
H  10.09700 51.89200 42.17900
H  7.58100 49.11500 38.06600
H  9.28500 49.65500 37.93900
H  8.91200 51.17300 36.50300
H  7.76400 51.93900 37.57600
H  12.25700 56.23100 38.57600
H  12.20400 55.40300 40.15800
H  12.36800 56.97000 40.24300
H  9.52200 60.99800 39.23100
H  8.19000 60.07100 39.70200
H  8.58200 60.14700 37.93600
H  4.22900 58.49100 38.52200
H  2.77700 57.83700 41.15600
H  4.16500 60.40600 39.92800
H  5.53200 59.60100 40.88600
H  3.93100 59.50900 41.41800
H  1.56100 56.43100 39.04100
H  1.92500 58.07500 38.37100
H  -0.38300 57.13200 39.79700
H  0.09100 58.66500 39.21200
H  0.61600 58.09200 40.89400
H  1.12000 53.32100 42.33400
H  0.90300 51.66100 42.28500
H  0.55600 52.64000 40.81600
H  5.59700 49.05300 41.01700
H  5.76500 47.49900 37.15800
H  4.36500 46.60100 37.82400
H  5.96700 45.97800 38.13300
Mg 0.71300 43.18100 26.29500
C  2.98100 43.75700 28.75400
C  -1.65700 42.66500 28.53100
C  -1.21200 42.32600 23.72000
C  3.49000 43.37700 23.93900
N  0.72000 42.91500 28.43100
C  1.76400 43.38400 29.27000
C  1.26500 43.36000 30.75100
C  -0.14700 42.74100 30.55500
C  -0.42700 42.82400 29.06800
C  -0.58200 41.38900 31.16200
C  1.22900 44.79600 31.39800
C  1.24200 44.80200 32.93200
H  0.98700 43.46400 33.65900
N  -1.23900 42.71400 26.17100
C  -2.06800 42.50800 27.20600
C  -3.41200 42.30700 26.62100
C  -3.28700 42.28600 25.18200
C  -1.89600 42.45200 24.93800
C  -4.65100 42.23800 27.43200
C  -4.41100 41.99700 24.08300
O  -4.17000 42.11300 22.90500
C  -5.90200 41.75400 24.35500
N  1.15800 42.84600 24.17600
C  0.14500 42.48600 23.37200
C  0.64300 42.26600 21.87700
C  2.03400 43.05700 21.93200
C  2.25800 43.10000 23.46500
C  0.78000 40.73400 21.43800
C  1.90300 44.48200 21.28300
C  2.91700 44.93600 20.21200
N  2.76000 43.54200 26.30100
C  3.79500 43.67200 25.31400
C  5.03000 44.08200 25.97400
C  4.76200 44.09000 27.35300
C  3.39800 43.74800 27.47400
C  6.27500 44.36600 25.32000
C  5.36900 44.30900 28.58100
O  6.57300 44.49900 28.89300
C  4.14300 44.14100 29.57000
C  4.64800 43.13600 30.57900
O  4.49700 41.96200 30.65400
O  4.97700 43.92500 31.71400
C  5.13000 43.28200 32.98200
H  -2.47400 42.57600 29.25000
H  -1.85800 42.12900 22.86200
H  4.34600 43.49300 23.27000
H  1.91100 42.75000 31.38200
H  -0.87700 43.40600 31.01800
H  0.21900 40.78900 31.59500
H  -1.08200 40.76400 30.42200
H  -1.31400 41.54400 31.95600
H  0.26000 45.23000 31.15200
H  2.00800 45.50000 31.10200
H  0.50700 45.53100 33.27200
H  2.18000 45.23400 33.28000
H  -5.07100 43.24400 27.42300
H  -4.41800 41.99300 28.46800
H  -5.34700 41.51700 27.00400
H  -6.44000 41.70500 23.40900
H  -6.33600 42.52100 24.99800
H  -5.84700 40.82900 24.92900
H  -0.07300 42.72400 21.19600
H  2.66200 42.41900 21.31200
H  0.39900 40.10500 22.24300
H  1.84100 40.48800 21.40200
H  0.17700 40.43000 20.58300
H  1.94300 45.19300 22.10800
H  0.91700 44.67600 20.86000
H  3.60000 44.15800 19.87200
H  3.61100 45.70900 20.54200
H  2.35900 45.29700 19.34800
H  6.79300 43.45800 25.01000
H  7.00000 44.88000 25.95100
H  6.08400 45.03700 24.48300
H  3.91600 45.15100 29.90900
H  6.02000 42.65500 32.93700
H  4.35700 42.58100 33.29900
H  5.32700 44.02000 33.76100

