158

Mg 34.87400 1.95100 29.30000
C  33.00500 3.21400 31.94700
C  37.66500 2.03300 31.50700
C  36.90500 1.41800 26.75300
C  32.30900 2.80700 27.09100
N  35.19800 2.40300 31.52500
C  34.29000 2.89200 32.42100
C  34.90800 3.09100 33.85200
C  36.40600 2.73900 33.61200
C  36.46000 2.36000 32.11300
C  37.40800 3.84500 34.07500
C  34.18800 2.19800 34.92300
C  33.71500 2.78900 36.18600
H  34.59300 3.81900 36.91000
N  36.95300 1.46600 29.20600
C  37.88700 1.58900 30.18400
C  39.06500 1.10400 29.68100
C  38.94400 0.84100 28.31400
C  37.53600 1.26000 28.00900
C  40.27500 1.10900 30.54300
C  39.91300 0.35200 27.32700
O  39.68700 0.20200 26.13900
C  41.37700 0.11400 27.75900
N  34.66500 2.05800 27.20800
C  35.64100 1.77000 26.35100
C  35.19700 2.13300 24.92700
C  33.65900 2.19600 25.03800
C  33.48200 2.33800 26.52100
C  36.01500 3.27300 24.21400
C  32.84900 1.02800 24.36000
C  32.75900 -0.26000 25.24900
N  33.06600 2.93600 29.39300
C  32.12400 3.19400 28.45600
C  30.98600 3.84800 29.04200
C  31.27100 3.85100 30.41300
C  32.60500 3.33800 30.58400
C  29.75500 4.22800 28.36100
C  30.74600 4.13400 31.67900
O  29.67500 4.65400 32.05500
C  31.94300 3.87200 32.70300
C  32.32900 5.14200 33.41900
O  33.10000 5.94900 32.92100
O  31.72200 5.30900 34.63700
C  31.89300 6.69400 35.12200
H  38.48100 2.11800 32.22800
H  37.47300 1.37300 25.82100
H  31.48600 2.96200 26.39100
H  34.88200 4.14500 34.12900
H  36.78500 1.88500 34.17300
H  37.99100 4.18400 33.21800
H  38.01700 3.33300 34.82000
H  36.83000 4.71100 34.39700
H  34.68300 1.26400 35.19100
H  33.22500 1.98100 34.46200
H  33.53600 2.02800 36.94600
H  32.75100 3.26800 36.01400
H  40.42500 2.04300 31.08400
H  41.25400 0.86000 30.13200
H  40.22700 0.30300 31.27500
H  41.29900 -0.76100 28.40400
H  41.70600 1.07700 28.15000
H  41.97900 -0.13300 26.88500
H  35.42400 1.21000 24.39400
H  33.16900 3.07900 24.62700
H  36.53800 2.90000 23.33300
H  36.78200 3.65100 24.89000
H  35.27100 3.98200 23.85200
H  33.32100 0.61300 23.47000
H  31.83300 1.32300 24.09700
H  33.05200 -1.15000 24.69200
H  31.75200 -0.45900 25.61600
H  33.45600 -0.15300 26.08100
H  29.17000 3.32700 28.17800
H  29.94500 4.78400 27.44400
H  29.20900 4.88200 29.04100
H  31.60400 3.13100 33.42700
H  32.05900 7.46100 34.36600
H  32.68300 6.60800 35.86800
H  31.06600 6.92400 35.79400
Mg 47.13600 16.43800 28.75000
C  45.23500 16.29000 31.71700
C  49.24900 18.46900 30.27900
C  48.54700 17.01000 25.65800
C  44.34800 15.20800 26.99500
N  47.21000 17.28800 30.79100
C  46.44500 16.95600 31.92800
C  47.05700 17.58300 33.09800
C  48.19400 18.50300 32.59500
C  48.25000 18.03400 31.12700
C  48.17100 20.07900 32.83000
C  47.44700 16.53700 34.20500
C  47.16000 16.92400 35.68500
H  47.21300 18.47000 36.20200
N  48.76700 17.38500 28.09000
C  49.55500 18.16600 28.92400
C  50.71200 18.64900 28.18900
C  50.60000 18.06900 26.87100
C  49.25900 17.41400 26.79100
C  51.79100 19.49900 28.74500
C  51.67800 18.07300 25.71100
O  51.48100 17.60500 24.62400
C  52.97500 18.84800 25.90200
N  46.58900 16.08000 26.58700
C  47.34600 16.43000 25.55300
C  46.55800 16.24900 24.25200
C  45.28500 15.43700 24.66300
C  45.43400 15.61500 26.17100
C  46.31300 17.72300 23.68100
C  45.27600 13.85900 24.22500
C  44.30500 13.53800 23.07900
N  45.26100 15.71700 29.15500
C  44.30200 15.18600 28.41500
C  43.17300 14.73000 29.28600
C  43.53700 15.24300 30.52300
C  44.76800 15.80400 30.48900
C  41.84100 14.05600 28.79800
C  43.02900 15.31200 31.83800
O  41.96900 14.96800 32.29700
C  44.16900 15.87300 32.68500
C  43.53100 16.95400 33.52600
O  42.90100 17.92600 33.13100
O  43.81100 16.69400 34.85600
C  43.26000 17.58500 35.91700
H  49.89200 19.10700 30.88900
H  49.09500 17.13500 24.72200
H  43.52000 14.85100 26.37800
H  46.35100 18.20100 33.65300
H  49.12700 18.10900 32.99800
H  47.91800 20.54500 31.87800
H  49.07700 20.48900 33.27600
H  47.40600 20.24300 33.58900
H  48.52500 16.38300 34.27100
H  47.05500 15.54700 33.97300
H  47.83400 16.35600 36.32500
H  46.16700 16.52800 35.89800
H  51.58100 19.68400 29.79900
H  51.67900 20.39200 28.13000
H  52.76100 19.02700 28.58800
H  52.80200 19.81500 26.37500
H  53.44400 18.96000 24.92500
H  53.52800 18.11600 26.49100
H  47.27800 15.73800 23.61300
H  44.33900 15.92100 24.41900
H  45.28700 17.70700 23.31600
H  47.01200 17.96900 22.88100
H  46.30600 18.42700 24.51300
H  45.16000 13.31300 25.16100
H  46.30000 13.61300 23.94700
H  43.96000 14.43500 22.56500
H  43.37000 13.11100 23.44000
H  44.73300 12.83200 22.36800
H  42.10500 13.00300 28.70000
H  41.34600 14.51700 27.94400
H  41.19600 14.16200 29.67000
H  44.55900 15.15000 33.40200
H  42.17300 17.51800 35.92100
H  43.66800 18.56600 35.67200
H  43.66100 17.37700 36.91000

