158

Mg 26.86600 49.31100 26.42800
C  24.80500 50.08600 29.03500
C  29.29400 48.45600 28.76500
C  29.24100 49.20100 23.91000
C  24.59300 50.36600 24.12400
N  27.00200 49.33700 28.71100
C  26.03700 49.61400 29.52700
C  26.27000 49.36700 30.95400
C  27.74400 48.73600 30.83800
C  28.04000 48.84000 29.33000
C  28.87900 49.47100 31.71600
C  25.18700 48.51600 31.76000
C  25.62500 47.92700 33.09700
H  25.77700 48.89100 34.27400
N  28.92900 48.84500 26.38300
C  29.72200 48.40400 27.40900
C  31.06700 48.03100 26.84800
C  31.03700 48.24000 25.42600
C  29.69400 48.82000 25.18100
C  32.22400 47.59200 27.70800
C  32.11600 47.95300 24.43700
O  31.96700 48.06800 23.23200
C  33.40800 47.30900 24.78200
N  26.86800 49.69200 24.32900
C  27.92200 49.50200 23.47300
C  27.52300 49.66500 21.98500
C  26.02700 49.70600 22.06100
C  25.76500 49.90000 23.56700
C  28.16700 50.89200 21.21200
C  25.23700 48.54300 21.58100
C  23.73600 48.55800 21.38600
N  25.08100 50.14000 26.50400
C  24.26400 50.61700 25.49200
C  23.11800 51.16900 26.07800
C  23.25700 50.91700 27.48600
C  24.50200 50.36200 27.66500
C  21.94200 51.82200 25.40800
C  22.61800 51.06300 28.74000
O  21.49100 51.56800 28.87500
C  23.54300 50.53300 29.84100
C  23.88900 51.54600 30.82900
O  24.83900 52.30600 30.80200
O  22.93700 51.60500 31.79700
C  23.29300 52.56600 32.94900
H  30.05700 47.98100 29.38500
H  29.94900 49.09200 23.08700
H  23.79400 50.60000 23.41800
H  26.17900 50.27300 31.55300
H  27.64000 47.67400 31.05800
H  29.58600 48.81100 32.21900
H  28.49700 50.07400 32.54000
H  29.47500 50.16000 31.11800
H  24.83900 47.66900 31.17000
H  24.31200 49.12000 32.00100
H  26.54900 47.34900 33.09000
H  24.88900 47.22000 33.47900
H  32.19400 46.50300 27.72200
H  32.18600 47.99900 28.71800
H  33.12700 47.98800 27.24400
H  34.00700 48.11700 25.20400
H  33.99000 46.94300 23.93600
H  33.28200 46.44700 25.43600
H  27.84100 48.72400 21.53600
H  25.58800 50.58300 21.58500
H  29.01800 51.26600 21.78100
H  27.41400 51.64500 20.97800
H  28.80000 50.52000 20.40600
H  25.52100 47.69000 22.19800
H  25.58500 48.23600 20.59500
H  23.29800 49.55000 21.49300
H  23.33300 47.95700 22.20200
H  23.47800 48.11700 20.42300
H  21.91400 52.81300 25.86100
H  20.99100 51.30300 25.28900
H  22.17000 52.01700 24.36000
H  23.08000 49.66800 30.31600
H  23.10200 53.58200 32.60200
H  24.31000 52.46500 33.32700
H  22.51400 52.52000 33.71000
Mg 0.79500 42.10000 26.45200
C  2.28100 42.23600 29.50200
C  -2.23100 41.43700 28.11000
C  -0.68600 41.68000 23.46500
C  3.86300 42.70400 24.94500
N  0.15400 41.83000 28.59800
C  0.89100 42.04200 29.68000
C  0.05200 42.02100 30.92600
C  -1.39400 41.61300 30.56700
C  -1.16400 41.62000 29.01300
C  -1.96900 40.31200 31.26500
C  0.14000 43.39300 31.79500
C  0.07500 43.38300 33.35100
H  -0.35400 42.01200 34.09500
N  -1.09200 41.42300 25.92900
C  -2.18900 41.28900 26.68300
C  -3.27700 40.82400 25.87400
C  -2.90500 41.01000 24.52900
C  -1.50500 41.42800 24.58400
C  -4.63000 40.36000 26.42400
C  -3.79400 40.80600 23.22800
O  -3.36600 40.86700 22.08700
C  -5.23800 40.37200 23.41300
N  1.45700 42.29800 24.50400
C  0.69500 41.98700 23.43600
C  1.32800 42.16500 22.09900
C  2.74700 42.49700 22.51300
C  2.73500 42.62000 24.07900
C  1.24200 40.90500 21.16200
C  3.44700 43.62200 21.76700
C  3.29500 43.63300 20.20700
N  2.72900 42.44300 27.05900
C  3.93600 42.71000 26.35600
C  5.06400 42.77800 27.21400
C  4.41400 42.53200 28.50900
C  3.03200 42.39000 28.32000
C  6.47900 42.86500 26.88700
C  4.71000 42.34900 29.91600
O  5.77200 42.29500 30.51400
C  3.29700 42.27000 30.66900
C  3.37900 41.06600 31.48500
O  3.16100 39.94000 31.13700
O  3.90400 41.36200 32.78700
C  4.17800 40.25300 33.74200
H  -3.22900 41.29100 28.53000
H  -1.24900 41.56800 22.53700
H  4.82400 42.96100 24.49300
H  0.53200 41.17300 31.41400
H  -2.06500 42.45700 30.72900
H  -2.93600 40.61200 31.67000
H  -1.34800 39.96000 32.08900
H  -2.25000 39.62800 30.46500
H  -0.69600 43.98400 31.42100
H  1.09000 43.86600 31.54200
H  -0.69800 44.12500 33.55000
H  1.05200 43.71600 33.70400
H  -5.06000 39.43600 26.03700
H  -5.31100 41.20900 26.36100
H  -4.57300 40.20400 27.50100
H  -5.69900 41.06200 24.12000
H  -5.32900 39.31300 23.65500
H  -5.84100 40.51100 22.51500
H  1.04600 43.13000 21.67800
H  3.43200 41.69600 22.23500
H  0.68500 41.26200 20.29500
H  0.59700 40.21200 21.70200
H  2.16200 40.36600 20.93500
H  4.50100 43.58000 22.04100
H  2.93200 44.46200 22.23100
H  3.08000 44.64600 19.87000
H  2.42300 43.04000 19.93000
H  4.15000 43.24600 19.65400
H  6.86600 41.85100 26.78900
H  7.03300 43.32100 27.70800
H  6.59600 43.41900 25.95600
H  3.18800 43.14900 31.30600
H  5.25600 40.13200 33.84700
H  3.59300 39.35700 33.53200
H  3.72500 40.73400 34.60900

