158

Mg -2.16900 17.63300 27.06200
C  -2.39600 15.21700 29.74300
C  -2.72500 20.04400 29.47300
C  -2.46100 19.87400 24.52600
C  -1.99400 14.97800 24.86700
N  -2.76000 17.65500 29.40100
C  -2.63300 16.56600 30.26500
C  -2.71900 16.90200 31.71700
C  -2.73900 18.46900 31.54500
C  -2.79900 18.77800 30.05900
C  -3.82300 19.30800 32.37100
C  -1.59600 16.34600 32.69900
C  -1.18400 17.23800 33.94300
H  -1.01500 16.57200 35.36000
N  -2.38800 19.66300 26.97800
C  -2.54500 20.45700 28.08700
C  -2.49900 21.84500 27.66800
C  -2.39700 21.83600 26.26100
C  -2.44200 20.38100 25.88500
C  -2.40800 23.02900 28.65000
C  -2.36600 23.03500 25.21100
O  -2.22500 22.87400 24.01200
C  -2.06600 24.37600 25.75600
N  -2.22600 17.42400 24.95100
C  -2.26200 18.54300 24.08200
C  -2.12800 18.08600 22.60900
C  -1.74900 16.56200 22.76300
C  -2.00900 16.29400 24.23900
C  -3.44900 18.32900 21.77900
C  -0.30900 16.28500 22.39900
C  0.79000 16.60500 23.40600
N  -2.20900 15.48700 27.18000
C  -2.12200 14.55200 26.16400
C  -2.02900 13.22400 26.72400
C  -2.12200 13.41500 28.10800
C  -2.34400 14.80500 28.34600
C  -1.81800 11.98000 26.00400
C  -2.12000 12.77500 29.34200
O  -1.95100 11.56700 29.61000
C  -2.20400 13.86200 30.45100
C  -0.91800 13.65000 31.16400
O  0.17800 14.02600 30.87000
O  -1.18000 12.98600 32.35800
C  -0.08800 12.71600 33.27400
H  -2.69600 20.82200 30.23900
H  -2.50200 20.54200 23.66300
H  -1.83000 14.12900 24.20000
H  -3.64100 16.50900 32.14500
H  -1.76500 18.82200 31.88300
H  -3.16200 19.99200 32.90300
H  -4.23700 18.63900 33.12500
H  -4.48300 19.79000 31.64800
H  -0.75500 16.15900 32.03100
H  -1.84600 15.35900 33.08900
H  -2.07800 17.86000 33.99700
H  -0.33900 17.89500 33.73700
H  -2.35700 22.64500 29.66800
H  -3.30800 23.64000 28.57300
H  -1.50200 23.56900 28.37400
H  -1.09900 24.47300 26.25000
H  -2.86900 24.68000 26.42700
H  -1.98700 25.02500 24.88300
H  -1.19400 18.50300 22.23300
H  -2.38500 15.99000 22.08800
H  -3.80100 19.31500 22.08200
H  -4.22900 17.57400 21.87400
H  -3.28300 18.41100 20.70500
H  -0.16900 17.00300 21.59100
H  -0.20100 15.29800 21.95000
H  0.41700 16.96400 24.36600
H  1.54400 17.25100 22.95500
H  1.45400 15.77300 23.64000
H  -1.33200 12.30700 25.08500
H  -2.72400 11.41000 25.79800
H  -1.04800 11.46100 26.57600
H  -3.03600 13.60800 31.10700
H  0.72200 12.25900 32.70600
H  -0.56900 12.07400 34.01200
H  0.24000 13.59000 33.83700
Mg 29.29900 58.30300 40.20600
C  27.59700 55.30900 39.44800
C  32.24800 56.69600 39.51300
C  30.76700 61.17400 40.60900
C  26.07500 59.90300 40.22200
N  29.81600 56.30400 39.41800
C  28.94000 55.20100 39.24300
C  29.72300 54.00000 38.58400
C  31.18700 54.47900 38.77900
C  31.10100 55.92400 39.29400
C  32.14300 53.53500 39.55400
C  29.19700 53.72400 37.08900
C  29.14300 54.94000 36.11100
H  27.82100 55.50800 35.64500
N  31.27100 58.90700 40.18700
C  32.31700 58.09100 39.92700
C  33.50000 58.92700 39.93600
C  33.14900 60.25600 40.19000
C  31.66700 60.17200 40.34800
C  34.90000 58.42600 39.58400
C  34.10600 61.49800 40.21200
O  35.27400 61.34700 40.06500
C  33.63400 62.91200 40.39200
N  28.55500 60.21000 40.18800
C  29.40000 61.17300 40.55900
C  28.66100 62.46300 40.91800
C  27.24700 62.18600 40.30400
C  27.27500 60.63300 40.28300
C  28.73000 62.90200 42.46300
C  26.92900 62.76800 38.86600
C  25.48700 63.25600 38.61000
N  27.14800 57.74200 39.85700
C  25.99700 58.48700 40.03500
C  24.85100 57.57900 40.00500
C  25.39100 56.28500 39.86300
C  26.80300 56.45400 39.71400
C  23.41600 57.88100 40.34500
C  25.12900 54.89600 39.74400
O  24.11100 54.24200 39.81400
C  26.54100 54.16000 39.47700
C  26.89200 53.24600 40.59600
O  27.09000 52.07900 40.48100
O  27.05900 53.96500 41.72500
C  27.66700 53.27000 42.85300
H  33.22200 56.20500 39.44400
H  31.21600 62.13100 40.88100
H  25.15700 60.49500 40.21900
H  29.56000 53.11400 39.19800
H  31.58800 54.46300 37.76500
H  31.73400 52.52500 39.58600
H  32.17400 53.99600 40.54100
H  33.19300 53.55500 39.26100
H  28.25400 53.18000 37.03600
H  29.88900 52.93500 36.79400
H  29.77300 54.73700 35.24500
H  29.59300 55.83700 36.53900
H  35.27600 59.03000 38.75800
H  34.97900 57.34600 39.46000
H  35.50400 58.78000 40.42000
H  33.37600 62.99100 41.44800
H  32.90600 63.05200 39.59300
H  34.44500 63.61800 40.21100
H  29.14000 63.23500 40.31600
H  26.45200 62.44600 41.00200
H  27.72000 63.15500 42.78400
H  29.28800 63.82700 42.60400
H  28.94500 62.04300 43.10000
H  27.31800 62.00500 38.19200
H  27.56000 63.65000 38.75800
H  25.06400 62.62800 37.82600
H  25.51200 64.25500 38.17400
H  24.85000 63.30500 39.49300
H  22.76900 57.67500 39.49200
H  23.18500 58.86700 40.74800
H  23.15300 57.23300 41.18100
H  26.38300 53.55900 38.58200
H  27.41000 52.23700 43.08900
H  27.46100 53.70500 43.83100
H  28.74600 53.25800 42.69800

