158

Mg 16.88100 -1.24900 28.24800
C  15.60100 0.71300 30.86500
C  18.86800 -2.93300 30.50700
C  18.11600 -3.16400 25.67800
C  15.18500 0.75600 26.01700
N  17.23500 -1.11600 30.40500
C  16.55200 -0.25800 31.25800
C  17.03300 -0.54600 32.69300
C  18.21400 -1.48800 32.58100
C  18.15600 -1.84900 31.07100
C  19.68700 -0.97100 32.82400
C  15.87200 -0.99500 33.65300
C  16.06200 -0.60200 35.13800
H  17.34400 0.23300 35.56000
N  18.14600 -2.85000 28.11100
C  18.76600 -3.42500 29.20300
C  19.53200 -4.59400 28.73900
C  19.31600 -4.78500 27.32200
C  18.53600 -3.55300 26.98200
C  20.33400 -5.35900 29.84800
C  19.73200 -5.89900 26.36900
O  19.55200 -5.89200 25.15100
C  20.44300 -7.03100 26.85700
N  16.77400 -1.12300 26.13700
C  17.31100 -2.11200 25.33900
C  16.91300 -1.78500 23.92400
C  15.86200 -0.65600 24.02800
C  15.90800 -0.27900 25.47900
C  18.15700 -1.54500 23.04900
C  14.44800 -1.11100 23.64000
C  13.83400 -0.32600 22.44300
N  15.59500 0.37600 28.37600
C  15.05300 1.07600 27.41600
C  14.27600 2.15000 27.96600
C  14.45000 1.99200 29.33500
C  15.31500 0.94400 29.54800
C  13.47900 3.03100 27.23900
C  14.05000 2.58200 30.54100
O  13.22800 3.49300 30.72200
C  14.89600 1.79100 31.72800
C  15.80500 2.87500 32.49900
O  16.67500 3.55700 31.94900
O  15.51000 2.98100 33.82800
C  16.25900 4.11700 34.39100
H  19.45400 -3.42600 31.28600
H  18.52500 -3.70900 24.82500
H  14.62800 1.39400 25.32900
H  17.51500 0.38200 33.00000
H  18.20300 -2.32900 33.27400
H  20.21000 -1.79700 33.30700
H  19.74900 -0.09900 33.47400
H  20.17900 -0.72600 31.88200
H  15.90100 -2.08100 33.56400
H  14.92400 -0.66000 33.23200
H  16.06000 -1.49300 35.76600
H  15.11900 -0.08900 35.33000
H  19.67600 -5.35000 30.71700
H  21.16800 -4.79100 30.26000
H  20.60100 -6.38800 29.60900
H  20.90600 -7.56400 26.02600
H  19.73700 -7.73400 27.29800
H  21.20300 -6.72200 27.57500
H  16.34300 -2.63300 23.54300
H  16.15800 0.22200 23.45400
H  18.28000 -0.46900 22.93000
H  18.03300 -2.10200 22.12000
H  19.09700 -1.91300 23.46100
H  13.87700 -1.02500 24.56500
H  14.40200 -2.19200 23.50500
H  14.40800 0.59100 22.31200
H  12.79500 -0.17000 22.73000
H  13.82400 -0.94800 21.54700
H  12.45500 2.65800 27.22400
H  13.84100 3.27100 26.23900
H  13.57800 3.91400 27.87100
H  14.18400 1.24300 32.34600
H  16.10600 4.16000 35.46900
H  15.86200 4.96600 33.83400
H  17.33300 4.04000 34.22300
Mg 1.29700 42.72700 25.29100
C  2.79600 42.70000 28.61000
C  -1.60500 41.97200 26.84900
C  0.08700 42.05700 22.24300
C  4.50200 43.04800 23.92600
N  0.68900 42.24300 27.50900
C  1.40400 42.46100 28.69000
C  0.52400 42.34100 29.96100
C  -0.86300 41.93800 29.31700
C  -0.61700 42.15100 27.82500
C  -1.47200 40.56500 29.67200
C  0.51800 43.60900 30.88300
C  0.54700 43.45500 32.38100
H  0.44100 41.99900 32.90200
N  -0.60300 42.24000 24.61900
C  -1.71500 42.01900 25.44700
C  -2.85000 41.83000 24.57500
C  -2.33700 41.81000 23.16600
C  -0.90100 42.04000 23.26800
C  -4.17100 41.63600 25.16700
C  -3.08400 41.70200 21.84500
O  -2.57800 41.77400 20.74100
C  -4.56700 41.30000 21.91600
N  2.16500 42.55600 23.41900
C  1.40800 42.29900 22.31200
C  2.30300 42.18700 21.02100
C  3.72100 42.68300 21.43300
C  3.46200 42.83600 22.99600
C  2.35400 40.75400 20.36500
C  4.25500 43.97300 20.69700
C  5.02500 43.70900 19.46700
N  3.21600 42.89200 26.05900
C  4.41100 43.01200 25.37300
C  5.46000 43.22000 26.33300
C  4.93700 43.14800 27.57600
C  3.52000 42.89000 27.40300
C  6.83600 43.48500 26.02500
C  5.18900 43.12500 29.02700
O  6.25600 43.20400 29.62100
C  3.81300 42.89900 29.73700
C  4.01600 41.72700 30.64200
O  3.80700 40.54600 30.42400
O  4.48000 42.26400 31.81600
C  4.77000 41.33600 32.88500
H  -2.50200 41.72400 27.42100
H  -0.12200 41.71600 21.22700
H  5.50400 43.27900 23.55800
H  0.89100 41.53200 30.59300
H  -1.57400 42.71600 29.59300
H  -0.84500 40.05800 30.40600
H  -1.75300 39.95100 28.81700
H  -2.37100 40.84100 30.22400
H  -0.33700 44.21300 30.57900
H  1.29700 44.19100 30.39000
H  -0.29500 43.97700 32.83600
H  1.50700 43.84000 32.72500
H  -4.22300 41.91100 26.22100
H  -4.46500 40.60100 24.99100
H  -4.84200 42.25800 24.57400
H  -4.80000 41.01600 20.89000
H  -5.09100 42.17800 22.29300
H  -4.71000 40.46500 22.60200
H  1.91800 42.84800 20.24400
H  4.50400 41.93700 21.29300
H  1.72400 40.05500 20.91400
H  3.38200 40.42000 20.23100
H  1.92300 40.91400 19.37600
H  4.83500 44.61000 21.36600
H  3.32500 44.51600 20.52500
H  4.44400 44.04300 18.60800
H  5.15400 42.65700 19.21400
H  5.93400 44.31100 19.46400
H  7.28600 43.79400 26.96800
H  6.83100 44.29200 25.29200
H  7.39100 42.65500 25.59000
H  3.55800 43.78700 30.31400
H  5.85800 41.33500 32.95100
H  4.35000 40.33200 32.81800
H  4.48100 41.74600 33.85200

