158

Mg -1.96800 17.85600 27.30000
C  -2.46100 15.31400 29.70100
C  -2.87400 20.13100 29.69900
C  -2.37600 20.15300 24.91100
C  -2.05700 15.34400 24.94000
N  -2.46700 17.70900 29.51600
C  -2.53600 16.59900 30.30500
C  -2.72000 16.94400 31.80000
C  -3.06900 18.50200 31.69200
C  -2.72800 18.81400 30.24000
C  -4.50500 18.95800 32.18200
C  -1.52300 16.70100 32.71700
C  -1.80300 16.03900 34.07100
H  -0.85900 16.36100 35.29700
N  -2.27200 19.90600 27.34800
C  -2.62300 20.63100 28.43900
C  -2.71300 22.03600 28.09200
C  -2.43400 22.16700 26.68400
C  -2.33700 20.71400 26.19200
C  -3.01500 23.17600 29.03100
C  -2.15400 23.42800 25.84900
O  -1.84100 23.34700 24.67500
C  -2.01300 24.70200 26.54400
N  -2.04400 17.79200 25.23200
C  -2.32200 18.88000 24.45100
C  -2.40200 18.44200 22.95300
C  -2.27100 16.88600 23.02400
C  -2.01200 16.65100 24.49200
C  -3.68300 18.91700 22.17900
C  -1.13600 16.37500 22.11400
C  0.25600 16.34800 22.70100
N  -2.13700 15.74700 27.19200
C  -2.12000 14.88000 26.20800
C  -2.27300 13.52700 26.57200
C  -2.33100 13.59600 27.99000
C  -2.34300 14.98900 28.29400
C  -2.40700 12.26100 25.78100
C  -2.51800 12.89100 29.23900
O  -2.44600 11.61400 29.35600
C  -2.61600 13.95300 30.38900
C  -1.60800 13.48400 31.43100
O  -0.38800 13.66100 31.37800
O  -2.29800 12.75400 32.33600
C  -1.52900 12.23600 33.50000
H  -3.15400 20.87500 30.44900
H  -2.55700 20.90500 24.14000
H  -2.05000 14.57000 24.17000
H  -3.57700 16.41500 32.21700
H  -2.34600 19.19100 32.12900
H  -5.14900 19.05500 31.30800
H  -4.35000 19.87500 32.75000
H  -4.80800 18.19300 32.89700
H  -1.02200 17.66300 32.82800
H  -0.79900 16.11900 32.14600
H  -1.87600 14.95700 33.96800
H  -2.79700 16.36600 34.37700
H  -2.15400 23.82300 29.19500
H  -3.51500 22.96200 29.97600
H  -3.73400 23.74800 28.44500
H  -1.78900 25.50200 25.83800
H  -1.18700 24.54700 27.23800
H  -2.99200 25.00000 26.91700
H  -1.65800 18.93900 22.33100
H  -3.16900 16.33900 22.73800
H  -3.53400 19.67400 21.40900
H  -4.41800 19.44300 22.78700
H  -4.18800 18.04200 21.77000
H  -1.30300 16.98800 21.22800
H  -1.34100 15.35000 21.80600
H  0.46200 15.27800 22.71000
H  0.43300 16.58600 23.75000
H  0.99700 16.89400 22.11700
H  -2.33000 11.35700 26.38500
H  -1.57000 12.31000 25.08600
H  -3.31900 12.22200 25.18500
H  -3.61000 13.71700 30.77000
H  -1.51100 11.14600 33.52200
H  -1.91300 12.65900 34.42800
H  -0.50100 12.59400 33.56700
Mg 1.15800 43.39800 26.97000
C  3.74600 43.09200 29.25400
C  -1.21700 43.00200 29.35200
C  -1.13000 42.94100 24.49100
C  3.70300 43.45500 24.35800
N  1.25700 42.89300 29.07700
C  2.37400 43.06100 29.76800
C  2.02400 43.11900 31.25500
C  0.49700 42.86200 31.32400
C  0.13100 42.98800 29.83500
C  0.06800 41.52400 31.83100
C  2.41400 44.50500 31.91100
C  2.02300 44.59000 33.38300
H  1.66300 43.27400 34.14300
N  -0.90900 42.95800 26.90500
C  -1.70400 42.97100 28.00600
C  -3.08300 42.70900 27.55300
C  -3.11800 42.61700 26.13900
C  -1.67200 42.82900 25.78500
C  -4.24200 42.55300 28.53500
C  -4.27500 42.35000 25.20000
O  -4.12100 42.24700 24.00800
C  -5.65800 42.09000 25.71600
N  1.29400 43.25700 24.75000
C  0.18000 43.08600 23.97000
C  0.47300 43.17300 22.50000
C  2.01300 43.44800 22.44400
C  2.40600 43.42300 23.90900
C  -0.04000 42.06400 21.59400
C  2.51200 44.80800 21.81600
C  1.96800 46.11100 22.47100
N  3.27800 43.31500 26.84200
C  4.16300 43.34700 25.68000
C  5.53000 43.28200 26.21600
C  5.40900 43.20800 27.61900
C  4.06500 43.22700 27.92900
C  6.75900 43.45100 25.45400
C  6.16500 43.14600 28.80100
O  7.37400 43.14500 28.90100
C  5.04800 43.16000 29.94900
C  5.32900 42.01600 30.95500
O  4.99600 40.86500 30.68700
O  5.60700 42.49900 32.27600
C  5.51500 41.50100 33.27700
H  -1.99700 43.11700 30.10700
H  -1.89900 42.87000 23.71900
H  4.40800 43.51100 23.52600
H  2.54000 42.22500 31.60300
H  -0.00100 43.68000 31.84500
H  -0.53400 40.98300 31.10200
H  -0.65500 41.48300 32.64600
H  0.95300 40.92000 32.02800
H  1.67200 45.10400 31.38300
H  3.41700 44.89000 31.72700
H  1.20400 45.30700 33.43500
H  2.96700 44.75900 33.90100
H  -3.85300 42.45600 29.54800
H  -4.51400 41.51400 28.34900
H  -5.12800 43.16000 28.35000
H  -5.97700 42.94500 26.31400
H  -5.67600 41.15800 26.28000
H  -6.27100 41.88500 24.83800
H  -0.08400 44.02200 22.10400
H  2.59300 42.61800 22.04000
H  -0.58100 41.33400 22.19600
H  0.75600 41.70000 20.94400
H  -0.74600 42.50900 20.89300
H  2.23100 44.76800 20.76400
H  3.59500 44.79500 21.69500
H  1.36700 46.59800 21.70400
H  2.81500 46.75200 22.71900
H  1.37100 45.89500 23.35800
H  6.68800 44.34000 24.82700
H  7.13700 42.63700 24.83500
H  7.49900 43.69300 26.21700
H  5.26100 44.11500 30.43000
H  4.50100 41.10300 33.23800
H  5.75900 41.94000 34.24500
H  6.11600 40.60300 33.13300

