158

Mg 40.76300 7.95300 30.08100
C  42.77000 9.29500 32.65700
C  38.41200 7.22200 32.43700
C  39.18300 6.25300 27.75500
C  43.42900 8.46500 27.91000
N  40.78300 8.05200 32.36700
C  41.55300 8.85200 33.11200
C  40.98100 9.15900 34.53700
C  39.64800 8.25500 34.53500
C  39.57000 7.71300 33.04200
C  39.53600 7.09200 35.57800
C  40.73900 10.68800 34.83100
C  39.99200 10.87400 36.15100
H  40.48200 11.91100 37.14100
N  38.98000 6.88100 30.11300
C  38.10400 6.75200 31.12400
C  36.88400 6.12600 30.63700
C  37.04700 5.99300 29.20600
C  38.40000 6.40600 28.94300
C  35.74400 5.79600 31.56500
C  36.09500 5.48000 28.14400
O  36.32700 5.55100 26.94000
C  34.77100 4.88100 28.58200
N  41.25800 7.36000 28.15800
C  40.40300 6.68800 27.36000
C  40.93800 6.46900 25.93700
C  42.21900 7.34200 25.94300
C  42.34100 7.74000 27.44900
C  41.17700 5.03100 25.40300
C  42.07800 8.51000 24.93200
C  41.28700 9.76500 25.40100
N  42.61800 8.88100 30.18000
C  43.62500 9.08900 29.22000
C  44.81100 9.63800 29.79900
C  44.49300 9.85400 31.10500
C  43.17000 9.34000 31.30800
C  46.14200 9.82700 29.16500
C  44.94300 10.46000 32.32300
O  45.95900 11.07900 32.62900
C  43.78300 10.15400 33.33000
C  44.36600 9.50200 34.61400
O  44.94200 8.41100 34.69500
O  44.15400 10.29800 35.65100
C  44.58000 9.76200 36.97900
H  37.56200 7.29700 33.11800
H  38.61500 5.85700 26.91100
H  44.25000 8.38100 27.19500
H  41.73700 8.80500 35.23700
H  38.79900 8.88100 34.80600
H  39.70600 6.18600 34.99600
H  38.54500 7.12300 36.03100
H  40.36200 7.24000 36.27300
H  40.26000 11.23400 34.01800
H  41.67300 11.11200 35.20000
H  39.77900 9.92200 36.63700
H  39.02800 11.34900 35.97000
H  36.10400 5.82500 32.59300
H  35.51500 4.75600 31.33100
H  34.92400 6.49400 31.39400
H  34.21100 4.55200 27.70600
H  34.14800 5.63400 29.06400
H  34.88000 3.99300 29.20400
H  40.26400 6.95300 25.23000
H  43.10400 6.71900 25.81400
H  40.63800 4.29200 25.99700
H  42.23300 4.83200 25.22400
H  40.82000 4.94700 24.37600
H  41.60300 8.12000 24.03100
H  43.12600 8.63600 24.66100
H  41.81700 10.68600 25.15900
H  41.15900 9.75600 26.48400
H  40.26100 9.81000 25.03700
H  46.27000 10.78300 28.65700
H  46.26300 9.09200 28.36800
H  46.91600 9.75500 29.92900
H  43.31900 11.11200 33.56300
H  43.94500 8.90400 37.19800
H  44.32400 10.50300 37.73700
H  45.63600 9.53400 37.12300
Mg -1.51400 34.65300 26.79800
C  -3.28100 32.91600 29.23300
C  -0.48800 36.85100 29.09400
C  -0.26600 36.62700 24.19400
C  -2.56700 32.42400 24.40700
N  -1.74900 34.79100 28.97900
C  -2.53500 33.94000 29.81600
C  -2.37900 34.32500 31.22000
C  -1.48300 35.58500 31.17700
C  -1.26900 35.80000 29.62400
C  -2.10700 36.82000 31.81300
C  -1.76900 33.16300 32.05700
C  -2.51700 32.83000 33.40500
H  -1.74400 32.75200 34.77500
N  -0.46300 36.43100 26.66500
C  -0.07500 37.20500 27.75000
C  0.81000 38.23000 27.31100
C  0.73500 38.29600 25.84800
C  -0.02000 37.02200 25.49900
C  1.55300 39.17100 28.26200
C  1.33000 39.34000 24.84700
O  1.33700 39.15800 23.65800
C  1.94000 40.60900 25.45300
N  -1.67700 34.71900 24.55700
C  -1.04600 35.60900 23.73900
C  -1.16100 35.11800 22.28000
C  -1.70800 33.68500 22.37500
C  -1.98000 33.54800 23.86600
C  -1.93200 36.16100 21.37300
C  -0.77100 32.63400 21.73000
C  0.44700 32.20400 22.59100
N  -2.73700 33.02100 26.71800
C  -3.05300 32.21300 25.66400
C  -4.06300 31.20900 26.14600
C  -4.09000 31.40000 27.56200
C  -3.29500 32.50700 27.89000
C  -4.81600 30.27900 25.37700
C  -4.64300 30.94300 28.82900
O  -5.43900 29.99100 29.05600
C  -4.07200 31.85000 29.95500
C  -5.11400 32.42100 30.80200
O  -5.63300 33.50400 30.65300
O  -5.41400 31.51400 31.85000
C  -6.29100 32.16500 32.86200
H  0.04000 37.54800 29.74800
H  0.05900 37.31200 23.40800
H  -2.87500 31.72900 23.62300
H  -3.36700 34.56400 31.61500
H  -0.49300 35.44300 31.61200
H  -2.23100 37.56800 31.03000
H  -1.56400 37.11100 32.71100
H  -3.16300 36.73300 32.07000
H  -0.79100 33.28900 32.52300
H  -1.52400 32.31500 31.41700
H  -2.89300 31.81800 33.25800
H  -3.35200 33.50400 33.59900
H  2.60600 39.16700 27.98100
H  1.61000 38.95700 29.33000
H  1.10600 40.16400 28.28600
H  1.18100 40.89600 26.18100
H  1.97100 41.36800 24.67200
H  2.92900 40.26500 25.75700
H  -0.12900 35.12800 21.92700
H  -2.70200 33.67500 21.92900
H  -2.66100 35.67300 20.72600
H  -1.14600 36.58100 20.74500
H  -2.38700 36.97600 21.93600
H  -0.51100 33.01700 20.74400
H  -1.47600 31.83900 21.48500
H  0.44000 32.67000 23.57700
H  1.37700 32.34600 22.04100
H  0.42600 31.12700 22.75800
H  -4.50800 30.43200 24.34300
H  -5.88300 30.49900 25.40900
H  -4.78600 29.23700 25.69800
H  -3.40000 31.25900 30.57800
H  -5.70900 32.59200 33.67800
H  -6.73600 31.35200 33.43400
H  -7.01500 32.91700 32.54700

