158

Mg 35.68700 49.15100 24.85100
C  35.68200 47.26500 27.72200
C  34.19600 51.78100 26.79000
C  35.40100 51.04200 22.04200
C  36.70200 46.47900 23.08000
N  34.95100 49.41100 27.00300
C  35.23500 48.55100 28.00500
C  35.00700 49.15500 29.40100
C  34.27300 50.50800 29.02900
C  34.49700 50.54800 27.49900
C  32.77000 50.66000 29.44700
C  36.30300 49.16700 30.22700
C  36.10100 48.75900 31.70600
H  34.79900 49.07200 32.37500
N  34.76300 51.10000 24.41100
C  34.35500 52.00700 25.34900
C  33.91000 53.14100 24.65200
C  34.25100 53.00500 23.30100
C  34.86600 51.71100 23.20400
C  33.48700 54.47300 25.34700
C  34.11000 54.06300 22.16200
O  34.71500 53.94700 21.09900
C  33.19900 55.18600 22.32800
N  35.94900 48.74400 22.77800
C  35.83100 49.74500 21.82700
C  36.18300 49.14500 20.48200
C  36.90800 47.80800 20.88400
C  36.50300 47.65700 22.35000
C  35.01700 48.83000 19.42600
C  38.40600 47.69600 20.56800
C  38.91200 46.30000 20.06700
N  36.20500 47.30900 25.23700
C  36.56100 46.29400 24.44000
C  36.77800 45.03600 25.26500
C  36.47000 45.45100 26.56000
C  36.09000 46.82200 26.45700
C  37.14200 43.60600 24.86700
C  36.32900 44.88100 27.84100
O  36.62100 43.78400 28.25800
C  35.81300 46.04800 28.69600
C  34.55400 45.49400 29.28100
O  33.63100 44.96200 28.69500
O  34.69300 45.61500 30.59700
C  33.67300 45.17900 31.52700
H  33.69300 52.51400 27.42400
H  35.43500 51.54500 21.07400
H  37.13500 45.66800 22.49100
H  34.21300 48.60800 29.90800
H  34.82800 51.35800 29.42700
H  32.53000 50.27100 30.43600
H  32.19200 50.33000 28.58300
H  32.71900 51.74100 29.31900
H  36.74100 50.15700 30.10500
H  36.94400 48.45500 29.70700
H  36.91500 49.26100 32.22800
H  36.28200 47.69800 31.87400
H  33.46100 54.40500 26.43500
H  32.56600 54.93700 24.99400
H  34.23700 55.24400 25.16900
H  33.39600 55.89600 23.13200
H  32.19700 54.80400 22.52300
H  33.08900 55.72400 21.38700
H  36.94700 49.73500 19.97700
H  36.40700 46.97700 20.38700
H  35.15900 49.47200 18.55700
H  34.09000 49.17900 19.88300
H  34.91500 47.75900 19.25100
H  38.82000 47.89000 21.55700
H  38.74300 48.44600 19.85300
H  39.71600 45.97600 20.72800
H  39.41900 46.35200 19.10400
H  38.19800 45.48300 20.17300
H  37.12000 43.51900 23.78100
H  36.41200 42.94300 25.33200
H  38.06500 43.34400 25.38400
H  36.55900 46.22000 29.47200
H  33.86600 44.19700 31.95900
H  32.72600 45.07300 30.99700
H  33.60100 45.84000 32.39100
Mg 0.28500 44.37000 27.33000
C  2.62300 43.68200 29.67400
C  -2.22000 43.34300 29.50500
C  -2.16800 44.85200 24.86700
C  2.73600 44.84000 24.84500
N  0.23100 43.58900 29.20200
C  1.28700 43.63100 30.10900
C  0.86600 43.65700 31.61000
C  -0.57200 43.08400 31.44900
C  -0.89600 43.37100 29.99500
C  -0.80100 41.56300 31.94900
C  0.96800 45.07100 32.25800
C  1.34800 45.17600 33.77100
H  1.20200 43.88400 34.63100
N  -1.89400 44.16700 27.17000
C  -2.69700 43.69600 28.20100
C  -4.07800 43.59700 27.74500
C  -4.07100 44.07900 26.39000
C  -2.67700 44.43400 26.09200
C  -5.23000 43.05900 28.61900
C  -5.22800 44.33700 25.48100
O  -5.16800 45.05400 24.50300
C  -6.61700 43.74100 25.75300
N  0.32200 44.92600 25.17800
C  -0.83400 45.06000 24.48200
C  -0.48800 45.27400 22.97500
C  1.03600 45.36800 22.89800
C  1.42500 45.03000 24.36100
C  -1.14100 44.17800 22.07200
C  1.42200 46.71700 22.27800
C  1.33600 48.03700 23.09300
N  2.29100 44.31900 27.22000
C  3.22300 44.50300 26.17700
C  4.48100 44.24200 26.78200
C  4.28800 43.99400 28.14900
C  2.93700 43.94000 28.36400
C  5.73600 44.21100 25.99500
C  5.00500 43.91700 29.39700
O  6.20400 43.83300 29.64600
C  3.85800 43.79600 30.48700
C  4.04700 42.62500 31.32800
O  3.55800 41.53600 31.22200
O  4.88100 42.99700 32.35300
C  5.19600 41.95400 33.36800
H  -2.94000 42.90000 30.19600
H  -2.93500 44.93400 24.09400
H  3.49500 45.17000 24.13400
H  1.46000 42.97700 32.22100
H  -1.26500 43.74500 31.97000
H  0.13700 41.10100 32.25400
H  -1.30200 40.91400 31.23000
H  -1.51000 41.58300 32.77600
H  -0.01500 45.50700 32.07700
H  1.87300 45.43300 31.77100
H  0.85700 46.04900 34.20100
H  2.41100 45.41600 33.75000
H  -5.90600 42.29700 28.23200
H  -5.84700 43.87800 28.98900
H  -4.85000 42.57500 29.51900
H  -6.60600 42.66700 25.56400
H  -7.34500 44.32000 25.18600
H  -6.87300 43.83700 26.80900
H  -0.94000 46.21100 22.65200
H  1.43900 44.65800 22.17600
H  -1.52500 43.40100 22.73200
H  -0.39100 43.72300 21.42400
H  -1.91200 44.71200 21.51700
H  0.90100 46.87200 21.33300
H  2.48800 46.61000 22.07700
H  0.78000 48.87300 22.66900
H  2.37800 48.31500 23.24800
H  0.99800 47.71300 24.07700
H  6.42700 43.77000 26.71300
H  5.84000 45.26000 25.71500
H  5.61600 43.46800 25.20700
H  3.89900 44.70400 31.08900
H  5.93500 41.30300 32.90100
H  4.34100 41.40700 33.76600
H  5.59800 42.33000 34.30900

