158

Mg 49.36400 47.29400 42.28900
C  46.03600 47.32900 41.46800
C  49.84100 44.32400 40.63800
C  52.61800 47.79500 42.59600
C  48.99300 50.84000 43.25300
N  48.00900 46.05200 41.07400
C  46.65600 46.22100 40.99100
C  46.12300 45.03100 40.11200
C  47.31200 43.95100 40.09100
C  48.46100 44.81700 40.64800
C  47.02000 42.57600 40.92600
C  45.71900 45.58400 38.68900
C  44.48800 44.91900 38.04300
H  44.98100 43.91700 36.92500
N  50.94500 46.16500 41.82100
C  50.94100 44.94800 41.16600
C  52.27000 44.44200 41.14000
C  53.10600 45.46000 41.70000
C  52.20600 46.53600 42.12300
C  52.72300 43.17700 40.58300
C  54.63000 45.30200 41.87400
O  55.29200 44.30300 41.47800
C  55.42600 46.26600 42.87100
N  50.67400 49.05200 42.91400
C  51.98200 48.92200 42.95800
C  52.66600 50.24800 43.22900
C  51.50700 51.27700 43.28100
C  50.29400 50.37400 43.15900
C  53.70900 50.36200 44.37700
C  51.46000 52.48300 42.38200
C  51.30600 53.79900 43.22100
N  47.83500 48.78200 42.51800
C  47.79500 50.14900 42.87500
C  46.45600 50.64200 42.68200
C  45.72100 49.56600 42.21000
C  46.61300 48.43100 42.09300
C  45.97000 51.96300 43.05100
C  44.40600 49.17500 41.84200
O  43.37200 49.88000 41.84200
C  44.58000 47.65000 41.51400
C  43.81800 46.87000 42.58000
O  44.03900 47.08400 43.77300
O  43.11500 45.87400 41.98300
C  42.44900 44.81700 42.78700
H  49.93200 43.30200 40.26400
H  53.69800 47.93900 42.52500
H  48.77000 51.88600 43.47200
H  45.23000 44.72700 40.65800
H  47.43300 43.69200 39.03900
H  46.80000 41.71400 40.29700
H  46.08600 42.70500 41.47400
H  47.88600 42.30700 41.53000
H  46.62100 45.48200 38.08500
H  45.60900 46.65800 38.83800
H  43.88100 45.74400 37.66900
H  43.79100 44.32500 38.63400
H  51.95500 42.61800 40.04800
H  53.10300 42.52600 41.37000
H  53.48000 43.39000 39.82800
H  55.73800 47.17600 42.35900
H  56.31800 45.73100 43.19800
H  54.86500 46.49200 43.77800
H  53.15900 50.28300 42.25800
H  51.41800 51.61200 44.31400
H  54.62600 50.88700 44.10900
H  54.02800 49.36600 44.68300
H  53.25700 50.83500 45.24800
H  50.58300 52.37100 41.74400
H  52.35200 52.28800 41.78600
H  51.34800 53.69100 44.30400
H  50.26100 54.07600 43.08200
H  51.97300 54.53800 42.77800
H  46.39500 52.25500 44.01200
H  44.89900 51.92900 43.25200
H  46.39500 52.77000 42.45400
H  44.02000 47.29700 40.64800
H  43.23500 44.22300 43.25400
H  42.01600 44.09700 42.09300
H  41.77700 45.19800 43.55600
Mg 6.49100 53.06900 40.56300
C  6.01600 49.60300 40.05800
C  9.83700 52.74000 39.96900
C  6.81700 56.40200 40.32200
C  3.11500 53.41700 41.09000
N  7.73800 51.41300 40.07200
C  7.37600 50.09500 39.88000
C  8.69300 49.19300 39.89300
C  9.81800 50.21700 40.15400
C  9.09400 51.54900 40.02700
C  10.55500 50.13600 41.50300
C  8.98200 48.44100 38.54600
C  8.74200 49.17500 37.22000
H  7.66600 48.78000 36.26900
N  8.16800 54.40000 40.32200
C  9.45300 54.06700 40.00600
C  10.24300 55.27400 39.94100
C  9.39900 56.35300 40.11000
C  8.05500 55.76200 40.26800
C  11.76400 55.21300 39.65300
C  9.80700 57.82000 40.07700
O  10.99700 58.07100 39.85600
C  8.91600 58.95900 40.20700
N  5.21900 54.64400 40.46400
C  5.54300 55.92100 40.49800
C  4.32400 56.86500 40.77000
C  3.22400 55.88100 41.22400
C  3.91500 54.55100 40.95800
C  4.56200 58.04900 41.79000
C  1.81000 56.07500 40.50800
C  0.65900 56.34500 41.43300
N  4.84100 51.78300 40.62700
C  3.58000 52.06200 40.99400
C  2.84700 50.83100 41.15000
C  3.76900 49.81100 40.72400
C  4.96400 50.47900 40.37600
C  1.36000 50.70600 41.40600
C  4.00500 48.37300 40.61000
O  3.21800 47.45300 40.92700
C  5.47800 48.22100 40.16600
C  5.50300 47.50400 38.94300
O  5.16800 48.06800 37.90300
O  5.93300 46.27400 39.14700
C  5.90700 45.28200 38.01100
H  10.89200 52.46500 39.89800
H  6.82100 57.48400 40.17000
H  2.11700 53.39500 41.53300
H  8.49800 48.46400 40.68000
H  10.58400 50.17700 39.37900
H  10.27300 51.03600 42.05100
H  11.63600 50.04300 41.39900
H  10.30100 49.27700 42.12400
H  8.43900 47.49600 38.58400
H  10.02000 48.12100 38.63200
H  9.60500 49.05900 36.56500
H  8.60500 50.22400 37.48000
H  11.92700 55.63700 38.66200
H  12.13200 54.18700 39.62400
H  12.32100 55.77900 40.40000
H  9.38200 59.94200 40.14900
H  8.37800 58.84800 41.14800
H  8.08200 58.95000 39.50500
H  4.05400 57.29800 39.80700
H  3.07900 56.01000 42.29700
H  4.75000 58.98100 41.25600
H  5.36000 57.76700 42.47700
H  3.65100 58.22500 42.36000
H  1.65200 55.27300 39.78700
H  1.76600 56.94900 39.85800
H  0.02900 55.48900 41.67900
H  -0.00400 57.10700 41.02400
H  1.11200 56.66800 42.37000
H  0.68600 51.15300 40.67600
H  1.30000 51.21600 42.36700
H  1.15200 49.70200 41.77400
H  5.97500 47.68600 40.97500
H  5.41400 44.38500 38.38500
H  6.93600 44.96500 37.84200
H  5.48600 45.65100 37.07500

