158

Mg 0.28200 -0.80900 43.92000
C  3.51500 0.32800 43.02900
C  -1.05800 1.87500 42.10700
C  -2.77700 -2.25500 44.16300
C  1.79100 -3.65200 45.32300
N  1.18200 0.85400 42.67500
C  2.50400 1.16500 42.51800
C  2.72900 2.42100 41.69900
C  1.26100 3.03300 41.92000
C  0.37500 1.86900 42.34800
C  1.22800 4.14800 42.97900
C  3.19300 2.10500 40.23500
C  4.47200 2.93700 39.80900
H  4.21000 3.80600 38.62400
N  -1.63100 -0.22600 43.35800
C  -1.93400 0.89000 42.56500
C  -3.37200 0.98500 42.36400
C  -3.89700 -0.15500 42.98200
C  -2.75200 -0.97200 43.55200
C  -4.10400 2.05800 41.57900
C  -5.39100 -0.60000 43.01400
O  -6.27100 0.09000 42.51600
C  -5.91800 -1.96000 43.44600
N  -0.38300 -2.71800 44.46600
C  -1.72600 -3.00900 44.67200
C  -1.93800 -4.28200 45.36300
C  -0.52300 -4.81000 45.78700
C  0.37500 -3.66700 45.19100
C  -2.97400 -4.35600 46.47900
C  -0.10300 -6.23800 45.31300
C  0.04100 -7.23300 46.38400
N  2.27300 -1.50900 44.15800
C  2.71900 -2.70100 44.79400
C  4.15400 -2.76500 44.66100
C  4.47200 -1.53700 44.07100
C  3.28700 -0.85700 43.74100
C  5.18700 -3.75600 45.04900
C  5.58000 -0.80400 43.61300
O  6.79100 -1.10000 43.55600
C  4.96800 0.49000 42.87900
C  5.53300 1.74500 43.54700
O  5.14100 2.16300 44.62400
O  6.70000 2.18700 42.89900
C  7.65500 2.96600 43.64100
H  -1.45900 2.80000 41.68700
H  -3.67600 -2.84500 44.34900
H  2.24300 -4.59900 45.62500
H  3.45000 3.06300 42.20500
H  0.80900 3.37700 40.99000
H  0.26400 4.10200 43.48500
H  1.43100 5.13400 42.56200
H  2.04800 3.90800 43.65600
H  2.32600 2.34600 39.62000
H  3.27000 1.01700 40.24400
H  5.23100 2.21100 39.51700
H  4.89000 3.51900 40.63000
H  -3.56800 2.97300 41.32900
H  -4.88700 2.41300 42.24900
H  -4.54600 1.62100 40.68400
H  -6.98500 -2.15100 43.33800
H  -5.87500 -1.98600 44.53500
H  -5.38400 -2.77400 42.95400
H  -2.28300 -5.04400 44.66400
H  -0.40700 -4.77900 46.87100
H  -3.28100 -3.35900 46.79200
H  -2.46600 -4.83900 47.31400
H  -3.90300 -4.87000 46.23100
H  0.81500 -6.15000 44.73100
H  -0.72300 -6.58700 44.48700
H  0.03300 -6.67900 47.32200
H  0.99500 -7.75100 46.29100
H  -0.85700 -7.84600 46.30200
H  5.34000 -4.01000 46.09800
H  6.18000 -3.44700 44.72200
H  4.93200 -4.69100 44.55100
H  5.27200 0.54800 41.83400
H  7.62400 2.54500 44.64600
H  7.33100 4.00100 43.53200
H  8.60400 2.75100 43.15100
Mg 26.84000 50.35000 26.49700
C  24.56600 51.36300 29.01600
C  29.14100 49.34000 28.79700
C  28.76700 49.46700 23.91500
C  24.68200 52.08700 24.19100
N  26.90200 50.46500 28.62200
C  25.82900 50.76100 29.48300
C  26.16000 50.24400 30.91500
C  27.59400 49.73300 30.76800
C  27.97000 49.86600 29.32700
C  28.65700 50.37800 31.77700
C  25.13600 49.14600 31.27400
C  24.26800 49.47300 32.51100
H  24.44500 48.72000 33.82900
N  28.65400 49.46200 26.40600
C  29.45500 49.05200 27.46100
C  30.56500 48.31600 26.89400
C  30.39700 48.28100 25.44700
C  29.23500 49.14300 25.20900
C  31.54700 47.66000 27.85900
C  31.13800 47.57400 24.37900
O  30.77200 47.46600 23.22400
C  32.27600 46.84700 24.95500
N  26.74300 50.67400 24.40800
C  27.68700 50.17900 23.53200
C  27.42200 50.48500 22.05400
C  26.01700 51.11800 22.18300
C  25.78000 51.34100 23.69800
C  28.50300 51.36800 21.35300
C  24.93600 50.27500 21.46700
C  24.15500 49.18800 22.23000
N  25.04000 51.53500 26.54300
C  24.38900 52.21400 25.56300
C  23.31700 52.94900 26.16100
C  23.21900 52.52700 27.48300
C  24.34000 51.70400 27.66600
C  22.34600 53.84700 25.40700
C  22.46400 52.66000 28.76600
O  21.50300 53.31200 29.14000
C  23.27400 51.78400 29.77000
C  23.37700 52.59800 31.05700
O  24.16900 53.50900 31.28400
O  22.31900 52.25100 31.86700
C  22.19800 53.15000 33.06400
H  29.76900 48.77200 29.48700
H  29.34300 49.09400 23.06500
H  24.10600 52.61400 23.42700
H  26.10900 51.02700 31.67100
H  27.59800 48.64300 30.75300
H  29.60500 49.84600 31.69100
H  28.24700 50.21200 32.77300
H  28.76800 51.45400 31.64400
H  25.65100 48.19800 31.43300
H  24.42000 49.04200 30.45900
H  23.25000 49.32400 32.15400
H  24.30700 50.53300 32.76100
H  31.50800 46.57100 27.88800
H  31.48700 48.07500 28.86500
H  32.60700 47.83900 27.68300
H  31.92700 46.06600 25.63000
H  32.86600 47.61700 25.45200
H  32.65400 46.22600 24.14200
H  27.46200 49.59600 21.42500
H  26.05500 52.08300 21.67700
H  29.39800 51.31400 21.97400
H  28.25300 52.42500 21.27100
H  28.69300 50.92800 20.37400
H  25.46800 49.75800 20.66800
H  24.24600 50.93200 20.93800
H  24.40000 49.16500 23.29200
H  24.41500 48.18400 21.89200
H  23.07100 49.29600 22.18500
H  21.94800 53.35200 24.52100
H  22.87400 54.71600 25.01400
H  21.54400 54.20400 26.05200
H  22.77900 50.85600 30.05800
H  21.11400 53.25500 33.09900
H  22.52200 54.18200 32.92500
H  22.59800 52.76300 34.00100

