158

Mg 0.67100 8.09300 26.30400
C  1.47900 10.02300 29.13300
C  0.73200 5.29000 28.16100
C  0.49900 6.27300 23.42000
C  1.23900 10.93100 24.41100
N  1.15900 7.73800 28.38500
C  1.30800 8.63800 29.37700
C  1.17600 7.97300 30.73700
C  1.23000 6.46600 30.36300
C  1.05400 6.47100 28.83800
C  2.59600 5.73800 30.76700
C  -0.07100 8.40700 31.50600
C  -0.00300 8.61300 33.04000
H  1.22700 8.05200 33.80800
N  0.45700 6.10900 25.88100
C  0.52800 5.14100 26.78900
C  0.28300 3.89100 26.13000
C  0.17300 4.11400 24.74300
C  0.37900 5.57900 24.62300
C  0.19300 2.55700 26.92800
C  -0.17500 3.07500 23.62300
O  -0.31700 3.45100 22.47500
C  -0.38400 1.58000 23.96800
N  0.90500 8.53500 24.14900
C  0.63100 7.61400 23.18400
C  0.64500 8.38900 21.78100
C  1.07400 9.80300 22.12600
C  1.07900 9.77700 23.65100
C  1.50300 7.70800 20.63400
C  0.24400 10.95900 21.44200
C  -1.15000 11.20200 22.19300
N  1.06400 10.15200 26.70000
C  1.15500 11.16700 25.84000
C  1.31900 12.42900 26.50000
C  1.37500 12.05800 27.85800
C  1.29800 10.66200 27.90200
C  1.48500 13.80300 25.92100
C  1.66800 12.48300 29.21200
O  1.92100 13.61800 29.67100
C  1.51100 11.16200 30.13800
C  2.72300 11.08500 30.99100
O  3.81800 10.77200 30.66300
O  2.36000 11.53600 32.20900
C  3.46600 11.68200 33.27900
H  0.63800 4.38000 28.75800
H  0.52500 5.63900 22.53100
H  1.50300 11.86700 23.91400
H  2.06000 8.26700 31.30300
H  0.36700 5.91700 30.74000
H  3.01800 5.18800 29.92600
H  2.32800 5.00000 31.52300
H  3.26400 6.45100 31.25100
H  -0.81500 7.61800 31.39700
H  -0.46300 9.32300 31.06300
H  -0.84400 8.36400 33.68700
H  0.12600 9.69400 33.09300
H  0.42600 1.67900 26.32600
H  -0.82000 2.26400 27.20300
H  0.92600 2.52100 27.73500
H  -0.76400 1.13700 23.04800
H  -1.16900 1.63600 24.72100
H  0.56100 1.13900 24.28700
H  -0.33900 8.28900 21.32300
H  2.02100 10.03600 21.63900
H  1.87200 6.72800 20.93600
H  2.25000 8.39700 20.23900
H  0.88900 7.52600 19.75300
H  0.11000 10.63100 20.41100
H  0.85800 11.85000 21.31100
H  -1.89700 11.53400 21.47200
H  -1.02600 12.08100 22.82500
H  -1.44400 10.35400 22.81100
H  1.44200 14.58400 26.68000
H  0.71500 14.05200 25.19100
H  2.43800 13.75000 25.39400
H  0.69700 11.24800 30.85800
H  3.16500 11.20900 34.21400
H  3.36500 12.75200 33.46000
H  4.46300 11.32500 33.02000
Mg 47.74700 35.04200 27.12800
C  46.15100 33.26800 29.81600
C  48.08600 37.68500 29.19900
C  48.80200 36.76800 24.52600
C  47.42200 32.11900 25.18600
N  47.37900 35.28800 29.31000
C  46.78300 34.44700 30.21900
C  46.97100 35.00500 31.64700
C  47.28500 36.51300 31.30200
C  47.63800 36.49700 29.81700
C  46.15900 37.47500 31.71400
C  48.18100 34.24300 32.30600
C  48.66300 34.75000 33.71700
H  47.83700 35.70500 34.50700
N  48.35500 36.93300 26.90000
C  48.43500 37.87000 27.85000
C  48.86400 39.10600 27.29500
C  49.12100 38.89500 25.86200
C  48.83700 37.42600 25.71600
C  49.10500 40.30200 28.07300
C  49.70000 39.86800 24.80000
O  50.06600 39.47400 23.68800
C  49.98600 41.31200 25.13900
N  48.17800 34.48700 25.16500
C  48.45700 35.45000 24.24800
C  48.51100 34.82800 22.81700
C  48.48100 33.33000 23.17100
C  47.96700 33.32700 24.62100
C  47.47400 35.28500 21.80200
C  49.72100 32.46100 22.86800
C  49.83400 32.08400 21.38900
N  46.87700 33.17000 27.36300
C  46.82100 32.06500 26.46300
C  46.14300 30.94000 27.12300
C  45.81100 31.47000 28.34600
C  46.28800 32.78400 28.51300
C  45.86700 29.56600 26.63400
C  44.99300 31.12000 29.51900
O  44.31900 30.08800 29.68800
C  45.16200 32.31900 30.52400
C  45.42000 31.81100 31.92900
O  46.37000 31.23500 32.36100
O  44.36600 32.36000 32.67400
C  44.43000 32.18900 34.09900
H  48.26500 38.51300 29.88800
H  48.99900 37.44200 23.68900
H  47.45200 31.28200 24.48400
H  46.05300 34.81200 32.20200
H  48.19500 36.78300 31.83700
H  45.56200 36.82200 32.35200
H  45.53600 37.91000 30.93300
H  46.65200 38.18500 32.37700
H  49.07400 34.27100 31.68100
H  47.91600 33.19400 32.43600
H  49.62700 35.25800 33.72400
H  48.75500 33.87000 34.35300
H  49.70400 41.06900 27.58400
H  49.52000 39.95400 29.02000
H  48.12000 40.70500 28.30900
H  50.33600 41.92100 24.30600
H  50.77100 41.40700 25.89000
H  49.06800 41.65300 25.61800
H  49.51000 35.04100 22.43800
H  47.70800 32.92700 22.51600
H  47.67200 36.35600 21.74200
H  46.45900 35.07200 22.13600
H  47.78100 34.75300 20.90200
H  49.70500 31.59000 23.52400
H  50.64500 33.00700 23.05900
H  49.05200 32.63700 20.86900
H  49.63700 31.01700 21.29300
H  50.84000 32.30800 21.03300
H  45.86900 28.81600 27.42600
H  46.70700 29.27800 26.00200
H  44.98100 29.55200 25.99900
H  44.27500 32.93600 30.66800
H  43.85200 33.02700 34.48900
H  45.46100 32.28800 34.44000
H  44.05900 31.21500 34.41700

