158

Mg -1.45000 35.11100 26.48800
C  -3.16500 33.32700 28.98800
C  -0.21700 37.31100 28.82600
C  0.19400 36.57100 23.95100
C  -2.65400 32.70100 24.22400
N  -1.81100 35.37300 28.67900
C  -2.46000 34.47300 29.49600
C  -2.38300 34.91600 30.96300
C  -1.66000 36.31000 30.80100
C  -1.18500 36.39300 29.36500
C  -2.45400 37.50300 31.22400
C  -1.68200 33.86900 31.87100
C  -2.53800 33.35600 33.06800
H  -1.85100 33.20800 34.41300
N  -0.31300 36.78700 26.36200
C  0.15900 37.50700 27.41900
C  0.92800 38.61800 26.86300
C  1.07500 38.46400 25.43600
C  0.28100 37.24400 25.21700
C  1.46500 39.75000 27.69000
C  1.79500 39.34300 24.43700
O  1.98900 38.96600 23.31200
C  2.37700 40.70400 24.86500
N  -1.33300 34.76400 24.33900
C  -0.56900 35.47000 23.52300
C  -0.43800 34.91900 22.13800
C  -1.23200 33.60600 22.22000
C  -1.83900 33.73400 23.66100
C  -0.93700 35.84900 20.99000
C  -0.55100 32.23500 21.90500
C  0.70400 31.96100 22.80300
N  -2.81000 33.46200 26.45100
C  -3.19000 32.64300 25.51000
C  -4.09100 31.63800 26.00700
C  -4.10600 31.88000 27.39300
C  -3.35300 33.01600 27.61500
C  -4.75100 30.52700 25.17800
C  -4.65400 31.43100 28.67400
O  -5.35000 30.49600 29.01300
C  -3.91000 32.31800 29.77200
C  -5.02100 32.92800 30.57800
O  -5.71000 33.82100 30.21800
O  -5.29700 32.14100 31.70400
C  -6.27100 32.59600 32.70400
H  0.16900 37.97000 29.60700
H  0.77200 37.00000 23.13000
H  -3.16300 32.13000 23.44400
H  -3.43200 35.01400 31.24200
H  -0.79800 36.31300 31.46800
H  -3.51800 37.33100 31.38300
H  -2.44100 38.21900 30.40200
H  -2.03900 37.91200 32.14500
H  -0.78700 34.32700 32.29200
H  -1.44600 32.98200 31.28300
H  -2.95400 32.39800 32.75600
H  -3.36600 33.99800 33.36800
H  2.54500 39.79300 27.55000
H  1.40300 39.48600 28.74500
H  0.98300 40.71800 27.55500
H  2.56500 41.25400 23.94200
H  3.28500 40.48100 25.42400
H  1.52800 41.24400 25.28600
H  0.63700 34.74100 22.10800
H  -2.00100 33.60100 21.44700
H  -1.30100 36.75500 21.47500
H  -1.68500 35.28800 20.43000
H  -0.17700 36.11900 20.25700
H  -0.13100 32.30100 20.90100
H  -1.34000 31.48500 21.86000
H  0.69800 32.46500 23.77000
H  1.65700 32.18100 22.32200
H  0.73600 30.90200 23.05600
H  -5.53100 30.96100 24.55200
H  -5.11000 29.80500 25.91200
H  -3.93300 30.07600 24.61600
H  -3.28400 31.66200 30.37500
H  -6.38800 31.87000 33.50900
H  -7.18400 32.88000 32.18000
H  -5.87000 33.52900 33.10000
Mg -4.59000 25.49800 26.49200
C  -3.41100 26.82100 29.54100
C  -6.31500 23.09600 28.42000
C  -5.47400 23.86500 23.67900
C  -2.38500 27.44900 24.82700
N  -4.64500 24.90900 28.69800
C  -4.15200 25.67900 29.68600
C  -4.65800 25.13700 31.02800
C  -5.34500 23.77300 30.69700
C  -5.47800 23.92300 29.21800
C  -4.53700 22.52100 31.18600
C  -5.70200 26.15600 31.59200
C  -5.57200 26.47800 33.09100
H  -5.17200 25.40600 34.06100
N  -5.81300 23.81900 26.06800
C  -6.51800 22.99000 26.99800
C  -7.38200 22.06800 26.36700
C  -7.11100 22.22900 24.92200
C  -6.03400 23.29500 24.84000
C  -8.26900 21.09700 26.99300
C  -7.70800 21.42000 23.76900
O  -7.37300 21.61400 22.59800
C  -8.71600 20.36800 23.94600
N  -4.02200 25.64300 24.43000
C  -4.56200 24.89400 23.41200
C  -3.83200 25.24500 22.04900
C  -3.05600 26.52600 22.48000
C  -3.16700 26.60600 24.03200
C  -2.98300 24.01000 21.52400
C  -3.53800 27.85700 21.76800
C  -3.06200 28.22500 20.30400
N  -3.09100 26.86000 27.03800
C  -2.32900 27.71100 26.24200
C  -1.68000 28.74000 26.99400
C  -2.05500 28.45500 28.33500
C  -2.90100 27.32400 28.29300
C  -0.76100 29.74800 26.46200
C  -2.02700 28.88200 29.69700
O  -1.51400 29.86200 30.21400
C  -2.88700 27.87100 30.54400
C  -1.81100 27.29400 31.40700
O  -1.33600 26.21600 31.22400
O  -1.84100 27.88400 32.64600
C  -1.00600 27.15600 33.68200
H  -6.93900 22.45700 29.04800
H  -5.87600 23.37400 22.79000
H  -1.87300 28.22400 24.25200
H  -3.88300 25.04700 31.79000
H  -6.33000 23.81300 31.16100
H  -3.63300 22.95200 31.61600
H  -4.28300 21.97700 30.27600
H  -5.12000 21.99100 31.93900
H  -6.73400 25.88900 31.36700
H  -5.44400 27.12400 31.16100
H  -6.53900 26.85600 33.42200
H  -4.92500 27.33000 33.30200
H  -8.20400 21.23600 28.07200
H  -7.90200 20.09200 26.78400
H  -9.31900 21.17600 26.71300
H  -9.62500 20.76600 24.39800
H  -8.28900 19.59800 24.58900
H  -9.03400 19.97000 22.98200
H  -4.61300 25.51900 21.34000
H  -1.98400 26.40300 22.32300
H  -1.98300 24.34300 21.24600
H  -3.43200 23.57800 20.63000
H  -2.90700 23.17500 22.22100
H  -3.19000 28.59700 22.48900
H  -4.62700 27.85800 21.78400
H  -3.89600 28.39200 19.62300
H  -2.45200 27.42700 19.88000
H  -2.38400 29.07700 20.24700
H  -0.28000 29.33100 25.57700
H  -0.01000 30.11000 27.16400
H  -1.42100 30.60800 26.34900
H  -3.76600 28.30600 31.01900
H  0.02300 27.08900 33.33000
H  -1.39200 26.18000 33.97500
H  -0.94300 27.85700 34.51400

