158

Mg 48.39200 25.59500 27.62200
C  49.15200 27.71400 30.26200
C  47.32600 23.39500 29.96300
C  48.08200 23.46300 25.09300
C  50.50700 27.73600 25.52100
N  48.32200 25.53000 29.83800
C  48.54300 26.55700 30.73900
C  48.25100 26.22800 32.21500
C  47.59500 24.82900 32.05900
C  47.82100 24.51900 30.51600
C  48.14600 23.67600 32.91100
C  47.21100 27.16800 32.93300
C  46.48400 26.76700 34.19100
H  46.50100 27.75800 35.30900
N  47.66500 23.75300 27.52600
C  47.29100 23.00900 28.57700
C  46.61400 21.81300 28.03400
C  47.01500 21.75800 26.68000
C  47.58800 23.03400 26.36800
C  45.83500 20.88100 28.90500
C  46.85400 20.58200 25.77000
O  47.41600 20.54100 24.69300
C  45.95700 19.47700 26.12100
N  49.26000 25.60600 25.51400
C  48.94300 24.54300 24.69300
C  49.31100 24.89600 23.22800
C  50.14900 26.22300 23.38200
C  49.94800 26.58900 24.85300
C  50.09000 23.73300 22.63000
C  49.65500 27.38600 22.38900
C  50.75300 27.96800 21.43100
N  49.49900 27.34900 27.75000
C  50.33800 28.05700 26.90200
C  50.77700 29.33100 27.51000
C  50.25800 29.26700 28.84900
C  49.60200 27.97700 28.97100
C  51.45700 30.43900 26.94400
C  50.26800 29.91900 30.13700
O  50.62100 30.96900 30.57000
C  49.46700 28.97600 31.08400
C  50.41500 28.66300 32.16700
O  51.47300 28.03100 32.07300
O  49.88500 29.05800 33.43100
C  50.80100 28.65000 34.51000
H  46.99600 22.73600 30.76900
H  47.96300 22.76700 24.26000
H  51.04200 28.41800 24.85600
H  49.24100 26.17900 32.66800
H  46.52200 24.88300 32.24000
H  47.33500 23.15900 33.42400
H  48.91300 23.99300 33.61800
H  48.77700 22.91600 32.45000
H  46.39300 27.37200 32.24200
H  47.69800 28.10900 33.19200
H  46.81800 25.82100 34.61700
H  45.44200 26.61200 33.90900
H  46.38100 19.94000 28.96300
H  44.94500 20.48600 28.41500
H  45.56500 21.16200 29.92400
H  46.42000 19.00800 26.98900
H  45.83400 18.73200 25.33500
H  45.01500 20.00900 26.25500
H  48.34900 24.97800 22.72200
H  51.20600 25.95800 23.36800
H  50.32800 22.99800 23.39800
H  51.05800 24.07500 22.26300
H  49.49100 23.30800 21.82500
H  49.51400 28.28500 22.98900
H  48.75400 27.06500 21.86700
H  50.77300 29.04700 21.58500
H  50.36500 27.71500 20.44400
H  51.76600 27.58600 21.55500
H  51.53000 31.21200 27.70900
H  50.81900 30.93300 26.21100
H  52.39800 30.14500 26.48000
H  48.58300 29.53100 31.40000
H  50.50400 27.64500 34.80900
H  50.57200 29.39100 35.27600
H  51.86400 28.52000 34.30700
Mg 42.66200 41.48300 26.80600
C  41.62800 43.69100 29.35700
C  43.96200 39.47600 29.26500
C  44.18200 39.81800 24.42300
C  41.79800 44.03400 24.46600
N  42.66200 41.51000 29.01300
C  42.03900 42.41300 29.82800
C  42.18300 42.09800 31.32200
C  42.92100 40.76700 31.28300
C  43.21200 40.53900 29.74400
C  44.28400 40.69800 32.08100
C  40.78600 41.99700 32.07500
C  40.99700 41.66800 33.57900
H  40.05800 42.42100 34.54200
N  43.86900 39.86500 26.85400
C  44.13000 39.03600 27.91300
C  44.83300 37.85000 27.37600
C  44.86500 37.87200 25.96000
C  44.34400 39.26300 25.72800
C  45.25300 36.80300 28.28700
C  45.46500 36.84800 24.87000
O  45.51700 37.11500 23.66400
C  46.02500 35.47200 25.33400
N  43.03200 41.84800 24.71500
C  43.52200 40.94900 23.98700
C  43.44300 41.28100 22.47100
C  42.58600 42.51800 22.54800
C  42.43800 42.85900 24.00700
C  44.77800 41.44800 21.72200
C  41.17600 42.24100 21.92500
C  40.14100 41.34400 22.67800
N  41.74400 43.40800 26.83800
C  41.50600 44.36200 25.80800
C  41.11700 45.58500 26.40500
C  41.17300 45.38100 27.80000
C  41.51000 44.05300 28.00700
C  40.71700 46.82000 25.72500
C  40.92400 46.02000 29.07500
O  40.49100 47.11000 29.38200
C  41.10300 44.91900 30.13900
C  42.05000 45.35600 31.23600
O  43.15000 45.82100 31.00400
O  41.37500 45.24800 32.40600
C  42.07000 45.86500 33.49800
H  44.36300 38.83800 30.05500
H  44.45900 39.18900 23.57500
H  41.57000 44.82300 23.74600
H  42.81300 42.82800 31.82900
H  42.25600 39.96900 31.61400
H  44.12000 41.28600 32.98400
H  45.10400 41.25900 31.63300
H  44.59900 39.68000 32.31100
H  40.18700 41.19600 31.64000
H  40.10800 42.83500 31.91000
H  42.01500 41.88000 33.90500
H  40.84600 40.60600 33.77200
H  46.29400 36.50800 28.15500
H  44.66900 35.97500 27.88600
H  45.13600 37.00200 29.35200
H  46.37100 35.01100 24.40900
H  45.35300 34.83600 25.91000
H  46.93500 35.75400 25.86200
H  42.85300 40.52700 21.95000
H  42.92700 43.40600 22.01500
H  45.70200 41.52800 22.29500
H  44.68200 42.34100 21.10500
H  45.06300 40.65900 21.02600
H  41.24000 41.89300 20.89400
H  40.62800 43.18300 21.91600
H  40.45000 41.06800 23.68600
H  39.95000 40.46700 22.06000
H  39.17700 41.84700 22.75300
H  40.11500 46.55300 24.85600
H  41.59700 47.41300 25.48000
H  40.18700 47.38900 26.48900
H  40.09700 44.73400 30.51600
H  42.87200 46.56400 33.26000
H  42.68700 45.03900 33.85300
H  41.46700 46.17500 34.35200

