158

Mg 42.54800 41.69600 25.55700
C  41.66400 43.75600 28.08500
C  44.01200 39.58400 27.90600
C  43.55600 39.46900 23.06400
C  41.92400 44.07000 23.20500
N  42.68200 41.61400 27.81000
C  42.17800 42.57800 28.63500
C  42.30400 42.23800 30.15200
C  43.29400 40.94700 29.95500
C  43.46000 40.74000 28.47700
C  44.59300 40.92700 30.73600
C  41.06600 41.98600 31.00700
C  41.21400 42.54600 32.39800
H  40.15000 42.28000 33.49600
N  43.66200 39.79200 25.51000
C  44.07900 39.08500 26.60400
C  44.70300 37.84600 26.16900
C  44.56500 37.81700 24.76900
C  43.91500 39.07600 24.41700
C  45.36000 36.86400 27.08500
C  45.02600 36.68200 23.88700
O  45.07000 36.87500 22.68700
C  45.34500 35.34300 24.48200
N  42.96400 41.86400 23.44400
C  43.12600 40.71900 22.65900
C  42.71500 40.99200 21.21000
C  42.28600 42.42200 21.27200
C  42.30600 42.82700 22.74000
C  43.82800 40.83000 20.15500
C  40.79200 42.60300 20.67800
C  40.58800 43.82400 19.80500
N  41.90900 43.49900 25.59600
C  41.69900 44.35400 24.59100
C  41.18700 45.62100 25.10700
C  41.11200 45.38200 26.48100
C  41.57500 44.07100 26.75000
C  40.86800 46.91900 24.39900
C  40.78200 46.04300 27.71500
O  40.38100 47.19300 27.99800
C  41.06800 44.95600 28.76900
C  42.04500 45.63900 29.65800
O  43.20900 45.90300 29.27700
O  41.43300 46.03100 30.85000
C  42.45200 46.54600 31.75300
H  44.36900 38.85000 28.63100
H  43.55200 38.78700 22.21100
H  41.70300 44.82700 22.45000
H  43.01900 42.96400 30.53900
H  42.76400 40.06000 30.30300
H  45.49200 41.48700 30.47900
H  44.81400 39.91300 31.07000
H  44.24600 41.41000 31.64900
H  40.97900 40.92300 31.23400
H  40.13900 42.42700 30.64100
H  41.27700 43.62500 32.25800
H  42.17900 42.23900 32.80200
H  44.69100 36.01900 27.24500
H  45.59200 37.35000 28.03300
H  46.31500 36.42600 26.79500
H  46.31100 35.49800 24.96300
H  45.40500 34.66000 23.63500
H  44.56300 35.17800 25.22300
H  41.96100 40.28700 20.86100
H  42.97900 43.13100 20.82000
H  43.71100 39.81800 19.76800
H  44.82400 40.80600 20.59600
H  43.69900 41.57900 19.37400
H  39.96000 42.54700 21.37900
H  40.58200 41.79000 19.98300
H  40.46900 43.48700 18.77500
H  41.49700 44.42400 19.77400
H  39.72100 44.43600 20.05300
H  39.79600 46.88800 24.20300
H  41.30100 47.07100 23.41000
H  40.97100 47.73800 25.11000
H  40.16500 44.69500 29.32000
H  41.93300 46.69400 32.70000
H  43.17600 47.29600 31.43500
H  43.22600 45.82500 32.01500
Mg -4.71600 25.49900 26.25000
C  -3.43800 26.92200 29.01900
C  -6.58800 23.49100 28.22600
C  -5.61500 23.85600 23.41700
C  -2.67300 27.63300 24.10700
N  -5.04600 25.40800 28.41500
C  -4.48600 26.08800 29.35900
C  -4.73800 25.52100 30.72000
C  -5.46800 24.24600 30.47500
C  -5.72000 24.36900 28.96500
C  -4.84300 22.94900 31.01300
C  -5.58500 26.55300 31.58000
C  -5.01600 26.73800 32.96500
H  -4.49600 25.52500 33.62300
N  -6.03000 23.91800 25.85200
C  -6.73200 23.30300 26.84200
C  -7.53200 22.30500 26.15500
C  -7.28100 22.28200 24.77300
C  -6.24500 23.38200 24.62500
C  -8.53500 21.47700 26.93600
C  -7.80700 21.42500 23.70700
O  -7.45000 21.53500 22.52300
C  -9.02100 20.52900 23.99300
N  -3.99100 25.57400 24.03800
C  -4.63600 24.80700 23.10700
C  -4.16900 25.17300 21.68700
C  -3.29600 26.40100 21.91000
C  -3.30700 26.56700 23.42900
C  -3.48200 23.96100 21.10700
C  -3.73700 27.79500 21.25100
C  -4.45300 27.82800 19.96000
N  -3.29700 26.95700 26.49600
C  -2.49500 27.73100 25.57700
C  -1.70600 28.61600 26.45200
C  -1.96600 28.29300 27.77900
C  -2.95800 27.27300 27.73300
C  -0.80500 29.59500 25.87800
C  -1.67000 28.67800 29.17900
O  -0.98100 29.59300 29.63000
C  -2.45100 27.55600 30.04300
C  -1.49500 26.57800 30.54200
O  -1.29800 25.46100 30.06300
O  -1.15000 27.01000 31.82200
C  -0.38400 25.94300 32.46100
H  -7.01600 22.77300 28.92800
H  -5.89900 23.43200 22.45100
H  -2.06500 28.29500 23.48600
H  -3.74600 25.37800 31.14800
H  -6.48200 24.18900 30.87200
H  -4.55700 22.40600 30.11200
H  -5.57900 22.44400 31.63800
H  -3.92400 23.13500 31.56900
H  -6.63100 26.24700 31.61300
H  -5.60400 27.53200 31.10100
H  -5.75100 27.17000 33.64400
H  -4.21300 27.47000 32.88000
H  -9.51400 21.55800 26.46400
H  -8.66400 21.76300 27.98000
H  -8.23200 20.43300 26.86400
H  -8.76200 19.79700 24.75800
H  -9.32600 19.91000 23.14900
H  -9.92000 21.05900 24.30600
H  -5.07600 25.44400 21.14700
H  -2.27000 26.23200 21.58100
H  -2.46800 24.12800 20.74500
H  -3.96100 23.60100 20.19700
H  -3.33900 23.15000 21.82200
H  -2.81700 28.29100 20.94200
H  -4.12500 28.41500 22.06000
H  -5.49500 27.70200 20.25200
H  -4.26700 27.00300 19.27200
H  -4.23500 28.78100 19.47800
H  -1.37600 30.36300 25.35700
H  -0.30900 29.05400 25.07300
H  -0.19000 30.02100 26.67100
H  -3.02900 28.03700 30.83200
H  0.58700 25.83400 31.97600
H  -0.84700 24.96000 32.54300
H  -0.13100 26.31000 33.45600

