158

Mg -0.93700 18.29500 27.28600
C  -1.56300 16.07400 30.19100
C  -1.93900 20.81300 29.17700
C  -0.70600 19.98200 24.53000
C  -0.45900 15.23900 25.50600
N  -1.53700 18.42400 29.52400
C  -1.71800 17.39600 30.52500
C  -1.90500 18.00600 31.90500
C  -2.32900 19.48200 31.46700
C  -1.92200 19.62500 29.97600
C  -3.85200 19.67200 31.56900
C  -0.72000 18.07100 32.83700
C  -1.12000 17.73400 34.26800
H  -0.08900 17.77500 35.29300
N  -1.16500 20.19500 26.93800
C  -1.56900 21.08600 27.83300
C  -1.66500 22.46000 27.18800
C  -1.39500 22.20300 25.76100
C  -1.06600 20.74000 25.66200
C  -2.16200 23.58300 27.94900
C  -1.33500 23.17200 24.55200
O  -1.00700 22.79900 23.42900
C  -1.80600 24.57100 24.67600
N  -0.42600 17.71300 25.39100
C  -0.41700 18.67300 24.38400
C  -0.30000 17.93200 22.93800
C  0.05600 16.52100 23.40100
C  -0.24000 16.44300 24.88700
C  -1.55300 17.96600 21.97500
C  1.51300 16.03300 23.08900
C  2.66000 16.95400 23.67300
N  -1.11200 16.07700 27.60600
C  -1.01200 14.99700 26.76400
C  -1.26400 13.74300 27.50100
C  -1.42100 14.11800 28.78200
C  -1.29600 15.52800 28.87300
C  -1.26300 12.38200 26.90500
C  -1.63900 13.59800 30.08400
O  -1.80800 12.42100 30.41600
C  -1.71200 14.87500 31.01700
C  -0.59400 14.78300 31.90600
O  0.58600 15.20200 31.63600
O  -0.99600 14.13700 33.02200
C  0.05500 13.92300 34.00600
H  -2.35300 21.67400 29.70400
H  -0.68700 20.49900 23.56800
H  -0.19500 14.31800 24.98200
H  -2.65900 17.41400 32.42400
H  -1.83200 20.31300 31.96800
H  -4.37700 18.82900 32.01900
H  -4.24100 19.85500 30.56700
H  -4.11600 20.55600 32.14900
H  -0.32700 19.08500 32.89700
H  0.14300 17.45600 32.58200
H  -1.43000 16.69100 34.19900
H  -2.00900 18.31100 34.52000
H  -1.84500 23.59700 28.99200
H  -3.24500 23.49600 27.86400
H  -1.85900 24.55800 27.56800
H  -1.59000 25.12000 23.75900
H  -1.17500 25.11700 25.37700
H  -2.82800 24.73800 25.01700
H  0.54300 18.37800 22.41100
H  -0.51300 15.78200 22.83700
H  -2.31400 17.36700 22.47600
H  -1.42500 17.58900 20.96000
H  -1.68600 19.03600 21.81100
H  1.60100 15.92300 22.00900
H  1.67800 15.02700 23.47600
H  2.97300 17.66200 22.90500
H  3.54400 16.32500 23.77200
H  2.41100 17.27500 24.68400
H  -1.13200 12.24600 25.83200
H  -2.21000 11.92500 27.19200
H  -0.57400 11.75400 27.47000
H  -2.65300 15.01000 31.54900
H  0.46900 14.89200 34.28500
H  0.86200 13.36600 33.53100
H  -0.41600 13.54400 34.91300
Mg 34.94500 48.62000 26.42800
C  35.34100 46.74500 29.37100
C  33.66600 51.20600 28.27100
C  34.04600 50.10900 23.54100
C  35.81300 45.70100 24.60100
N  34.49600 48.81200 28.62000
C  34.91200 48.04700 29.59700
C  34.90900 48.74600 30.98000
C  34.17100 50.09000 30.61300
C  34.08600 50.01600 29.03200
C  32.71900 50.10900 31.26700
C  36.33500 48.98000 31.60400
C  36.38000 48.60100 33.16500
H  35.15300 48.40200 33.92600
N  34.17900 50.46700 26.01700
C  33.77100 51.48500 26.86200
C  33.51400 52.73700 26.13300
C  33.49300 52.31100 24.75200
C  33.89300 50.89500 24.72800
C  33.19100 54.05300 26.81800
C  33.06400 53.16200 23.57100
O  33.19300 52.67400 22.42300
C  32.56400 54.62700 23.63900
N  35.00500 48.10200 24.43700
C  34.51800 48.77100 23.43800
C  34.50900 48.07600 22.05800
C  35.40700 46.86700 22.47000
C  35.46900 46.94600 23.97600
C  33.16800 47.68200 21.44000
C  36.75200 46.73400 21.77500
C  37.64800 48.00000 22.00600
N  35.56200 46.60500 26.87200
C  35.88200 45.58500 26.01100
C  36.21800 44.41800 26.79500
C  36.00300 44.77100 28.14500
C  35.59200 46.17400 28.12500
C  36.66100 43.15500 26.27600
C  36.01400 44.36900 29.51800
O  36.21300 43.25600 29.92600
C  35.62300 45.61000 30.36700
C  34.39000 45.07300 31.00600
O  33.25800 45.11600 30.52100
O  34.63000 44.52300 32.19900
C  33.47100 43.85300 32.85000
H  33.31700 52.06100 28.85400
H  33.72200 50.50100 22.57400
H  36.02900 44.90500 23.88400
H  34.30400 48.11400 31.62900
H  34.81000 50.91800 30.91800
H  32.44800 49.22800 31.84900
H  32.00700 50.20100 30.44700
H  32.51700 50.92800 31.95700
H  36.53100 50.05200 31.59900
H  37.17500 48.51300 31.09000
H  36.98200 49.34600 33.68400
H  37.05000 47.75000 33.04400
H  33.73200 54.88100 26.35900
H  33.50000 54.06100 27.86300
H  32.10700 54.16500 26.80500
H  32.54500 55.10000 22.65700
H  33.30800 55.19200 24.20100
H  31.56500 54.64600 24.07400
H  35.04900 48.87200 21.54500
H  34.87600 45.93600 22.27300
H  33.03700 46.62400 21.21500
H  33.15100 48.21800 20.49100
H  32.33200 47.95400 22.08500
H  36.72900 46.63300 20.69000
H  37.32200 45.87400 22.12700
H  38.16300 48.09700 21.05000
H  38.27600 47.80000 22.87400
H  37.12300 48.94500 22.14800
H  36.93600 43.32100 25.23400
H  36.01400 42.27900 26.32200
H  37.52800 42.79900 26.83200
H  36.27600 45.93300 31.17700
H  33.50500 42.78800 32.62500
H  32.49600 44.28900 32.63400
H  33.61500 43.86900 33.93100

