158

Mg 45.18300 5.19900 47.00900
C  42.85500 7.83400 46.58400
C  42.55000 2.99300 46.40900
C  47.43300 2.88800 46.56300
C  47.83200 7.65500 46.85500
N  43.00900 5.46900 46.45800
C  42.24400 6.61400 46.30800
C  40.73400 6.37700 46.28200
C  40.65600 4.80000 46.11000
C  42.11000 4.38000 46.38600
C  39.56900 4.13700 47.17700
C  39.85800 7.09500 45.13900
C  40.62000 7.44600 43.78000
H  39.88400 6.96100 42.49000
N  44.99400 3.18000 46.59200
C  43.87800 2.45200 46.49800
C  44.20800 1.02700 46.43100
C  45.66200 1.02000 46.24000
C  46.11400 2.35500 46.45800
C  43.19400 -0.07100 46.29500
C  46.43100 -0.22600 45.81300
O  45.85200 -1.30800 45.57000
C  48.00400 -0.12000 45.49900
N  47.31100 5.29200 46.86300
C  47.99300 4.12000 46.76200
C  49.54100 4.28300 46.94800
C  49.71800 5.79200 47.01500
C  48.26800 6.27800 46.89100
C  50.19100 3.61000 48.23300
C  50.74300 6.34600 46.01600
C  51.98000 6.97200 46.63100
N  45.35000 7.27100 46.84200
C  46.45400 8.11700 46.82900
C  45.99600 9.52000 46.82900
C  44.59300 9.37000 46.90700
C  44.24900 8.06900 46.79100
C  46.84400 10.71800 46.92500
C  43.46000 10.18700 47.04300
O  43.36200 11.37400 47.33200
C  42.23100 9.18400 46.66200
C  41.22400 9.18300 47.78000
O  41.18200 8.38700 48.69100
O  40.36200 10.29000 47.53400
C  39.29500 10.56200 48.47300
H  41.78500 2.25600 46.15400
H  48.23100 2.15900 46.40900
H  48.65800 8.34000 47.05800
H  40.15900 6.64200 47.17000
H  40.29900 4.65300 45.09100
H  39.05600 4.83500 47.83800
H  40.06900 3.41000 47.81600
H  38.79000 3.56300 46.67500
H  39.69800 8.11000 45.50100
H  38.89900 6.58500 45.04900
H  41.56100 6.93000 43.97400
H  40.75000 8.52800 43.74800
H  43.38600 -0.69300 45.42100
H  42.16700 0.28500 46.21400
H  43.16500 -0.65100 47.21700
H  48.61000 -0.09600 46.40500
H  48.12200 0.80600 44.93700
H  48.26000 -0.96900 44.86400
H  50.03200 3.85300 46.07500
H  49.91400 6.15700 48.02400
H  51.08000 4.15800 48.54800
H  50.47000 2.58700 47.98100
H  49.34900 3.59200 48.92500
H  50.19300 7.12100 45.48100
H  50.96000 5.53400 45.32200
H  51.75700 8.03900 46.65300
H  52.86900 6.69300 46.06600
H  52.11300 6.56900 47.63600
H  47.74500 10.59000 47.52500
H  46.26500 11.57200 47.27700
H  47.21200 10.99700 45.93700
H  41.77800 9.53800 45.73600
H  39.10900 11.63500 48.51100
H  39.63600 10.31800 49.47900
H  38.40600 9.99000 48.20700
Mg 6.80600 54.44900 40.23600
C  6.28300 51.04400 39.85400
C  10.11900 53.94600 39.14000
C  6.99100 57.73300 39.40500
C  3.26600 54.84000 40.39600
N  8.03700 52.76200 39.54500
C  7.58500 51.42600 39.58000
C  8.75200 50.48200 39.12600
C  9.98900 51.37600 39.29900
C  9.35100 52.83000 39.22200
C  10.66200 51.32200 40.69500
C  8.66400 49.92500 37.68700
C  8.23100 50.85600 36.57900
H  6.89900 50.60800 35.84500
N  8.36000 55.66400 39.38400
C  9.68600 55.31600 39.19200
C  10.49000 56.48400 38.92100
C  9.61700 57.59500 39.06700
C  8.25400 57.04200 39.24200
C  11.93300 56.43400 38.48900
C  10.06600 59.12900 39.04100
O  11.20600 59.46400 38.79200
C  9.05400 60.21000 39.29300
N  5.31600 56.07300 39.91300
C  5.71300 57.28900 39.65900
C  4.54700 58.25800 39.98700
C  3.38100 57.34500 40.32500
C  4.04200 56.01600 40.15300
C  4.89400 59.38800 41.04700
C  2.12200 57.54500 39.37400
C  0.74200 57.37900 40.04400
N  5.04000 53.16200 40.35200
C  3.71600 53.47600 40.40100
C  2.95900 52.26000 40.50400
C  3.96500 51.25600 40.33000
C  5.18600 51.90200 40.12700
C  1.43400 52.21800 40.69800
C  4.17000 49.81700 40.29400
O  3.39700 48.90400 40.37000
C  5.64300 49.63800 39.86700
C  5.59700 48.92800 38.62700
O  5.01300 49.30300 37.63400
O  6.32200 47.73500 38.69200
C  6.14300 46.83100 37.47900
H  11.17800 53.70800 39.01700
H  6.96200 58.82500 39.39300
H  2.22000 55.07500 40.60500
H  8.67000 49.68100 39.86000
H  10.84100 51.22400 38.63600
H  10.89200 52.31200 41.08800
H  11.64700 50.86600 40.59800
H  10.06400 50.68000 41.34000
H  7.99800 49.06300 37.65500
H  9.59700 49.51400 37.30400
H  8.90500 50.81800 35.72300
H  8.17600 51.85900 37.00100
H  12.13200 56.99100 37.57400
H  12.21500 55.43700 38.14900
H  12.56700 56.83300 39.28000
H  9.52300 61.19300 39.27600
H  8.50800 59.88300 40.17800
H  8.35900 60.35600 38.46600
H  4.28600 58.84000 39.10300
H  3.03100 57.48400 41.34700
H  5.88800 59.37900 41.49300
H  4.25600 59.28200 41.92400
H  4.69300 60.40100 40.69700
H  2.17500 56.81200 38.56900
H  1.98500 58.55600 38.99000
H  0.38100 56.38100 39.79400
H  0.10800 58.17400 39.65300
H  0.62000 57.44700 41.12500
H  1.04600 52.32800 39.68500
H  1.14900 53.13200 41.21900
H  1.06800 51.30700 41.17000
H  6.12700 48.99200 40.60000
H  5.16600 46.35600 37.39300
H  6.85800 46.06100 37.76800
H  6.35700 47.28500 36.51200

