158

Mg 43.97500 6.11300 47.97200
C  41.94300 8.74200 47.41800
C  41.37400 3.93200 47.45800
C  46.26100 3.42200 47.95500
C  46.67400 8.34400 47.95000
N  41.90500 6.26300 47.56900
C  41.30800 7.50200 47.30800
C  39.79200 7.25000 46.94600
C  39.65600 5.68800 47.25800
C  41.04200 5.21500 47.52600
C  38.68800 5.39500 48.42800
C  39.36200 7.74100 45.46900
C  40.45400 7.76500 44.33100
H  39.96300 8.21300 42.86600
N  43.83100 3.98400 47.72900
C  42.63900 3.30100 47.56000
C  42.91500 1.93000 47.27800
C  44.32300 1.68800 47.43000
C  44.87700 3.07000 47.71000
C  41.83600 0.88800 47.00600
C  44.93300 0.38200 47.23400
O  44.31600 -0.66000 46.85300
C  46.30400 0.16000 47.60200
N  46.20900 5.93900 47.80100
C  46.87900 4.73200 48.02900
C  48.35200 4.94900 48.31000
C  48.47900 6.53500 48.19900
C  47.01100 6.99900 47.94000
C  48.72100 4.39800 49.70200
C  49.46000 6.93100 47.02200
C  50.76400 7.62700 47.41700
N  44.32000 8.13500 47.69700
C  45.42600 8.89900 47.72500
C  45.20700 10.29600 47.48300
C  43.75400 10.29100 47.36400
C  43.32100 8.96400 47.56600
C  46.25500 11.37800 47.44500
C  42.57700 11.12900 47.15600
O  42.46500 12.30200 47.02400
C  41.32800 10.14000 47.21600
C  40.39200 10.35900 48.32200
O  40.53500 10.06200 49.47400
O  39.26200 11.02300 47.86700
C  38.11700 11.29200 48.78700
H  40.59900 3.21800 47.17000
H  47.05800 2.67900 48.03000
H  47.54400 8.95500 48.19800
H  39.17800 7.78500 47.67000
H  39.30200 5.18000 46.36100
H  38.10600 6.29500 48.62800
H  39.14600 4.99200 49.33100
H  37.86200 4.72700 48.18300
H  38.99800 8.76800 45.50700
H  38.54200 7.09600 45.15200
H  40.91800 6.79100 44.17400
H  41.31700 8.40000 44.53200
H  41.96200 0.52600 45.98600
H  40.82400 1.27700 47.11300
H  41.91600 0.05500 47.70400
H  46.96100 0.70800 46.92500
H  46.66900 -0.85300 47.43400
H  46.49400 0.58300 48.58800
H  48.93400 4.36400 47.59700
H  48.87200 7.00400 49.10100
H  48.01700 4.48400 50.52900
H  49.63500 4.84000 50.09900
H  49.00000 3.35700 49.53700
H  48.89100 7.63200 46.41200
H  49.42800 6.12600 46.28900
H  51.43800 7.35200 46.60500
H  51.02200 7.25200 48.40700
H  50.59700 8.70400 47.46000
H  46.69100 11.53900 48.43100
H  45.78700 12.26300 47.01500
H  46.99400 11.07700 46.70200
H  40.84400 10.20000 46.24100
H  37.34500 10.72900 48.26200
H  37.85000 12.34500 48.69000
H  38.22600 11.10300 49.85500
Mg -12.02700 38.08300 42.20600
C  -9.82000 35.28700 41.49500
C  -9.62500 40.10200 40.67100
C  -14.37900 40.44200 42.11300
C  -14.29100 35.74200 43.42300
N  -9.98400 37.67600 41.08500
C  -9.34300 36.49700 40.91800
C  -7.95400 36.69500 40.19000
C  -7.77500 38.33700 40.28800
C  -9.22900 38.76300 40.67400
C  -6.63300 38.94000 41.14000
C  -7.94300 36.13300 38.72800
C  -6.82400 35.06000 38.57200
H  -5.66400 35.31400 37.50300
N  -11.94800 40.03800 41.53400
C  -10.90800 40.67200 40.95900
C  -11.27200 42.07600 40.85100
C  -12.67700 42.24400 41.18100
C  -13.06600 40.84300 41.70900
C  -10.33000 43.16500 40.38600
C  -13.46600 43.57200 41.18200
O  -12.88500 44.65900 41.06800
C  -14.97000 43.61000 41.57500
N  -14.04600 38.00900 42.51700
C  -14.81700 39.15000 42.46300
C  -16.26300 38.82100 42.93200
C  -16.28800 37.27100 43.13900
C  -14.75700 36.97900 42.98900
C  -16.80500 39.65400 44.10800
C  -17.32800 36.37900 42.31100
C  -16.75300 35.78300 40.97200
N  -12.06800 35.97800 42.47100
C  -13.00500 35.24600 43.12900
C  -12.56400 33.90500 43.27800
C  -11.32200 33.85800 42.60700
C  -11.07200 35.19400 42.17800
C  -13.38300 32.83400 43.79900
C  -10.24600 33.04500 42.15300
O  -10.06700 31.83800 42.24000
C  -9.24100 33.91200 41.38800
C  -7.86000 33.74200 42.01300
O  -7.17600 32.76300 41.81100
O  -7.44200 34.82200 42.78500
C  -6.25900 34.58900 43.52900
H  -8.82800 40.79700 40.40000
H  -15.12300 41.23100 42.24500
H  -15.10300 35.02800 43.58000
H  -7.22100 36.23000 40.84900
H  -7.47300 38.63500 39.28400
H  -6.98900 39.87700 41.57000
H  -5.83200 39.10500 40.42000
H  -6.41600 38.24500 41.95000
H  -7.88500 36.95700 38.01700
H  -8.92300 35.70400 38.51700
H  -7.24500 34.06800 38.41200
H  -6.24800 35.03200 39.49700
H  -10.12200 43.85100 41.20700
H  -10.86500 43.76400 39.64900
H  -9.38500 42.80300 39.98300
H  -15.32000 43.31200 42.56400
H  -15.45700 42.87000 40.94000
H  -15.31700 44.60000 41.27800
H  -16.89500 38.97900 42.05800
H  -16.48400 37.05900 44.19000
H  -17.13800 38.98400 44.90000
H  -17.61300 40.28100 43.72900
H  -16.04700 40.35000 44.46800
H  -18.15900 37.00000 41.97700
H  -17.78000 35.62000 42.94900
H  -16.96800 34.72100 40.84700
H  -15.66900 35.77100 40.86200
H  -17.18200 36.21300 40.06700
H  -14.39100 32.88400 43.38800
H  -13.29000 32.82400 44.88500
H  -13.01700 31.86100 43.47200
H  -9.12300 33.56900 40.36000
H  -5.96200 33.54500 43.62800
H  -6.31700 34.96000 44.55300
H  -5.37900 35.09300 43.12900

