158

Mg 53.27900 23.57400 44.51900
C  50.55600 25.65600 43.72500
C  51.86600 21.04300 42.86500
C  56.30100 22.17900 44.46200
C  54.80300 26.70900 45.55600
N  51.54800 23.47500 43.23300
C  50.52800 24.36900 43.12500
C  49.44300 23.86600 42.17000
C  49.68200 22.23400 42.29900
C  51.14600 22.24200 42.77100
C  48.69900 21.41100 43.17500
C  49.63700 24.42300 40.72500
C  48.37400 24.79600 39.95300
H  47.88300 23.72600 38.88600
N  53.95900 21.77600 43.88900
C  53.18900 20.88400 43.26000
C  54.02200 19.70300 43.07500
C  55.31400 19.97000 43.44000
C  55.28400 21.38200 43.90700
C  53.46600 18.39300 42.53000
C  56.56800 19.03900 43.42700
O  56.56200 17.89500 43.00500
C  57.85600 19.42100 43.96800
N  55.25000 24.34400 44.84700
C  56.29500 23.45400 44.95700
C  57.59600 24.11100 45.70300
C  57.11100 25.57700 45.85500
C  55.63600 25.56400 45.41500
C  57.96200 23.46600 47.08000
C  57.88000 26.70500 45.06100
C  58.54700 27.80200 45.82400
N  52.81300 25.74300 44.71900
C  53.49100 26.83000 45.28100
C  52.56800 27.89800 45.50400
C  51.42800 27.50600 44.87900
C  51.63400 26.20900 44.38500
C  53.01000 29.12600 46.31400
C  50.07100 27.84200 44.64800
O  49.47900 28.85400 44.99500
C  49.44600 26.71800 43.80400
C  49.04100 27.31000 42.47700
O  49.70200 27.59800 41.53000
O  47.66000 27.46200 42.53500
C  47.12200 27.89800 41.31700
H  51.37000 20.12800 42.53600
H  57.26400 21.74400 44.73700
H  55.24200 27.61100 45.98900
H  48.46100 24.08100 42.59300
H  49.70600 21.71500 41.34100
H  48.69900 21.55400 44.25500
H  48.77200 20.34500 42.96000
H  47.66300 21.54800 42.86400
H  50.26100 23.77200 40.11200
H  50.29800 25.27700 40.87200
H  48.60900 25.73400 39.44900
H  47.59500 25.00700 40.68600
H  53.92000 17.55200 43.05600
H  53.60300 18.42700 41.45000
H  52.39100 18.32000 42.69500
H  58.34700 20.10000 43.27100
H  58.55800 18.58900 44.00800
H  57.76500 19.81000 44.98200
H  58.41300 24.09200 44.98000
H  57.13400 25.75400 46.93000
H  58.09800 24.12000 47.94200
H  58.97700 23.08400 46.97300
H  57.37900 22.57100 47.29300
H  57.19400 27.20100 44.37400
H  58.67800 26.24000 44.48200
H  58.18000 28.68700 45.30300
H  59.62500 27.63900 45.84300
H  58.18200 27.80100 46.85100
H  52.14100 29.76400 46.47100
H  53.65300 29.71100 45.65700
H  53.61200 28.93800 47.20300
H  48.53600 26.32400 44.25500
H  47.49500 28.88500 41.04200
H  46.06000 27.78300 41.52900
H  47.37400 27.24300 40.48200
Mg 47.47800 34.29700 28.31100
C  45.77400 32.40900 30.76300
C  47.34000 36.99300 30.64700
C  48.28200 36.31600 25.97100
C  46.94000 31.66800 26.04700
N  46.60300 34.64700 30.45300
C  46.09600 33.66000 31.29700
C  46.04900 34.21400 32.76900
C  45.94200 35.77300 32.49600
C  46.67500 35.84000 31.09200
C  44.64000 36.47500 32.60800
C  47.35800 33.78800 33.43500
C  47.19700 33.33600 34.93600
H  46.29100 34.30300 35.84900
N  47.93600 36.29900 28.30300
C  47.83100 37.25500 29.33300
C  48.56500 38.46600 28.90000
C  49.02700 38.18100 27.57400
C  48.37600 36.93300 27.17700
C  48.82000 39.55500 29.86900
C  49.92000 39.05100 26.61700
O  50.11400 38.78900 25.44400
C  50.45500 40.35100 27.10200
N  47.51400 33.99100 26.25300
C  47.82700 35.03500 25.47100
C  47.95900 34.67800 23.98500
C  47.66200 33.17200 24.07200
C  47.39100 32.86700 25.51400
C  47.06800 35.47700 22.93900
C  48.70500 32.18100 23.52300
C  48.59100 31.52400 22.14200
N  46.65000 32.33400 28.41800
C  46.48000 31.41800 27.36800
C  45.85000 30.23000 27.88600
C  45.45100 30.54000 29.20800
C  46.04500 31.84500 29.48300
C  45.52000 28.97100 27.11400
C  44.78000 30.10200 30.40900
O  44.06800 29.21600 30.64600
C  44.80500 31.36800 31.36100
C  44.87800 31.05100 32.79400
O  45.67300 30.33600 33.35100
O  43.81500 31.72200 33.39700
C  43.67400 31.79700 34.83300
H  47.34900 37.80900 31.37300
H  48.77100 36.76600 25.10400
H  46.82300 30.88400 25.29600
H  45.22200 33.79200 33.33900
H  46.53200 36.28700 33.25400
H  44.00900 35.79300 33.17800
H  44.25700 36.62200 31.59800
H  44.83900 37.35700 33.21600
H  48.21400 34.46100 33.38400
H  47.73200 32.88800 32.94800
H  48.17400 33.35400 35.41900
H  46.90900 32.28600 34.98300
H  49.89900 39.69200 29.81200
H  48.70300 39.38500 30.93900
H  48.29500 40.43400 29.49400
H  51.05000 40.05800 27.96700
H  49.68800 41.08600 27.34500
H  51.15300 40.65400 26.32200
H  48.94400 34.84100 23.54700
H  46.68900 32.88900 23.67200
H  46.28300 34.82300 22.55900
H  47.65000 35.81100 22.08000
H  46.54900 36.27400 23.47300
H  48.90500 31.33500 24.18200
H  49.63900 32.70800 23.72100
H  47.75000 31.96300 21.60500
H  48.58700 30.45100 22.33600
H  49.42400 31.70200 21.46300
H  46.20500 28.74700 26.29600
H  44.49600 29.07600 26.75500
H  45.65300 28.18700 27.86000
H  43.80600 31.80300 31.31500
H  42.93200 31.05300 35.12300
H  43.23000 32.78000 34.98300
H  44.51000 31.72200 35.52900

