158

Mg 16.54600 51.13300 25.60500
C  18.62700 50.18300 28.36800
C  14.27600 52.38600 27.87800
C  14.75700 52.44900 23.02900
C  19.01700 50.00600 23.51500
N  16.56400 51.33300 27.93600
C  17.49900 50.89200 28.87500
C  17.06400 51.23600 30.28400
C  15.55200 51.72800 30.09900
C  15.43500 51.79400 28.50400
C  14.47100 50.81000 30.78400
C  18.02300 52.26500 30.94100
C  17.92000 52.45500 32.43400
H  17.02800 51.58100 33.29700
N  14.83600 52.40600 25.50400
C  14.05500 52.76700 26.50300
C  12.97900 53.59200 26.11600
C  13.14300 53.64300 24.65800
C  14.27900 52.84000 24.34100
C  11.92600 54.13300 27.06300
C  12.28300 54.48900 23.66000
O  12.34300 54.23200 22.47400
C  11.45500 55.60300 24.15600
N  16.81500 51.17700 23.53200
C  15.92000 51.64100 22.62800
C  16.26600 51.33000 21.17200
C  17.74500 50.95900 21.40600
C  17.84000 50.59300 22.90500
C  15.47800 50.20600 20.44500
C  18.69500 52.19600 21.09400
C  19.78500 51.77800 20.04900
N  18.33900 50.10700 25.82100
C  19.22900 49.75300 24.88200
C  20.33200 49.02800 25.52100
C  20.16300 49.23700 26.92700
C  18.91300 49.97300 27.04800
C  21.47900 48.40000 24.82100
C  20.76900 48.98700 28.17300
O  21.81300 48.41100 28.46400
C  19.82900 49.73900 29.21600
C  19.47800 48.82000 30.33600
O  18.55300 47.98800 30.24600
O  20.15200 49.16200 31.49500
C  19.52000 48.54300 32.69800
H  13.56900 52.78700 28.60700
H  14.23200 52.82400 22.14800
H  19.79200 49.65600 22.82900
H  16.99800 50.37000 30.94300
H  15.49800 52.73800 30.50500
H  14.99400 49.99600 31.28600
H  13.81100 50.52600 29.96400
H  13.95800 51.42200 31.52600
H  17.83200 53.21500 30.44200
H  19.06000 51.97300 30.77500
H  17.65500 53.49300 32.63100
H  18.97400 52.32200 32.68000
H  11.01500 54.50100 26.59200
H  12.33900 54.77000 27.84600
H  11.46200 53.27800 27.55400
H  10.43100 55.35400 24.43400
H  11.50500 56.21500 23.25600
H  11.96100 56.08800 24.99100
H  16.14300 52.26500 20.62600
H  18.04600 50.01200 20.95900
H  14.64000 50.02700 21.11800
H  15.91600 49.26700 20.10700
H  14.93800 50.62500 19.59600
H  19.33600 52.46400 21.93400
H  18.13600 52.96700 20.56300
H  20.78300 51.88200 20.47500
H  19.91100 52.38400 19.15200
H  19.57100 50.73800 19.80300
H  21.00600 47.55200 24.32600
H  22.10900 47.87500 25.54000
H  21.98800 49.05300 24.11200
H  20.40900 50.52800 29.69500
H  19.93200 49.03700 33.57700
H  19.72500 47.47300 32.72100
H  18.43500 48.64600 32.69000
Mg -12.84700 16.17000 41.38100
C  -9.88400 14.37800 40.70100
C  -11.45600 18.81800 39.70700
C  -15.79800 17.62700 41.74200
C  -14.17200 13.02600 42.36800
N  -10.96900 16.47000 40.14500
C  -9.94400 15.63800 40.16300
C  -8.66000 16.31400 39.53700
C  -9.09600 17.80900 39.20500
C  -10.57200 17.75300 39.72700
C  -8.31400 18.92000 39.90900
C  -8.10700 15.63500 38.23300
C  -6.55500 15.36900 38.23500
H  -5.62600 16.06200 37.26100
N  -13.55900 17.99000 40.86100
C  -12.78800 18.98800 40.30700
C  -13.55100 20.16100 40.27000
C  -14.82000 19.81900 40.86700
C  -14.76800 18.43100 41.25200
C  -13.10300 21.47800 39.69500
C  -15.95100 20.84500 40.95600
O  -15.83800 21.91400 40.36500
C  -17.24600 20.65200 41.75000
N  -14.75300 15.37600 41.62400
C  -15.81400 16.25200 41.91400
C  -17.03900 15.46400 42.33600
C  -16.43200 14.09100 42.73800
C  -15.01700 14.14800 42.16900
C  -17.73500 16.16600 43.55100
C  -17.33200 12.87700 42.33100
C  -17.61000 11.86800 43.42800
N  -12.18000 14.03200 41.55500
C  -12.79200 12.91200 42.06900
C  -11.86300 11.82200 42.23000
C  -10.71000 12.34300 41.59700
C  -10.96300 13.69000 41.27000
C  -12.12400 10.50600 42.89900
C  -9.32600 12.05400 41.33900
O  -8.68300 11.08300 41.66800
C  -8.66600 13.33700 40.61600
C  -7.44000 13.78700 41.40400
O  -7.42100 14.52200 42.39900
O  -6.35500 12.96800 41.04800
C  -4.98700 13.03300 41.62400
H  -10.99500 19.66200 39.19000
H  -16.75100 18.15900 41.76800
H  -14.60500 12.08800 42.72300
H  -7.86300 16.29000 40.28100
H  -9.10900 18.06900 38.14600
H  -8.81000 19.81700 40.28100
H  -7.52700 19.30200 39.26000
H  -7.79200 18.37700 40.69700
H  -8.16300 16.27300 37.35100
H  -8.53300 14.66400 37.97900
H  -6.42900 14.30100 38.05900
H  -6.17400 15.41400 39.25500
H  -13.53100 21.58900 38.69900
H  -12.02600 21.52500 39.53000
H  -13.34900 22.22800 40.44700
H  -16.87900 20.40700 42.74700
H  -17.91200 19.89100 41.34200
H  -17.68600 21.65000 41.76800
H  -17.69500 15.37300 41.47000
H  -16.29500 14.20000 43.81400
H  -17.97600 15.43500 44.32200
H  -18.67200 16.62200 43.23300
H  -17.09500 17.01300 43.79800
H  -16.78800 12.43700 41.49500
H  -18.23800 13.26400 41.86400
H  -16.97400 10.99600 43.27600
H  -18.60900 11.45000 43.31100
H  -17.67000 12.32300 44.41700
H  -11.26100 10.33200 43.54100
H  -12.26400 9.65300 42.23400
H  -12.97800 10.56500 43.57400
H  -8.45600 13.14400 39.56400
H  -4.67300 12.02000 41.87700
H  -5.01800 13.61800 42.54400
H  -4.28800 13.49400 40.92600

