158

Mg 47.60900 44.77700 44.01600
C  44.11300 44.66700 43.75500
C  47.59100 41.37600 43.13700
C  50.75800 45.06300 43.56300
C  47.21400 48.41300 44.33200
N  46.05800 43.29800 43.36200
C  44.78900 43.49300 43.33100
C  44.03300 42.33700 42.61500
C  45.04800 41.22900 42.82000
C  46.35700 42.01100 43.16000
C  44.73600 40.20200 43.88700
C  43.78300 42.66000 41.15400
C  42.32900 42.53100 40.66500
H  42.11300 41.68800 39.35000
N  48.95900 43.40200 43.54000
C  48.78700 42.03800 43.18400
C  50.13600 41.51300 42.83900
C  51.05500 42.50400 43.20100
C  50.28400 43.70200 43.43100
C  50.42000 40.06800 42.48200
C  52.57800 42.30800 43.36400
O  53.08000 41.22900 43.04200
C  53.40300 43.47800 43.90700
N  48.82000 46.53900 43.87900
C  50.12000 46.30000 43.86900
C  50.94900 47.59000 44.01500
C  49.83500 48.68200 44.31700
C  48.51300 47.84700 44.11400
C  52.06200 47.48200 45.12200
C  49.86100 49.80800 43.27000
C  49.26600 51.16000 43.73400
N  45.95900 46.30600 44.08300
C  45.97800 47.68600 44.33400
C  44.61200 48.14800 44.32400
C  43.81000 47.02800 44.07500
C  44.69800 45.92200 43.96600
C  44.25300 49.58100 44.59500
C  42.41000 46.55500 43.86100
O  41.28000 47.05200 43.91900
C  42.59200 44.97800 43.63600
C  41.79900 44.14100 44.60900
O  40.84800 43.35100 44.26500
O  42.20900 44.30500 45.89800
C  41.51300 43.66100 46.96500
H  47.63000 40.31500 42.88200
H  51.82400 45.19300 43.36800
H  47.12100 49.49000 44.48700
H  43.14500 42.05900 43.18300
H  45.16500 40.64800 41.90500
H  44.04800 40.54800 44.65900
H  45.67300 39.88100 44.34300
H  44.27700 39.38700 43.32700
H  44.41500 42.08400 40.47800
H  44.05300 43.69900 40.96700
H  41.85200 43.50700 40.56500
H  41.78000 41.87800 41.34300
H  49.71900 39.69000 41.73800
H  50.41400 39.43900 43.37100
H  51.40000 40.01800 42.00600
H  53.49200 44.17900 43.07700
H  54.37200 43.04200 44.15200
H  53.06500 43.89700 44.85400
H  51.46400 47.72700 43.06400
H  49.68100 49.06600 45.32600
H  52.22800 46.47800 45.51300
H  51.68500 48.16400 45.88400
H  53.01500 47.79800 44.69600
H  49.36700 49.45100 42.36600
H  50.89800 50.01900 43.00800
H  48.42700 51.50300 43.12800
H  49.97000 51.98700 43.65200
H  48.86700 51.12800 44.74800
H  44.33500 49.71100 45.67400
H  43.33500 49.93400 44.12400
H  45.11400 50.04400 44.11300
H  42.22200 44.64600 42.66600
H  42.35200 43.35600 47.59000
H  40.86800 42.82700 46.68800
H  41.03400 44.37600 47.63300
Mg 26.14500 51.42500 26.35300
C  23.79800 52.40000 28.88500
C  28.40500 50.98200 28.85200
C  28.47800 51.13200 23.88000
C  23.73100 52.29000 24.00400
N  26.11900 51.72200 28.66900
C  24.94200 51.90800 29.47700
C  25.17600 51.54200 30.92300
C  26.75600 51.09200 30.90000
C  27.12500 51.25200 29.42700
C  27.77900 51.88500 31.88900
C  24.24700 50.46300 31.43900
C  23.76800 50.70300 32.90900
H  24.64300 50.17700 34.11200
N  28.16300 51.10500 26.37200
C  28.95000 50.88100 27.52100
C  30.21600 50.47500 27.11800
C  30.31800 50.62700 25.73600
C  28.91800 50.85900 25.25500
C  31.37900 50.10300 28.01000
C  31.56600 50.52300 24.79000
O  31.56600 50.89500 23.62900
C  32.83000 49.96700 25.26500
N  26.13900 51.78100 24.19900
C  27.18900 51.43500 23.36400
C  26.75600 51.63300 21.89800
C  25.19500 51.63100 21.99600
C  24.98100 51.94300 23.49500
C  27.34100 52.77200 21.13700
C  24.48700 50.31400 21.57600
C  24.76500 48.97200 22.31500
N  24.14200 52.13500 26.40200
C  23.26300 52.39400 25.33400
C  22.02100 52.83100 25.80900
C  22.15700 52.91300 27.18700
C  23.49000 52.44900 27.48900
C  20.84300 53.24900 25.04600
C  21.48800 53.23500 28.42900
O  20.31000 53.61700 28.66400
C  22.48500 52.89300 29.58000
C  22.75300 54.13600 30.38500
O  23.22600 55.16500 29.96600
O  22.34400 53.88800 31.64800
C  22.54900 54.91800 32.67000
H  29.22200 50.77900 29.54700
H  29.21600 51.05300 23.07900
H  22.95800 52.27900 23.23300
H  25.06900 52.47200 31.48200
H  26.90000 50.03200 31.11200
H  28.69000 52.25700 31.42000
H  27.98500 51.23200 32.73700
H  27.30300 52.68500 32.45600
H  24.82400 49.53800 31.42400
H  23.39700 50.31500 30.77300
H  22.82900 50.15600 32.99400
H  23.55300 51.75400 33.10100
H  31.51800 49.02300 27.98200
H  31.23800 50.25800 29.08000
H  32.19000 50.78500 27.75400
H  32.58700 49.13600 25.92700
H  33.45000 50.68100 25.80600
H  33.46800 49.52400 24.50000
H  26.99000 50.70100 21.38400
H  24.86600 52.51800 21.45600
H  27.66600 53.50200 21.87800
H  26.67700 53.29400 20.44800
H  28.25700 52.50200 20.61000
H  24.93900 50.03900 20.62300
H  23.47300 50.56600 21.26500
H  25.05700 48.19100 21.61300
H  23.86200 48.58900 22.79000
H  25.50900 49.03300 23.10900
H  19.84900 52.93400 25.36100
H  21.00600 53.15100 23.97300
H  20.66500 54.29800 25.28400
H  22.01900 52.17800 30.25800
H  23.11400 54.47900 33.49100
H  21.58400 55.17800 33.10400
H  23.07800 55.83700 32.41400

