158

Mg 0.77400 8.70200 26.38200
C  1.34400 10.49000 29.48900
C  0.39700 5.94800 28.28400
C  0.25700 7.12600 23.52100
C  1.08900 11.72900 24.73900
N  1.03600 8.18200 28.62600
C  1.09900 9.11300 29.72100
C  0.96400 8.33800 31.00300
C  0.98500 6.84200 30.69100
C  0.80100 6.96600 29.12100
C  2.29300 6.12100 31.18900
C  -0.30600 8.73900 31.83400
C  -0.27500 8.56700 33.40700
H  0.98400 8.04000 34.12300
N  0.49300 6.77900 25.89500
C  0.26900 5.80400 26.80100
C  -0.00100 4.57200 26.10700
C  0.00200 4.81900 24.71700
C  0.28700 6.29900 24.64300
C  -0.21900 3.19800 26.84900
C  -0.21200 3.90800 23.56500
O  -0.15700 4.26800 22.39300
C  -0.28900 2.47700 23.75400
N  0.70700 9.31100 24.42300
C  0.52300 8.51700 23.41600
C  0.58600 9.26600 22.10800
C  0.36200 10.80200 22.55900
C  0.75200 10.61200 24.01000
C  1.87500 8.98600 21.47200
C  -1.11200 11.31600 22.48300
C  -1.42200 12.67100 21.81700
N  1.12000 10.70800 26.89400
C  1.30000 11.77000 26.07000
C  1.61000 12.98000 26.86000
C  1.68500 12.53300 28.21000
C  1.28700 11.13000 28.15400
C  1.96200 14.31600 26.29600
C  2.02000 12.93500 29.56200
O  2.39500 14.01200 29.95000
C  1.58100 11.63300 30.54800
C  2.66600 11.49400 31.56700
O  3.66900 10.71700 31.43200
O  2.43700 12.34800 32.60900
C  3.29700 12.20900 33.71900
H  0.17900 5.09800 28.93200
H  -0.00700 6.73500 22.53600
H  1.23600 12.66500 24.19500
H  1.81000 8.62100 31.62900
H  0.19600 6.29200 31.20300
H  2.04400 5.32900 31.89600
H  3.02400 6.71200 31.74100
H  2.86700 5.64500 30.39400
H  -1.08900 8.10700 31.41500
H  -0.52500 9.77200 31.56300
H  -1.09600 7.90000 33.66900
H  -0.56600 9.55900 33.75400
H  -0.14500 2.30100 26.23400
H  -1.26300 3.28800 27.15000
H  0.30000 2.97900 27.78200
H  -1.18100 2.29800 24.35500
H  0.71500 2.22700 24.09600
H  -0.40700 2.08300 22.74500
H  -0.28700 8.88800 21.57500
H  1.08200 11.47500 22.09400
H  2.45700 8.22000 21.98500
H  2.56600 9.81800 21.33900
H  1.72600 8.57300 20.47500
H  -1.53800 11.41900 23.48100
H  -1.73900 10.52700 22.06800
H  -1.81800 12.47600 20.82000
H  -0.65500 13.44000 21.91400
H  -2.23600 13.15800 22.35500
H  2.87300 14.25200 25.70100
H  2.08500 14.97800 27.15300
H  1.08100 14.50700 25.68400
H  0.64800 11.92600 31.03000
H  4.25500 12.71400 33.59600
H  3.55500 11.17100 33.93200
H  2.82700 12.54900 34.64200
Mg 35.68600 2.87900 30.41200
C  33.31900 4.11500 32.63500
C  37.81400 2.48800 33.04300
C  38.04600 1.75100 28.29600
C  33.55200 3.60100 27.73100
N  35.63700 3.46800 32.58400
C  34.54500 3.89400 33.26300
C  34.82100 3.72100 34.74900
C  36.35800 3.63000 34.80500
C  36.63000 3.13200 33.43000
C  37.07000 4.98100 35.04300
C  34.09100 2.52400 35.39500
C  33.76500 2.53700 36.82400
H  34.47100 3.68200 37.58700
N  37.65800 2.32100 30.65000
C  38.30500 2.16000 31.75100
C  39.59600 1.38100 31.54700
C  39.67200 1.20000 30.13700
C  38.43100 1.83400 29.62700
C  40.54200 0.86000 32.60100
C  40.65400 0.38900 29.32200
O  40.53700 0.16700 28.12100
C  41.76500 -0.33700 30.04900
N  35.84400 2.85600 28.23600
C  36.79800 2.10000 27.73100
C  36.55600 1.92200 26.17000
C  35.07600 2.46600 26.02100
C  34.75900 2.96300 27.41300
C  37.62200 2.51800 25.25100
C  34.03900 1.47100 25.49000
C  32.96500 2.04800 24.58600
N  33.79400 3.60100 30.20400
C  33.09200 3.86200 29.04200
C  31.78100 4.35600 29.48200
C  31.83400 4.50700 30.85600
C  33.08800 4.05900 31.24800
C  30.52800 4.56400 28.62400
C  31.02600 4.84700 32.05000
O  29.88800 5.24800 32.17700
C  32.07500 4.67000 33.28500
C  32.29700 6.01200 33.97500
O  33.14100 6.85200 33.61000
O  31.64300 6.08600 35.18900
C  31.65500 7.27300 35.96600
H  38.53700 2.36700 33.85300
H  38.70700 1.22600 27.60300
H  32.81000 3.82000 26.96000
H  34.43100 4.63300 35.20100
H  36.62900 2.86100 35.52900
H  36.50300 5.64700 35.69300
H  37.26200 5.43700 34.07200
H  38.03600 4.81400 35.52000
H  34.64800 1.63300 35.10400
H  33.10800 2.56000 34.92500
H  34.14900 1.64100 37.31200
H  32.74100 2.58100 37.19600
H  41.51400 1.34300 32.49700
H  40.60200 -0.22700 32.54600
H  40.10300 0.91000 33.59800
H  42.36300 -0.90600 29.33700
H  41.23500 -1.08200 30.64200
H  42.43100 0.29500 30.63700
H  36.49100 0.85200 25.97000
H  35.08300 3.38000 25.42800
H  38.46000 2.92700 25.81600
H  37.19300 3.27900 24.59900
H  38.00100 1.70000 24.63800
H  33.66300 1.01700 26.40700
H  34.50000 0.72600 24.84200
H  33.10700 1.63000 23.58900
H  32.91000 3.13500 24.52600
H  31.94800 1.79800 24.88600
H  29.72600 3.97200 29.06600
H  30.70100 4.28200 27.58500
H  30.16600 5.58500 28.74500
H  31.70600 4.01000 34.07100
H  30.61100 7.53000 36.14400
H  32.05100 8.14400 35.44400
H  32.19900 7.28800 36.91000

