158

Mg 26.59900 50.40400 27.21300
C  24.63900 51.72200 29.96300
C  29.10700 49.61900 29.59000
C  28.42000 49.39500 24.72800
C  24.26900 51.69500 25.00800
N  26.82400 50.78100 29.53900
C  25.82700 51.18300 30.38400
C  26.33300 51.05600 31.82600
C  27.78000 50.56800 31.64600
C  27.92600 50.27100 30.15000
C  28.96800 51.52100 32.18600
C  25.39700 50.11000 32.65000
C  24.73000 50.51700 33.94100
H  25.69800 50.77300 35.14600
N  28.46100 49.62500 27.11000
C  29.30000 49.28600 28.20300
C  30.42000 48.53400 27.71100
C  30.30700 48.47300 26.27100
C  29.01500 49.18300 26.01300
C  31.59600 47.97600 28.58300
C  31.25100 47.84800 25.20000
O  31.09300 47.96100 23.99400
C  32.43200 46.82500 25.55600
N  26.47100 50.70200 25.11900
C  27.29100 50.03900 24.25800
C  26.89600 50.22400 22.83200
C  25.33400 50.59000 22.97500
C  25.30100 50.98500 24.49800
C  27.79500 51.36300 22.21700
C  24.21800 49.49700 22.64900
C  23.17900 49.91500 21.66600
N  24.75600 51.55600 27.37300
C  23.92200 51.97200 26.35200
C  22.81700 52.51000 26.95900
C  23.00600 52.47100 28.39000
C  24.17500 51.80900 28.59400
C  21.61400 53.07600 26.21200
C  22.42700 52.91900 29.70100
O  21.36600 53.47800 29.95600
C  23.44400 52.36900 30.76400
C  23.88500 53.52100 31.60400
O  24.80900 54.32700 31.29800
O  23.17300 53.57600 32.73600
C  23.65300 54.35400 33.94300
H  29.76000 49.24100 30.38000
H  28.94300 49.04200 23.83600
H  23.56400 52.02900 24.24400
H  26.33600 52.03700 32.30000
H  27.92300 49.58700 32.10000
H  29.75000 51.52400 31.42600
H  29.28300 51.13000 33.15400
H  28.74500 52.57500 32.35600
H  25.89700 49.19800 32.97700
H  24.62900 49.63800 32.03700
H  23.98800 49.72800 34.06500
H  24.29500 51.48800 33.70500
H  31.32500 46.94200 28.80000
H  31.57500 48.38100 29.59500
H  32.59900 48.19500 28.21900
H  33.28800 47.33900 25.99300
H  32.83500 46.23800 24.73000
H  32.06300 46.14100 26.32000
H  27.03000 49.35400 22.18900
H  25.23600 51.51400 22.40400
H  28.30100 51.92800 23.00000
H  27.20200 52.13400 21.72500
H  28.53900 50.88900 21.57600
H  23.69600 49.23700 23.57000
H  24.75400 48.67900 22.16800
H  22.20800 49.44800 21.82500
H  23.41000 49.76700 20.61100
H  22.93900 50.97100 21.79200
H  20.71900 52.68100 26.69200
H  21.59000 52.95700 25.12900
H  21.73600 54.14400 26.39200
H  23.06800 51.69400 31.53400
H  24.59300 54.87200 33.75200
H  23.90600 53.58100 34.66900
H  22.93000 55.02700 34.40400
Mg 16.40900 51.73100 26.76900
C  18.29500 50.86200 29.54600
C  13.75500 52.50600 29.04100
C  14.46400 52.73600 24.19500
C  18.79700 50.58400 24.60400
N  16.10100 51.76000 28.99500
C  17.09400 51.42400 29.88900
C  16.50400 51.63400 31.38500
C  15.07800 52.16800 31.19700
C  14.95400 52.18400 29.66300
C  14.01300 51.20100 31.77700
C  17.43900 52.65400 32.21500
C  17.77500 52.37400 33.67000
H  16.93900 53.01700 34.80100
N  14.39300 52.53200 26.64800
C  13.55400 52.84400 27.71000
C  12.38300 53.54700 27.15100
C  12.51300 53.56400 25.71800
C  13.80100 52.91200 25.39700
C  11.41800 54.23100 28.11800
C  11.57100 54.16100 24.63000
O  11.79500 54.15500 23.45700
C  10.17800 54.64700 25.09300
N  16.63300 51.69300 24.68500
C  15.73100 52.19100 23.86900
C  16.26600 52.08400 22.35100
C  17.67500 51.61900 22.55800
C  17.73600 51.25900 24.07800
C  15.39500 51.19900 21.42600
C  18.75900 52.60500 22.14400
C  19.29700 53.61100 23.16500
N  18.20800 50.79400 26.96800
C  19.04800 50.34800 25.98300
C  20.25900 49.81300 26.63600
C  19.94900 49.93000 28.05100
C  18.64900 50.51800 28.19900
C  21.40700 49.27700 25.93500
C  20.39000 49.64300 29.45800
O  21.33200 48.92800 29.77700
C  19.37300 50.27300 30.44900
C  18.84300 49.23800 31.38500
O  18.20000 48.28400 31.03800
O  19.25700 49.54300 32.64900
C  19.10000 48.53500 33.75100
H  13.02200 52.84200 29.77800
H  13.88400 52.99500 23.30700
H  19.63900 50.36500 23.94300
H  16.41800 50.62700 31.79300
H  14.98100 53.17600 31.60000
H  13.15200 51.81300 32.04500
H  14.34500 50.69100 32.68100
H  13.70200 50.41600 31.08700
H  17.02400 53.66000 32.27500
H  18.40100 52.84300 31.74000
H  18.80600 52.72600 33.70900
H  17.82200 51.29900 33.84100
H  11.67800 55.28500 28.02800
H  11.52500 54.03900 29.18500
H  10.38600 53.95900 27.89400
H  9.65100 55.00200 24.20700
H  10.37000 55.45300 25.80200
H  9.68600 53.80200 25.57400
H  16.24200 53.06900 21.88500
H  17.88500 50.74300 21.94300
H  15.85900 50.43700 20.80000
H  14.82400 51.96000 20.89300
H  14.60000 50.71500 21.99300
H  18.47200 53.18700 21.26800
H  19.56800 51.93000 21.86500
H  20.38000 53.55400 23.26500
H  18.89500 53.58600 24.17800
H  18.95100 54.59100 22.83600
H  21.65100 49.97400 25.13300
H  21.19200 48.24500 25.65800
H  22.22500 49.27300 26.65500
H  19.77000 51.10200 31.03500
H  18.48900 48.97000 34.54100
H  20.05000 48.48600 34.28200
H  18.73700 47.56500 33.41000

