158

Mg 0.50200 8.22200 27.24000
C  1.10100 10.34900 29.97500
C  0.64900 5.57900 29.33500
C  0.50000 6.27800 24.53900
C  0.72500 11.04400 25.11500
N  0.91000 7.97500 29.41600
C  1.01900 8.99700 30.34800
C  0.74700 8.45400 31.76300
C  1.03000 6.99600 31.54200
C  0.77700 6.76600 30.00000
C  2.43700 6.49800 31.94300
C  -0.68900 8.79200 32.27100
C  -1.04700 9.19000 33.79200
H  -0.02700 8.94100 34.92300
N  0.56800 6.15700 26.98500
C  0.63500 5.19000 27.95600
C  0.65500 3.86200 27.38900
C  0.54400 4.01200 25.99600
C  0.55500 5.57300 25.77400
C  0.81500 2.57000 28.13700
C  0.43500 2.98000 24.88500
O  0.36000 3.34900 23.70800
C  0.36300 1.53000 25.18200
N  0.56300 8.64700 25.15500
C  0.52500 7.66900 24.26100
C  0.33300 8.18100 22.84200
C  -0.04500 9.70500 23.10500
C  0.41200 9.79800 24.52600
C  1.60800 8.09700 22.00600
C  -1.50300 10.03000 22.93400
C  -1.77100 11.28600 22.14000
N  0.77600 10.33000 27.48200
C  0.99500 11.30600 26.50600
C  1.27400 12.54800 27.15400
C  1.35600 12.26300 28.50700
C  1.09000 10.87000 28.61700
C  1.40500 13.86000 26.56800
C  1.57400 12.80400 29.86100
O  1.78400 13.91500 30.23600
C  1.26100 11.58200 30.83000
C  2.39200 11.48400 31.85600
O  3.42300 10.89400 31.67300
O  1.97400 12.10100 33.04300
C  2.98800 12.35500 33.98100
H  0.80400 4.82700 30.11200
H  0.38600 5.76400 23.58200
H  0.59400 11.79300 24.33200
H  1.46200 8.90200 32.45200
H  0.32700 6.39500 32.12000
H  2.94400 7.34300 32.40800
H  3.14500 6.09700 31.21800
H  2.20300 5.63800 32.57000
H  -1.30800 7.94500 31.97500
H  -0.93100 9.68600 31.69700
H  -2.03400 8.76900 33.98300
H  -1.26900 10.25500 33.84300
H  0.85700 2.69000 29.21900
H  1.68100 1.94400 27.92200
H  -0.09400 1.97800 28.03300
H  1.22100 1.09400 25.69400
H  0.32000 1.04600 24.20700
H  -0.51400 1.30200 25.78800
H  -0.53900 7.66400 22.44300
H  0.52100 10.38200 22.46500
H  1.59700 7.06400 21.65800
H  2.49700 8.14100 22.63500
H  1.70600 8.85800 21.23100
H  -2.01400 10.01500 23.89600
H  -2.10700 9.24700 22.47600
H  -0.92500 11.58900 21.52200
H  -2.04100 12.05200 22.86600
H  -2.59000 11.13900 21.43500
H  1.69900 14.55000 27.35900
H  0.44800 14.28800 26.27000
H  2.08800 13.84300 25.71800
H  0.33600 11.96400 31.26300
H  2.60100 12.79300 34.90100
H  3.73600 13.06000 33.61900
H  3.62300 11.49200 34.17700
Mg 42.83600 41.30100 26.24800
C  41.76600 43.57900 28.68600
C  44.03900 39.27000 28.58200
C  43.50300 39.29300 23.77300
C  41.51500 43.63300 23.80100
N  42.93600 41.46100 28.32300
C  42.31800 42.38300 29.16700
C  42.39700 42.01300 30.61200
C  43.39600 40.76200 30.49700
C  43.46800 40.42300 29.05200
C  44.78600 41.00000 31.08800
C  41.09200 41.81400 31.41900
C  40.91600 42.57400 32.69100
H  40.70500 41.75500 33.97100
N  43.87200 39.67000 26.14300
C  44.23400 38.89400 27.24100
C  44.80600 37.66400 26.83400
C  44.51100 37.53000 25.43400
C  43.95800 38.84400 25.01500
C  45.39800 36.72000 27.77700
C  44.64200 36.28500 24.48600
O  44.52600 36.35800 23.26600
C  45.18800 35.00400 25.09400
N  42.52500 41.49700 24.12000
C  42.89000 40.41300 23.34800
C  42.35200 40.45600 21.92800
C  41.78800 41.93300 21.93200
C  41.91300 42.39200 23.40000
C  43.34500 40.17600 20.83500
C  40.31000 41.99800 21.39300
C  40.16000 42.59600 19.94700
N  41.83700 43.21800 26.21800
C  41.54400 44.07100 25.11300
C  41.05100 45.38800 25.62700
C  41.07000 45.19000 27.04300
C  41.66600 43.93900 27.34000
C  40.54700 46.56900 24.97800
C  40.70500 45.87900 28.33900
O  40.24500 47.01500 28.58700
C  41.20900 44.82700 29.47000
C  42.26400 45.40700 30.34600
O  43.46700 45.41600 30.14500
O  41.62400 45.80800 31.51600
C  42.51400 46.41800 32.52000
H  44.16800 38.46300 29.30500
H  43.50500 38.46200 23.06500
H  41.10600 44.33400 23.07000
H  43.00700 42.76600 31.11100
H  43.03800 39.96000 31.14200
H  44.95800 40.66400 32.11000
H  45.04700 42.04800 30.94200
H  45.52400 40.50800 30.45500
H  41.16500 40.75700 31.67400
H  40.21800 41.92200 30.77600
H  40.14500 43.34400 32.68200
H  41.87000 43.02800 32.96000
H  44.69700 35.91900 28.01100
H  45.72300 37.18500 28.70800
H  46.34700 36.40300 27.34500
H  44.99200 34.16500 24.42600
H  44.53400 34.73100 25.92300
H  46.25700 35.05300 25.30000
H  41.61600 39.65400 21.86900
H  42.47100 42.60800 21.41500
H  42.86300 40.53600 19.92600
H  43.45400 39.10400 20.67200
H  44.35400 40.57400 20.94000
H  39.59400 42.44500 22.08300
H  39.94500 40.97100 21.38000
H  40.23600 41.70800 19.32000
H  40.95700 43.32200 19.78800
H  39.18900 43.06600 19.79200
H  41.38000 47.27200 24.96200
H  39.70000 46.99200 25.51700
H  40.28900 46.40700 23.93100
H  40.35700 44.49400 30.06200
H  42.19000 47.37800 32.92400
H  43.53000 46.52900 32.14200
H  42.47900 45.73700 33.37000

