158

Mg 16.90500 -1.80800 27.97100
C  15.70000 0.41000 30.43100
C  19.03900 -3.12500 30.18600
C  18.44300 -3.54000 25.46100
C  15.39800 0.27100 25.60800
N  17.34700 -1.31300 30.12600
C  16.66000 -0.53600 30.92100
C  16.93600 -0.88000 32.36600
C  18.19700 -1.83600 32.32100
C  18.23200 -2.11600 30.74900
C  19.60400 -1.26600 32.79000
C  15.71400 -1.37100 33.17300
C  15.41200 -0.72000 34.56100
H  16.62200 -0.17900 35.31900
N  18.55800 -3.15600 27.79600
C  19.22100 -3.61800 28.87100
C  19.98000 -4.74400 28.49800
C  19.75900 -4.94300 27.09000
C  18.93300 -3.79400 26.70300
C  20.66100 -5.65900 29.56500
C  20.29700 -6.05900 26.12200
O  20.02500 -6.09200 24.88300
C  21.20600 -7.05800 26.72800
N  16.90200 -1.69400 25.83900
C  17.58100 -2.56500 25.03500
C  17.40700 -2.26500 23.53900
C  16.24400 -1.19900 23.58800
C  16.12200 -0.84700 25.08700
C  18.66700 -1.77300 22.80300
C  14.97900 -1.58400 22.70600
C  13.73200 -1.95700 23.56800
N  15.63500 -0.15600 27.95100
C  15.13500 0.56700 26.89800
C  14.35400 1.70000 27.41000
C  14.50300 1.57700 28.79500
C  15.31400 0.50700 29.06500
C  13.47500 2.58200 26.57700
C  14.07600 2.17700 30.03700
O  13.27300 3.03000 30.15800
C  14.85700 1.43600 31.13100
C  15.66100 2.40200 31.95900
O  16.69100 2.92900 31.59100
O  15.13200 2.65700 33.20000
C  15.75300 3.75000 33.93500
H  19.74700 -3.59400 30.87200
H  18.86100 -4.07300 24.60400
H  14.95300 0.88800 24.82500
H  17.21100 0.04200 32.87800
H  17.99300 -2.77100 32.84200
H  19.83300 -1.78600 33.72000
H  19.50200 -0.22800 33.10800
H  20.49000 -1.27800 32.15500
H  15.75700 -2.44300 33.36600
H  14.77500 -1.10700 32.68800
H  15.03100 -1.49200 35.23000
H  14.60300 0.00700 34.48800
H  20.32400 -6.67800 29.37400
H  20.34300 -5.38900 30.57200
H  21.74000 -5.51500 29.50800
H  21.82400 -7.37700 25.89000
H  20.75000 -8.00900 27.00400
H  21.84600 -6.76200 27.55900
H  17.04100 -3.23700 23.20800
H  16.60800 -0.29600 23.09900
H  18.55600 -0.80200 22.32000
H  19.12000 -2.43100 22.06100
H  19.45800 -1.63800 23.54000
H  15.29100 -2.39500 22.04800
H  14.64900 -0.73700 22.10400
H  13.32800 -1.09200 24.09300
H  14.00700 -2.67000 24.34500
H  12.98400 -2.52000 23.00900
H  13.00000 3.38000 27.14800
H  12.81800 1.92300 26.01000
H  14.20000 3.07500 25.93000
H  14.09000 0.89900 31.69000
H  15.36000 3.71800 34.95100
H  15.38200 4.69000 33.52700
H  16.83000 3.62100 34.04200
Mg -2.14000 33.66200 26.13000
C  -3.88600 32.27300 28.93100
C  -0.74400 35.82600 28.34100
C  -1.03000 35.47500 23.40800
C  -4.29600 31.96800 24.00500
N  -2.51800 34.08700 28.37500
C  -3.02200 33.26300 29.38000
C  -2.72500 33.73600 30.82400
C  -1.63400 34.83500 30.53500
C  -1.71800 35.01800 28.99200
C  -1.67900 36.17900 31.22800
C  -2.23400 32.68300 31.80600
C  -2.88800 32.62500 33.25200
H  -2.04500 32.43000 34.54400
N  -0.94600 35.24900 25.94600
C  -0.37300 35.98200 26.98400
C  0.51800 36.97400 26.43300
C  0.37700 36.94500 25.03100
C  -0.54900 35.81300 24.70500
C  1.37900 38.02700 27.22200
C  0.89400 37.84500 23.98200
O  0.60200 37.74600 22.79000
C  1.97800 38.84800 24.24800
N  -2.77900 33.79800 24.01100
C  -2.11600 34.57000 23.04600
C  -2.38700 34.08600 21.61500
C  -3.44700 33.06400 21.90800
C  -3.51100 32.91300 23.42500
C  -2.80300 35.17800 20.60700
C  -3.24100 31.68100 21.14100
C  -2.18800 30.77200 21.74500
N  -3.64200 32.28100 26.30700
C  -4.37500 31.64800 25.38400
C  -5.24900 30.65200 26.07400
C  -5.12000 30.87900 27.43700
C  -4.13800 31.89000 27.55200
C  -6.18600 29.74500 25.32400
C  -5.56700 30.48200 28.74300
O  -6.32500 29.57100 29.15900
C  -4.74700 31.38000 29.79100
C  -5.80800 32.07200 30.57300
O  -6.36200 33.07600 30.08200
O  -6.03500 31.54800 31.84600
C  -6.84900 32.38000 32.72500
H  -0.04500 36.31200 29.02500
H  -0.28700 35.62300 22.62100
H  -4.83900 31.20100 23.44900
H  -3.65000 34.20400 31.16000
H  -0.61300 34.53000 30.76800
H  -0.79400 36.55300 31.74300
H  -2.36500 36.09900 32.07100
H  -2.01800 37.00400 30.60200
H  -1.21800 32.98200 32.06400
H  -2.22200 31.69500 31.34600
H  -3.46600 31.70200 33.20200
H  -3.63800 33.38300 33.47600
H  2.40300 37.99100 26.85000
H  1.38600 37.64100 28.24200
H  0.89200 38.99300 27.09200
H  1.64100 39.44600 25.09400
H  2.07000 39.50100 23.38100
H  2.94200 38.37800 24.44500
H  -1.54800 33.47900 21.27600
H  -4.41700 33.46800 21.62000
H  -3.24300 36.05600 21.07900
H  -3.59600 34.84400 19.93700
H  -1.97800 35.54700 19.99800
H  -2.99400 31.97400 20.12100
H  -4.15500 31.08800 21.14300
H  -1.77100 31.14900 22.67900
H  -1.48600 30.59200 20.93100
H  -2.75700 29.86300 21.93900
H  -7.09200 30.24900 24.99000
H  -6.58800 28.96500 25.97000
H  -5.82500 29.32000 24.38700
H  -4.16100 30.74000 30.45000
H  -7.73000 32.56500 32.11000
H  -6.34600 33.23300 33.18000
H  -7.26000 31.74000 33.50600

