158

Mg 24.22700 -5.43000 46.22900
C  26.40800 -2.96800 44.59400
C  21.70800 -4.20400 44.13600
C  22.59100 -8.06200 46.82200
C  27.07700 -6.59200 47.78800
N  24.12300 -3.74000 44.65600
C  25.05100 -2.85600 44.16000
C  24.45700 -1.84800 43.13800
C  22.91800 -2.08200 43.37500
C  22.86700 -3.40800 44.09700
C  22.23700 -0.99500 44.18800
C  25.00800 -2.23200 41.69800
C  25.46800 -1.03600 40.87100
H  24.98000 -0.87400 39.44800
N  22.33000 -6.00500 45.70200
C  21.47200 -5.41000 44.83100
C  20.25400 -6.19300 44.70100
C  20.39200 -7.37100 45.49900
C  21.78900 -7.22800 46.06300
C  19.21400 -5.80800 43.70900
C  19.31400 -8.40000 45.80300
O  18.18600 -8.34100 45.24500
C  19.50700 -9.67200 46.67700
N  24.76800 -7.08300 47.08800
C  23.82200 -8.00800 47.39000
C  24.40000 -9.11600 48.22100
C  25.73600 -8.46900 48.77000
C  25.90100 -7.29800 47.81100
C  23.45400 -9.79200 49.31800
C  26.87800 -9.39700 48.94400
C  27.45900 -9.62800 50.34000
N  26.29800 -4.92500 46.19500
C  27.31800 -5.45300 47.01500
C  28.56700 -4.79900 46.76200
C  28.26500 -3.77600 45.79100
C  26.87500 -3.99300 45.50400
C  29.89600 -5.04000 47.51700
C  28.72300 -2.68700 45.00600
O  29.85200 -2.26300 44.91000
C  27.54800 -2.11700 44.13800
C  27.54400 -0.64900 44.48000
O  27.65400 -0.16800 45.60100
O  27.53600 0.16100 43.33700
C  27.91500 1.59700 43.58300
H  20.99300 -3.58600 43.58900
H  22.00900 -8.91800 47.17000
H  27.92200 -6.93500 48.38800
H  24.77100 -0.81900 43.31400
H  22.42400 -2.25400 42.41900
H  21.46100 -0.48100 43.62000
H  22.92700 -0.21100 44.49700
H  21.68500 -1.36100 45.05300
H  24.17000 -2.64400 41.13700
H  25.86800 -2.89800 41.63100
H  26.55000 -1.15900 40.91900
H  25.16600 -0.13700 41.40800
H  19.60200 -5.09800 42.97900
H  18.42600 -5.35000 44.30800
H  18.72700 -6.68200 43.27600
H  20.00900 -9.36700 47.59500
H  20.05400 -10.49200 46.21200
H  18.48100 -9.92700 46.94100
H  24.50700 -9.97800 47.56300
H  25.54200 -8.03100 49.74900
H  23.50000 -10.87900 49.25100
H  22.40900 -9.49600 49.23200
H  23.76200 -9.68400 50.35800
H  27.69900 -9.15700 48.26900
H  26.56800 -10.42700 48.76800
H  26.58600 -9.63300 50.99200
H  27.98900 -8.71400 50.60800
H  28.07000 -10.53100 50.31100
H  30.29100 -4.09800 47.89700
H  30.63500 -5.55800 46.90400
H  29.66200 -5.72900 48.32900
H  27.80000 -2.14900 43.07800
H  28.59400 1.70800 44.42800
H  26.99000 2.11200 43.84200
H  28.37000 2.04000 42.69700
Mg 17.42300 52.24000 25.86300
C  19.59000 50.75800 28.24400
C  15.30100 53.02400 28.38400
C  15.48200 53.46100 23.52900
C  19.83800 51.28900 23.42100
N  17.48400 51.85400 28.05100
C  18.46700 51.28600 28.82400
C  18.11400 51.40700 30.34800
C  16.66600 52.01600 30.34600
C  16.48600 52.38300 28.85200
C  15.44200 51.14900 30.82900
C  18.97300 52.35600 31.12400
C  19.41100 51.90200 32.54100
H  18.38500 51.18000 33.38500
N  15.58500 52.99600 25.90800
C  14.80900 53.25800 27.03500
C  13.46200 53.75800 26.59600
C  13.52000 54.01100 25.21800
C  14.87400 53.47500 24.85600
C  12.37700 53.96400 27.48100
C  12.55500 54.55600 24.23100
O  12.67100 54.64600 23.01700
C  11.31400 55.31100 24.84600
N  17.60100 52.21700 23.76000
C  16.68200 52.92200 23.09400
C  17.01900 52.99500 21.59400
C  18.39900 52.41500 21.51800
C  18.65400 51.89300 22.96200
C  15.95200 52.40400 20.60900
C  19.55000 53.40100 21.06000
C  20.04600 54.44900 22.08900
N  19.34000 51.27400 25.77700
C  20.17300 50.97000 24.71800
C  21.38100 50.29000 25.15300
C  21.20100 50.20500 26.56200
C  19.93000 50.78100 26.87200
C  22.54500 49.83100 24.33000
C  21.77900 49.71900 27.85200
O  22.82300 49.10800 28.10100
C  20.73600 50.02700 28.91300
C  20.45100 48.73100 29.50400
O  20.15600 47.72200 28.86300
O  20.28200 48.88300 30.82400
C  19.73500 47.76900 31.60400
H  14.72600 53.39200 29.23600
H  14.88700 53.95700 22.75900
H  20.64800 51.15800 22.70000
H  18.11200 50.41000 30.78800
H  16.44900 52.95300 30.85900
H  15.91300 50.43400 31.50400
H  15.01200 50.51600 30.05300
H  14.77000 51.82700 31.35600
H  18.53500 53.33200 31.33400
H  19.89800 52.50500 30.56800
H  19.88500 52.75600 33.02400
H  20.22100 51.18900 32.39100
H  12.11200 55.01300 27.61300
H  12.65100 53.49200 28.42400
H  11.46200 53.50100 27.10900
H  10.69600 54.74100 25.54000
H  10.70800 55.73600 24.04600
H  11.64500 56.21100 25.36600
H  17.10300 54.04900 21.33100
H  18.36700 51.55000 20.85500
H  16.44300 51.59200 20.07300
H  15.46700 53.11800 19.94300
H  15.09400 52.02200 21.16200
H  19.21000 53.71700 20.07400
H  20.42400 52.75500 20.98800
H  19.32800 54.59100 22.89700
H  20.04500 55.38100 21.52300
H  21.08600 54.29800 22.37700
H  23.20000 49.15900 24.88300
H  23.12500 50.70000 24.01900
H  22.15700 49.26300 23.48400
H  21.12400 50.79000 29.58900
H  20.36100 46.91900 31.33200
H  18.69700 47.55600 31.35100
H  19.82600 47.93700 32.67800

