158

Mg 24.38200 -5.43200 45.50400
C  26.56200 -3.33900 43.96800
C  21.86700 -4.29300 43.37300
C  22.34500 -7.97800 46.50700
C  27.00900 -7.00800 47.16700
N  24.30200 -4.15300 43.70300
C  25.27700 -3.25600 43.40800
C  24.87400 -2.32600 42.27500
C  23.29800 -2.40600 42.28600
C  23.13700 -3.74600 43.14000
C  22.52700 -1.23400 42.95800
C  25.45500 -2.74400 40.85300
C  26.00200 -1.48100 40.17100
H  25.83500 -1.45300 38.66200
N  22.33100 -6.08700 44.98700
C  21.43500 -5.38100 44.15200
C  20.23900 -6.09700 44.23000
C  20.32500 -7.15900 45.14200
C  21.70200 -7.14300 45.56900
C  19.15700 -5.67500 43.19000
C  19.22300 -8.08600 45.53600
O  18.06700 -7.83900 45.10100
C  19.33500 -9.17300 46.58300
N  24.65000 -7.23500 46.66400
C  23.67000 -8.10400 46.90400
C  24.11600 -9.24900 47.76100
C  25.63800 -8.88700 48.05900
C  25.81000 -7.69300 47.20800
C  23.34100 -9.67400 49.02200
C  26.59500 -10.04500 47.75300
C  27.56400 -10.49000 48.81400
N  26.34600 -5.27200 45.62300
C  27.32700 -5.87500 46.41200
C  28.62300 -5.16500 46.23800
C  28.30100 -4.08700 45.32800
C  26.94900 -4.26100 44.98900
C  29.99200 -5.52600 46.91700
C  28.82400 -2.93200 44.68600
O  29.98000 -2.48200 44.82600
C  27.70100 -2.42300 43.65300
C  27.57000 -0.96500 43.91400
O  27.05200 -0.44200 44.91100
O  28.26400 -0.18800 42.96400
C  28.46800 1.28600 43.21300
H  21.03900 -3.89800 42.78000
H  21.84600 -8.91100 46.78000
H  27.93900 -7.17600 47.71500
H  25.08000 -1.33100 42.67100
H  22.70400 -2.51000 41.37800
H  23.17500 -0.52600 43.47500
H  21.84700 -1.69200 43.67600
H  21.96000 -0.68600 42.20600
H  24.66800 -3.30500 40.34900
H  26.23700 -3.47800 41.04800
H  27.07900 -1.57300 40.31000
H  25.64300 -0.54600 40.60000
H  19.54900 -5.72500 42.17400
H  18.74200 -4.71300 43.48800
H  18.42100 -6.47900 43.21600
H  19.87300 -9.97100 46.07000
H  18.39600 -9.49300 47.03300
H  19.99100 -8.85700 47.39500
H  24.16100 -10.13100 47.12100
H  25.75800 -8.63900 49.11400
H  22.39000 -9.14100 49.02500
H  23.80700 -9.33500 49.94700
H  23.09600 -10.73400 49.07700
H  27.30600 -9.74800 46.98100
H  25.97900 -10.82200 47.30000
H  27.42900 -11.57000 48.87600
H  27.25800 -10.11300 49.79000
H  28.56500 -10.13000 48.57800
H  30.39700 -6.52200 46.74100
H  29.82900 -5.31600 47.97400
H  30.55400 -4.80600 46.32200
H  28.14900 -2.67400 42.69100
H  28.21800 1.86600 42.32400
H  29.50800 1.43000 43.50600
H  27.88400 1.72500 44.02200
Mg 25.45200 1.03100 29.24300
C  27.39600 0.94600 32.23600
C  22.67600 1.16500 31.28900
C  23.59100 0.65800 26.57100
C  28.43100 0.19000 27.47700
N  25.08600 1.04600 31.47100
C  26.03200 1.18100 32.51700
C  25.40600 1.50100 33.85600
C  23.93900 1.35300 33.46400
C  23.86200 1.08600 31.96500
C  23.18700 0.33800 34.33600
C  25.80100 2.93600 34.37500
C  26.50700 2.91900 35.77100
H  25.77900 3.82700 36.80100
N  23.42900 0.97900 28.99500
C  22.42700 1.07600 29.93100
C  21.13500 1.11200 29.23900
C  21.42600 1.00100 27.87600
C  22.83700 0.83900 27.75400
C  19.84800 1.33600 29.93600
C  20.49100 0.97600 26.63200
O  20.83400 0.93000 25.47300
C  18.90600 0.87600 26.83800
N  25.99700 0.42000 27.32300
C  24.95800 0.42400 26.36200
C  25.50600 0.18500 25.01000
C  27.03300 0.39800 25.23600
C  27.25100 0.35800 26.78500
C  25.01100 -1.19500 24.41100
C  27.81000 1.65200 24.71400
C  27.31700 3.00600 25.28400
N  27.53600 0.61900 29.72300
C  28.59300 0.29100 28.91400
C  29.72300 0.18200 29.67000
C  29.34300 0.52100 30.96300
C  27.97200 0.70500 31.00400
C  31.07000 -0.13300 29.15000
C  29.92100 0.87500 32.26800
O  31.05100 0.87000 32.69700
C  28.55700 1.07100 33.15700
C  28.62700 0.10700 34.26800
O  28.10700 -1.03600 34.25300
O  29.18600 0.68300 35.38800
C  29.34400 -0.21000 36.54600
H  21.80400 1.28700 31.93400
H  23.10800 0.52100 25.60100
H  29.33900 0.13500 26.87200
H  25.74700 0.65300 34.45000
H  23.48100 2.33000 33.62100
H  23.83100 -0.37000 34.85900
H  22.63600 -0.36600 33.71200
H  22.60000 0.79800 35.13100
H  24.89600 3.53500 34.47300
H  26.46300 3.45800 33.68400
H  27.44400 3.41200 35.51200
H  26.52100 1.88200 36.10400
H  19.45700 2.34000 29.77200
H  19.99100 1.26900 31.01500
H  19.01500 0.73000 29.58000
H  18.59000 -0.02700 27.36100
H  18.46600 0.93000 25.84300
H  18.68900 1.79300 27.38700
H  25.10000 1.01000 24.42500
H  27.51200 -0.49200 24.82500
H  24.46700 -1.66200 25.23100
H  25.84100 -1.88800 24.27300
H  24.39200 -1.14900 23.51400
H  27.87700 1.73600 23.63000
H  28.87600 1.55800 24.92100
H  26.77000 2.98200 26.22600
H  26.75000 3.47700 24.48100
H  28.19900 3.59900 25.52700
H  31.07900 -0.45900 28.11000
H  31.49800 -0.93900 29.74700
H  31.80000 0.67200 29.23600
H  28.66400 2.04200 33.63900
H  28.61100 0.06300 37.30500
H  30.26000 0.08400 37.05800
H  29.49800 -1.28300 36.43100

