158

Mg 29.89700 57.73600 40.09800
C  26.89200 56.09500 39.55900
C  31.53000 54.92400 38.94100
C  32.74400 59.57400 39.72900
C  28.09300 60.65800 40.92900
N  29.25800 55.74200 39.45300
C  28.01100 55.26500 39.21800
C  27.93900 53.82500 38.62100
C  29.39900 53.37900 38.82500
C  30.12700 54.75600 39.10700
C  29.81300 52.37400 39.97300
C  27.26900 53.74000 37.19200
C  28.25600 53.53900 35.97200
H  27.73400 53.85400 34.53100
N  31.83700 57.32900 39.48700
C  32.30000 56.06500 39.03700
C  33.71500 56.20500 38.61100
C  34.09900 57.51900 38.89600
C  32.88400 58.18100 39.42500
C  34.49000 55.09700 37.99900
C  35.48700 58.04800 38.85600
O  36.37100 57.40500 38.34500
C  35.98200 59.37400 39.39600
N  30.34100 59.81800 40.29000
C  31.59200 60.27900 40.01000
C  31.63600 61.78900 40.12300
C  30.22700 62.14300 40.64600
C  29.47200 60.81400 40.57400
C  32.75600 62.42100 40.96500
C  29.50400 63.27600 39.83700
C  28.18200 63.89100 40.31900
N  27.91900 58.29100 40.45700
C  27.34100 59.54700 40.73500
C  25.97600 59.34900 40.78500
C  25.73200 58.06800 40.39200
C  26.97700 57.43400 40.07600
C  25.01500 60.46700 41.11300
C  24.66600 57.02300 40.13700
O  23.44600 57.09000 40.31200
C  25.37400 55.72900 39.55200
C  25.03600 54.52500 40.24700
O  25.02200 54.46600 41.48300
O  24.58900 53.54700 39.41300
C  24.58400 52.11300 39.73800
H  32.01000 54.07300 38.45500
H  33.54900 60.29200 39.55900
H  27.60200 61.57000 41.27500
H  27.22200 53.22000 39.17600
H  29.91800 53.01300 37.93900
H  30.09100 51.43800 39.48700
H  28.98500 52.28300 40.67500
H  30.74200 52.63200 40.48100
H  26.78700 54.69400 36.98300
H  26.59900 52.88400 37.11100
H  28.30200 52.45000 35.95900
H  29.23100 53.94800 36.23500
H  33.96800 54.14100 38.01700
H  35.32200 54.89700 38.67400
H  34.86400 55.42000 37.02800
H  35.40600 59.61600 40.28900
H  35.75600 60.19400 38.71400
H  37.05700 59.35700 39.57100
H  31.84800 62.03300 39.08200
H  30.27300 62.50100 41.67400
H  33.03000 61.71100 41.74600
H  32.53200 63.39100 41.40800
H  33.61100 62.76000 40.38100
H  29.23800 62.94300 38.83400
H  30.11900 64.17600 39.83200
H  27.35300 63.34300 39.87200
H  28.21400 64.96500 40.13300
H  28.16700 63.80200 41.40500
H  24.93000 60.98100 40.15500
H  25.39600 61.19100 41.83300
H  24.05700 60.13500 41.51100
H  25.08200 55.54200 38.51900
H  25.38600 51.59100 39.21800
H  23.72300 51.67000 39.23700
H  24.65100 51.77600 40.77300
Mg 1.01900 43.03600 26.42600
C  3.41800 43.08600 28.90800
C  -1.31700 41.95400 28.73000
C  -0.98800 42.39000 23.93700
C  3.72100 43.46100 24.11000
N  1.03600 42.62500 28.52400
C  2.10500 42.87900 29.42500
C  1.63400 42.88700 30.88600
C  0.15200 42.26700 30.77200
C  -0.05700 42.32100 29.24400
C  -0.16400 40.88800 31.42900
C  1.65900 44.35700 31.50800
C  1.70400 44.41600 33.03900
H  1.33800 43.10600 33.76700
N  -0.89800 42.34800 26.38400
C  -1.67800 41.97600 27.39400
C  -3.00500 41.74900 26.87900
C  -2.94200 41.77900 25.41600
C  -1.55600 42.16900 25.20000
C  -4.16800 41.52300 27.88600
C  -4.01200 41.47500 24.44700
O  -3.80800 41.42500 23.22800
C  -5.39400 41.25500 24.88400
N  1.36900 43.00100 24.30600
C  0.30400 42.68500 23.54800
C  0.72200 42.84900 21.98400
C  2.13200 43.45900 22.02200
C  2.49000 43.29600 23.52600
C  0.60000 41.55900 21.15300
C  2.29700 44.88200 21.53800
C  1.56800 45.97000 22.39300
N  3.12100 43.20100 26.40700
C  4.03000 43.45000 25.45600
C  5.34900 43.57900 26.06500
C  5.13900 43.33700 27.45000
C  3.72800 43.25700 27.59600
C  6.63500 43.84200 25.40200
C  5.77500 43.21000 28.66300
O  6.95600 43.19700 29.05300
C  4.65800 43.11400 29.74500
C  4.94800 41.88000 30.60100
O  5.11700 40.70000 30.24000
O  4.96200 42.28400 31.91400
C  5.10400 41.27600 32.97100
H  -1.96700 41.62100 29.54200
H  -1.64300 42.21900 23.08100
H  4.51300 43.87800 23.48400
H  2.19800 42.17000 31.48100
H  -0.55700 42.98100 31.19000
H  0.66000 40.39700 31.94700
H  -0.45100 40.17200 30.66000
H  -0.99400 40.98500 32.13000
H  0.73000 44.80400 31.15400
H  2.47300 44.92700 31.06000
H  0.96800 45.08300 33.48800
H  2.71300 44.76800 33.25700
H  -4.82800 42.37800 27.73900
H  -3.83500 41.70500 28.90800
H  -4.78900 40.63100 27.80700
H  -6.08100 41.05100 24.06200
H  -5.72500 42.06000 25.54000
H  -5.23400 40.36700 25.49600
H  0.06000 43.58700 21.53000
H  2.75600 42.78400 21.43700
H  1.50200 40.95000 21.20800
H  0.25600 41.78100 20.14300
H  -0.29100 41.08500 21.56600
H  1.83300 44.94900 20.55400
H  3.37800 45.02400 21.54300
H  0.70200 45.62700 22.96000
H  1.20400 46.73500 21.70700
H  2.30400 46.41800 23.06100
H  7.41300 44.30400 26.01100
H  6.34700 44.67100 24.75600
H  7.11200 43.03400 24.84800
H  4.59500 43.97600 30.40900
H  4.75900 40.29800 32.63500
H  4.50800 41.71300 33.77200
H  6.11600 41.20400 33.36900

