158

Mg 16.96500 -1.68200 28.12200
C  15.96700 0.79500 30.36500
C  18.89200 -3.11800 30.52000
C  18.49600 -3.47200 25.66000
C  15.44500 0.28800 25.46700
N  17.22400 -1.26000 30.24700
C  16.62500 -0.25800 30.95000
C  16.91500 -0.42800 32.48800
C  18.15000 -1.43500 32.41500
C  18.06500 -2.01000 30.97600
C  19.57400 -0.78900 32.67000
C  15.72500 -1.00000 33.32400
C  15.78100 -0.56400 34.83500
H  17.09000 -0.10900 35.50200
N  18.31100 -3.23200 28.11100
C  18.99700 -3.65500 29.21600
C  19.87400 -4.67600 28.75500
C  19.71600 -4.87600 27.35400
C  18.84900 -3.80000 26.97100
C  20.83200 -5.42600 29.67400
C  20.37100 -5.89000 26.36900
O  20.27900 -5.88500 25.16700
C  21.14700 -7.02900 26.95300
N  16.95500 -1.57800 25.92900
C  17.66700 -2.45100 25.17700
C  17.44200 -2.20700 23.68600
C  16.31400 -1.12700 23.70000
C  16.22700 -0.79000 25.17800
C  18.74500 -1.74400 22.95900
C  14.99400 -1.60500 23.04500
C  14.02200 -2.28400 23.99300
N  15.84900 0.15500 27.87300
C  15.23800 0.77200 26.78800
C  14.48200 1.95000 27.25600
C  14.82800 2.01200 28.65900
C  15.61100 0.91400 28.98600
C  13.76300 2.80200 26.29200
C  14.64400 2.74800 29.83400
O  14.09800 3.86400 29.99600
C  15.15900 1.85900 31.06000
C  15.96400 2.82800 31.79200
O  16.86300 3.43900 31.28800
O  15.39200 3.04700 33.09000
C  16.12400 3.92700 33.95400
H  19.46100 -3.57200 31.33500
H  19.04600 -3.95700 24.85100
H  15.04700 0.90300 24.65700
H  17.25600 0.47700 32.99100
H  18.05800 -2.20000 33.18600
H  20.09900 -1.56200 33.23100
H  19.53700 0.16700 33.19200
H  20.10700 -0.69000 31.72500
H  15.71800 -2.08300 33.19900
H  14.82000 -0.56600 32.89700
H  15.43800 -1.46100 35.34900
H  15.05900 0.23200 35.01800
H  21.86300 -5.33800 29.33000
H  20.62600 -6.47900 29.86600
H  20.79100 -4.93100 30.64400
H  20.48700 -7.56400 27.63600
H  22.02000 -6.62700 27.46800
H  21.40500 -7.73700 26.16500
H  17.04500 -3.15100 23.31300
H  16.63500 -0.22600 23.17700
H  18.56500 -1.28300 21.98800
H  19.41400 -2.59100 22.81000
H  19.21900 -0.87200 23.41100
H  15.31300 -2.27700 22.24900
H  14.48800 -0.73200 22.63200
H  13.24300 -1.58200 24.29100
H  14.52600 -2.66000 24.88300
H  13.61700 -3.14600 23.46300
H  13.72900 2.47300 25.25400
H  14.45100 3.64600 26.25600
H  12.81300 3.13900 26.70800
H  14.36300 1.53000 31.72800
H  16.18800 3.49000 34.95000
H  15.59100 4.87700 34.00600
H  17.13200 4.12500 33.59000
Mg 48.78500 45.22400 43.29100
C  45.30800 45.34900 42.64000
C  48.69700 41.75300 42.54300
C  52.08700 45.23300 43.04900
C  48.67300 48.66700 43.76500
N  47.13900 43.87200 42.60600
C  45.85900 44.04600 42.48600
C  45.09000 42.74600 42.07600
C  46.13900 41.61000 42.34800
C  47.43700 42.44100 42.42600
C  45.85400 40.71000 43.58900
C  44.35900 42.72100 40.65200
C  45.03200 43.26200 39.42500
H  45.05200 42.41700 38.08000
N  50.19600 43.64500 42.88300
C  49.98400 42.33400 42.62300
C  51.22200 41.70400 42.40500
C  52.25400 42.70400 42.53100
C  51.49100 43.92500 42.87600
C  51.44700 40.25300 42.13100
C  53.75400 42.47200 42.15200
O  54.13700 41.35000 41.88200
C  54.71600 43.66100 41.80600
N  50.21700 46.70300 43.32100
C  51.53400 46.50200 43.19300
C  52.30500 47.83700 43.23200
C  51.20500 48.96800 43.44700
C  49.91800 48.04400 43.54100
C  53.43700 47.83800 44.35600
C  50.94100 50.02500 42.24700
C  51.52600 51.38600 42.59500
N  47.32900 46.72700 43.34900
C  47.41600 48.06800 43.59300
C  46.15700 48.63900 43.56200
C  45.28600 47.61400 43.24500
C  46.06600 46.48900 43.05500
C  45.90600 50.04400 43.52600
C  43.87400 47.28800 42.82100
O  42.86600 47.93700 42.69000
C  43.88900 45.77500 42.41400
C  42.81000 44.98100 43.18200
O  41.99400 44.23900 42.62600
O  42.77000 45.35900 44.46800
C  41.68300 44.82700 45.29200
H  48.64300 40.66700 42.44500
H  53.17700 45.17800 43.09500
H  48.54300 49.75200 43.77900
H  44.24600 42.58900 42.74700
H  46.19800 41.00300 41.44500
H  45.50000 39.82000 43.06900
H  45.11100 41.18500 44.23000
H  46.74400 40.54500 44.19700
H  43.38600 43.20300 40.74700
H  44.13900 41.65500 40.59100
H  46.04800 43.57800 39.65700
H  44.42600 44.11000 39.10700
H  51.97800 40.20600 41.18000
H  50.51400 39.69600 42.04800
H  52.03900 39.84800 42.95200
H  55.08900 44.19400 42.68100
H  54.09000 44.31600 41.19900
H  55.50200 43.13400 41.26600
H  52.74800 48.02400 42.25400
H  51.33900 49.39100 44.44200
H  53.20400 48.52500 45.17000
H  54.36700 48.11700 43.86100
H  53.56300 46.83400 44.76000
H  49.90600 50.19900 41.95300
H  51.32300 49.74500 41.26500
H  50.84500 52.20100 42.34900
H  52.34600 51.55900 41.89700
H  51.77400 51.45800 43.65400
H  45.25500 50.35800 44.34100
H  45.44000 50.33500 42.58400
H  46.81800 50.63900 43.57200
H  43.62800 45.78300 41.35600
H  41.58900 43.74900 45.16400
H  40.68600 45.17500 45.02300
H  41.75800 45.03400 46.36000

