158

Mg 45.34200 4.15700 47.36000
C  43.44600 6.96100 46.85400
C  42.59900 2.21100 46.58100
C  47.34900 1.29000 47.26000
C  48.22600 6.13000 47.20200
N  43.28700 4.57300 46.73000
C  42.71600 5.81500 46.65900
C  41.25200 5.74000 46.37900
C  40.95000 4.24200 46.58700
C  42.34400 3.63000 46.59800
C  40.13100 3.93100 47.81000
C  40.97600 6.21700 44.89900
C  40.19000 7.48200 44.76200
H  40.42300 8.28800 43.53800
N  44.94600 2.05800 47.07800
C  43.76000 1.47700 46.77200
C  43.90000 0.03400 46.70500
C  45.25700 -0.22100 46.91100
C  45.97300 1.08100 47.04100
C  42.77200 -0.93900 46.52000
C  45.86000 -1.63700 46.92400
O  45.11600 -2.60300 46.82200
C  47.36700 -1.86100 46.90900
N  47.48500 3.78200 47.21600
C  48.03400 2.55700 47.36000
C  49.52900 2.61600 47.36200
C  49.82400 4.16000 47.35600
C  48.43300 4.74800 47.22900
C  50.14000 1.81800 48.58000
C  50.83800 4.69700 46.17200
C  52.35700 4.88600 46.61900
N  45.77900 6.23800 47.05200
C  47.01100 6.86800 47.12800
C  46.77000 8.27000 47.21400
C  45.35700 8.35800 47.14100
C  44.84200 7.08500 47.07100
C  47.72600 9.37000 47.19400
C  44.21900 9.26500 47.08900
O  44.26200 10.50700 47.13400
C  42.97300 8.44800 46.82200
C  41.98200 8.69400 47.88600
O  41.75800 7.93600 48.80500
O  41.24400 9.78200 47.55700
C  39.98400 9.99600 48.28900
H  41.74300 1.58400 46.32300
H  47.95500 0.39600 47.41700
H  49.15700 6.69800 47.25200
H  40.72700 6.38000 47.08700
H  40.48000 3.73500 45.74500
H  39.33100 4.65700 47.95300
H  40.72000 3.80700 48.71900
H  39.47400 3.07800 47.63800
H  40.55700 5.44100 44.25900
H  41.94500 6.43400 44.44900
H  40.31000 8.14300 45.62000
H  39.16900 7.11300 44.66400
H  43.01200 -1.75300 45.83600
H  41.94400 -0.55700 45.92100
H  42.33800 -1.23200 47.47500
H  47.64900 -2.89000 46.68600
H  47.71100 -1.90400 47.94300
H  48.06900 -1.23900 46.35300
H  49.81000 2.23500 46.38100
H  50.26300 4.44400 48.31300
H  49.37000 1.72400 49.34500
H  50.95600 2.39100 49.02100
H  50.54600 0.87700 48.20800
H  50.33900 5.53900 45.69100
H  50.75600 3.94300 45.38800
H  52.76800 5.81700 46.22900
H  52.89500 4.09000 46.10500
H  52.53300 4.77200 47.68900
H  48.29200 9.35200 46.26300
H  48.47700 9.15200 47.95400
H  47.17700 10.27400 47.45600
H  42.53400 8.64800 45.84500
H  40.14200 10.74300 49.06600
H  39.45600 9.16100 48.75100
H  39.39500 10.51000 47.53000
Mg 49.52300 45.48700 42.22500
C  46.27900 46.23900 41.07800
C  49.24600 42.49800 40.68400
C  52.86900 45.28500 42.47700
C  49.69600 48.66300 43.53400
N  47.89600 44.50100 41.03500
C  46.66000 44.98300 40.66100
C  45.86200 43.92900 39.84300
C  46.69100 42.69400 40.16700
C  48.03900 43.24800 40.60800
C  46.14100 41.65900 41.22900
C  45.70500 44.38900 38.27400
C  44.35400 44.10400 37.62500
H  44.34400 43.14600 36.42400
N  50.83900 44.06400 41.69000
C  50.54700 42.87700 41.10800
C  51.74400 42.08200 41.08700
C  52.84000 42.87500 41.54900
C  52.20200 44.17200 41.96600
C  51.71600 40.64000 40.61600
C  54.28500 42.36400 41.70400
O  54.63200 41.16300 41.48900
C  55.44200 43.24900 42.12100
N  51.09600 46.85600 42.90100
C  52.38000 46.54400 42.87100
C  53.24900 47.65700 43.35000
C  52.23700 48.68700 43.84400
C  50.92200 48.06600 43.35500
C  54.32800 47.21600 44.36400
C  52.61000 50.12200 43.38000
C  52.84600 51.27400 44.38900
N  48.22600 47.05300 42.51600
C  48.41700 48.27000 43.09400
C  47.17700 49.01200 43.13100
C  46.31300 48.24400 42.31000
C  46.99200 47.05000 41.98500
C  46.88300 50.42400 43.70500
C  44.98600 48.18200 41.75200
O  44.04200 48.90700 41.80800
C  44.94900 46.90100 40.81900
C  43.75200 46.02900 41.21000
O  42.99100 45.47300 40.41100
O  43.79700 45.71100 42.56100
C  42.89300 44.65700 43.04200
H  49.22400 41.47700 40.29500
H  53.95500 45.18800 42.54200
H  49.67300 49.72400 43.79100
H  44.87300 43.71000 40.24500
H  46.72100 42.12200 39.23900
H  45.99500 40.63900 40.87400
H  45.14000 41.96000 41.53700
H  46.74800 41.53000 42.12500
H  46.52900 43.89000 37.76300
H  45.91000 45.45000 38.12700
H  43.94700 45.06400 37.30800
H  43.67700 43.58700 38.30600
H  51.72100 40.73900 39.53000
H  50.86700 40.13600 41.07600
H  52.58600 40.09600 40.98400
H  55.28700 43.59400 43.14400
H  55.47100 44.10400 41.44600
H  56.36800 42.67700 42.18400
H  53.61300 48.04400 42.39800
H  52.20100 48.69400 44.93400
H  54.31000 46.13500 44.50100
H  54.10200 47.57100 45.36900
H  55.25100 47.69500 44.03800
H  51.77700 50.49500 42.78300
H  53.56300 50.07000 42.85500
H  52.07800 52.04700 44.37300
H  53.80200 51.79900 44.37300
H  52.89900 50.81600 45.37700
H  47.78600 50.68700 44.25500
H  45.99000 50.28700 44.31500
H  46.66700 51.16800 42.93700
H  44.76700 47.13000 39.76900
H  42.08900 45.25700 43.46700
H  43.45500 44.07900 43.77600
H  42.46500 43.94700 42.33400

