158

Mg 1.90200 -1.29400 44.61200
C  5.35900 -0.61700 44.11600
C  1.18600 1.77100 43.01000
C  -1.17600 -2.24400 44.42000
C  2.90700 -4.51700 45.82100
N  3.14600 0.29800 43.61400
C  4.53000 0.38300 43.60400
C  4.97300 1.67900 42.79800
C  3.74300 2.64200 42.87500
C  2.60800 1.53500 43.18600
C  3.76300 3.73900 44.04500
C  5.49500 1.42400 41.39400
C  6.70600 2.15600 40.89100
H  6.67000 3.21800 39.71600
N  0.24100 -0.35500 43.90400
C  0.14300 0.85400 43.26300
C  -1.17000 1.11800 42.91300
C  -1.96300 0.05800 43.42200
C  -0.97000 -0.91400 43.98600
C  -1.55600 2.35900 42.27200
C  -3.46100 -0.08100 43.36100
O  -4.16400 0.76000 42.81700
C  -4.20700 -1.13100 44.12800
N  1.02400 -3.14900 44.99100
C  -0.34400 -3.22300 44.89300
C  -0.82700 -4.59500 45.37200
C  0.40600 -5.22600 46.04700
C  1.54400 -4.27400 45.66800
C  -2.07000 -4.45700 46.28200
C  0.63200 -6.82100 45.69100
C  1.01100 -7.71800 46.88200
N  3.70100 -2.38800 44.91300
C  3.96900 -3.61200 45.48900
C  5.39700 -3.85600 45.54900
C  5.98900 -2.65500 45.06800
C  4.87600 -1.78800 44.70300
C  6.04700 -5.15000 45.80900
C  7.27000 -1.93500 44.82800
O  8.46900 -2.17700 45.04800
C  6.85700 -0.59100 44.12600
C  7.32100 0.51500 44.92800
O  7.06300 0.82800 46.09200
O  8.04400 1.32400 44.08900
C  8.25600 2.66600 44.63800
H  0.95900 2.79600 42.71300
H  -2.23500 -2.51100 44.39000
H  3.11800 -5.43800 46.36800
H  5.69800 2.22400 43.40200
H  3.45000 3.02600 41.89800
H  3.41000 3.35700 45.00300
H  3.06600 4.54500 43.82000
H  4.78600 4.10100 44.15500
H  4.79100 1.72500 40.61800
H  5.76500 0.38700 41.19000
H  7.46700 1.46600 40.52700
H  7.07700 2.64500 41.79200
H  -2.56400 2.54000 42.64400
H  -1.60000 2.39000 41.18300
H  -0.99800 3.21800 42.64600
H  -5.26600 -0.88800 44.21600
H  -3.76100 -1.20100 45.12000
H  -4.00800 -2.09200 43.65300
H  -1.03200 -5.10000 44.42800
H  0.38300 -5.04600 47.12100
H  -2.16800 -5.40200 46.81600
H  -2.84700 -4.16600 45.57500
H  -2.19000 -3.73500 47.08900
H  1.31100 -6.85300 44.83900
H  -0.30700 -7.16700 45.25800
H  1.86800 -8.36600 46.70100
H  0.16800 -8.38500 47.06300
H  1.05300 -7.15000 47.81200
H  5.56700 -5.96200 45.26200
H  5.84800 -5.32400 46.86600
H  7.12400 -5.22600 45.66000
H  7.21400 -0.59200 43.09600
H  7.31300 3.21300 44.63200
H  8.95900 3.14600 43.95700
H  8.67200 2.58600 45.64300
Mg 44.90700 4.77200 47.22600
C  42.82800 7.50200 47.21100
C  42.04700 2.75400 46.73100
C  46.88300 2.05500 46.55400
C  47.56300 6.84000 47.02700
N  42.62700 5.07600 47.04200
C  42.10200 6.29800 47.06200
C  40.59600 6.23300 46.78600
C  40.30400 4.69500 46.58500
C  41.76500 4.10600 46.72600
C  39.28800 3.83100 47.41800
C  39.97300 7.10000 45.62700
C  40.74300 7.04200 44.28300
H  39.98600 6.45500 43.09200
N  44.47900 2.69300 46.79800
C  43.26000 2.09800 46.71700
C  43.46100 0.70700 46.49100
C  44.85700 0.47200 46.57200
C  45.50300 1.76800 46.62000
C  42.42000 -0.36500 46.21300
C  45.42900 -0.89900 46.58400
O  44.79600 -1.95000 46.69500
C  46.84000 -1.10300 46.66500
N  46.94300 4.46700 46.80000
C  47.58100 3.28300 46.60000
C  49.10400 3.45800 46.47500
C  49.23400 4.95200 46.82800
C  47.81700 5.48000 46.82300
C  49.83700 2.50300 47.43600
C  50.25600 5.70500 45.94300
C  49.85200 5.89900 44.57200
N  45.21800 6.73700 47.22700
C  46.34800 7.49500 47.14900
C  46.05500 8.87900 47.15500
C  44.70200 8.90900 47.30200
C  44.23500 7.62000 47.27300
C  47.06200 10.01600 47.00000
C  43.56600 9.79500 47.47500
O  43.55900 11.02600 47.44100
C  42.29900 8.91100 47.36000
C  41.36500 8.97600 48.52400
O  41.45800 8.39100 49.58300
O  40.27700 9.73200 48.14400
C  39.33700 10.05900 49.20300
H  41.14200 2.14400 46.70500
H  47.54300 1.19900 46.39500
H  48.42300 7.50600 47.12600
H  40.19000 6.55100 47.74600
H  40.18800 4.48100 45.52300
H  38.47500 4.44300 47.80700
H  39.80900 3.44400 48.29400
H  38.86500 2.99400 46.86300
H  39.95000 8.12700 45.99300
H  38.90600 6.91200 45.50500
H  41.64300 6.43900 44.39900
H  41.06200 8.07400 44.13900
H  42.68500 -0.87100 45.28400
H  41.43600 0.10100 46.25700
H  42.46200 -1.03700 47.07000
H  47.23800 -0.47700 47.46400
H  47.32100 -0.72500 45.76300
H  47.10600 -2.13400 46.89800
H  49.44800 3.30700 45.45200
H  49.57700 5.19200 47.83500
H  50.76500 2.95800 47.78400
H  49.86900 1.44700 47.16800
H  49.23400 2.32100 48.32500
H  51.18700 5.16300 46.11200
H  50.25100 6.71200 46.35900
H  50.66400 5.66100 43.88500
H  49.40200 6.86500 44.34600
H  49.06000 5.20800 44.28400
H  48.05500 9.82400 47.40800
H  46.69300 10.86700 47.57200
H  47.16900 10.15500 45.92400
H  41.77700 9.20500 46.45000
H  38.59600 9.26400 49.12600
H  39.02800 11.07600 48.96100
H  39.80000 9.94700 50.18300

