158

Mg 40.29400 9.58800 28.43600
C  41.82600 10.41100 31.41300
C  37.89800 7.81500 30.31700
C  38.92300 8.47500 25.58000
C  42.95900 10.74300 26.67500
N  39.86800 9.30800 30.61800
C  40.62500 9.78100 31.64700
C  39.89100 9.51900 32.99000
C  38.71300 8.47700 32.59300
C  38.84000 8.50100 31.11200
C  38.94000 7.01600 33.17600
C  39.40000 10.84900 33.68500
C  39.66900 10.87200 35.28800
H  40.05000 12.17800 35.83300
N  38.59600 8.38000 27.96100
C  37.78900 7.73800 28.86200
C  36.73300 7.02200 28.16400
C  36.97900 7.27600 26.79500
C  38.19100 8.04700 26.69200
C  35.59300 6.24100 28.81600
C  36.19200 6.78500 25.58400
O  36.49300 7.11800 24.45300
C  34.82500 6.20900 25.76800
N  40.90300 9.59300 26.43200
C  40.11500 9.07100 25.45900
C  40.84800 9.31900 24.05400
C  42.00800 10.41100 24.43400
C  41.94100 10.24600 25.93300
C  41.48600 8.04000 23.39500
C  41.75000 11.92900 23.97300
C  40.65800 12.71100 24.73800
N  42.11500 10.26900 28.92600
C  43.05400 10.79700 28.10700
C  44.12200 11.31700 28.96500
C  43.60500 11.19300 30.22500
C  42.43300 10.60900 30.16300
C  45.36000 11.90500 28.43600
C  43.89900 11.55800 31.58900
O  44.82400 12.15000 32.15500
C  42.73700 11.06900 32.42400
C  43.13300 10.04800 33.45200
O  43.81100 9.04300 33.22800
O  42.80900 10.47600 34.73400
C  43.11000 9.37600 35.67600
H  37.20600 7.31000 30.99500
H  38.60800 8.11500 24.59900
H  43.80100 11.25100 26.20000
H  40.61800 9.00800 33.62100
H  37.71200 8.79000 32.89000
H  37.95300 6.76600 33.56600
H  39.62300 6.94700 34.02300
H  39.24900 6.28700 32.42700
H  38.33400 10.90800 33.46600
H  39.86000 11.69500 33.17300
H  40.42200 10.15700 35.62100
H  38.69200 10.62800 35.70600
H  35.60200 5.18500 28.54700
H  34.59000 6.61400 28.60800
H  35.64200 6.21000 29.90500
H  34.44800 6.06600 24.75500
H  34.20700 6.92900 26.30400
H  34.69000 5.35000 26.42400
H  40.18100 9.71800 23.29000
H  43.00300 10.10400 24.11000
H  41.17800 7.13000 23.91000
H  42.57600 8.03700 23.41000
H  41.26100 8.02000 22.32900
H  41.45200 11.76300 22.93800
H  42.68900 12.47600 24.06500
H  40.49300 12.27900 25.72500
H  39.69200 12.75500 24.23400
H  41.05900 13.69000 24.99900
H  45.30800 12.27900 27.41400
H  46.12100 11.13000 28.52500
H  45.59000 12.71200 29.13200
H  42.15900 11.87300 32.87800
H  44.15800 9.07700 35.67500
H  42.52100 8.48200 35.47300
H  42.91600 9.66600 36.70900
Mg -1.57200 34.56000 25.56300
C  -3.45000 33.10800 28.19300
C  -0.55900 36.83500 27.93500
C  -0.17500 36.26500 23.15100
C  -3.27200 32.41900 23.24000
N  -1.96100 34.89700 27.93800
C  -2.65200 34.10200 28.74300
C  -2.52300 34.61200 30.19400
C  -1.61100 35.88800 30.05000
C  -1.39400 35.96800 28.58100
C  -2.01300 37.16800 30.90500
C  -1.99800 33.54100 31.18900
C  -2.71000 33.47900 32.58300
H  -2.12300 32.60800 33.65500
N  -0.49900 36.28000 25.52400
C  -0.22200 37.10200 26.57700
C  0.58600 38.18600 26.11700
C  0.62800 38.14400 24.74700
C  0.01300 36.88800 24.39700
C  1.02700 39.21000 27.07500
C  1.17300 39.10500 23.73400
O  1.13600 38.88000 22.50600
C  1.60300 40.49700 24.24400
N  -1.84000 34.48500 23.49300
C  -0.97000 35.17800 22.70300
C  -1.15600 34.76200 21.24200
C  -2.06100 33.42400 21.35600
C  -2.40400 33.41300 22.77900
C  -1.72800 35.85900 20.29000
C  -1.32200 32.09100 20.85800
C  -0.03400 31.59300 21.48800
N  -3.03900 33.09400 25.66600
C  -3.64600 32.24800 24.62100
C  -4.39600 31.21900 25.28700
C  -4.48000 31.62200 26.61700
C  -3.60900 32.70900 26.83400
C  -5.11700 30.06800 24.60100
C  -4.96100 31.17800 27.91500
O  -5.75000 30.19200 28.19500
C  -4.45600 32.14900 28.96400
C  -5.53800 32.87800 29.49500
O  -6.13000 33.80200 28.95000
O  -5.77100 32.48700 30.79500
C  -6.88800 33.05400 31.55000
H  -0.13000 37.41800 28.75200
H  0.32700 36.65100 22.26100
H  -3.67500 31.70100 22.52300
H  -3.50700 34.97700 30.48600
H  -0.65500 35.57300 30.46900
H  -2.86400 37.06400 31.57800
H  -2.35500 37.90200 30.17500
H  -1.21000 37.56500 31.52600
H  -0.93600 33.67600 31.39100
H  -2.07800 32.64200 30.57800
H  -3.69000 33.03100 32.42000
H  -2.94400 34.49200 32.90900
H  0.27800 39.99900 27.14200
H  2.03700 39.52700 26.81300
H  1.18900 38.75000 28.05000
H  0.96000 40.86700 25.04200
H  1.67700 41.19800 23.41200
H  2.62800 40.54900 24.61000
H  -0.13000 34.60700 20.90900
H  -2.95300 33.38300 20.73100
H  -1.28900 35.85100 19.29200
H  -1.32000 36.79000 20.68400
H  -2.81700 35.87200 20.32500
H  -1.10500 32.27300 19.80600
H  -2.01000 31.25000 20.94600
H  -0.12600 30.82300 22.25400
H  0.50000 32.42600 21.94600
H  0.62700 31.22800 20.70200
H  -4.44700 29.92900 23.75200
H  -6.07300 30.41600 24.20900
H  -5.15700 29.29300 25.36600
H  -4.02900 31.57800 29.78900
H  -6.46800 33.66000 32.35300
H  -7.47900 32.19400 31.86500
H  -7.45800 33.74300 30.92700

