158

Mg 47.17800 24.67600 28.21000
C  48.39500 26.86700 30.60000
C  46.66100 22.38000 30.83100
C  46.04900 22.40400 25.91600
C  48.11800 26.76200 25.77600
N  47.48900 24.60000 30.48500
C  47.89200 25.69500 31.18900
C  47.64900 25.44700 32.66100
C  47.39400 23.92900 32.80900
C  47.23400 23.56600 31.28700
C  48.54200 23.14700 33.46800
C  46.57100 26.43900 33.13600
C  46.90500 27.19800 34.51300
H  45.87900 27.14900 35.59200
N  46.31100 22.75900 28.37800
C  46.30600 21.97100 29.54300
C  45.88300 20.69000 29.19300
C  45.58900 20.67000 27.75800
C  45.95200 22.00100 27.28100
C  45.65400 19.56300 30.19400
C  45.08800 19.56400 26.95300
O  44.79300 19.68100 25.80900
C  44.78100 18.18800 27.59700
N  47.31500 24.44900 26.10700
C  46.75800 23.48000 25.35000
C  46.98400 23.83900 23.84000
C  47.41100 25.32700 23.89300
C  47.63400 25.52400 25.37000
C  47.91500 22.93300 22.90000
C  46.45000 26.33700 23.17900
C  46.81100 26.90300 21.69800
N  48.01700 26.44000 28.20000
C  48.33800 27.22600 27.08900
C  48.95700 28.45200 27.51300
C  48.99600 28.31900 28.89900
C  48.42200 27.11700 29.22500
C  49.45500 29.56300 26.65200
C  49.39400 29.02100 30.12300
O  49.97600 30.03400 30.30300
C  48.77800 28.16000 31.26900
C  49.73900 28.07500 32.37900
O  50.77200 27.44000 32.36400
O  49.22400 28.80700 33.45800
C  49.97800 28.82500 34.70600
H  46.42800 21.66300 31.62200
H  45.53400 21.81800 25.15200
H  48.35800 27.45700 24.96800
H  48.65200 25.67200 33.02200
H  46.50000 23.68500 33.38400
H  49.47200 23.71100 33.54100
H  48.86800 22.36500 32.78300
H  48.20500 22.58700 34.34100
H  45.59600 26.00500 33.35900
H  46.27200 27.14200 32.35900
H  46.96800 28.24800 34.22900
H  47.87700 26.77600 34.77000
H  44.59700 19.29700 30.19100
H  46.02400 19.70700 31.20900
H  46.08900 18.69200 29.70400
H  45.76400 17.86900 27.94400
H  44.54400 17.51200 26.77600
H  43.92300 18.18700 28.26900
H  45.98200 23.80500 23.41100
H  48.35000 25.67900 23.46600
H  48.79400 23.45100 22.51700
H  47.32900 22.63700 22.02900
H  48.27800 22.14700 23.56100
H  46.31500 27.21900 23.80500
H  45.44200 25.92500 23.13100
H  47.67900 26.38900 21.28500
H  47.02400 27.96400 21.82700
H  45.99100 27.00600 20.98700
H  49.63900 29.18400 25.64600
H  50.30600 30.05400 27.12300
H  48.62700 30.26800 26.58500
H  47.84600 28.61700 31.60100
H  51.04900 28.66100 34.59000
H  49.62200 28.06000 35.39600
H  49.93900 29.86700 35.02400
Mg -9.84800 38.70900 40.12700
C  -8.94100 35.26800 39.20100
C  -6.58000 39.58100 39.21900
C  -10.80800 41.76600 40.27200
C  -12.96000 37.38000 40.89200
N  -7.98700 37.59800 39.19000
C  -7.90600 36.20100 38.91200
C  -6.49700 35.83400 38.54700
C  -5.69800 37.15900 38.74900
C  -6.75600 38.20700 39.15600
C  -4.51600 37.06500 39.86000
C  -6.31200 35.24700 37.05200
C  -6.78000 36.29000 36.00000
H  -7.71700 35.88200 34.82800
N  -8.80800 40.48100 39.88800
C  -7.47900 40.61700 39.50200
C  -7.23500 42.11100 39.30300
C  -8.50900 42.70100 39.58800
C  -9.41200 41.68700 40.04700
C  -5.93000 42.71900 38.78000
C  -8.79100 44.15000 39.42600
O  -7.99900 44.86000 38.83300
C  -10.09300 44.70400 39.84100
N  -11.70300 39.45200 40.30800
C  -11.87700 40.81100 40.44500
C  -13.36300 41.12200 40.55000
C  -13.92500 39.80000 41.17300
C  -12.85000 38.76900 40.75400
C  -13.74300 42.35900 41.46300
C  -15.31000 39.49400 40.64300
C  -16.32600 39.30200 41.75900
N  -10.84800 36.73200 40.00500
C  -12.08500 36.40200 40.46400
C  -12.28800 35.01300 40.47900
C  -11.10900 34.51700 39.79800
C  -10.27900 35.57200 39.64100
C  -13.51200 34.18100 40.91700
C  -10.44800 33.35300 39.33900
O  -10.82300 32.19200 39.34000
C  -9.01100 33.78500 38.78000
C  -7.95400 32.95600 39.40200
O  -7.84900 32.76600 40.63900
O  -7.06200 32.44300 38.51200
C  -6.01700 31.49700 38.99000
H  -5.58000 39.82000 38.85100
H  -11.25200 42.74100 40.48500
H  -13.89800 37.05100 41.34500
H  -6.05200 35.23000 39.33700
H  -5.23500 37.44300 37.80400
H  -3.57900 36.94000 39.31700
H  -4.65900 36.10700 40.35900
H  -4.50900 37.87100 40.59400
H  -6.80200 34.29100 36.87000
H  -5.25500 35.07000 36.85100
H  -5.90400 36.66100 35.46900
H  -7.24500 37.12300 36.52700
H  -5.12500 42.08600 39.15200
H  -5.73400 43.72800 39.14400
H  -5.91000 42.80200 37.69300
H  -10.28900 44.49100 40.89100
H  -10.81400 44.16000 39.23100
H  -10.15500 45.77200 39.63500
H  -13.79300 41.24800 39.55600
H  -13.91100 39.92700 42.25500
H  -14.13800 43.20900 40.90700
H  -12.88300 42.76700 41.99300
H  -14.48700 42.13300 42.22700
H  -15.24600 38.61900 39.99500
H  -15.63000 40.27000 39.94700
H  -17.18000 39.92200 41.48700
H  -16.10000 39.68000 42.75600
H  -16.73400 38.29200 41.76800
H  -13.53500 34.10600 42.00500
H  -13.54100 33.21400 40.41400
H  -14.33100 34.81200 40.57400
H  -8.99700 33.64200 37.70000
H  -6.24500 30.46100 38.74000
H  -5.82100 31.58600 40.05800
H  -5.11900 31.77400 38.43800

