158

Mg 1.74700 -1.78400 43.42700
C  5.21300 -0.90000 42.99000
C  1.07400 1.12300 41.39500
C  -1.29400 -2.99300 42.72300
C  2.81900 -4.92800 44.61700
N  2.99000 -0.06900 42.39300
C  4.40000 0.04200 42.40800
C  4.81700 1.32500 41.64400
C  3.48800 1.91900 41.12300
C  2.42600 0.96600 41.71700
C  3.27600 3.37200 41.67900
C  5.89300 1.33700 40.58500
C  6.00300 0.14700 39.56000
H  5.46800 0.48400 38.12300
N  0.03600 -0.85600 42.53100
C  -0.04400 0.32700 41.79000
C  -1.40700 0.53800 41.41200
C  -2.16300 -0.66400 41.85800
C  -1.14400 -1.58900 42.41800
C  -1.87800 1.77700 40.62800
C  -3.75200 -0.82700 41.64600
O  -4.37200 0.09600 41.05600
C  -4.49400 -1.97000 42.17200
N  0.93000 -3.73400 43.50200
C  -0.40900 -3.90800 43.28700
C  -0.92600 -5.32600 43.81900
C  0.38400 -5.86100 44.48700
C  1.46800 -4.79500 44.15300
C  -2.18600 -5.21200 44.78800
C  0.67700 -7.25500 43.77700
C  0.07300 -8.45700 44.54900
N  3.67100 -2.83600 43.83000
C  3.87300 -4.02000 44.41400
C  5.32400 -4.17900 44.69800
C  5.89300 -2.93300 44.14400
C  4.81700 -2.17400 43.59700
C  5.87100 -5.43000 45.25500
C  7.07900 -2.18900 43.85200
O  8.29800 -2.47400 43.97100
C  6.68200 -0.84500 43.19900
C  7.10300 0.26900 44.08200
O  8.21500 0.82100 43.98300
O  6.16200 0.64000 45.05400
C  6.49200 1.79900 45.81300
H  0.82800 1.91400 40.68400
H  -2.25500 -3.46800 42.51700
H  3.11200 -5.93900 44.90700
H  5.30200 1.85400 42.46400
H  3.25300 1.84500 40.06100
H  3.96400 3.63100 42.48400
H  2.31100 3.35400 42.18600
H  3.26300 4.11100 40.87900
H  6.89000 1.24300 41.01600
H  5.93300 2.29400 40.06600
H  5.47200 -0.67900 40.03300
H  7.02900 -0.21400 39.50000
H  -2.42200 1.59100 39.70200
H  -1.12200 2.52600 40.39200
H  -2.57700 2.29300 41.28700
H  -5.52900 -1.63700 42.25000
H  -4.10600 -2.18000 43.16900
H  -4.30300 -2.79100 41.48100
H  -1.29500 -5.85900 42.94300
H  0.27100 -5.93200 45.56900
H  -2.33300 -4.17400 45.08700
H  -2.04200 -5.85500 45.65500
H  -3.08800 -5.49200 44.24300
H  1.74000 -7.29700 43.54100
H  0.33600 -7.28500 42.74200
H  -0.29100 -9.26900 43.92000
H  -0.71700 -8.21900 45.26200
H  0.86700 -8.91400 45.13900
H  5.77300 -6.23200 44.52300
H  5.18600 -5.68600 46.06300
H  6.85700 -5.34700 45.71300
H  7.09700 -0.79400 42.19200
H  7.13400 1.53400 46.65300
H  5.56500 2.16300 46.25600
H  6.96500 2.58100 45.22000
Mg 23.87200 -5.37800 47.03400
C  25.90200 -2.90000 45.55400
C  21.35400 -4.24500 44.80700
C  22.23000 -8.11600 47.57100
C  26.77000 -6.61900 48.57000
N  23.79900 -3.84800 45.29700
C  24.69400 -2.89500 44.92400
C  24.16100 -1.87100 43.98800
C  22.62000 -2.08300 44.12900
C  22.56000 -3.51700 44.82200
C  21.73300 -1.07200 44.88300
C  24.66800 -1.88300 42.52800
C  24.95200 -0.46200 42.02000
H  25.39300 -0.30500 40.59300
N  22.00800 -6.10200 46.34900
C  21.16800 -5.46600 45.46400
C  19.96100 -6.21800 45.36500
C  20.09600 -7.34100 46.15700
C  21.45300 -7.21900 46.75700
C  18.86500 -5.84700 44.44700
C  19.00800 -8.36300 46.47500
O  17.92200 -8.31700 45.94600
C  19.24900 -9.38100 47.52800
N  24.42800 -7.09200 47.87500
C  23.55700 -8.07200 48.08900
C  24.19900 -9.32700 48.81200
C  25.45200 -8.74300 49.34600
C  25.58700 -7.38300 48.51400
C  23.42900 -9.99900 49.97800
C  26.74800 -9.64600 49.18500
C  27.64700 -9.78800 50.38900
N  25.91600 -4.80600 47.22100
C  26.97800 -5.39300 47.92700
C  28.20800 -4.53800 47.83800
C  27.77100 -3.54200 46.89800
C  26.39300 -3.78200 46.51100
C  29.46100 -4.92500 48.44400
C  28.22600 -2.36500 46.18300
O  29.33000 -1.80400 46.19800
C  27.08700 -1.95400 45.23200
C  26.75000 -0.51300 45.53600
O  26.31000 -0.12300 46.59800
O  27.29600 0.33800 44.54400
C  27.13900 1.77300 44.70000
H  20.51600 -3.70600 44.36100
H  21.75800 -9.06500 47.83400
H  27.53700 -6.82700 49.31800
H  24.43100 -0.90800 44.42200
H  22.11100 -2.20600 43.17300
H  22.40200 -0.33800 45.33200
H  21.17300 -1.62700 45.63500
H  21.05100 -0.53600 44.22300
H  23.99300 -2.41700 41.85900
H  25.65100 -2.35300 42.55900
H  25.84200 -0.23800 42.60800
H  24.12500 0.22800 42.19200
H  18.44200 -6.78100 44.07800
H  19.18600 -5.17500 43.65100
H  18.07000 -5.34700 45.00000
H  18.35100 -9.97700 47.68700
H  19.61500 -8.91000 48.44000
H  20.03200 -10.01100 47.10300
H  24.45900 -10.05600 48.04500
H  25.24100 -8.30200 50.32000
H  22.76300 -9.22000 50.34900
H  24.06100 -10.31900 50.80700
H  22.82000 -10.81000 49.57900
H  27.24400 -9.21900 48.31400
H  26.48400 -10.66000 48.88600
H  28.63300 -10.14100 50.08600
H  27.27200 -10.49700 51.12700
H  27.70500 -8.84600 50.93500
H  30.28000 -4.23600 48.23800
H  29.71700 -5.93900 48.13700
H  29.30300 -4.82100 49.51700
H  27.44500 -1.95400 44.20200
H  27.64800 2.21400 43.84200
H  27.63000 2.10800 45.61300
H  26.12300 2.15300 44.58900

