158

Mg 40.43800 9.91200 29.69800
C  42.35300 11.12900 32.26400
C  38.26300 8.52800 31.91200
C  38.73200 8.62200 27.06500
C  42.91200 11.00200 27.39500
N  40.51600 9.69300 31.88900
C  41.28900 10.40600 32.74600
C  40.73800 10.30800 34.19300
C  39.45000 9.32300 34.07200
C  39.33400 9.12600 32.50100
C  39.59200 7.93900 34.86600
C  40.48200 11.67800 34.96500
C  39.72300 11.53700 36.28900
H  40.39200 12.32800 37.49200
N  38.80500 8.62600 29.50800
C  38.04800 8.21700 30.55400
C  36.96800 7.43300 30.14500
C  36.96100 7.44600 28.69000
C  38.20400 8.24300 28.33700
C  36.07200 6.74000 31.14200
C  35.97100 6.88700 27.68700
O  36.16700 7.01000 26.45000
C  34.71300 6.27300 28.16800
N  40.70200 9.94500 27.48700
C  39.82700 9.36800 26.64500
C  40.21100 9.46100 25.19500
C  41.67400 10.16900 25.28500
C  41.80500 10.31400 26.79100
C  40.12600 8.08500 24.43100
C  41.92300 11.38100 24.24600
C  41.20800 12.63300 24.76500
N  42.25200 10.86200 29.78800
C  43.10100 11.32200 28.78700
C  44.25100 11.89300 29.41200
C  43.95000 11.95500 30.77100
C  42.74900 11.24600 30.92900
C  45.35700 12.29100 28.52000
C  44.37200 12.49100 32.05900
O  45.36900 13.09900 32.37300
C  43.29700 12.02900 33.08700
C  44.02900 11.44800 34.25600
O  44.34600 10.30200 34.35300
O  44.27800 12.38500 35.18300
C  45.00800 11.88000 36.38600
H  37.48600 8.25600 32.63000
H  38.23100 8.17500 26.20400
H  43.71700 11.25000 26.70000
H  41.48900 9.75700 34.75900
H  38.51700 9.84600 34.28300
H  40.40400 7.83800 35.58600
H  39.82800 7.16700 34.13300
H  38.60700 7.71500 35.27600
H  39.97300 12.31600 34.24200
H  41.42700 12.15000 35.23400
H  39.57500 10.49400 36.56900
H  38.72500 11.97400 36.28300
H  35.19500 7.31100 31.44500
H  36.59800 6.42200 32.04200
H  35.63500 5.84600 30.69600
H  34.08900 6.32500 27.27600
H  34.31800 6.81400 29.02800
H  35.05700 5.28500 28.47400
H  39.50600 10.13800 24.71300
H  42.43000 9.41300 25.07200
H  40.90900 7.97300 23.68000
H  39.21100 7.95500 23.85200
H  40.11400 7.32600 25.21300
H  41.45900 11.10600 23.29800
H  42.97900 11.50100 24.00300
H  40.32600 12.73400 24.13300
H  41.94400 13.43500 24.70400
H  40.78400 12.56400 25.76700
H  46.29200 12.35500 29.07800
H  45.18600 13.20700 27.95500
H  45.62300 11.58800 27.73000
H  42.84800 12.96600 33.41600
H  44.42200 11.02800 36.73000
H  45.01000 12.67700 37.13000
H  46.04300 11.70000 36.09400
Mg 9.61300 47.80600 26.18800
C  7.38800 47.59100 29.10500
C  11.79800 49.36200 28.18800
C  11.33900 48.33500 23.43200
C  6.85900 46.54000 24.28300
N  9.58600 48.39800 28.41800
C  8.73400 48.10500 29.38500
C  9.29400 48.43700 30.81700
C  10.46400 49.37600 30.34700
C  10.63100 49.08500 28.87600
C  10.21000 50.86500 30.65600
C  9.79400 47.08300 31.59600
C  10.50400 47.54500 32.92600
H  9.76000 47.43200 34.31100
N  11.42600 48.69500 25.86000
C  12.18600 49.21300 26.82500
C  13.45600 49.65700 26.16900
C  13.36200 49.22600 24.84700
C  12.00200 48.70400 24.63900
C  14.55900 50.08800 27.06800
C  14.47500 49.11700 23.81100
O  14.19900 48.68600 22.67300
C  15.93000 49.64300 24.03800
N  9.10000 47.55000 24.15100
C  10.04600 47.82600 23.18100
C  9.64800 47.32700 21.80800
C  8.35200 46.51900 22.16800
C  8.04500 46.82800 23.63500
C  9.44400 48.48500 20.76800
C  8.36400 44.97800 21.81300
C  8.33500 43.90500 22.92200
N  7.47900 47.32600 26.54600
C  6.52900 46.82600 25.66900
C  5.27100 46.65200 26.37400
C  5.57200 46.86100 27.70100
C  6.89800 47.30500 27.81300
C  3.93500 46.15500 25.87000
C  5.01500 46.84500 29.03700
O  3.87900 46.61800 29.46000
C  6.23300 47.28100 30.00000
C  6.50900 46.05400 30.77000
O  6.97300 44.98000 30.31900
O  6.11900 46.27400 32.09200
C  6.43100 45.18100 33.02400
H  12.64900 49.67800 28.79400
H  11.87700 48.34900 22.48200
H  6.08300 46.05100 23.69100
H  8.49800 48.98100 31.32600
H  11.34100 48.90300 30.78800
H  10.96300 51.58000 30.32500
H  9.93100 50.92200 31.70800
H  9.29300 51.15700 30.14300
H  10.28600 46.45500 30.85300
H  8.88600 46.54700 31.87300
H  10.79100 48.59500 32.86700
H  11.41700 46.95500 32.99500
H  15.07200 49.16300 27.32800
H  14.29700 50.76800 27.87900
H  15.27700 50.67300 26.49200
H  15.89400 50.67700 24.38100
H  16.51600 49.62100 23.11900
H  16.51800 49.00100 24.69400
H  10.48900 46.72300 21.46600
H  7.45200 46.84300 21.64500
H  10.37800 48.68900 20.24400
H  9.01400 49.32200 21.31700
H  8.67600 48.27800 20.02200
H  9.34800 44.81100 21.37700
H  7.55400 44.80800 21.10400
H  8.13400 44.34300 23.90000
H  9.26700 43.35500 22.79900
H  7.54700 43.16800 22.77000
H  3.40800 45.55200 26.61000
H  4.10800 45.48300 25.02900
H  3.31400 47.01500 25.62100
H  6.05300 48.13300 30.65600
H  6.42400 45.57000 34.04200
H  7.35200 44.62700 32.84600
H  5.70700 44.37600 32.90000

