158

Mg 47.79800 24.52200 27.41200
C  48.94300 26.69200 29.82800
C  47.63000 22.06800 29.93400
C  47.02100 22.19600 25.08600
C  49.05700 26.57100 24.96700
N  48.07600 24.51500 29.69000
C  48.52000 25.52000 30.46800
C  48.38600 25.14600 31.98200
C  48.11600 23.61100 31.94000
C  47.92900 23.35200 30.47400
C  49.19500 22.70300 32.50900
C  47.27900 25.95400 32.72600
C  47.70700 26.56900 34.14200
H  46.68100 26.33800 35.37500
N  47.26200 22.47600 27.54500
C  47.25300 21.62600 28.63300
C  46.80900 20.32200 28.28600
C  46.36300 20.39600 26.91200
C  46.83600 21.73800 26.43400
C  46.96100 19.20700 29.30000
C  45.68200 19.39000 26.06000
O  45.46500 19.67500 24.86700
C  45.17600 18.00300 26.56100
N  48.27100 24.24600 25.22400
C  47.54700 23.31300 24.52100
C  47.76800 23.51500 23.00700
C  48.25300 25.01900 23.00000
C  48.58900 25.31000 24.45700
C  48.77000 22.47600 22.45000
C  47.20700 26.09700 22.48100
C  47.49800 26.49200 21.07500
N  48.58700 26.36800 27.30600
C  49.01100 27.07100 26.24600
C  49.62500 28.34500 26.72500
C  49.46800 28.26600 28.14500
C  48.92500 27.00300 28.42400
C  50.16100 29.40500 25.82700
C  49.62800 28.92200 29.38900
O  50.11000 29.99400 29.68300
C  49.22200 27.99700 30.53100
C  50.26300 27.92800 31.59900
O  51.34300 27.41500 31.57300
O  49.91400 28.82500 32.57700
C  50.70800 28.90400 33.82400
H  47.41600 21.49400 30.83800
H  46.80400 21.40100 24.36900
H  49.37400 27.28500 24.20400
H  49.36600 25.35900 32.40700
H  47.23600 23.35000 32.52900
H  49.83200 22.35300 31.69700
H  48.64100 21.91200 33.01400
H  49.77400 23.15900 33.31300
H  46.40400 25.33100 32.91400
H  46.95300 26.78500 32.10200
H  47.68600 27.65000 34.00700
H  48.72400 26.31800 34.44400
H  46.01200 18.99100 29.79200
H  47.71100 19.52000 30.02600
H  47.38300 18.33600 28.79800
H  45.93300 17.23000 26.69200
H  44.55500 17.65500 25.73600
H  44.58700 18.33100 27.41700
H  46.79800 23.39900 22.52300
H  49.19800 25.11800 22.46500
H  48.54100 22.39400 21.38700
H  48.70000 21.52200 22.97200
H  49.77500 22.78500 22.73600
H  47.26700 26.98600 23.10900
H  46.17300 25.75600 22.53800
H  48.31600 26.04100 20.51300
H  47.57800 27.57800 21.01400
H  46.64700 26.15400 20.48300
H  49.46400 29.67000 25.03200
H  51.05200 29.06400 25.30100
H  50.38800 30.22200 26.51200
H  48.32100 28.42000 30.97600
H  50.02100 29.01300 34.66300
H  51.08000 29.92800 33.81500
H  51.51500 28.20200 34.03500
Mg 36.59400 49.25500 25.81600
C  36.50500 47.04500 28.66700
C  35.72900 51.83900 28.14800
C  36.18700 51.23100 23.26900
C  37.03400 46.38200 23.83800
N  36.08500 49.44500 28.13400
C  36.19000 48.41800 29.09500
C  35.98100 48.89100 30.52600
C  35.53500 50.41100 30.28300
C  35.83600 50.61700 28.78100
C  34.01300 50.72700 30.70700
C  37.22800 48.87700 31.46200
C  36.81300 48.58200 32.97600
H  35.35500 48.75300 33.59200
N  36.23200 51.31500 25.71700
C  35.84600 52.19200 26.73700
C  35.74000 53.49200 26.15300
C  36.03900 53.37000 24.73100
C  36.14200 51.95700 24.49600
C  35.48100 54.86600 26.98500
C  36.26900 54.46900 23.74300
O  36.41800 54.18500 22.55600
C  36.32200 55.98600 24.16700
N  36.52100 48.79100 23.85600
C  36.37300 49.84200 22.93700
C  36.66900 49.35000 21.47400
C  37.17700 47.82200 21.71400
C  36.86300 47.66600 23.20700
C  35.49400 49.54800 20.52300
C  38.63700 47.46100 21.40000
C  38.85900 46.05800 20.75800
N  36.68200 47.15600 26.13200
C  36.83500 46.11000 25.22800
C  37.08900 44.87300 25.91600
C  37.01700 45.23400 27.28700
C  36.70400 46.60600 27.34100
C  37.32900 43.56300 25.28900
C  36.96700 44.65300 28.62700
O  37.27400 43.58500 29.08200
C  36.52500 45.80500 29.58300
C  35.28200 45.48300 30.31100
O  34.18300 45.90000 30.03100
O  35.56500 44.83600 31.42800
C  34.42100 44.56700 32.35100
H  35.50900 52.66900 28.82200
H  36.27600 51.93500 22.43900
H  37.56900 45.53200 23.40900
H  35.26600 48.22100 31.00400
H  36.15600 51.11000 30.84100
H  34.01200 51.48700 31.48800
H  33.44800 49.87700 31.09000
H  33.45700 51.20500 29.90000
H  37.81000 49.79100 31.34000
H  37.73500 48.08800 30.90700
H  37.46900 49.19000 33.59900
H  37.00900 47.51400 33.07100
H  35.08600 54.62200 27.97100
H  34.83400 55.58700 26.48400
H  36.50500 55.22300 27.08900
H  36.96400 56.20200 25.02100
H  35.28000 56.26600 24.31600
H  36.73700 56.54200 23.32500
H  37.58800 49.82500 21.13000
H  36.46600 47.13900 21.24900
H  35.26500 48.57900 20.07900
H  35.74300 50.15300 19.65100
H  34.67200 49.77000 21.20300
H  39.26200 47.40000 22.29100
H  39.18100 48.07300 20.68100
H  39.44800 46.16400 19.84700
H  37.91700 45.61300 20.43900
H  39.29900 45.44100 21.54100
H  36.53900 43.35100 24.56900
H  37.21800 42.78000 26.04000
H  38.32100 43.47900 24.84400
H  37.31300 45.92300 30.32600
H  34.69900 44.58700 33.40500
H  34.11600 43.52500 32.25100
H  33.52300 45.16300 32.18900

