158

Mg 0.63400 7.75000 25.64600
C  1.58200 9.66200 28.45400
C  0.81800 4.91800 27.66200
C  0.20300 5.89400 22.95400
C  0.67900 10.61200 23.82300
N  1.24400 7.37800 27.84000
C  1.34500 8.33100 28.84700
C  1.34800 7.68500 30.25300
C  1.38100 6.19200 29.89500
C  1.16000 6.13400 28.38900
C  2.63000 5.41200 30.38200
C  0.02100 8.08500 31.04000
C  0.15400 8.17900 32.59800
H  1.42200 7.85700 33.24200
N  0.42300 5.67000 25.33600
C  0.55000 4.69500 26.31000
C  0.37400 3.35200 25.61900
C  0.15900 3.66500 24.22500
C  0.25700 5.11500 24.10600
C  0.47100 2.08700 26.35400
C  -0.20700 2.76000 23.04300
O  -0.42100 3.17200 21.88200
C  -0.38900 1.30600 23.32900
N  0.43100 8.17500 23.72500
C  0.25700 7.24500 22.75000
C  0.20400 7.89100 21.36900
C  -0.00700 9.39800 21.67600
C  0.32700 9.46000 23.19300
C  1.59900 7.65800 20.68100
C  -1.39200 9.99000 21.28800
C  -1.45400 11.30200 20.46300
N  1.27500 9.70500 25.98100
C  1.16500 10.76100 25.14700
C  1.52200 11.97300 25.83000
C  1.78600 11.63300 27.18900
C  1.53100 10.20300 27.22000
C  1.55900 13.45500 25.22600
C  2.03900 12.08700 28.49000
O  2.14800 13.17900 28.94700
C  1.82300 10.86100 29.38100
C  3.03900 10.77400 30.20400
O  3.90700 9.89800 30.16800
O  2.82200 11.71100 31.25000
C  3.50300 11.42800 32.49100
H  0.91200 3.99100 28.23100
H  0.12900 5.35900 22.00400
H  0.62500 11.56900 23.30000
H  2.22100 7.86900 30.88000
H  0.50200 5.66400 30.26400
H  2.19400 4.49200 30.77100
H  3.18000 5.96400 31.14400
H  3.20900 5.02000 29.54700
H  -0.76800 7.36100 30.83700
H  -0.28500 9.00300 30.53800
H  -0.58600 7.55400 33.09700
H  -0.11900 9.21500 32.79900
H  -0.27600 1.32200 26.14200
H  0.51900 2.20900 27.43600
H  1.38300 1.67200 25.92300
H  -1.13500 1.36500 24.12200
H  0.52600 0.78300 23.60600
H  -0.74800 0.84500 22.40800
H  -0.56600 7.44000 20.74300
H  0.68200 10.02300 21.10900
H  1.89700 8.39500 19.93500
H  1.61600 6.63400 20.30800
H  2.35000 7.78100 21.46100
H  -1.95900 10.19300 22.19700
H  -1.92000 9.12400 20.88900
H  -1.21900 11.10200 19.41700
H  -0.70700 12.04500 20.74200
H  -2.36900 11.89500 20.46600
H  2.53100 13.63800 24.76900
H  1.42600 14.14100 26.06400
H  0.78500 13.64300 24.48200
H  1.01400 11.03500 30.09100
H  3.92600 12.41500 32.67900
H  4.27300 10.65800 32.50800
H  2.74600 11.14600 33.22200
Mg 9.01400 47.03700 25.78300
C  7.14200 47.02500 28.64200
C  11.62800 48.39200 27.43400
C  10.78100 47.28500 22.82600
C  6.14000 46.40200 23.86300
N  9.37600 47.53600 27.93100
C  8.46600 47.41500 28.87700
C  9.04600 47.92100 30.11600
C  10.27800 48.78500 29.67200
C  10.48900 48.16900 28.27300
C  9.98200 50.31300 29.54400
C  9.31300 46.70100 31.06900
C  8.82000 46.96700 32.52200
H  9.03500 45.93400 33.55400
N  10.94400 47.43400 25.29900
C  11.91100 47.94600 26.17900
C  13.18500 48.08100 25.41100
C  12.92100 47.70700 24.08700
C  11.49800 47.47700 23.98500
C  14.45800 48.61100 26.10500
C  13.89600 47.68200 22.92100
O  13.60300 47.51800 21.70800
C  15.37700 47.74500 23.26100
N  8.47700 47.03700 23.55700
C  9.40900 47.07400 22.58300
C  8.80500 46.76600 21.24100
C  7.24100 46.67900 21.55400
C  7.26100 46.65000 23.10500
C  9.29000 47.86500 20.20700
C  6.63300 45.43700 20.93000
C  5.30300 45.76600 20.26700
N  7.09000 46.71700 26.14000
C  6.01300 46.45800 25.29600
C  4.80700 46.31600 26.01600
C  5.21500 46.51900 27.36400
C  6.56900 46.74900 27.39000
C  3.43700 45.94600 25.49800
C  4.75000 46.55900 28.71100
O  3.64100 46.34900 29.23900
C  6.00100 46.84000 29.63800
C  6.23100 45.69200 30.52000
O  6.89700 44.67400 30.26800
O  5.53000 45.93900 31.62400
C  5.60900 44.82500 32.61900
H  12.31100 48.91200 28.10900
H  11.37000 47.16800 21.91400
H  5.24100 46.21200 23.27300
H  8.29500 48.56800 30.56800
H  11.19300 48.61400 30.23900
H  9.69200 50.53200 28.51600
H  10.85200 50.95600 29.66800
H  9.18700 50.55700 30.24900
H  10.37600 46.58200 31.28000
H  8.85300 45.79200 30.68100
H  7.75700 47.20700 32.53800
H  9.17000 47.89800 32.96900
H  15.21800 47.83100 26.08900
H  14.24800 48.88400 27.14000
H  14.69000 49.57400 25.65100
H  15.56000 48.75700 23.62400
H  15.92600 47.47500 22.35900
H  15.64700 47.08000 24.08200
H  9.38700 45.86100 21.06300
H  6.71800 47.59900 21.29500
H  8.58000 48.09100 19.41200
H  10.26700 47.53100 19.85800
H  9.48500 48.73400 20.83600
H  6.59300 44.63800 21.67000
H  7.36300 45.06500 20.21100
H  5.46300 46.30400 19.33300
H  4.65700 46.25700 20.99500
H  4.89200 44.80300 19.96600
H  3.45700 45.41800 24.54500
H  2.67700 46.72600 25.51200
H  3.01600 45.27100 26.24400
H  5.85000 47.75700 30.20800
H  5.94600 45.19400 33.58700
H  6.35900 44.07100 32.37900
H  4.71200 44.21100 32.54400

