158

Mg 49.08700 35.60000 27.79300
C  47.14000 33.89600 30.20900
C  49.65100 38.17700 30.14600
C  50.88400 36.98600 25.46500
C  47.88800 33.15300 25.49300
N  48.51200 35.95100 29.87200
C  47.75000 35.09700 30.65800
C  47.92000 35.60400 32.11100
C  48.21500 37.16000 31.90200
C  48.95300 37.04200 30.57200
C  46.89900 37.95700 31.89000
C  49.04600 34.74100 32.79900
C  48.81500 34.35800 34.27500
H  47.97500 35.26900 35.12600
N  50.01100 37.39600 27.84800
C  50.25000 38.28000 28.85900
C  51.06700 39.39900 28.37700
C  51.44900 39.05000 27.04700
C  50.77200 37.74800 26.72000
C  51.37800 40.59400 29.25200
C  52.43000 39.74800 26.11600
O  52.77200 39.30100 25.05500
C  53.11600 41.01000 26.55500
N  49.24100 35.26000 25.82100
C  50.19200 35.88200 25.06300
C  50.37700 35.26300 23.70600
C  49.62700 33.91300 23.86900
C  48.87100 34.07800 25.15600
C  49.91600 36.15600 22.52300
C  50.35800 32.56900 23.89100
C  50.04400 31.59800 22.82400
N  47.93300 33.76300 27.81500
C  47.51100 32.95500 26.77900
C  46.70000 31.86500 27.36600
C  46.43300 32.22900 28.63100
C  47.18800 33.41000 28.86600
C  46.13300 30.62100 26.67100
C  45.64600 31.91000 29.80200
O  44.96000 30.91700 30.07800
C  46.01500 33.08500 30.83500
C  46.45500 32.45600 32.10800
O  47.46200 31.75600 32.29500
O  45.43300 32.61000 33.03800
C  45.69400 31.96500 34.33500
H  49.77100 39.01800 30.83200
H  51.57300 37.34500 24.69800
H  47.68200 32.41100 24.71800
H  46.94400 35.42800 32.56300
H  48.92200 37.57900 32.61900
H  46.88400 38.53000 32.81600
H  45.96000 37.40300 31.90600
H  46.88100 38.61500 31.02200
H  49.88300 35.42400 32.65800
H  49.23700 33.87300 32.16800
H  49.71900 34.37200 34.88500
H  48.33400 33.38000 34.24000
H  52.31800 40.42200 29.77500
H  50.65500 40.89600 30.01000
H  51.44300 41.48900 28.63200
H  53.49400 40.98200 27.57700
H  52.36400 41.79700 26.50100
H  54.00200 41.33800 26.01100
H  51.42000 34.94600 23.69300
H  48.84000 33.84300 23.11800
H  50.74300 36.27000 21.82300
H  49.56500 37.14700 22.81100
H  49.06500 35.73900 21.98300
H  50.28700 32.07400 24.86000
H  51.41400 32.81300 23.78100
H  51.01100 31.50100 22.33000
H  49.29800 31.97000 22.12100
H  49.67600 30.63200 23.16900
H  46.94200 30.18600 26.08300
H  45.54900 30.87300 25.78600
H  45.64600 29.84200 27.25800
H  45.11000 33.68500 30.92600
H  45.84400 30.90300 34.14100
H  44.90800 32.19000 35.05600
H  46.64000 32.38200 34.68100
Mg -5.13000 25.03600 25.53900
C  -3.89700 26.71700 28.19800
C  -6.87100 22.71300 27.65200
C  -5.87500 22.95900 22.82000
C  -3.03600 26.78400 23.45100
N  -5.19100 24.67800 27.59600
C  -4.81400 25.62000 28.49700
C  -5.23400 25.25300 29.97600
C  -5.92100 23.85200 29.70100
C  -6.06500 23.77700 28.20500
C  -5.16600 22.62100 30.30900
C  -6.11500 26.34800 30.53100
C  -6.31700 26.39400 32.08600
H  -5.53700 25.39500 32.99300
N  -6.37500 23.23100 25.23600
C  -6.96200 22.45800 26.23600
C  -7.93600 21.47700 25.59500
C  -7.61000 21.50700 24.15900
C  -6.53100 22.57300 24.02300
C  -8.88900 20.59000 26.40200
C  -8.23400 20.78900 23.03800
O  -7.84500 20.97200 21.87700
C  -9.33200 19.82900 23.29800
N  -4.39800 24.77200 23.48300
C  -4.93500 23.91400 22.58000
C  -4.21900 24.03300 21.25100
C  -3.25500 25.21200 21.40900
C  -3.58800 25.67800 22.81600
C  -3.61700 22.77900 20.61100
C  -3.38400 26.32700 20.29900
C  -2.14800 27.03200 19.94300
N  -3.82700 26.56700 25.70100
C  -3.04600 27.23400 24.81000
C  -2.30000 28.27600 25.46700
C  -2.67100 28.15700 26.78800
C  -3.54000 27.06100 26.91100
C  -1.27800 29.20200 24.67900
C  -2.35000 28.57200 28.13700
O  -1.53800 29.38900 28.59500
C  -3.19100 27.68300 29.12400
C  -2.23400 27.03500 30.08000
O  -1.44000 26.12800 29.84700
O  -2.36700 27.78700 31.24500
C  -1.62500 27.32500 32.30600
H  -7.31400 22.04600 28.39400
H  -6.08900 22.34200 21.94500
H  -2.20200 27.16500 22.85900
H  -4.40100 25.19300 30.67600
H  -6.95700 23.88500 30.03800
H  -5.03200 21.82800 29.57300
H  -5.79900 22.32100 31.14400
H  -4.24700 22.95200 30.79300
H  -7.10900 26.20900 30.10700
H  -5.90500 27.34400 30.14100
H  -7.35900 26.24100 32.36700
H  -5.92700 27.36000 32.40500
H  -9.31200 19.85300 25.71900
H  -9.67400 21.25100 26.76900
H  -8.45900 20.13300 27.29300
H  -10.20200 20.34600 23.70400
H  -8.89200 19.02900 23.89400
H  -9.51900 19.30000 22.36300
H  -4.99200 24.38800 20.57100
H  -2.26100 24.78800 21.54800
H  -2.60800 22.94900 20.23400
H  -4.26100 22.33500 19.85200
H  -3.64100 21.99900 21.37200
H  -4.09300 27.05000 20.70300
H  -3.78200 25.81900 19.42000
H  -2.17900 27.11100 18.85600
H  -1.25800 26.49400 20.26900
H  -2.07200 28.07900 20.23700
H  -1.81000 29.71000 23.87400
H  -0.50500 28.60700 24.19400
H  -1.00300 30.06300 25.28800
H  -3.78900 28.39200 29.69700
H  -1.11800 28.18300 32.74800
H  -0.80500 26.60900 32.24400
H  -2.30100 26.93400 33.06600

