158

Mg 9.21200 48.49500 25.46000
C  6.91800 48.91200 28.08500
C  11.83100 49.22400 27.49500
C  11.22400 48.16100 22.69300
C  6.39800 47.88300 23.23500
N  9.32300 49.14800 27.49000
C  8.36000 49.03900 28.46500
C  8.93000 49.14400 29.90600
C  10.36700 49.63600 29.60500
C  10.56900 49.33800 28.09900
C  10.63100 51.17500 29.88700
C  8.70000 47.91600 30.77200
C  9.51300 47.76500 32.03600
H  8.75800 47.05900 33.19600
N  11.20000 48.67800 25.15900
C  12.15000 48.93100 26.14300
C  13.46000 48.71200 25.66800
C  13.34100 48.29300 24.26600
C  11.84900 48.39400 23.95800
C  14.65100 48.86100 26.56400
C  14.48700 47.86500 23.35600
O  14.28900 47.56500 22.20400
C  15.88700 47.89600 23.81100
N  8.81200 48.15800 23.17400
C  9.85100 47.99800 22.33400
C  9.33300 47.53900 20.94800
C  7.76100 47.47600 21.05300
C  7.60900 47.73600 22.58100
C  9.81300 48.37800 19.77500
C  7.04200 46.11800 20.55200
C  5.82900 46.31500 19.68000
N  7.15800 48.50700 25.58700
C  6.15900 48.27300 24.56600
C  4.90000 48.35200 25.20100
C  5.11800 48.65500 26.54300
C  6.49600 48.75200 26.71800
C  3.59900 48.20100 24.49800
C  4.50500 48.97600 27.81700
O  3.35300 49.22900 28.08100
C  5.70200 49.03000 28.90800
C  5.45800 47.86200 29.73200
O  5.67100 46.65700 29.46500
O  5.04200 48.30000 30.99200
C  4.81700 47.40600 32.17200
H  12.58900 49.46200 28.24500
H  11.93800 47.88100 21.91600
H  5.55300 47.56000 22.62400
H  8.31500 49.95000 30.30700
H  11.06800 49.03900 30.18900
H  9.78500 51.61300 30.41500
H  10.69900 51.65100 28.90900
H  11.48000 51.26200 30.56500
H  8.87100 47.04800 30.13500
H  7.64100 47.82900 31.01500
H  9.85700 48.72800 32.41500
H  10.39000 47.18400 31.75400
H  14.33400 48.97900 27.60000
H  15.21100 49.72400 26.20200
H  15.29400 47.98300 26.49500
H  16.06100 47.26400 24.68100
H  16.24700 48.90200 24.02300
H  16.55200 47.41400 23.09400
H  9.50900 46.46500 20.89300
H  7.33400 48.36800 20.59300
H  10.47700 49.13500 20.19100
H  9.00200 48.93900 19.31000
H  10.18200 47.83800 18.90300
H  6.72600 45.58500 21.44800
H  7.73000 45.44400 20.04100
H  5.82800 45.80700 18.71600
H  5.68200 47.34200 19.34500
H  4.93200 45.99600 20.21100
H  3.11600 47.30600 24.89100
H  3.60100 48.30400 23.41300
H  3.05000 49.06400 24.87500
H  5.81300 49.98300 29.42300
H  5.07600 46.36700 31.97200
H  3.78100 47.37400 32.51100
H  5.53800 47.64300 32.95400
Mg 0.58400 43.49400 25.97800
C  2.86700 43.54600 28.63700
C  -1.99300 43.06800 28.28700
C  -1.45200 42.91700 23.43000
C  3.30900 44.02900 23.86400
N  0.50900 43.21600 28.21100
C  1.51700 43.39400 29.04600
C  1.06500 43.26200 30.50400
C  -0.50500 42.94200 30.35000
C  -0.68300 43.10700 28.88500
C  -0.86700 41.43800 30.81900
C  1.38300 44.61500 31.23500
C  1.77500 44.54900 32.73000
H  1.45000 43.36800 33.61900
N  -1.47500 43.11300 25.85200
C  -2.37900 42.98400 26.94500
C  -3.73200 42.75200 26.41900
C  -3.48200 42.51400 25.02600
C  -2.11300 42.86100 24.71100
C  -5.01800 42.67600 27.27300
C  -4.39700 41.91800 24.01500
O  -4.03500 41.67900 22.87500
C  -5.81600 41.81500 24.37700
N  0.93600 43.38500 23.97200
C  -0.09300 43.12500 23.12500
C  0.37800 43.24600 21.66400
C  1.86700 43.84600 21.77500
C  2.09200 43.78000 23.29900
C  0.38900 42.00800 20.77800
C  1.98000 45.34300 21.31300
C  1.74100 45.57700 19.84500
N  2.64400 43.86600 26.14000
C  3.62300 44.00700 25.20300
C  4.87900 44.27000 25.78800
C  4.69800 43.95800 27.16400
C  3.31700 43.69300 27.36400
C  6.16400 44.71500 25.05600
C  5.30000 43.74700 28.51600
O  6.51200 43.71100 28.84200
C  4.13100 43.51700 29.50400
C  4.31500 42.28500 30.34800
O  3.85400 41.22600 30.08200
O  5.14600 42.62400 31.43100
C  5.47700 41.50500 32.33200
H  -2.73700 42.99300 29.08300
H  -2.05600 42.96500 22.52200
H  4.04400 44.31000 23.10700
H  1.57100 42.38200 30.90000
H  -1.05500 43.72300 30.87500
H  0.02500 41.01100 31.27700
H  -1.28900 40.83900 30.01200
H  -1.59100 41.47000 31.63300
H  0.60000 45.37300 31.20200
H  2.19900 45.09500 30.69500
H  1.43700 45.36600 33.36700
H  2.86300 44.60900 32.71400
H  -5.84500 43.25700 26.86600
H  -4.88400 43.21600 28.21000
H  -5.36600 41.67500 27.53000
H  -5.87600 41.27800 25.32400
H  -6.26500 41.15800 23.63200
H  -6.31700 42.78200 24.34700
H  -0.31000 43.92600 21.16000
H  2.61400 43.20300 21.30900
H  -0.35700 42.06700 19.98500
H  0.05000 41.17400 21.39300
H  1.36500 41.75100 20.36800
H  2.94500 45.80600 21.52000
H  1.22900 45.92800 21.84400
H  0.70200 45.89500 19.76000
H  1.82100 44.62800 19.31500
H  2.35400 46.37100 19.41600
H  6.47500 45.73800 25.27000
H  6.01600 44.64200 23.97800
H  6.93100 43.99900 25.34900
H  4.12900 44.41000 30.12700
H  6.23200 41.67300 33.09900
H  5.71700 40.55700 31.85000
H  4.56900 41.29700 32.89900

