158

Mg 35.61200 48.57300 26.15400
C  36.02700 46.54500 28.95200
C  34.89500 51.19600 28.17400
C  34.77200 50.24400 23.36500
C  36.60200 45.84100 24.16400
N  35.55300 48.82600 28.37200
C  35.70500 47.88200 29.32500
C  35.46500 48.41300 30.69700
C  34.94400 49.82300 30.42000
C  35.12400 49.99700 28.90500
C  33.42800 50.12600 30.77200
C  36.86100 48.41300 31.43700
C  36.83200 47.82400 32.80400
H  36.80600 48.84300 33.88100
N  35.01500 50.41700 25.81800
C  34.89900 51.40300 26.77000
C  34.66900 52.67400 26.11300
C  34.57100 52.40100 24.66000
C  34.70500 50.97500 24.60700
C  34.41700 53.90200 26.92200
C  34.33900 53.44400 23.48400
O  34.27200 53.17300 22.32500
C  34.12500 54.87200 23.92000
N  35.37400 48.02600 24.02300
C  35.21600 49.00600 23.08400
C  35.24500 48.37400 21.67500
C  35.99000 47.05900 21.96700
C  35.99900 46.95300 23.47000
C  33.92700 48.20800 20.99400
C  37.46200 46.97100 21.47700
C  38.66000 47.60500 22.31200
N  36.02200 46.62200 26.45500
C  36.53100 45.65800 25.57600
C  36.92300 44.46900 26.35400
C  36.62000 44.75500 27.65900
C  36.22300 46.13600 27.62500
C  37.49400 43.14400 25.96100
C  36.66300 44.22100 28.94800
O  36.91000 43.12000 29.35200
C  36.22500 45.41200 29.86700
C  34.99400 44.93600 30.51800
O  33.93000 44.85800 29.93800
O  35.36700 44.46500 31.74300
C  34.27000 43.91100 32.57100
H  34.66000 52.01200 28.86000
H  34.55000 50.79900 22.45000
H  37.06500 45.08100 23.53100
H  34.68200 47.75600 31.07400
H  35.58400 50.58500 30.86500
H  32.98700 49.34300 31.38900
H  32.77600 50.17100 29.89900
H  33.26600 50.95500 31.46100
H  37.36700 49.37800 31.45800
H  37.47500 47.77300 30.80400
H  37.65300 47.11600 32.91200
H  35.94000 47.21900 32.96800
H  34.94300 53.86100 27.87700
H  33.34400 54.06100 27.02800
H  34.87000 54.77500 26.45200
H  33.46100 55.14000 23.09900
H  35.01200 55.50500 23.93200
H  33.63000 54.92300 24.89000
H  35.94800 48.96600 21.09000
H  35.54300 46.14700 21.57100
H  33.72800 49.03600 20.31400
H  33.10500 48.20000 21.71000
H  33.81700 47.39800 20.27400
H  37.47100 47.62700 20.60600
H  37.81600 45.98500 21.18000
H  39.01700 48.41700 21.68000
H  39.39800 46.80500 22.35800
H  38.51500 47.96300 23.33200
H  38.30600 42.89300 26.64300
H  37.79200 43.10300 24.91300
H  36.77200 42.34300 26.11600
H  37.07700 45.52700 30.53700
H  34.07800 42.87800 32.27900
H  33.37700 44.53600 32.58900
H  34.70800 43.88800 33.56800
Mg 17.40400 51.51400 26.11900
C  19.36800 50.01500 28.50900
C  15.00800 52.14300 28.28700
C  15.63800 52.94800 23.60300
C  19.82200 50.53900 23.64800
N  17.15200 50.85900 28.13600
C  18.16300 50.47500 28.98100
C  17.77000 50.80300 30.47800
C  16.19300 51.06300 30.35900
C  16.07300 51.36700 28.84900
C  15.27500 49.85400 30.85900
C  18.76000 51.87200 30.97100
C  18.49900 52.44400 32.41400
H  17.50200 51.80600 33.30600
N  15.63500 52.52900 26.01000
C  14.78600 52.63700 27.04100
C  13.60200 53.28200 26.61700
C  13.73400 53.47800 25.18500
C  15.05500 53.05300 24.90500
C  12.52600 53.65500 27.61100
C  12.72400 54.13200 24.27500
O  13.01300 54.48100 23.13400
C  11.28900 54.44600 24.74700
N  17.70200 51.58400 23.93500
C  16.79600 52.26400 23.18500
C  17.27700 52.46000 21.66900
C  18.70800 51.76100 21.72500
C  18.72900 51.23100 23.20100
C  16.28200 51.98800 20.54800
C  19.88900 52.60600 21.35200
C  20.84500 51.96500 20.30800
N  19.24800 50.43000 25.98800
C  20.08800 50.03500 24.94700
C  21.19700 49.27600 25.49600
C  20.96100 49.30300 26.91500
C  19.76600 49.93400 27.09600
C  22.27300 48.68900 24.70100
C  21.46200 48.81500 28.18000
O  22.41900 48.10200 28.46000
C  20.60300 49.42600 29.24400
C  20.28100 48.45400 30.33500
O  19.66200 47.41600 30.14700
O  20.53300 49.03500 31.53800
C  20.00900 48.35700 32.69800
H  14.22400 52.11100 29.04600
H  15.00400 53.30700 22.79000
H  20.57000 50.29800 22.89100
H  18.01300 49.89100 31.02300
H  16.00600 51.90400 31.02700
H  14.40100 50.21800 31.40000
H  15.87500 49.27000 31.55800
H  15.11600 49.28300 29.94500
H  18.84100 52.72400 30.29600
H  19.80400 51.60600 31.13800
H  18.28100 53.49900 32.25300
H  19.34800 52.53800 33.09100
H  12.15800 54.64000 27.32600
H  12.90100 53.67400 28.63400
H  11.76300 52.90500 27.39900
H  10.84700 53.69500 25.40200
H  10.74600 54.58000 23.81200
H  11.31700 55.40000 25.27300
H  17.36300 53.53900 21.54300
H  18.68600 50.89900 21.05800
H  16.86200 51.34600 19.88500
H  16.04900 52.86500 19.94500
H  15.41700 51.43400 20.91200
H  20.47400 52.92000 22.21600
H  19.50200 53.51000 20.88000
H  20.22600 51.41900 19.59700
H  21.46600 51.27600 20.88100
H  21.46400 52.66300 19.74500
H  22.73400 49.39000 24.00400
H  21.86800 47.79000 24.23700
H  23.10600 48.35400 25.32000
H  21.24400 50.20100 29.66500
H  20.23400 49.03600 33.52000
H  20.49100 47.50000 33.16700
H  18.94800 48.10600 32.66900

