158

Mg 0.76900 8.06300 26.63000
C  1.09300 10.04600 29.45200
C  0.56300 5.25100 28.43500
C  0.24500 6.35700 23.72900
C  0.68900 11.05400 24.69400
N  0.97500 7.69400 28.73600
C  0.91100 8.65500 29.70400
C  0.66200 7.99200 31.01000
C  0.83500 6.46400 30.67900
C  0.82500 6.43400 29.15100
C  2.10600 5.76400 31.22400
C  -0.76000 8.33500 31.62700
C  -0.76500 8.82100 33.18300
H  0.37100 8.31800 34.11000
N  0.55700 6.05900 26.12700
C  0.55800 5.04900 27.05200
C  0.35000 3.84200 26.42000
C  0.01800 4.15200 25.00400
C  0.27000 5.57400 24.89700
C  0.22500 2.47500 27.10900
C  -0.43700 3.20000 23.85500
O  -0.66500 3.54600 22.70000
C  -0.57000 1.68200 24.09200
N  0.64100 8.66200 24.58400
C  0.51400 7.69400 23.59800
C  0.65100 8.33700 22.21700
C  0.30400 9.77000 22.53800
C  0.52200 9.88300 24.01700
C  2.03000 8.08500 21.52600
C  -1.23400 10.03000 22.28500
C  -1.56200 10.90300 21.12100
N  1.10300 10.08500 26.95500
C  1.04700 11.19500 26.08300
C  1.35800 12.41800 26.82600
C  1.41700 11.99600 28.15200
C  1.22200 10.63900 28.15900
C  1.36200 13.83400 26.26700
C  1.55400 12.44100 29.43600
O  1.85300 13.56900 29.87500
C  1.24900 11.24100 30.37800
C  2.27700 11.14700 31.44000
O  3.41400 10.80100 31.23100
O  1.70700 11.61700 32.64000
C  2.76800 11.93600 33.59700
H  0.35800 4.38900 29.07300
H  -0.10700 5.77700 22.87400
H  0.63500 11.98300 24.12200
H  1.35500 8.35000 31.77200
H  -0.00900 5.86000 31.01400
H  2.67700 6.39100 31.90800
H  2.82200 5.42300 30.47600
H  1.93800 4.91700 31.88900
H  -1.39800 7.45300 31.67800
H  -1.11500 9.19000 31.05000
H  -1.70100 8.51300 33.64900
H  -0.78000 9.91100 33.20700
H  0.68700 2.42300 28.09500
H  0.74200 1.65400 26.61300
H  -0.79100 2.10800 27.25500
H  0.37100 1.13300 24.11000
H  -1.22900 1.30800 23.30800
H  -1.07900 1.37900 25.00700
H  -0.08400 7.92700 21.52600
H  0.93900 10.47100 21.99600
H  2.65800 7.41100 22.10900
H  2.61300 8.99200 21.36500
H  1.80800 7.66100 20.54600
H  -1.81600 10.48100 23.08900
H  -1.80600 9.10200 22.27000
H  -1.06900 10.48900 20.24100
H  -1.21400 11.92200 21.29600
H  -2.63800 11.06800 21.07400
H  1.74900 13.86300 25.24800
H  2.06500 14.33000 26.93700
H  0.36800 14.27700 26.20800
H  0.29300 11.47600 30.84600
H  3.44400 12.69500 33.20300
H  3.31700 11.04100 33.89000
H  2.40700 12.29200 34.56200
Mg -11.00900 38.05500 41.99600
C  -9.29500 35.03400 41.49600
C  -8.54000 39.69500 40.27800
C  -12.99900 40.71400 41.90200
C  -13.72900 36.13100 43.25800
N  -9.25100 37.45400 40.99400
C  -8.67800 36.17800 40.92700
C  -7.46200 36.15900 40.00200
C  -7.10700 37.64500 39.84200
C  -8.36700 38.34500 40.40000
C  -5.74100 38.14400 40.44700
C  -7.87400 35.36400 38.70100
C  -7.19200 34.08000 38.34500
H  -6.53900 34.07500 36.99000
N  -10.77300 39.92500 41.25900
C  -9.65500 40.48000 40.69200
C  -9.91900 41.85000 40.29300
C  -11.20800 42.17600 40.71500
C  -11.70200 40.90000 41.31500
C  -8.97000 42.74400 39.53100
C  -11.83600 43.54700 40.53500
O  -11.25900 44.45800 39.93200
C  -13.16700 43.91600 41.08800
N  -13.08200 38.33900 42.58300
C  -13.64200 39.54000 42.37200
C  -15.09300 39.55500 42.76300
C  -15.34400 38.12500 43.25900
C  -13.95100 37.51700 43.03600
C  -15.51100 40.78500 43.60100
C  -16.49800 37.33600 42.66200
C  -17.29300 36.39300 43.57700
N  -11.36800 36.01600 42.50900
C  -12.47000 35.43100 43.17200
C  -12.11400 34.06200 43.47300
C  -10.87600 33.86500 42.80100
C  -10.45900 35.09000 42.30900
C  -12.97600 33.08100 44.32900
C  -9.89200 32.89100 42.53100
O  -9.94900 31.69600 42.78600
C  -8.78400 33.58600 41.59600
C  -7.44000 33.51000 42.17000
O  -6.52700 32.76700 41.74500
O  -7.33700 34.27800 43.31600
C  -6.05200 34.04900 43.98600
H  -7.74000 40.30200 39.85000
H  -13.65800 41.58500 41.90700
H  -14.59800 35.60200 43.65400
H  -6.64000 35.61000 40.46000
H  -7.14700 37.83400 38.76900
H  -5.17400 37.26300 40.74900
H  -5.87400 38.89100 41.22900
H  -5.13700 38.66700 39.70600
H  -7.88200 36.05600 37.85800
H  -8.89600 35.02800 38.87500
H  -7.82500 33.19600 38.26900
H  -6.37700 33.88900 39.04400
H  -9.19400 43.01900 38.50000
H  -8.02900 42.19400 39.54900
H  -8.65500 43.64800 40.05200
H  -13.83000 43.27700 40.50500
H  -13.23600 45.00100 41.01200
H  -13.32100 43.62400 42.12700
H  -15.64600 39.63100 41.82700
H  -15.46500 38.30200 44.32700
H  -14.65700 41.40000 43.88600
H  -16.16400 40.52500 44.43400
H  -16.03500 41.42100 42.88700
H  -16.08700 36.72900 41.85600
H  -17.24100 38.01400 42.24100
H  -18.33800 36.69600 43.65300
H  -16.85700 36.41600 44.57500
H  -17.20900 35.38300 43.17500
H  -12.29100 32.59000 45.02000
H  -13.34000 32.25700 43.71400
H  -13.76300 33.58600 44.88900
H  -8.78800 33.07000 40.63600
H  -5.87600 34.71300 44.83300
H  -5.17200 34.05700 43.34300
H  -6.10200 33.06000 44.44100

