158

Mg 2.09500 -1.64400 43.71400
C  5.50400 -1.41200 43.18500
C  1.68100 1.18000 41.75500
C  -1.19500 -2.53300 43.30600
C  2.67600 -4.76700 45.13300
N  3.45600 -0.41400 42.39200
C  4.77400 -0.42700 42.49300
C  5.34300 0.72000 41.59100
C  4.13600 1.76200 41.55700
C  3.05200 0.76500 41.82700
C  4.24800 3.04700 42.44400
C  5.77800 0.15400 40.17300
C  6.44600 1.07300 39.14700
H  5.83600 1.22700 37.72000
N  0.42300 -0.70800 42.81300
C  0.48500 0.46300 42.06800
C  -0.88900 0.90600 41.87700
C  -1.77200 -0.14200 42.26900
C  -0.86900 -1.19000 42.88500
C  -1.18500 2.17600 41.20500
C  -3.36600 -0.21900 42.23200
O  -3.97000 0.71800 41.74300
C  -4.15300 -1.24200 42.75800
N  0.98200 -3.38500 44.08200
C  -0.28900 -3.53800 43.82200
C  -0.84500 -4.92100 44.22400
C  0.26300 -5.42200 45.17500
C  1.41600 -4.50000 44.74400
C  -2.28500 -4.82700 45.00300
C  0.57900 -6.94600 45.14200
C  1.02300 -7.64900 46.48700
N  3.76900 -2.97000 44.16300
C  3.80700 -4.08500 44.83900
C  5.25000 -4.48500 44.94900
C  5.96500 -3.36500 44.34400
C  4.97700 -2.51500 43.89700
C  5.82800 -5.78800 45.56500
C  7.26000 -2.68900 44.16100
O  8.35300 -2.99000 44.59600
C  6.97100 -1.42900 43.31600
C  7.72600 -0.31800 43.86600
O  8.91700 -0.36400 44.02400
O  6.96900 0.61300 44.41900
C  7.63900 1.45600 45.47600
H  1.52700 2.20900 41.42400
H  -2.22600 -2.88600 43.24800
H  2.95600 -5.68100 45.66100
H  6.26000 1.21900 41.90200
H  3.97600 2.07000 40.52400
H  5.29200 3.11000 42.74900
H  3.52900 2.94800 43.25700
H  3.86300 3.94000 41.95100
H  4.94600 -0.44500 39.80300
H  6.52700 -0.61200 40.37700
H  7.40000 0.57000 38.99200
H  6.47200 2.08800 39.54200
H  -2.23400 2.42900 41.35900
H  -1.05700 2.06300 40.12900
H  -0.61100 2.91300 41.76600
H  -5.23500 -1.13300 42.68200
H  -3.90400 -1.43800 43.80100
H  -4.08100 -2.19000 42.22400
H  -1.04600 -5.45200 43.29400
H  0.05700 -5.11500 46.20000
H  -2.60600 -3.81300 45.24200
H  -2.25000 -5.41900 45.91700
H  -3.04000 -5.26300 44.34800
H  1.38400 -7.02500 44.41300
H  -0.34600 -7.45500 44.87000
H  0.17500 -8.11700 46.98800
H  1.38700 -6.95900 47.24900
H  1.82800 -8.32300 46.19600
H  6.90300 -5.61000 45.58200
H  5.58300 -6.60700 44.88900
H  5.46200 -6.01600 46.56600
H  7.33000 -1.67600 42.31700
H  7.00800 1.83900 46.27800
H  8.00900 2.38100 45.03400
H  8.50000 1.04000 45.99900
Mg 0.93700 8.60600 27.20700
C  1.56200 10.73900 29.91900
C  0.46400 6.00600 29.39300
C  0.21800 6.69200 24.51300
C  1.59000 11.20900 25.09100
N  1.17300 8.37800 29.44700
C  1.24500 9.42000 30.32400
C  1.03700 8.92400 31.77500
C  0.90400 7.34300 31.64900
C  0.79600 7.20400 30.12500
C  2.23800 6.48600 32.06700
C  -0.24600 9.52100 32.50500
C  -0.77300 8.93800 33.86800
H  0.17100 8.49400 34.93700
N  0.42500 6.60200 27.01500
C  0.31600 5.70800 28.01200
C  -0.12600 4.40000 27.48600
C  -0.05600 4.54900 26.02600
C  0.20800 6.01200 25.80400
C  -0.44700 3.20600 28.41700
C  -0.23500 3.49100 25.04000
O  -0.13100 3.71200 23.83900
C  -0.58800 2.04200 25.46300
N  0.98400 8.92600 25.08500
C  0.52400 8.03900 24.20600
C  0.60200 8.44400 22.73500
C  0.81200 9.94100 22.96600
C  1.24800 10.05000 24.42000
C  1.66300 7.72300 21.82900
C  -0.38900 10.76900 22.62600
C  -0.06600 12.15400 22.05200
N  1.58000 10.58400 27.39100
C  1.85200 11.54100 26.44800
C  2.10600 12.79700 27.09200
C  2.03900 12.51500 28.46100
C  1.73200 11.18800 28.59200
C  2.53600 14.02100 26.42300
C  2.18300 13.09200 29.79100
O  2.58100 14.22100 30.10900
C  1.74900 11.99800 30.77700
C  2.69900 11.86100 31.94300
O  3.80100 11.38600 31.93200
O  2.09700 12.45800 33.05900
C  2.85500 12.26200 34.35100
H  0.48400 5.11200 30.02000
H  -0.02000 6.11400 23.61800
H  1.65500 12.07700 24.43200
H  1.89300 9.23000 32.37500
H  0.03000 7.01900 32.21300
H  2.07800 5.90100 32.97300
H  3.02200 7.16200 32.40700
H  2.55700 5.75200 31.32600
H  -1.08500 9.30300 31.84500
H  -0.09800 10.59600 32.61700
H  -1.39600 8.08400 33.60000
H  -1.51700 9.59400 34.31900
H  -0.98000 2.40000 27.91200
H  -1.10200 3.67500 29.15200
H  0.55100 2.95100 28.77200
H  -0.58800 1.42900 24.56200
H  -1.59600 2.06300 25.87900
H  0.16300 1.70900 26.17900
H  -0.33700 8.18000 22.24800
H  1.62900 10.34100 22.36500
H  1.31300 7.29000 20.89200
H  2.07100 6.92700 22.45100
H  2.36500 8.50500 21.54100
H  -0.93700 10.95200 23.55100
H  -1.14600 10.38600 21.94100
H  -0.19900 12.25600 20.97500
H  0.92000 12.46400 22.39700
H  -0.72900 12.90400 22.48500
H  1.71100 14.61400 26.02800
H  3.14600 13.67600 25.58800
H  3.10500 14.65100 27.10700
H  0.76000 12.28600 31.13300
H  3.14800 13.16900 34.88000
H  3.81600 11.74900 34.36200
H  2.17100 11.75500 35.03200

