158

Mg 23.85600 -5.66800 46.35400
C  26.26000 -3.78800 44.59600
C  21.55800 -4.75200 44.03900
C  21.97700 -8.31100 47.24200
C  26.56400 -7.11300 48.09300
N  23.92600 -4.46300 44.52500
C  24.96500 -3.70500 44.10100
C  24.61300 -2.81600 42.90800
C  23.01700 -2.95200 42.91400
C  22.82200 -4.11200 43.88100
C  22.15200 -1.70700 43.21100
C  25.32400 -3.17000 41.62100
C  26.07100 -2.02100 40.94200
H  25.24800 -1.29700 39.81500
N  21.93800 -6.42500 45.82300
C  21.12000 -5.82800 44.88700
C  19.80300 -6.45100 44.92100
C  19.86100 -7.50900 45.89400
C  21.32400 -7.50900 46.34200
C  18.71100 -6.00000 43.96200
C  18.67400 -8.37100 46.30400
O  17.54500 -8.16600 45.90100
C  18.81500 -9.49400 47.27400
N  24.27200 -7.56600 47.33000
C  23.23200 -8.31500 47.72600
C  23.61100 -9.55500 48.51700
C  25.09100 -9.09100 48.92800
C  25.36100 -7.77700 48.17900
C  22.63200 -10.01500 49.66900
C  26.19000 -10.17600 48.55500
C  26.83500 -10.16000 47.18700
N  25.99600 -5.40200 46.48400
C  26.97600 -6.04600 47.26200
C  28.26200 -5.44300 47.08800
C  28.02400 -4.50800 46.05400
C  26.65000 -4.58300 45.74000
C  29.52800 -5.86200 47.74100
C  28.70100 -3.47500 45.26000
O  29.82200 -2.99800 45.27200
C  27.55500 -3.00700 44.24300
C  27.41400 -1.53600 44.43800
O  26.73300 -1.02300 45.29800
O  28.15300 -0.86400 43.47600
C  28.02200 0.57000 43.57800
H  20.89000 -4.31100 43.29700
H  21.35200 -9.12400 47.61600
H  27.36000 -7.52800 48.71500
H  24.75900 -1.78900 43.24200
H  22.60400 -3.27700 41.95900
H  21.74400 -1.96100 44.19000
H  21.40400 -1.61000 42.42400
H  22.72400 -0.81000 43.44600
H  24.60100 -3.48300 40.86800
H  26.09200 -3.93500 41.73100
H  27.06600 -2.27400 40.57700
H  26.19400 -1.25000 41.70300
H  18.41100 -6.93300 43.48500
H  19.13500 -5.33600 43.20900
H  17.82100 -5.62600 44.46800
H  17.85100 -9.75100 47.71400
H  19.39400 -9.26900 48.16900
H  19.38000 -10.23600 46.71100
H  23.74100 -10.34200 47.77500
H  25.28000 -8.84300 49.97200
H  22.15600 -10.97400 49.46500
H  21.85300 -9.25700 49.74900
H  23.15800 -10.21900 50.60200
H  25.80300 -11.18400 48.70200
H  27.03400 -10.08400 49.23900
H  27.89500 -9.91100 47.23100
H  26.34700 -9.49400 46.47600
H  26.78800 -11.19200 46.83900
H  29.52100 -6.41900 48.67800
H  30.15100 -4.97200 47.82900
H  29.95900 -6.55000 47.01300
H  27.91700 -3.11800 43.22100
H  27.37700 0.95600 42.78900
H  28.98300 1.05800 43.41600
H  27.61000 0.97000 44.50400
Mg 6.19100 53.92600 41.15900
C  4.71700 50.90400 41.18400
C  8.81700 52.59800 39.55900
C  7.39900 57.18100 40.85300
C  3.23100 55.38900 42.64700
N  6.65600 51.99700 40.30700
C  5.94600 50.86900 40.53800
C  6.66000 49.64700 39.96300
C  8.11700 50.18800 39.84800
C  7.84000 51.67700 39.79100
C  9.07300 49.86300 41.03400
C  6.24200 49.04400 38.61700
C  5.51600 49.92500 37.58600
H  6.12900 50.08800 36.15200
N  7.88300 54.72900 40.39300
C  8.89200 54.04600 39.78000
C  9.98100 54.88500 39.37100
C  9.66800 56.18700 39.78800
C  8.23100 56.09800 40.39600
C  11.22100 54.33700 38.69300
C  10.62100 57.36000 39.66200
O  11.69400 57.15800 39.14600
C  10.32100 58.65200 40.41300
N  5.40500 55.97100 41.60700
C  6.11300 57.19300 41.43800
C  5.42000 58.49900 41.96600
C  4.05500 57.78700 42.44100
C  4.25400 56.28000 42.31000
C  6.10900 59.32400 43.03100
C  2.81900 58.37500 41.81400
C  2.27600 57.70500 40.54900
N  4.31400 53.37100 41.80300
C  3.28400 54.03000 42.39900
C  2.28700 53.07900 42.67300
C  2.81600 51.84100 42.29100
C  4.03600 52.09700 41.68800
C  0.85300 53.35200 43.21700
C  2.50900 50.43200 42.30600
O  1.59300 49.83500 42.84200
C  3.80100 49.71800 41.61200
C  3.30200 48.87400 40.51800
O  2.69100 49.20600 39.53700
O  3.79700 47.57200 40.69600
C  3.45500 46.59200 39.71900
H  9.68800 52.07500 39.15800
H  7.76100 58.20600 40.75400
H  2.32500 55.66400 43.19200
H  6.56400 48.94300 40.78900
H  8.67900 50.03600 38.92700
H  9.42200 50.68400 41.66000
H  9.92800 49.27100 40.70800
H  8.62400 49.10700 41.67900
H  5.68700 48.11100 38.71600
H  7.17200 48.71400 38.15300
H  5.36400 50.95900 37.89400
H  4.52300 49.47700 37.56000
H  11.16900 53.31100 38.32800
H  12.02600 54.32200 39.42900
H  11.54400 54.99400 37.88600
H  11.12300 59.37700 40.27400
H  10.07400 58.36200 41.43400
H  9.40800 58.94300 39.89400
H  5.24500 59.08500 41.06400
H  3.86800 57.84100 43.51400
H  6.34500 60.30100 42.60900
H  7.00100 58.92200 43.51100
H  5.44200 59.44000 43.88500
H  2.93800 59.45400 41.71600
H  2.11000 58.14500 42.60900
H  1.27300 57.30200 40.69400
H  2.93800 56.89800 40.23500
H  2.09200 58.51300 39.84100
H  0.45000 54.33700 42.98400
H  0.95600 53.27000 44.29900
H  0.23500 52.54200 42.83000
H  4.22000 48.98400 42.30100
H  2.37800 46.47000 39.83700
H  3.94500 45.63400 39.89300
H  3.66000 46.88100 38.68800

