158

Mg 48.03200 35.85900 27.89200
C  46.16300 33.90500 30.16900
C  48.29800 38.18400 30.29100
C  49.56900 37.66100 25.43100
C  47.46300 33.35200 25.42400
N  47.29700 36.02300 29.99100
C  46.65200 35.09600 30.76700
C  46.75600 35.45400 32.31500
C  47.13300 36.95500 32.19300
C  47.50300 37.12800 30.65400
C  46.15300 37.97700 32.71800
C  47.85800 34.53500 33.03000
C  48.00600 34.86200 34.45600
H  46.96700 35.56300 35.20500
N  48.75000 37.71200 27.85100
C  48.93000 38.51700 28.95700
C  49.71700 39.69700 28.58800
C  50.01200 39.55200 27.18600
C  49.45900 38.24200 26.75900
C  50.13500 40.68900 29.64200
C  50.67400 40.56700 26.21300
O  50.68800 40.44800 24.96500
C  51.31100 41.81100 26.83200
N  48.21200 35.63400 25.62600
C  48.92900 36.50800 24.89500
C  49.17300 36.06100 23.45600
C  48.64200 34.59500 23.47300
C  48.03700 34.54700 24.87800
C  48.44900 36.86700 22.32900
C  49.74700 33.45000 23.22700
C  49.31800 32.47700 22.06600
N  47.05600 33.95200 27.78300
C  46.88900 33.07300 26.70700
C  46.21800 31.91900 27.18800
C  45.81300 32.26100 28.48800
C  46.36100 33.48500 28.83400
C  45.77000 30.77100 26.33900
C  45.02600 31.79300 29.62200
O  44.43900 30.70900 29.77400
C  45.14100 32.89800 30.76900
C  45.32000 32.33200 32.12500
O  45.95600 31.35500 32.52200
O  44.52300 33.07600 32.93200
C  44.43100 32.73700 34.31600
H  48.28300 39.01500 30.99900
H  50.21300 38.15600 24.70200
H  47.48400 32.53600 24.70000
H  45.74800 35.40500 32.72800
H  48.03500 37.07100 32.79300
H  46.64100 38.71900 33.35000
H  45.35100 37.59400 33.34900
H  45.59900 38.49800 31.93800
H  48.78700 34.70300 32.48500
H  47.69300 33.46200 32.93400
H  48.90100 35.48000 34.52700
H  48.15000 33.89300 34.93400
H  51.20900 40.55200 29.76900
H  49.68800 40.44200 30.60500
H  49.80600 41.69300 29.37300
H  51.55700 41.88900 27.89100
H  50.78300 42.65700 26.39200
H  52.33200 41.88000 26.45800
H  50.23200 36.02500 23.19700
H  47.86800 34.52100 22.70900
H  49.16000 37.59100 21.93100
H  47.58300 37.42900 22.68100
H  48.16600 36.26300 21.46700
H  49.93200 32.87800 24.13600
H  50.62000 34.00900 22.89200
H  49.95900 32.46400 21.18500
H  48.30900 32.74800 21.75400
H  49.41000 31.43900 22.38800
H  46.71300 30.58700 25.82600
H  44.98300 30.93900 25.60300
H  45.46900 29.95600 26.99700
H  44.14400 33.33800 30.76100
H  43.75200 33.40800 34.84200
H  45.44900 32.70700 34.70400
H  43.96900 31.75500 34.42800
Mg -11.73800 37.90500 41.11100
C  -9.40600 35.22900 40.43200
C  -9.41500 40.10000 39.92700
C  -14.23700 40.19100 41.03800
C  -13.99700 35.41600 42.14200
N  -9.78500 37.60900 40.03300
C  -8.97900 36.47600 40.00300
C  -7.56300 36.77000 39.42700
C  -7.57700 38.36200 39.44300
C  -9.02200 38.69100 39.81200
C  -6.67100 39.03300 40.50400
C  -7.39100 36.18300 38.02100
C  -6.38900 35.04300 37.90500
H  -5.25600 35.25800 36.87800
N  -11.80500 39.86400 40.63200
C  -10.67800 40.64100 40.25000
C  -11.14500 41.97200 40.18300
C  -12.50400 42.03000 40.51000
C  -12.91500 40.65000 40.69600
C  -10.25800 43.14400 39.80800
C  -13.34800 43.26600 40.58800
O  -12.94800 44.37800 40.22300
C  -14.84300 43.21800 41.04700
N  -13.81800 37.77800 41.43400
C  -14.66300 38.88600 41.38300
C  -16.12300 38.44500 41.67700
C  -15.89200 36.98700 42.20800
C  -14.47500 36.70600 41.94400
C  -16.94500 39.45500 42.57900
C  -16.87500 35.85800 41.75700
C  -17.58400 35.00900 42.89400
N  -11.83100 35.80500 41.29200
C  -12.75400 34.95400 41.85200
C  -12.22200 33.63300 41.99800
C  -10.97900 33.67900 41.38700
C  -10.77200 34.99500 40.96900
C  -12.82200 32.40600 42.60200
C  -9.79600 32.87100 41.14000
O  -9.51700 31.73000 41.43800
C  -8.79300 33.88300 40.57300
C  -7.52700 33.74900 41.34400
O  -6.68600 32.83100 41.14900
O  -7.38900 34.73400 42.22400
C  -6.14000 34.84600 43.05300
H  -8.67300 40.88000 39.74500
H  -15.13100 40.81900 41.06400
H  -14.58000 34.66100 42.67500
H  -6.82400 36.41500 40.14500
H  -7.21700 38.81800 38.52100
H  -6.64500 40.05400 40.12200
H  -5.64500 38.66900 40.54300
H  -7.23500 38.97100 41.43500
H  -6.99600 36.88600 37.28800
H  -8.35500 35.84500 37.64100
H  -6.93400 34.15300 37.58900
H  -5.97500 34.92200 38.90600
H  -9.24400 42.78400 39.63500
H  -10.17900 43.96000 40.52600
H  -10.63800 43.50500 38.85200
H  -15.05000 44.28800 41.03900
H  -14.88400 42.80400 42.05400
H  -15.51300 42.70300 40.35900
H  -16.71000 38.39700 40.75900
H  -16.02200 37.00500 43.29000
H  -17.58800 38.95700 43.30500
H  -17.51700 40.03700 41.85600
H  -16.25300 40.09400 43.12800
H  -16.39200 35.24800 40.99300
H  -17.77400 36.27400 41.30000
H  -18.56400 35.46000 43.05500
H  -17.02700 35.10000 43.82600
H  -17.73700 33.97200 42.59400
H  -13.89900 32.49500 42.74700
H  -12.37200 32.08200 43.54000
H  -12.69800 31.51500 41.98700
H  -8.67600 33.48700 39.56500
H  -5.28100 34.53000 42.46100
H  -6.22300 34.26900 43.97400
H  -5.97000 35.91000 43.21700

