158

Mg 26.60700 49.78800 26.32400
C  24.57000 51.00700 28.88200
C  28.57000 48.44500 28.59800
C  28.55600 48.94100 23.83400
C  24.48800 51.51300 24.14000
N  26.57000 49.80000 28.54400
C  25.58800 50.24300 29.37700
C  25.84800 49.84700 30.85300
C  27.27200 49.14700 30.81400
C  27.49400 49.08900 29.22900
C  28.31700 50.01200 31.58600
C  24.67200 49.08800 31.51100
C  24.33100 49.52500 32.95800
H  25.27900 50.00300 34.02400
N  28.36200 48.79000 26.21800
C  29.06200 48.33200 27.27800
C  30.28500 47.72700 26.84400
C  30.29300 47.87400 25.43800
C  29.07100 48.63600 25.07600
C  31.27500 47.03200 27.67400
C  31.30900 47.49600 24.38000
O  31.18500 47.79800 23.20500
C  32.69500 46.90300 24.89200
N  26.57600 50.28000 24.29000
C  27.48500 49.75500 23.45600
C  27.00500 49.88600 22.00800
C  25.83400 50.96800 22.10700
C  25.55000 50.82200 23.58100
C  28.07600 50.24900 21.01400
C  24.55500 50.56200 21.27400
C  23.77700 49.20500 21.74000
N  24.90300 50.99100 26.44700
C  24.16600 51.64200 25.43800
C  23.07700 52.38200 26.02200
C  23.19500 52.12600 27.40100
C  24.37400 51.33700 27.59600
C  22.07400 53.11700 25.31400
C  22.65600 52.32900 28.66100
O  21.71900 53.00400 29.01400
C  23.51700 51.66100 29.75800
C  24.05400 52.71100 30.67600
O  25.12500 53.28100 30.68100
O  23.07600 52.93800 31.56000
C  23.66800 53.58500 32.76800
H  29.28300 47.94000 29.25300
H  28.94200 48.46800 22.92800
H  23.85400 52.04000 23.42400
H  25.98400 50.79600 31.37100
H  27.23400 48.12800 31.19800
H  29.04800 49.28000 31.93100
H  27.93200 50.53600 32.46100
H  28.70100 50.81600 30.95700
H  24.82900 48.01300 31.60100
H  23.75200 49.03800 30.92900
H  23.99300 48.62600 33.47300
H  23.48200 50.20800 32.92800
H  31.29200 45.95300 27.52200
H  31.07200 47.21400 28.72900
H  32.26900 47.47900 27.65600
H  32.61200 45.96000 25.43200
H  33.12300 47.70100 25.50000
H  33.43200 46.67000 24.12400
H  26.73500 48.88100 21.68400
H  26.15100 52.01000 22.15600
H  28.96900 50.60200 21.53000
H  27.75900 51.04400 20.33900
H  28.33000 49.42400 20.34800
H  24.76500 50.57100 20.20400
H  23.86100 51.39700 21.37100
H  22.92500 49.43400 22.38100
H  24.29800 48.57500 22.46100
H  23.56900 48.43600 20.99700
H  21.44600 53.54000 26.09800
H  21.44800 52.35200 24.85400
H  22.34100 53.83500 24.53800
H  22.77300 51.07700 30.30000
H  24.51300 53.03100 33.17600
H  22.92000 53.65500 33.55700
H  23.98700 54.59500 32.50600
Mg 16.66700 52.10800 26.21300
C  18.57200 50.57400 28.70300
C  14.25400 52.70400 28.48200
C  14.93800 53.42800 23.66600
C  18.96600 50.71000 23.87600
N  16.49300 51.74500 28.36300
C  17.45600 51.22700 29.19300
C  17.02200 51.47100 30.66600
C  15.52500 51.78100 30.44800
C  15.36100 52.05200 28.98800
C  14.59900 50.60200 30.96400
C  17.91900 52.55100 31.35300
C  18.18200 52.40700 32.95100
H  17.10400 52.02100 33.93800
N  14.88200 53.06000 26.14100
C  14.03800 53.23900 27.19400
C  12.89600 53.97200 26.70900
C  13.01300 54.06700 25.25000
C  14.34500 53.54900 24.96000
C  11.75600 54.32900 27.62900
C  12.02200 54.57400 24.22900
O  12.26600 54.53700 23.06000
C  10.76800 55.27200 24.60900
N  16.82700 51.97500 23.93100
C  16.03800 52.68300 23.14500
C  16.48700 52.61400 21.67000
C  17.86400 51.72800 21.75900
C  17.96000 51.42700 23.27000
C  15.35100 51.91400 20.84500
C  19.15200 52.42200 21.20700
C  19.40600 53.84500 21.67500
N  18.35400 50.86100 26.18900
C  19.16700 50.38000 25.20900
C  20.26800 49.62400 25.75000
C  20.15900 49.76400 27.10400
C  18.97200 50.49700 27.32900
C  21.39400 48.96000 25.00200
C  20.69800 49.35700 28.39700
O  21.76500 48.67300 28.54500
C  19.74800 49.95900 29.47900
C  19.22000 48.99000 30.52500
O  18.30700 48.21800 30.41100
O  19.93600 49.23600 31.67900
C  19.54800 48.38900 32.82800
H  13.52900 52.90800 29.27300
H  14.60900 54.05900 22.83800
H  19.75900 50.37900 23.20300
H  17.13600 50.55500 31.24600
H  15.29200 52.71700 30.95500
H  15.11300 49.65300 31.11900
H  13.85400 50.36000 30.20600
H  13.94100 50.89000 31.78400
H  17.62400 53.59500 31.25300
H  18.87300 52.41700 30.84400
H  18.70400 53.23700 33.42700
H  18.82100 51.54100 33.12200
H  11.43300 55.36800 27.55500
H  12.20200 54.37400 28.62300
H  10.94700 53.62100 27.44900
H  10.31400 54.68400 25.40600
H  10.01500 55.34400 23.82400
H  11.19500 56.20500 24.97700
H  16.61700 53.62300 21.28100
H  17.85100 50.79300 21.19900
H  15.79300 51.28700 20.07000
H  14.67800 52.55900 20.28000
H  14.90400 51.19600 21.53400
H  19.21300 52.37500 20.11900
H  19.92200 51.81700 21.68500
H  20.47200 53.94200 21.88100
H  18.87100 54.02100 22.60800
H  19.15900 54.50600 20.84400
H  21.05300 48.71400 23.99700
H  21.52800 47.99100 25.48200
H  22.26600 49.61500 24.98900
H  20.09500 50.85500 29.99400
H  20.26100 48.54100 33.63900
H  19.53300 47.30400 32.72600
H  18.55100 48.70000 33.13900

