158

Mg 1.63900 -1.57100 43.42500
C  5.01800 -0.67600 43.05700
C  0.85700 1.31200 41.80900
C  -1.49300 -2.76100 43.15900
C  2.65300 -4.62700 44.66100
N  2.87300 0.01500 42.33500
C  4.20400 0.23900 42.39900
C  4.64100 1.60700 41.82600
C  3.26200 2.27100 41.58000
C  2.23400 1.15100 41.91800
C  2.99200 3.45400 42.51900
C  5.51400 1.49900 40.55700
C  6.44600 2.70200 40.33900
H  6.42900 3.27000 38.97900
N  -0.07600 -0.82900 42.58900
C  -0.24900 0.42000 42.00200
C  -1.63700 0.71600 41.75900
C  -2.33800 -0.42000 42.19000
C  -1.35000 -1.46400 42.58300
C  -2.14200 1.96200 41.08500
C  -3.90000 -0.55300 42.20600
O  -4.68100 0.37200 41.92900
C  -4.60300 -1.84800 42.47900
N  0.79300 -3.53600 43.79100
C  -0.54400 -3.69800 43.67200
C  -1.02800 -5.08500 44.15600
C  0.30200 -5.70700 44.70400
C  1.28100 -4.58600 44.39600
C  -2.30000 -5.18700 45.08500
C  0.72200 -7.11400 44.02100
C  1.30300 -8.10100 44.96700
N  3.43500 -2.45100 43.80800
C  3.72600 -3.70900 44.35300
C  5.17500 -3.80600 44.58300
C  5.68400 -2.59500 44.12200
C  4.60400 -1.84800 43.64800
C  5.96600 -4.98000 45.28800
C  6.87000 -1.76800 44.11400
O  7.99800 -1.95200 44.58400
C  6.48500 -0.52000 43.25100
C  6.83900 0.75700 44.02300
O  6.36800 1.04300 45.14200
O  7.75900 1.48400 43.28200
C  8.05400 2.75100 43.92500
H  0.57500 2.27900 41.38700
H  -2.53400 -3.08200 43.08000
H  2.85000 -5.62400 45.06000
H  5.11300 2.22000 42.59400
H  3.13400 2.60500 40.55000
H  3.80700 3.71800 43.19400
H  2.13900 3.25500 43.16700
H  2.82700 4.33300 41.89500
H  4.98600 1.31200 39.62100
H  6.10600 0.58500 40.59200
H  7.40400 2.36200 40.73200
H  6.15800 3.52300 40.99600
H  -2.68000 2.59800 41.78700
H  -2.89900 1.69200 40.34800
H  -1.42300 2.52900 40.49400
H  -5.62600 -1.57800 42.21800
H  -4.59600 -1.95600 43.56400
H  -4.13300 -2.60700 41.85400
H  -1.28200 -5.62300 43.24300
H  0.24500 -5.90600 45.77400
H  -3.17500 -5.65900 44.63900
H  -2.56200 -4.15700 45.32800
H  -2.09100 -5.66300 46.04300
H  1.48100 -6.86700 43.27900
H  -0.09700 -7.54000 43.44100
H  0.57600 -8.80900 45.36400
H  1.80400 -7.53600 45.75300
H  2.12300 -8.63200 44.48500
H  7.03000 -4.76400 45.38300
H  5.98500 -5.90700 44.71600
H  5.55300 -5.19900 46.27300
H  7.11500 -0.47900 42.36300
H  8.91300 3.03400 43.31600
H  8.40300 2.56400 44.94100
H  7.16800 3.38500 43.91300
Mg -5.44900 25.81500 25.69000
C  -4.09500 27.00800 28.66600
C  -7.01900 23.32800 27.57000
C  -6.41800 24.36400 22.88200
C  -3.07600 27.71400 23.97300
N  -5.56200 25.26500 27.88800
C  -4.95000 25.93000 28.93600
C  -5.41200 25.39600 30.29400
C  -6.01100 23.94400 29.91300
C  -6.22800 24.15900 28.38000
C  -5.18400 22.74600 30.41200
C  -6.42300 26.23800 31.07000
C  -6.12300 26.59700 32.52300
H  -5.30600 25.54300 33.35500
N  -6.72000 24.17200 25.31200
C  -7.30400 23.32000 26.17500
C  -8.12300 22.34700 25.44500
C  -8.03600 22.69200 24.05900
C  -6.99300 23.79300 24.06300
C  -8.93600 21.20500 26.07200
C  -8.80900 22.16500 22.81000
O  -8.54700 22.50400 21.66500
C  -9.83200 21.18100 22.91600
N  -4.73200 25.87700 23.73500
C  -5.40300 25.27200 22.79600
C  -4.79000 25.63700 21.40300
C  -3.85700 26.81300 21.72600
C  -3.87100 26.87300 23.22000
C  -4.08600 24.40800 20.72100
C  -4.29700 28.23000 21.15800
C  -3.33400 28.98200 20.20700
N  -3.88800 27.15700 26.14300
C  -3.02400 27.82600 25.31400
C  -2.38900 28.82100 26.17600
C  -2.79400 28.56300 27.47200
C  -3.67300 27.52700 27.41400
C  -1.57000 29.98800 25.73300
C  -2.60100 28.92600 28.83800
O  -1.85100 29.75800 29.39000
C  -3.31400 27.85400 29.66100
C  -2.51700 27.09800 30.63300
O  -1.90500 26.05100 30.40300
O  -2.47900 27.82500 31.78700
C  -1.39200 27.52700 32.69100
H  -7.51300 22.53200 28.13000
H  -6.74600 23.85900 21.97100
H  -2.57000 28.43300 23.32600
H  -4.51900 25.19600 30.88700
H  -6.98700 23.77200 30.36700
H  -5.08500 21.97300 29.64900
H  -5.64300 22.27100 31.27900
H  -4.18200 23.05100 30.71400
H  -7.38900 25.73400 31.06300
H  -6.63200 27.17900 30.56200
H  -7.14800 26.67100 32.88600
H  -5.58300 27.53100 32.67600
H  -8.37600 20.72000 26.87200
H  -9.26800 20.38900 25.43100
H  -9.76100 21.74000 26.54300
H  -9.43600 20.18000 23.08900
H  -10.41200 21.16600 21.99300
H  -10.56100 21.35900 23.70700
H  -5.54500 25.92600 20.67200
H  -2.88000 26.54500 21.32300
H  -4.27400 23.51200 21.31300
H  -3.03700 24.47900 20.43200
H  -4.67300 24.23300 19.82000
H  -4.49200 28.88100 22.01100
H  -5.23700 28.07900 20.62800
H  -2.37900 28.47700 20.06100
H  -3.19900 30.00500 20.55700
H  -3.69500 28.90100 19.18200
H  -0.54300 29.63500 25.63900
H  -1.72000 30.85300 26.37900
H  -1.88900 30.21100 24.71500
H  -4.09400 28.37300 30.21900
H  -0.45500 27.43300 32.14200
H  -1.59100 26.65300 33.31100
H  -1.34100 28.39100 33.35300

