158

Mg -2.12500 18.09600 26.79900
C  -2.36400 15.86100 29.57100
C  -2.38800 20.73200 28.73900
C  -2.62200 19.89800 24.04100
C  -2.24400 15.04300 24.73800
N  -2.45600 18.17800 28.88300
C  -2.40900 17.23300 29.88100
C  -2.65600 17.93100 31.28300
C  -2.69300 19.43100 30.98600
C  -2.51300 19.47000 29.42100
C  -4.02700 20.05500 31.46700
C  -1.77900 17.50300 32.43800
C  -1.42100 18.52000 33.63600
H  -1.44700 17.85900 35.06700
N  -2.44400 20.10600 26.45900
C  -2.45100 21.03800 27.38000
C  -2.61600 22.37100 26.76300
C  -2.64500 22.20700 25.33300
C  -2.60400 20.66900 25.19400
C  -2.65000 23.63800 27.52900
C  -2.65400 23.12100 24.16500
O  -2.72800 22.75100 22.99500
C  -2.64500 24.67000 24.39700
N  -2.49800 17.51200 24.76300
C  -2.46200 18.55700 23.79500
C  -2.39100 18.05800 22.35000
C  -2.12700 16.49400 22.59200
C  -2.32700 16.30000 24.09400
C  -3.74300 18.37300 21.54700
C  -0.85200 15.90000 21.92300
C  0.57900 16.31200 22.45400
N  -2.13900 15.93300 27.02100
C  -2.21800 14.87100 26.14700
C  -2.23200 13.60500 26.82800
C  -2.35100 14.00500 28.17100
C  -2.26500 15.38900 28.21600
C  -2.33600 12.26600 26.19000
C  -2.47700 13.44900 29.50100
O  -2.54700 12.25600 29.89000
C  -2.41800 14.65900 30.51100
C  -1.18000 14.41500 31.38000
O  -0.05000 14.61100 31.00000
O  -1.50700 14.10400 32.69600
C  -0.34700 13.99400 33.67800
H  -2.43600 21.54800 29.46300
H  -2.75800 20.48200 23.12900
H  -2.17900 14.17400 24.07900
H  -3.63000 17.56300 31.60500
H  -1.96800 20.11800 31.42300
H  -4.47500 20.63500 30.66100
H  -3.77900 20.86500 32.15400
H  -4.73500 19.42500 32.00500
H  -0.87000 17.00000 32.10600
H  -2.19900 16.63700 32.95000
H  -2.23500 19.24500 33.66600
H  -0.54100 19.11600 33.39600
H  -3.50400 24.29600 27.37100
H  -1.76100 24.23200 27.31700
H  -2.43900 23.50900 28.59100
H  -2.91000 24.93800 25.42000
H  -3.20600 25.17600 23.61100
H  -1.60100 24.97400 24.31300
H  -1.52400 18.45400 21.82200
H  -2.92600 15.89700 22.15200
H  -3.49100 18.99100 20.68500
H  -4.47900 18.85500 22.19100
H  -4.14800 17.42100 21.20300
H  -0.94600 15.99800 20.84100
H  -0.96200 14.84100 22.15600
H  0.81200 15.65200 23.29000
H  0.48100 17.33600 22.81700
H  1.35600 16.30800 21.69000
H  -1.82300 12.40800 25.23900
H  -3.38400 12.03600 25.99900
H  -1.82800 11.55800 26.84500
H  -3.31300 14.78300 31.12200
H  -0.22900 13.06800 34.24000
H  -0.19900 14.83300 34.35800
H  0.60500 14.02900 33.14800
Mg 47.29800 25.02400 29.01000
C  48.23100 27.49600 31.52400
C  46.30800 23.10600 31.59400
C  46.83900 22.65800 26.82400
C  48.61400 27.14400 26.63800
N  47.23400 25.35000 31.37100
C  47.49100 26.45800 32.15200
C  47.19200 26.17300 33.63500
C  46.87800 24.64600 33.58700
C  46.82600 24.30300 32.12200
C  47.76900 23.59400 34.34800
C  46.08600 27.15500 34.13400
C  46.57900 28.09300 35.23600
H  47.07700 27.43100 36.60600
N  46.50400 23.21100 29.18800
C  46.14700 22.53700 30.34400
C  45.69300 21.23500 29.95400
C  45.65000 21.14900 28.53100
C  46.34400 22.41900 28.09000
C  45.25000 20.29800 30.98500
C  45.17500 20.05700 27.64300
O  45.25600 20.14400 26.41300
C  44.64200 18.73300 28.17300
N  47.99500 24.84100 27.14800
C  47.57100 23.77200 26.38500
C  47.93000 23.96500 24.91300
C  48.40100 25.42300 24.81100
C  48.32100 25.85800 26.29900
C  48.94900 22.96700 24.25500
C  47.58400 26.42000 23.88700
C  48.43800 27.33400 23.03200
N  48.31000 26.87400 29.08300
C  48.73400 27.66900 28.02100
C  49.20300 28.87800 28.44400
C  49.04400 28.85000 29.84100
C  48.54500 27.60100 30.17900
C  49.74600 30.04700 27.55600
C  49.14100 29.68800 31.06600
O  49.67800 30.84700 31.10600
C  48.66500 28.74600 32.21800
C  49.80100 28.50600 33.16400
O  50.65600 27.66000 33.06200
O  49.81000 29.47000 34.14000
C  50.80100 29.15500 35.19600
H  45.85600 22.50000 32.38200
H  46.67500 22.01600 25.95700
H  48.83600 27.79000 25.78600
H  48.13400 26.48500 34.08600
H  45.88200 24.47600 33.99500
H  48.19100 22.93800 33.58700
H  47.15500 23.09700 35.09900
H  48.57000 24.15000 34.83500
H  45.24800 26.55000 34.48000
H  45.74400 27.74800 33.28600
H  45.74300 28.76200 35.43900
H  47.50500 28.60400 34.97100
H  44.23300 20.04600 30.68300
H  45.23000 20.67900 32.00600
H  45.76500 19.33800 31.03200
H  45.19200 18.39000 29.04900
H  44.55900 18.02500 27.34900
H  43.66800 19.01300 28.57400
H  46.96300 23.96600 24.41100
H  49.47200 25.36800 24.61600
H  49.95200 23.39500 24.23500
H  48.76600 22.48800 23.29400
H  48.99700 22.16200 24.98800
H  47.05800 27.13100 24.52300
H  46.91900 25.79400 23.29200
H  48.47800 26.98200 22.00100
H  49.42100 27.50200 23.47200
H  48.00300 28.33200 23.09100
H  49.43500 31.05600 27.82800
H  49.53600 29.92800 26.49300
H  50.82800 30.08000 27.68900
H  47.87800 29.28500 32.74600
H  50.50200 28.24900 35.72300
H  50.90500 29.97300 35.90800
H  51.81400 29.03900 34.81200

