158

Mg 25.63400 0.44900 29.16400
C  27.82500 0.04500 31.82300
C  23.10900 0.78000 31.25900
C  23.74100 0.78100 26.50300
C  28.38900 -0.35100 26.97200
N  25.55000 0.41000 31.33400
C  26.53800 0.42600 32.26400
C  25.96400 0.67000 33.68800
C  24.42200 0.53800 33.45300
C  24.32300 0.54800 31.92500
C  23.74200 -0.69100 34.13500
C  26.46300 2.01900 34.38000
C  27.24400 1.79400 35.75900
H  26.93600 2.83900 36.91800
N  23.72900 0.79700 28.92600
C  22.79200 0.93600 29.91100
C  21.43100 1.19900 29.37800
C  21.67700 1.09500 27.99000
C  23.08600 0.92000 27.75600
C  20.16300 1.48100 30.17500
C  20.64700 1.17000 26.90100
O  20.90400 1.16000 25.71100
C  19.13200 1.06500 27.28400
N  26.01700 0.37900 27.08200
C  25.03900 0.57100 26.20000
C  25.57100 0.65400 24.80800
C  27.10400 0.32600 24.97600
C  27.17600 0.09200 26.44100
C  24.84500 -0.30400 23.80300
C  27.94800 1.49000 24.31700
C  27.99500 2.81300 25.09800
N  27.69000 -0.14800 29.28400
C  28.67800 -0.40000 28.38400
C  29.94200 -0.66900 29.05200
C  29.65400 -0.60500 30.41600
C  28.22800 -0.26200 30.49600
C  31.25800 -1.06100 28.41800
C  30.22600 -0.58200 31.75000
O  31.38900 -0.80900 32.09700
C  29.06600 -0.17700 32.70000
C  28.89200 -1.26200 33.67000
O  28.32800 -2.34100 33.48800
O  29.49400 -0.91600 34.86400
C  29.23400 -1.75600 36.01300
H  22.26400 0.82700 31.95000
H  23.10100 0.82800 25.61900
H  29.17700 -0.50000 26.23100
H  26.31700 -0.13600 34.33200
H  24.06900 1.48700 33.85600
H  24.54800 -1.26300 34.59500
H  23.22700 -1.33400 33.42100
H  22.98600 -0.46100 34.88600
H  25.60300 2.67700 34.50900
H  27.05700 2.54600 33.63400
H  28.32500 1.76400 35.62000
H  26.95100 0.79200 36.07300
H  19.75600 2.47900 30.01300
H  20.27300 1.32700 31.24800
H  19.35900 0.80800 29.87500
H  18.52100 1.21400 26.39300
H  18.92100 1.84900 28.01100
H  18.92000 0.14100 27.82300
H  25.32300 1.66200 24.47400
H  27.56200 -0.57200 24.56100
H  24.09700 -0.88300 24.34500
H  25.54200 -0.94300 23.26000
H  24.29700 0.31300 23.09000
H  27.52300 1.80600 23.36400
H  28.91400 1.03200 24.10300
H  28.97500 2.68600 25.55800
H  27.32800 2.79800 25.96000
H  27.94300 3.78600 24.60900
H  31.37800 -1.05000 27.33500
H  31.50300 -2.07800 28.72300
H  31.92100 -0.35000 28.91000
H  29.24700 0.68500 33.34300
H  28.17800 -2.02400 36.01100
H  29.29600 -1.17500 36.93400
H  29.92000 -2.60300 35.98800
Mg 0.32700 43.33500 26.48900
C  2.62800 42.73100 29.24900
C  -2.17600 41.94100 28.47900
C  -1.65300 43.53400 23.93600
C  3.12800 43.74400 24.50400
N  0.23400 42.52400 28.52300
C  1.24100 42.54900 29.48000
C  0.62200 42.44500 30.90800
C  -0.79600 41.86100 30.53900
C  -0.92700 42.09400 29.04600
C  -1.18600 40.41900 30.95400
C  0.70200 43.78700 31.72000
C  1.17800 43.69300 33.15500
H  0.64100 42.53600 34.06400
N  -1.75900 42.94300 26.21800
C  -2.64800 42.30400 27.15700
C  -3.95900 42.25900 26.54500
C  -3.82400 42.79500 25.24100
C  -2.36900 43.08900 25.05100
C  -5.23000 41.77800 27.27200
C  -4.87600 42.90600 24.19800
O  -4.57700 43.15400 22.99900
C  -6.29500 42.79600 24.61300
N  0.72600 43.52500 24.45900
C  -0.33000 43.82300 23.66600
C  0.14500 44.29100 22.29300
C  1.65600 44.39300 22.41700
C  1.90000 43.87500 23.88800
C  -0.32500 43.38400 21.08100
C  2.15400 45.84800 22.22900
C  2.20900 46.83400 23.41800
N  2.40900 43.29900 26.73100
C  3.41900 43.45300 25.84100
C  4.72000 43.30000 26.52200
C  4.43700 43.08900 27.88200
C  3.03300 42.98800 27.92600
C  6.05900 43.17200 25.74100
C  5.07300 42.84100 29.16800
O  6.29200 42.92000 29.48200
C  3.87600 42.76800 30.16200
C  4.01100 41.51300 30.98400
O  4.42900 40.46200 30.57800
O  3.74900 41.77600 32.30600
C  3.96700 40.64700 33.18400
H  -3.01100 41.61600 29.10400
H  -2.29800 43.68400 23.06800
H  4.02600 43.97000 23.92500
H  1.15800 41.60400 31.34900
H  -1.57500 42.50400 30.94900
H  -2.10000 40.50200 31.54200
H  -0.53300 40.04000 31.73900
H  -1.20000 39.65700 30.17400
H  -0.25100 44.31600 31.74200
H  1.45500 44.39300 31.21500
H  0.93800 44.64600 33.62500
H  2.26400 43.61100 33.10700
H  -4.83100 41.22800 28.12400
H  -5.65700 40.90000 26.78700
H  -5.86100 42.60300 27.60400
H  -6.55100 41.76400 24.85400
H  -6.90500 43.19300 23.80200
H  -6.52700 43.48700 25.42300
H  -0.27800 45.26700 22.05600
H  2.16400 43.81600 21.64400
H  -0.85300 42.46500 21.33400
H  0.48800 43.08200 20.42100
H  -1.01500 44.01700 20.52400
H  1.59700 46.31100 21.41500
H  3.17100 45.69100 21.87000
H  3.19900 46.85200 23.87200
H  1.39700 46.57800 24.09900
H  2.04800 47.84500 23.04500
H  6.85500 42.70700 26.32200
H  6.40500 44.15800 25.43200
H  5.94600 42.50600 24.88600
H  3.80300 43.66400 30.77900
H  3.78000 40.92100 34.22300
H  4.97000 40.22100 33.15900
H  3.32400 39.79700 32.95500

