158

Mg 50.12500 45.79400 42.67700
C  46.85300 46.72900 41.52700
C  49.73200 42.85800 40.99100
C  53.41700 45.40600 42.94000
C  50.63100 49.34200 43.33500
N  48.34900 44.93800 41.43400
C  47.15300 45.46300 41.08800
C  46.44200 44.57900 40.03100
C  47.34500 43.29300 40.02200
C  48.57900 43.67600 40.89700
C  46.63500 41.95300 40.40800
C  46.17200 45.19900 38.68700
C  44.67900 45.32300 38.31700
H  44.12500 44.70900 37.04400
N  51.30100 44.23700 42.31400
C  51.04100 43.10500 41.59400
C  52.10700 42.25300 41.73400
C  53.17300 42.90900 42.43500
C  52.64900 44.29000 42.57200
C  52.04700 40.85100 41.15700
C  54.54200 42.38300 42.67200
O  54.86000 41.24300 42.31200
C  55.45200 43.09400 43.54900
N  51.80000 47.16100 43.02600
C  53.06600 46.68800 43.12500
C  54.08600 47.80200 43.38200
C  53.19000 49.03000 43.49500
C  51.74200 48.51500 43.31400
C  55.19500 47.59200 44.51300
C  53.58300 50.22500 42.51400
C  53.75400 51.61100 43.22700
N  48.95000 47.66600 42.71200
C  49.24700 48.97200 43.05200
C  48.07200 49.80200 42.99000
C  47.11300 48.93500 42.39300
C  47.69500 47.69900 42.19300
C  47.91300 51.32900 43.23900
C  45.75700 48.88800 41.87700
O  44.84000 49.73300 41.91800
C  45.54100 47.38100 41.28100
C  44.43200 46.78600 42.04700
O  44.47100 46.33600 43.21900
O  43.31500 46.75600 41.32200
C  42.09600 46.17300 41.94700
H  49.61900 41.87800 40.52200
H  54.50100 45.29800 42.86500
H  50.96500 50.37700 43.43300
H  45.46700 44.26800 40.40700
H  47.68900 43.18300 38.99400
H  46.73500 41.85300 41.48900
H  47.10800 41.05100 40.02000
H  45.61600 41.99600 40.02300
H  46.69600 44.68500 37.88100
H  46.57600 46.20900 38.74500
H  44.60700 46.40700 38.23100
H  44.07700 45.04800 39.18300
H  51.19300 40.67700 40.50200
H  52.07200 40.08900 41.93600
H  52.98300 40.74200 40.60900
H  54.92000 43.77600 44.21200
H  56.18200 43.66700 42.97800
H  55.97600 42.31700 44.10500
H  54.63500 47.92000 42.44800
H  53.30200 49.34900 44.53100
H  55.20500 46.57100 44.89400
H  55.02500 48.15200 45.43300
H  56.21600 47.70600 44.14700
H  52.72500 50.33700 41.85100
H  54.54800 50.13300 42.01400
H  53.54400 51.42900 44.28100
H  52.99300 52.30700 42.87500
H  54.75400 52.03200 43.12700
H  48.37300 51.80100 42.37100
H  48.61400 51.53000 44.05000
H  46.89200 51.70300 43.31600
H  45.22300 47.55600 40.25300
H  41.82600 46.79200 42.80200
H  42.28400 45.14600 42.26000
H  41.37300 46.21800 41.13200
Mg 42.83900 42.04300 25.82100
C  41.87100 44.15600 28.60800
C  44.75800 40.22700 28.17100
C  44.05800 40.35800 23.32800
C  41.50000 44.39100 23.65300
N  43.17900 42.19500 28.05700
C  42.60300 42.98200 29.00400
C  42.69400 42.39700 30.39900
C  43.60200 41.19500 30.17200
C  43.88200 41.19300 28.71300
C  44.89700 41.20000 31.09200
C  41.36500 42.16100 31.16500
C  41.30700 41.10700 32.31500
H  40.61700 41.54000 33.66200
N  44.06700 40.40500 25.79200
C  44.84300 39.84400 26.82300
C  45.58800 38.71800 26.28800
C  45.30500 38.69800 24.89300
C  44.38800 39.83600 24.59400
C  46.58400 37.90500 27.15400
C  45.79400 37.77300 23.85600
O  45.35400 37.80900 22.72300
C  46.73700 36.70900 24.19800
N  42.63000 42.19700 23.80700
C  43.36700 41.47700 22.97400
C  43.24400 41.98500 21.53800
C  42.12600 43.05500 21.64100
C  42.12500 43.25600 23.13000
C  44.58700 42.55400 20.98400
C  40.75500 42.67700 20.99900
C  39.78800 41.80400 21.90600
N  41.92700 43.91200 25.99600
C  41.37000 44.74400 24.98000
C  40.67100 45.88300 25.54700
C  40.85300 45.67200 26.95200
C  41.57700 44.44400 27.13800
C  40.09300 47.03200 24.80100
C  40.51400 46.24300 28.25800
O  39.88400 47.26600 28.49200
C  41.04200 45.23300 29.38500
C  41.76500 45.90500 30.42500
O  42.87700 46.40000 30.31300
O  41.13500 45.79300 31.59200
C  41.76900 46.27800 32.87200
H  45.31400 39.64400 28.90800
H  44.51200 39.89700 22.44800
H  40.91500 45.12900 23.09900
H  43.27100 43.17600 30.89800
H  43.19600 40.22500 30.45700
H  45.04400 42.19300 31.51700
H  45.83300 41.08800 30.54500
H  45.02300 40.51400 31.93000
H  40.63200 41.90200 30.40000
H  41.18600 43.13500 31.62000
H  42.32000 40.71600 32.40500
H  40.78800 40.20900 31.98000
H  46.40200 36.83100 27.13200
H  46.71900 38.35600 28.13700
H  47.59200 37.92600 26.74100
H  47.51900 37.10700 24.84400
H  47.14200 36.43300 23.22500
H  46.32300 35.85300 24.73000
H  42.96700 41.09600 20.97100
H  42.48900 44.03100 21.31700
H  45.42900 42.19300 21.57500
H  44.54400 43.63900 20.88100
H  44.86200 42.18600 19.99600
H  40.91900 42.16100 20.05300
H  40.32100 43.67600 20.96000
H  40.06100 41.65500 22.95000
H  39.71400 40.79700 21.49600
H  38.79900 42.25100 21.79900
H  40.89000 47.62300 24.35000
H  39.54700 47.60300 25.55200
H  39.44500 46.78600 23.95900
H  40.14900 44.86400 29.88800
H  42.82900 46.53200 32.84600
H  41.67400 45.40800 33.52300
H  41.22500 47.13000 33.27900

