158

Mg 0.85400 7.89100 25.66400
C  1.49200 10.03500 28.37800
C  1.08200 5.16000 27.80600
C  0.84000 5.86900 23.00100
C  1.24900 10.67800 23.55100
N  1.26500 7.62200 27.79400
C  1.35300 8.71200 28.77100
C  1.54200 8.11600 30.22500
C  1.55900 6.51700 29.93300
C  1.27900 6.40400 28.40800
C  2.90900 5.77400 30.37400
C  0.33700 8.53700 31.11900
C  0.48300 8.50900 32.60900
H  1.73200 7.89500 33.20000
N  0.69500 5.85100 25.46900
C  0.84200 4.90000 26.46600
C  0.87300 3.59300 25.86400
C  0.85600 3.74500 24.45700
C  0.79000 5.17600 24.24400
C  0.97300 2.34800 26.73800
C  0.80300 2.73700 23.33800
O  0.60400 3.05200 22.19100
C  0.91100 1.34400 23.63800
N  1.11700 8.24700 23.63400
C  0.90100 7.24200 22.72300
C  0.94000 7.73500 21.24600
C  1.05100 9.31800 21.44000
C  1.09200 9.44200 22.97900
C  2.01800 7.11200 20.32700
C  -0.04800 10.14200 20.75400
C  -1.40000 10.19800 21.44800
N  1.20500 9.98400 25.86800
C  1.39900 10.95300 24.91100
C  1.73800 12.22700 25.53700
C  1.76200 11.92300 26.93700
C  1.48600 10.53400 27.06500
C  2.10600 13.57000 24.99000
C  1.91900 12.49500 28.23200
O  2.09200 13.68200 28.53600
C  1.74600 11.22700 29.23100
C  2.89700 11.13700 30.26100
O  4.08300 11.20900 29.97800
O  2.34900 11.10700 31.48900
C  3.25000 11.30500 32.58700
H  1.26000 4.38100 28.55000
H  0.94600 5.18000 22.16000
H  1.29800 11.52000 22.85800
H  2.44400 8.56400 30.64000
H  0.67200 6.03200 30.34200
H  3.52300 6.36900 31.05000
H  3.49300 5.43500 29.51800
H  2.66800 4.84000 30.88100
H  -0.47500 7.83900 30.91600
H  -0.09400 9.52200 30.94300
H  -0.45200 8.15700 33.04600
H  0.52500 9.55200 32.92100
H  1.59400 1.57600 26.28400
H  -0.06000 1.99900 26.76900
H  1.30000 2.55200 27.75800
H  0.60500 0.82500 22.73000
H  0.20000 1.05300 24.41100
H  1.97200 1.13900 23.77700
H  -0.02800 7.56000 20.77500
H  2.01600 9.69600 21.10400
H  2.79400 6.85700 21.05000
H  2.50400 7.79300 19.62900
H  1.57100 6.24800 19.83500
H  -0.10500 9.62700 19.79500
H  0.20200 11.17300 20.50500
H  -2.30300 9.96100 20.88400
H  -1.49600 11.19100 21.88800
H  -1.50000 9.42700 22.21100
H  2.88100 13.48200 24.22800
H  2.49100 14.20800 25.78600
H  1.26000 14.02700 24.47800
H  0.86700 11.45500 29.83400
H  2.62500 11.19500 33.47400
H  3.74500 12.27100 32.49000
H  4.03600 10.56800 32.75000
Mg 6.76900 53.81200 41.06300
C  6.15500 50.33500 41.19200
C  10.00400 53.09800 40.37700
C  7.14000 57.09100 40.29100
C  3.32400 54.32000 41.38100
N  7.87900 51.89600 40.69500
C  7.46600 50.60900 40.87600
C  8.64500 49.71100 40.70300
C  9.87900 50.59600 40.63100
C  9.24200 52.00200 40.59500
C  10.77600 50.43900 41.85600
C  8.69300 48.65100 39.58900
C  8.70400 49.11300 38.12200
H  7.53300 48.69000 37.17600
N  8.37000 54.91900 40.39000
C  9.62100 54.47200 40.14500
C  10.43800 55.52800 39.60200
C  9.68300 56.77400 39.61700
C  8.33300 56.33700 40.16500
C  11.79000 55.21800 39.09600
C  10.17400 58.11600 39.17700
O  11.24000 58.30600 38.60500
C  9.36000 59.44700 39.38800
N  5.32400 55.47100 40.51400
C  5.79900 56.74800 40.51700
C  4.61800 57.70600 40.66100
C  3.35900 56.80300 40.59600
C  4.04900 55.46100 40.83700
C  4.74600 58.42900 42.06900
C  2.56600 56.92500 39.27500
C  1.11300 57.38600 39.39000
N  5.07200 52.67900 41.53700
C  3.75500 52.99600 41.66000
C  2.96500 51.73900 41.89800
C  3.96400 50.70800 41.81200
C  5.18500 51.30100 41.48400
C  1.56600 51.68100 42.03400
C  4.04900 49.29100 41.84900
O  3.20600 48.49300 42.17700
C  5.44900 48.95000 41.32000
C  5.30200 48.14900 40.15200
O  4.79100 48.59500 39.11000
O  5.64300 46.82700 40.55000
C  5.64100 45.89300 39.42300
H  11.07100 52.92200 40.22300
H  7.15600 58.18300 40.28900
H  2.24000 54.44700 41.40600
H  8.60500 49.17600 41.65200
H  10.48900 50.49500 39.73300
H  10.53200 51.20500 42.59300
H  11.80200 50.71700 41.61600
H  10.80200 49.41900 42.23900
H  7.93700 47.88800 39.77600
H  9.62600 48.10000 39.70300
H  9.66400 48.96600 37.62700
H  8.52200 50.18500 38.20200
H  11.71300 54.84200 38.07600
H  12.20000 54.43200 39.73100
H  12.44100 56.08100 39.23100
H  8.52800 59.53800 38.69000
H  9.99500 60.32900 39.30600
H  9.02500 59.54500 40.42100
H  4.68200 58.44400 39.86200
H  2.73300 57.06800 41.44800
H  5.78600 58.42400 42.39300
H  4.12300 58.13900 42.91500
H  4.50700 59.48900 41.98000
H  2.64400 56.04700 38.63300
H  3.03200 57.72900 38.70400
H  0.49200 56.95000 38.60800
H  1.10200 58.47500 39.42000
H  0.72200 57.01800 40.33900
H  1.42500 51.29600 43.04400
H  1.13900 50.92900 41.37000
H  1.00900 52.61700 42.04900
H  5.98500 48.37600 42.07700
H  6.61900 45.64300 39.01100
H  4.98300 46.20600 38.61300
H  5.31000 44.91500 39.77200

