158

Mg 48.39600 25.58200 29.49700
C  49.89100 27.27600 32.20500
C  47.39600 23.14900 31.76200
C  47.52500 23.60800 26.94500
C  49.73500 27.81500 27.29800
N  48.63800 25.27300 31.68300
C  49.15800 26.17000 32.59700
C  48.85000 25.80800 33.99000
C  48.32600 24.30900 33.87100
C  48.04000 24.31100 32.35400
C  49.29300 23.12900 34.30500
C  47.86700 26.82000 34.68700
C  48.47300 27.60100 35.89600
H  47.46100 28.07400 36.98600
N  47.49900 23.74300 29.40200
C  47.05800 22.90800 30.39900
C  46.41400 21.81200 29.87400
C  46.35900 21.98500 28.46000
C  47.14400 23.21000 28.22300
C  45.90000 20.70300 30.72800
C  45.68900 21.10000 27.39500
O  45.73300 21.45600 26.24000
C  44.99700 19.76300 27.73500
N  48.41100 25.79700 27.39500
C  48.17700 24.78100 26.59800
C  48.54600 25.05400 25.08800
C  49.01700 26.51000 25.18600
C  48.99900 26.79600 26.70000
C  49.60200 24.09100 24.44600
C  48.22500 27.54600 24.30100
C  46.74300 27.56500 24.67000
N  49.51000 27.34400 29.65400
C  49.94400 28.11000 28.68300
C  50.70800 29.25000 29.26600
C  50.71500 28.95600 30.66100
C  49.97600 27.79000 30.82800
C  51.38000 30.36600 28.47900
C  51.19100 29.37900 31.97800
O  51.79300 30.38100 32.24300
C  50.60200 28.33100 33.02600
C  51.72900 27.85000 33.97200
O  52.73200 27.24200 33.55300
O  51.55300 28.40100 35.21200
C  52.62900 28.03200 36.19700
H  46.97900 22.37200 32.40600
H  47.51800 22.85400 26.15500
H  50.15100 28.55400 26.61000
H  49.73400 25.75400 34.62600
H  47.43700 24.07100 34.45500
H  49.81900 22.54600 33.54900
H  48.64600 22.36200 34.73000
H  50.02200 23.46400 35.04300
H  47.07400 26.16500 35.04800
H  47.35800 27.50300 34.00600
H  48.80700 28.55300 35.48100
H  49.31700 27.09800 36.36800
H  45.48900 21.01900 31.68700
H  46.61800 19.90300 30.90900
H  45.04600 20.27400 30.20200
H  45.70700 19.04800 28.15100
H  44.67100 19.36500 26.77400
H  44.13300 19.92300 28.37900
H  47.63700 25.02200 24.48800
H  50.03500 26.60100 24.80700
H  50.12200 24.65800 23.67400
H  49.07800 23.27000 23.95600
H  50.29100 23.65600 25.17000
H  48.32700 27.28700 23.24700
H  48.57100 28.56100 24.49400
H  46.52000 28.61000 24.45600
H  46.61800 27.48600 25.75000
H  46.10000 26.98600 24.00700
H  50.69900 31.11600 28.07700
H  52.11200 30.05600 27.73300
H  51.94000 30.76800 29.32300
H  49.90400 28.96700 33.57100
H  53.17900 28.95700 36.37100
H  53.38900 27.29300 35.94200
H  52.25500 27.89500 37.21200
Mg -6.52900 24.48200 25.88700
C  -4.91800 26.02300 28.53700
C  -8.59900 22.77400 28.16500
C  -7.82800 22.52100 23.45400
C  -4.40000 26.00500 23.72900
N  -6.71300 24.33300 28.02300
C  -5.97100 25.13000 28.91000
C  -6.38400 24.85800 30.38400
C  -7.24300 23.57800 30.22200
C  -7.59500 23.57100 28.72900
C  -6.52200 22.28000 30.70600
C  -7.21500 26.12900 30.80900
C  -7.03600 26.47400 32.33100
H  -6.39600 25.41200 33.21000
N  -8.13900 23.03900 25.84400
C  -8.89100 22.54400 26.86300
C  -9.84500 21.60400 26.32100
C  -9.58300 21.45900 24.93300
C  -8.49200 22.39600 24.66100
C  -10.87900 20.97100 27.20800
C  -10.31000 20.63700 23.94100
O  -10.02600 20.57100 22.79600
C  -11.53400 19.81700 24.39800
N  -5.94300 24.07900 23.99200
C  -6.72800 23.29700 23.11200
C  -6.43800 23.55200 21.64500
C  -5.36500 24.70400 21.68500
C  -5.21100 24.95400 23.23900
C  -5.88900 22.20400 21.05700
C  -5.79300 25.95100 20.89800
C  -4.91400 26.64800 19.94200
N  -4.96800 25.73800 26.02300
C  -4.20400 26.34500 25.04600
C  -3.24700 27.21300 25.68300
C  -3.38100 26.99000 27.05900
C  -4.52200 26.18300 27.20200
C  -2.29400 28.19400 25.02300
C  -2.89700 27.33900 28.41200
O  -1.97800 28.04200 28.75400
C  -3.89700 26.70800 29.43600
C  -3.02400 25.70400 30.08100
O  -2.81100 24.56500 29.67600
O  -2.42000 26.31700 31.13300
C  -1.41500 25.48100 31.78700
H  -9.22000 22.40100 28.98200
H  -8.31900 22.10000 22.57500
H  -3.71500 26.50800 23.04300
H  -5.48000 24.74800 30.98200
H  -8.17400 23.66900 30.78200
H  -6.86100 22.01800 31.70900
H  -5.44500 22.41900 30.61100
H  -6.81700 21.49900 30.00500
H  -8.25600 25.92300 30.55900
H  -6.95200 27.00800 30.22000
H  -8.02000 26.65100 32.76600
H  -6.31700 27.28900 32.41800
H  -11.80500 21.54700 27.21400
H  -10.53500 20.93500 28.24200
H  -10.99900 19.91900 26.94700
H  -11.22400 18.92500 24.94200
H  -12.14800 19.37700 23.61200
H  -12.22100 20.40300 25.00800
H  -7.35300 23.86800 21.14400
H  -4.32800 24.43300 21.49100
H  -5.02000 22.53300 20.48700
H  -6.59100 21.96100 20.26000
H  -5.65300 21.38300 21.73400
H  -6.09500 26.73400 21.59400
H  -6.70800 25.67500 20.37300
H  -3.92800 26.19300 20.03600
H  -4.95900 27.73200 20.04800
H  -5.42700 26.48700 18.99400
H  -2.11100 27.97000 23.97200
H  -1.28100 28.08000 25.41000
H  -2.64100 29.22700 24.99900
H  -4.33900 27.46500 30.08400
H  -1.63400 25.25000 32.83000
H  -0.62100 26.22300 31.86500
H  -1.18900 24.48700 31.40200

