158

Mg 23.90300 -7.50600 46.89700
C  26.66100 -5.66200 45.77600
C  22.00100 -6.06400 44.40300
C  21.55300 -9.76700 47.55900
C  26.28300 -9.45400 48.75400
N  24.40500 -6.16900 45.07100
C  25.55800 -5.47600 44.97400
C  25.41800 -4.43900 43.89400
C  23.91900 -4.62700 43.33100
C  23.37200 -5.62700 44.35400
C  23.19800 -3.24400 43.28600
C  26.46900 -4.73300 42.74300
C  27.07100 -3.51600 42.04500
H  26.85500 -3.32000 40.62200
N  21.99100 -7.87200 46.05000
C  21.35100 -7.10500 45.12900
C  19.93000 -7.54300 45.12900
C  19.78800 -8.57500 46.09800
C  21.11400 -8.79600 46.60200
C  18.91000 -6.94200 44.35100
C  18.50100 -9.30200 46.42700
O  17.44800 -9.04100 45.84600
C  18.56600 -10.61600 47.21600
N  23.93000 -9.32600 47.97200
C  22.75700 -10.12300 48.14000
C  23.10400 -11.43600 48.89800
C  24.49600 -11.10800 49.38800
C  24.94900 -9.84500 48.70500
C  22.11800 -11.87600 50.02100
C  25.38400 -12.37700 49.50200
C  25.84000 -13.02200 48.17400
N  26.01900 -7.45300 47.41500
C  26.84600 -8.39200 48.11000
C  28.20500 -7.96000 48.15400
C  28.18200 -6.81800 47.26400
C  26.83800 -6.66900 46.81100
C  29.27200 -8.43200 48.99600
C  28.93700 -5.71200 46.81200
O  30.13300 -5.38100 46.97900
C  28.00300 -4.95900 45.64000
C  27.95000 -3.56400 45.91800
O  27.20900 -2.91200 46.67100
O  28.82600 -2.95400 45.09400
C  28.90900 -1.50200 45.21300
H  21.41500 -5.49400 43.67900
H  20.88000 -10.56800 47.87100
H  26.99900 -10.14900 49.19700
H  25.56500 -3.50200 44.43000
H  23.91500 -5.07400 42.33700
H  22.76800 -3.13300 42.29100
H  24.01700 -2.53700 43.42200
H  22.43600 -3.18100 44.06200
H  26.04200 -5.37700 41.97400
H  27.17500 -5.42100 43.20800
H  28.16000 -3.55100 42.06800
H  26.82600 -2.62400 42.62300
H  18.52500 -7.69000 43.65800
H  19.23800 -6.01400 43.88300
H  18.10500 -6.55700 44.97800
H  18.82200 -10.38800 48.25000
H  19.26200 -11.29100 46.71900
H  17.62800 -11.15500 47.07800
H  22.99800 -12.22100 48.15000
H  24.30200 -10.88100 50.43600
H  21.49200 -11.02200 50.28000
H  22.68300 -12.11200 50.92300
H  21.62300 -12.77200 49.64800
H  25.01500 -13.13600 50.19100
H  26.31200 -12.05700 49.97700
H  26.91800 -12.92500 48.30700
H  25.42400 -12.58400 47.26700
H  25.47900 -14.05000 48.17900
H  29.03200 -8.60300 50.04500
H  30.00800 -7.62900 48.96400
H  29.65300 -9.41400 48.71700
H  28.51100 -5.18400 44.70100
H  28.85600 -1.11600 46.23100
H  28.15300 -1.03900 44.57900
H  29.84000 -1.15800 44.76300
Mg 53.52500 23.09400 44.89500
C  50.95600 25.21500 43.92900
C  51.36400 20.35900 43.98000
C  56.11800 20.87100 44.85000
C  55.55400 25.69100 45.29600
N  51.43000 22.80000 43.84300
C  50.56100 23.86600 43.66700
C  49.16600 23.38400 43.09400
C  49.25900 21.89700 43.59800
C  50.78000 21.63900 43.86900
C  48.56300 21.63000 44.99000
C  49.03400 23.64500 41.63800
C  48.81400 22.46200 40.68600
H  48.45600 22.82500 39.18600
N  53.74000 20.95600 44.45700
C  52.68300 20.03200 44.18200
C  53.28000 18.72400 44.13200
C  54.67600 18.83500 44.25800
C  54.94200 20.28100 44.47900
C  52.44500 17.49600 43.83000
C  55.72700 17.70100 44.04100
O  55.32900 16.60100 43.72400
C  57.23600 17.79700 44.19100
N  55.57900 23.28700 44.80800
C  56.39000 22.19700 45.09500
C  57.71500 22.69300 45.68100
C  57.63100 24.23400 45.68700
C  56.17800 24.44100 45.23000
C  58.09000 22.09500 47.06600
C  58.51300 24.95800 44.67900
C  59.46800 26.10400 45.05900
N  53.34600 25.06800 44.77400
C  54.23300 26.11000 45.04300
C  53.59200 27.43700 45.01800
C  52.26900 27.08200 44.60600
C  52.12800 25.64100 44.46400
C  54.20000 28.85500 45.25900
C  50.99600 27.65900 44.32300
O  50.60600 28.81100 44.50100
C  50.16000 26.54200 43.71500
C  49.93600 26.72800 42.25000
O  50.79200 26.62700 41.40600
O  48.63200 26.99600 41.99100
C  48.26200 27.30500 40.56500
H  50.65800 19.55800 43.75200
H  57.04200 20.32300 45.04400
H  56.16200 26.53100 45.63800
H  48.42700 24.02000 43.58200
H  48.76700 21.17900 42.94200
H  47.50200 21.40100 44.89400
H  48.64400 22.52700 45.60400
H  49.11300 20.79500 45.42400
H  49.90800 24.20900 41.31200
H  48.23500 24.38500 41.59300
H  47.90600 21.93800 40.98500
H  49.67600 21.79600 40.71000
H  51.42700 17.70800 44.15800
H  52.81600 16.60400 44.33500
H  52.34900 17.26100 42.77000
H  57.64100 18.53700 43.50100
H  57.54800 16.82000 43.82300
H  57.51300 17.88100 45.24200
H  58.38000 22.37600 44.87800
H  57.75900 24.67600 46.67500
H  58.01000 22.82600 47.87100
H  59.10900 21.72700 47.18300
H  57.42900 21.25900 47.29400
H  57.93800 25.39500 43.86200
H  59.17900 24.19700 44.27300
H  60.48100 25.85800 44.74000
H  59.44800 26.34300 46.12300
H  59.14100 26.98800 44.51100
H  53.84700 29.53700 44.48500
H  55.28700 28.77000 45.26300
H  53.87800 29.10100 46.27100
H  49.14800 26.51000 44.11800
H  47.20900 27.03100 40.63700
H  48.89200 26.75700 39.86400
H  48.42300 28.36300 40.35700

