158

Mg 17.44300 52.22400 25.80800
C  19.08400 50.70000 28.54500
C  15.09700 53.24500 27.91400
C  15.98600 53.47600 23.10300
C  20.00500 50.75200 23.76900
N  17.18900 52.08800 28.00000
C  18.08000 51.59600 28.87100
C  17.62600 51.84800 30.29300
C  16.19300 52.48800 30.13000
C  16.11400 52.61500 28.56700
C  14.98600 51.73400 30.71500
C  18.61300 52.61600 31.20300
C  18.65300 52.32100 32.69400
H  17.50800 51.66600 33.47700
N  15.78200 53.31600 25.56900
C  14.91100 53.62000 26.58600
C  13.76500 54.33700 25.99600
C  14.03900 54.41300 24.59900
C  15.32300 53.71700 24.34500
C  12.59600 54.91200 26.86000
C  13.18100 55.08400 23.53800
O  13.56400 55.23800 22.36500
C  11.86400 55.56000 23.85600
N  17.93700 52.10900 23.68000
C  17.11300 52.72700 22.78100
C  17.66900 52.57900 21.31300
C  19.05500 51.91300 21.70300
C  19.03200 51.62800 23.18300
C  16.69400 51.72400 20.46300
C  20.32600 52.67400 21.33800
C  21.29600 51.96100 20.48300
N  19.05100 50.75700 26.04100
C  20.02900 50.31300 25.11900
C  21.06200 49.52200 25.81100
C  20.66700 49.61100 27.14800
C  19.48100 50.35100 27.28200
C  22.33000 48.85300 25.12500
C  21.16600 49.20500 28.49000
O  22.02400 48.49500 28.88200
C  20.17300 49.93200 29.40600
C  19.52300 48.88000 30.27700
O  19.06600 47.82600 29.87900
O  19.45100 49.26100 31.61200
C  18.89000 48.27300 32.53800
H  14.39100 53.62900 28.65300
H  15.54800 54.04100 22.27700
H  20.85300 50.34400 23.21400
H  17.38000 50.85500 30.66900
H  16.15400 53.45600 30.63000
H  15.14000 50.78200 31.22300
H  14.41800 51.49500 29.81600
H  14.48500 52.42200 31.39600
H  18.36000 53.67100 31.09200
H  19.57500 52.34100 30.77000
H  18.91600 53.23700 33.22400
H  19.52900 51.71300 32.92000
H  12.63000 55.99100 26.71200
H  12.94800 54.90400 27.89200
H  11.61400 54.45500 26.73600
H  11.86600 56.47800 24.44300
H  11.46400 54.64600 24.29500
H  11.33300 55.64100 22.90700
H  17.82500 53.58100 20.91400
H  19.01500 50.90900 21.28000
H  15.86700 51.49600 21.13500
H  17.11500 50.75400 20.20200
H  16.35700 52.31900 19.61400
H  20.81600 52.94100 22.27500
H  19.98400 53.64500 20.98200
H  21.35400 52.35600 19.46800
H  21.14900 50.88300 20.42100
H  22.27300 52.09300 20.94800
H  22.48200 49.37500 24.18100
H  21.91500 47.84600 25.06600
H  23.12900 48.74500 25.85800
H  20.72100 50.57400 30.09600
H  17.80100 48.22200 32.51300
H  19.23600 48.47600 33.55100
H  19.21300 47.26800 32.26700
Mg -5.56500 26.06800 26.57800
C  -4.41600 27.66900 29.48300
C  -7.40900 24.09100 28.46300
C  -6.52500 24.51100 23.67700
C  -3.27600 27.87100 24.69200
N  -5.71000 25.89100 28.63900
C  -5.11700 26.58400 29.71400
C  -5.74700 26.25000 31.03200
C  -6.34100 24.81200 30.66800
C  -6.53300 24.89600 29.20800
C  -5.58600 23.55700 31.16000
C  -6.83200 27.20600 31.67500
C  -6.88500 27.27200 33.24500
H  -6.08300 26.20400 34.01900
N  -6.78800 24.51400 26.13600
C  -7.59100 23.91400 27.10000
C  -8.36000 22.86600 26.47700
C  -8.11200 22.91000 25.08500
C  -7.10600 24.00700 24.88000
C  -9.22200 21.94800 27.24600
C  -8.64900 21.97100 23.89200
O  -8.36900 22.15500 22.72000
C  -9.60200 20.85500 24.22100
N  -5.06900 26.28100 24.47000
C  -5.56300 25.47600 23.49000
C  -4.99600 25.77300 22.15200
C  -3.89800 26.81000 22.42200
C  -4.12000 27.04200 23.94300
C  -4.25800 24.52300 21.53200
C  -4.26800 28.08600 21.68000
C  -3.84500 28.25500 20.19900
N  -4.16900 27.52500 26.91400
C  -3.36200 28.18600 26.06600
C  -2.59000 29.16100 26.84100
C  -3.01900 29.00900 28.20600
C  -4.03200 28.02500 28.20300
C  -1.49400 29.97600 26.22400
C  -2.78400 29.56800 29.48100
O  -2.08400 30.46400 29.93300
C  -3.82300 28.77600 30.36400
C  -3.01400 28.30300 31.52800
O  -2.04300 27.56100 31.44000
O  -3.29900 29.04000 32.63600
C  -2.30200 28.83000 33.76600
H  -7.80600 23.39100 29.20000
H  -6.81000 23.98400 22.76400
H  -2.40700 28.29200 24.18200
H  -4.87900 26.18300 31.68800
H  -7.37300 24.76400 31.01500
H  -6.11300 23.13900 32.01800
H  -4.61400 23.89700 31.52000
H  -5.49300 22.87800 30.31300
H  -7.82900 27.07700 31.25500
H  -6.47100 28.17700 31.33500
H  -7.92100 27.37400 33.56800
H  -6.29200 28.17400 33.40100
H  -10.26700 21.92300 26.93700
H  -9.18900 22.25700 28.29100
H  -8.86400 20.92900 27.10700
H  -9.27300 20.23400 25.05400
H  -9.72900 20.20500 23.35500
H  -10.54400 21.15300 24.68100
H  -5.81700 26.16800 21.55400
H  -2.88400 26.44500 22.25800
H  -4.37500 23.64300 22.16500
H  -3.18500 24.55000 21.34500
H  -4.87100 24.32400 20.65300
H  -3.86300 28.91300 22.26400
H  -5.34000 28.26900 21.76300
H  -3.55300 27.29400 19.77500
H  -2.97800 28.91300 20.14300
H  -4.64700 28.81300 19.71600
H  -1.90100 30.66100 25.48000
H  -0.80500 29.31200 25.70300
H  -0.99000 30.56600 26.98900
H  -4.54200 29.50600 30.73700
H  -1.29400 28.97400 33.37600
H  -2.43600 27.86900 34.26300
H  -2.49300 29.58100 34.53200

