158

Mg 28.30300 56.76700 40.79500
C  26.20100 54.04100 39.79300
C  31.05100 54.79200 39.66000
C  30.28300 59.46000 41.01200
C  25.47400 58.69800 40.88500
N  28.50000 54.75600 39.49200
C  27.54900 53.80800 39.34000
C  28.11500 52.40200 38.96600
C  29.68500 52.63100 39.15200
C  29.80600 54.21300 39.33300
C  30.31900 51.82900 40.23800
C  27.52100 51.92700 37.59100
C  28.08300 52.60500 36.38000
H  27.08300 53.16300 35.38200
N  30.39400 57.07500 40.51800
C  31.34600 56.11800 40.11600
C  32.64800 56.61200 40.20800
C  32.53700 57.98700 40.68700
C  31.02400 58.24600 40.75700
C  33.90100 55.77700 39.95300
C  33.64700 58.93800 40.98000
O  34.80200 58.47500 40.82200
C  33.41600 60.38300 41.32600
N  27.92500 58.81200 40.82400
C  28.90800 59.72400 41.06200
C  28.37800 61.12600 41.33500
C  26.81800 60.85300 41.31400
C  26.70800 59.35600 41.01000
C  28.84700 61.84400 42.64700
C  26.10900 61.73700 40.15000
C  25.21700 62.86000 40.65500
N  26.15700 56.45700 40.55200
C  25.16100 57.33700 40.75500
C  23.84700 56.64400 40.70300
C  24.21200 55.31700 40.40900
C  25.61800 55.28900 40.21600
C  22.44900 57.14500 40.76400
C  23.71500 53.94400 40.23000
O  22.61700 53.41500 40.42700
C  25.00000 53.13000 39.75200
C  25.18100 51.93100 40.62400
O  25.14400 50.78700 40.19500
O  25.31000 52.23200 41.94500
C  25.32600 51.14700 42.93700
H  31.88900 54.09300 39.71100
H  30.81400 60.38700 41.23700
H  24.52400 59.23100 40.96400
H  27.77600 51.63100 39.65800
H  30.22800 52.38300 38.24000
H  29.55400 51.08300 40.45400
H  30.57800 52.34600 41.16200
H  31.20800 51.30200 39.89000
H  26.45500 52.15300 37.61400
H  27.63300 50.84600 37.51000
H  28.72700 51.88300 35.88000
H  28.74800 53.39700 36.72300
H  34.63600 56.35100 39.39000
H  33.74700 54.86300 39.37900
H  34.28900 55.55700 40.94800
H  33.04100 60.42000 42.34900
H  32.71100 60.80300 40.60900
H  34.32900 60.96700 41.21400
H  28.68900 61.83100 40.56400
H  26.40800 61.01300 42.31200
H  28.03200 62.29800 43.21100
H  29.66500 62.55100 42.51200
H  29.23600 61.13100 43.37400
H  25.42900 61.05100 39.64500
H  26.76200 61.96900 39.31000
H  25.59900 63.18600 41.62300
H  24.18600 62.51900 40.75000
H  25.42000 63.64500 39.92700
H  22.41100 57.94900 41.50000
H  21.69700 56.39900 41.02200
H  22.06600 57.63600 39.86900
H  24.82200 52.83700 38.71800
H  24.34300 50.99600 43.38400
H  25.98700 51.56900 43.69500
H  25.67500 50.24200 42.43900
Mg -3.16700 34.75500 26.72000
C  -5.20700 33.03700 29.03200
C  -2.42200 36.94300 29.39600
C  -1.49100 36.52800 24.62600
C  -4.24500 32.52800 24.31400
N  -3.72800 34.83800 28.95700
C  -4.47800 34.01000 29.68900
C  -4.29200 34.31000 31.19800
C  -3.73200 35.79700 31.15900
C  -3.32000 35.92500 29.70700
C  -4.80500 36.82800 31.58000
C  -3.47300 33.30900 31.93700
C  -3.47400 33.59900 33.44100
H  -2.18900 33.78400 34.11300
N  -2.07500 36.39900 26.93700
C  -1.85200 37.15300 28.11800
C  -0.85000 38.12300 27.81900
C  -0.47300 38.06600 26.49300
C  -1.43000 36.99100 25.96900
C  -0.24700 39.08100 28.85600
C  0.50300 38.86400 25.58800
O  0.77100 38.63400 24.37000
C  1.30300 39.94800 26.17000
N  -2.94100 34.64500 24.66800
C  -2.11500 35.42100 24.00700
C  -1.80000 34.88900 22.52000
C  -2.70900 33.61400 22.50100
C  -3.40900 33.62000 23.89800
C  -1.95300 35.88200 21.28400
C  -1.96700 32.24600 22.21900
C  -2.64600 31.33400 21.14900
N  -4.53800 33.24200 26.58700
C  -4.86000 32.42900 25.55700
C  -5.77500 31.34100 25.98100
C  -5.86900 31.57600 27.33100
C  -5.13300 32.73700 27.63800
C  -6.34600 30.27600 25.10400
C  -6.48600 31.00500 28.52900
O  -7.17300 29.99100 28.67100
C  -6.03200 32.00400 29.68200
C  -7.21200 32.41200 30.36700
O  -8.04700 33.25600 30.10900
O  -7.28600 31.69000 31.50800
C  -8.23600 32.06100 32.55700
H  -2.36100 37.68200 30.19800
H  -0.84700 36.95800 23.85500
H  -4.37000 31.74900 23.56000
H  -5.29700 34.31800 31.62100
H  -2.85800 35.93800 31.79500
H  -4.23300 37.48000 32.24100
H  -5.60000 36.37000 32.16700
H  -5.24100 37.56100 30.90100
H  -2.47400 33.27400 31.50300
H  -4.00200 32.37100 31.77000
H  -4.04500 32.87200 34.01800
H  -3.99200 34.53800 33.63400
H  -0.67200 40.08100 28.93300
H  0.84100 39.11900 28.79800
H  -0.42900 38.62200 29.82800
H  0.82200 40.65200 26.84900
H  1.68100 40.51100 25.31700
H  2.14300 39.52200 26.72000
H  -0.74800 34.60200 22.54300
H  -3.58000 33.78900 21.86900
H  -2.30700 35.36000 20.39500
H  -0.95100 36.22100 21.02200
H  -2.56800 36.73300 21.57800
H  -1.85000 31.71600 23.16400
H  -1.02400 32.66200 21.86400
H  -1.84500 31.17700 20.42600
H  -3.61700 31.69100 20.80500
H  -2.83700 30.36700 21.61400
H  -5.65600 29.63200 24.56000
H  -6.97300 30.89400 24.46000
H  -7.00000 29.59600 25.65000
H  -5.39500 31.39600 30.32400
H  -7.80500 32.71500 33.31500
H  -8.72400 31.23600 33.07400
H  -9.03500 32.65900 32.12000

