158

Mg 34.71200 3.56800 29.74500
C  32.33400 4.16500 32.36800
C  37.08500 3.57000 32.28500
C  36.79700 3.17600 27.37300
C  32.10500 3.92900 27.51300
N  34.67200 3.81500 32.09800
C  33.59100 4.02600 32.86800
C  33.99200 3.90100 34.37400
C  35.56500 4.22900 34.33000
C  35.84600 3.88400 32.76200
C  36.01200 5.72500 34.64200
C  33.60600 2.55300 35.07700
C  33.06500 2.76800 36.48600
H  33.69800 3.90900 37.36000
N  36.72600 3.43400 29.84300
C  37.50200 3.35600 30.94400
C  38.90100 3.08300 30.50300
C  38.84900 3.02600 29.04900
C  37.47000 3.24600 28.65100
C  40.07700 2.78100 31.43900
C  39.91900 2.68700 28.08300
O  39.70200 2.64300 26.92400
C  41.29800 2.38600 28.70500
N  34.47800 3.65400 27.73300
C  35.50800 3.48400 26.94900
C  35.18400 3.56700 25.40100
C  33.66000 3.61400 25.49500
C  33.35100 3.76200 27.02000
C  35.77000 4.67500 24.58400
C  32.97900 2.28000 24.87100
C  32.63900 1.15100 25.76600
N  32.69400 3.93000 29.92100
C  31.75300 4.02800 28.86700
C  30.43200 4.25100 29.43800
C  30.66400 4.32400 30.85100
C  32.04900 4.15100 31.04900
C  29.16200 4.20500 28.65900
C  29.97800 4.44600 32.07700
O  28.85000 4.78500 32.34500
C  31.11500 4.30200 33.13900
C  31.13700 5.58400 33.93800
O  31.42900 6.73500 33.54800
O  30.67400 5.34100 35.16300
C  30.45700 6.58600 35.98600
H  37.80300 3.55800 33.10800
H  37.50100 3.00800 26.55500
H  31.42900 4.08100 26.66900
H  33.61700 4.68100 35.03800
H  36.04300 3.53200 35.01800
H  36.78600 6.06900 33.95600
H  36.30000 5.83100 35.68800
H  35.16800 6.39200 34.46300
H  34.45100 1.86500 35.06200
H  32.77300 2.19500 34.47200
H  33.25300 1.90000 37.11700
H  32.03000 3.10900 36.51400
H  39.72300 2.84400 32.46800
H  40.91900 3.44800 31.25100
H  40.42200 1.75700 31.29800
H  41.58000 3.27900 29.26400
H  42.05100 2.27000 27.92500
H  41.26600 1.45100 29.26300
H  35.64000 2.69500 24.93200
H  33.32800 4.50900 24.96900
H  35.03400 5.25500 24.02700
H  36.44800 4.22500 23.85900
H  36.30300 5.39700 25.20200
H  33.77500 1.85700 24.25900
H  32.13400 2.64700 24.28900
H  31.58100 1.11900 26.02700
H  33.15200 1.19300 26.72700
H  32.95800 0.16400 25.43100
H  28.62700 5.15400 28.65100
H  28.58400 3.42000 29.14700
H  29.35500 3.83700 27.65200
H  30.90700 3.40700 33.72600
H  29.74800 7.32400 35.61200
H  31.36100 7.11400 36.28700
H  30.14100 5.99000 36.84300
Mg 48.57100 35.84100 27.52400
C  46.67300 34.28100 29.76100
C  49.15800 38.47500 29.69600
C  50.40800 37.39100 25.07300
C  47.93000 33.22400 25.22700
N  48.06300 36.15500 29.52400
C  47.24100 35.40200 30.30900
C  46.84200 36.15600 31.56900
C  47.53300 37.57700 31.36100
C  48.31300 37.41300 30.11700
C  46.58900 38.83300 31.32800
C  47.20900 35.54700 32.92400
C  48.63700 34.93800 33.04100
H  49.57800 35.85900 33.73500
N  49.60600 37.65400 27.38200
C  49.70700 38.60500 28.42500
C  50.55300 39.71900 27.92700
C  51.10300 39.34100 26.63700
C  50.39300 38.06600 26.32200
C  50.93900 40.84900 28.77400
C  52.25900 39.89600 25.78100
O  52.48700 39.42800 24.68700
C  52.95200 41.24600 26.26800
N  49.03400 35.43000 25.46700
C  49.76000 36.20300 24.63900
C  49.66700 35.74900 23.15800
C  49.32000 34.25900 23.38700
C  48.73600 34.27400 24.79900
C  48.69000 36.59500 22.38200
C  50.36500 33.20500 23.14700
C  50.51300 32.60000 21.71800
N  47.53800 34.10400 27.50000
C  47.37400 33.10300 26.54100
C  46.45600 32.12600 26.99300
C  46.10700 32.51400 28.24000
C  46.82100 33.75000 28.47300
C  45.89100 30.97500 26.22400
C  45.32300 32.21800 29.38100
O  44.58700 31.28500 29.61900
C  45.60200 33.35500 30.40000
C  46.00700 32.71500 31.66900
O  47.09400 32.22500 31.95700
O  44.91000 32.67600 32.50700
C  45.06700 32.34100 33.88800
H  49.41100 39.28600 30.38400
H  50.90600 37.98200 24.30100
H  47.61100 32.61400 24.38000
H  45.75600 36.25800 31.58100
H  48.25900 37.88500 32.11400
H  46.68400 39.42100 30.41500
H  46.55800 39.37200 32.27500
H  45.59000 38.40000 31.29200
H  46.40700 34.82800 33.09400
H  46.97300 36.29700 33.67800
H  49.02000 34.69100 32.05100
H  48.54800 33.97100 33.53500
H  51.63300 40.68600 29.59800
H  50.07500 41.30400 29.25900
H  51.31700 41.68700 28.18800
H  53.32900 40.96100 27.25100
H  52.23300 42.06500 26.26300
H  53.85900 41.38700 25.68000
H  50.65200 35.89400 22.71400
H  48.49600 33.96900 22.73500
H  48.01300 35.91500 21.86600
H  49.19800 37.11500 21.57000
H  48.16100 37.28600 23.03800
H  50.22200 32.44300 23.91300
H  51.33800 33.64700 23.36100
H  49.76300 33.03700 21.05800
H  50.15800 31.58700 21.91100
H  51.55800 32.65700 21.41500
H  45.63700 31.26400 25.20400
H  44.99000 30.81000 26.81500
H  46.59100 30.14100 26.25700
H  44.62200 33.79900 30.57900
H  45.43900 33.19300 34.45800
H  45.73700 31.48500 33.97000
H  44.09700 32.14300 34.34300

