158

Mg 29.69600 58.78600 41.47000
C  27.23600 56.82800 39.92300
C  32.13900 56.47900 40.13700
C  32.32200 60.93300 41.90600
C  27.32400 61.16400 42.25100
N  29.61700 56.88700 40.10800
C  28.50800 56.29000 39.68200
C  28.85800 55.06400 38.80300
C  30.24700 54.74300 39.38900
C  30.79200 56.11100 39.92400
C  30.38100 53.61300 40.42300
C  28.78600 55.34700 37.25300
C  28.08200 54.34500 36.39700
H  27.27900 54.88400 35.21100
N  31.89000 58.70800 41.14200
C  32.60500 57.75400 40.56700
C  33.95600 58.05100 40.43500
C  34.12600 59.27500 41.06500
C  32.73900 59.67300 41.55100
C  35.00900 57.14200 39.77200
C  35.39200 60.03800 41.10300
O  36.47500 59.55700 40.74600
C  35.40800 61.37100 41.66500
N  29.78400 60.79300 41.99000
C  30.99900 61.39400 42.25400
C  30.73200 62.83800 42.70800
C  29.13000 62.94200 42.88900
C  28.66700 61.54500 42.39100
C  31.56800 63.20000 43.97800
C  28.35200 64.15300 42.12600
C  27.14600 64.66800 43.07100
N  27.71600 58.93300 41.26900
C  26.88600 59.94600 41.67900
C  25.47500 59.57000 41.43300
C  25.55100 58.36900 40.67500
C  26.94600 58.02100 40.62900
C  24.20200 60.31900 41.69200
C  24.84200 57.38700 39.98700
O  23.60200 57.28900 39.75900
C  25.86900 56.30600 39.48600
C  25.51100 54.95500 40.09000
O  25.19100 54.72700 41.24900
O  25.53800 54.02400 39.06500
C  25.13400 52.67400 39.53000
H  32.78100 55.64100 39.85900
H  33.00100 61.78300 41.81000
H  26.55600 61.85000 42.61500
H  28.26700 54.21400 39.14300
H  30.93700 54.49200 38.58400
H  29.41400 53.48000 40.90900
H  31.07100 54.09200 41.11800
H  30.76600 52.70700 39.95500
H  29.75900 55.44100 36.77100
H  28.33600 56.34000 37.22900
H  27.41400 53.75100 37.02200
H  28.83300 53.64800 36.02500
H  35.86000 57.61600 39.28300
H  34.54800 56.55400 38.97900
H  35.37000 56.34100 40.41700
H  36.46400 61.60800 41.78600
H  34.78600 61.34000 42.56000
H  34.89200 61.91800 40.87600
H  31.02500 63.52800 41.91700
H  28.95400 62.89000 43.96300
H  32.15100 62.31400 44.23100
H  30.96200 63.53800 44.81800
H  32.25400 64.04000 43.86700
H  28.03000 63.77200 41.15700
H  29.07600 64.95000 41.95400
H  26.27600 64.31700 42.51600
H  26.95400 65.73700 43.15100
H  27.10200 64.14700 44.02800
H  23.60300 59.92900 42.51500
H  23.65200 60.12800 40.77000
H  24.40400 61.39000 41.72200
H  25.88100 56.23300 38.39900
H  24.09100 52.64500 39.84600
H  25.69600 52.48200 40.44400
H  25.18100 51.97700 38.69300
Mg 27.26100 51.16800 26.46000
C  24.95800 52.17700 28.91300
C  29.36100 50.27500 29.08500
C  29.30000 50.20000 24.17600
C  25.19200 52.76500 24.13100
N  27.07800 51.04000 28.74000
C  26.07700 51.56500 29.50800
C  26.35300 51.43600 31.01100
C  27.90500 51.03300 31.02800
C  28.17600 50.79300 29.49900
C  28.85600 52.13500 31.71400
C  25.44700 50.31800 31.62000
C  25.20700 50.28900 33.12500
H  26.14300 51.08200 34.05800
N  29.13200 50.41100 26.60900
C  29.78800 50.09200 27.77000
C  31.14400 49.57600 27.35100
C  31.10100 49.39000 25.90600
C  29.84500 50.08200 25.49200
C  32.25700 49.21700 28.32400
C  32.09700 48.75800 25.11100
O  32.06900 48.79800 23.86000
C  33.29100 48.15900 25.70900
N  27.17300 51.44500 24.43400
C  28.11900 50.81500 23.68200
C  27.75300 50.92900 22.18000
C  26.52500 51.90800 22.09400
C  26.27000 52.04100 23.61400
C  28.96600 51.13700 21.23000
C  25.26500 51.37100 21.28800
C  24.49100 50.09800 21.81700
N  25.45800 52.28400 26.44400
C  24.70100 52.74600 25.44500
C  23.44500 53.24500 25.95100
C  23.52200 53.06400 27.31200
C  24.75400 52.47400 27.57900
C  22.27500 53.57100 25.12700
C  22.73300 53.31000 28.45700
O  21.70700 53.91200 28.63300
C  23.66800 52.78500 29.59400
C  24.07600 53.87900 30.37500
O  24.92000 54.72900 30.08000
O  23.45300 53.86300 31.60300
C  23.89100 54.74500 32.67400
H  30.02400 49.98500 29.90300
H  29.94500 49.77800 23.40200
H  24.54500 53.19100 23.36200
H  26.20700 52.41400 31.46700
H  28.18500 50.10100 31.51800
H  29.14000 51.71600 32.68000
H  28.34700 53.05700 31.99700
H  29.68500 52.45100 31.08000
H  25.81900 49.35400 31.27200
H  24.49500 50.46800 31.11200
H  25.34600 49.25200 33.43200
H  24.16000 50.48900 33.35500
H  33.23700 49.67200 28.18000
H  32.50400 48.15800 28.39800
H  31.96100 49.52800 29.32600
H  33.94300 48.91800 26.14000
H  33.80500 47.71300 24.85800
H  32.93200 47.45700 26.46200
H  27.41800 49.94600 21.84700
H  26.83100 52.88700 21.72600
H  28.67700 51.82000 20.43200
H  29.26900 50.24500 20.68300
H  29.87600 51.50900 21.70200
H  25.62000 51.16600 20.27800
H  24.51600 52.13900 21.09300
H  24.47000 49.30100 21.07400
H  23.47600 50.34700 22.12600
H  24.90400 49.68100 22.73600
H  21.32800 53.49300 25.66100
H  22.24200 52.98800 24.20600
H  22.43800 54.57900 24.74600
H  23.21800 52.07000 30.28300
H  24.75900 55.34800 32.41100
H  24.20900 54.01600 33.42000
H  23.20500 55.35200 33.26500

