158

Mg 48.89900 44.65700 43.08700
C  45.43600 45.06900 42.31800
C  48.59400 41.45200 42.25400
C  52.17700 44.64400 43.15700
C  48.98200 48.18200 43.84000
N  47.12100 43.38200 42.23000
C  45.80100 43.73300 42.06200
C  45.03700 42.53600 41.62800
C  46.03300 41.33300 41.95600
C  47.33700 42.06700 42.09300
C  45.65100 40.65800 43.27200
C  44.41700 42.47300 40.21300
C  45.05100 43.24100 39.03500
H  45.02900 42.55300 37.65800
N  50.26500 43.26600 42.58100
C  49.95900 41.94900 42.36200
C  51.25500 41.24600 42.21900
C  52.28500 42.09700 42.53600
C  51.56100 43.38500 42.75800
C  51.36100 39.75100 41.78400
C  53.72700 41.73000 42.63200
O  54.08800 40.56200 42.39600
C  54.71300 42.68500 43.19000
N  50.35600 46.22600 43.46600
C  51.65200 45.87300 43.53900
C  52.60100 47.10800 43.78400
C  51.54300 48.24100 44.13700
C  50.18100 47.52300 43.89800
C  53.74400 46.91900 44.76500
C  51.73700 49.65000 43.49300
C  51.91100 50.71000 44.58000
N  47.50100 46.31000 43.18000
C  47.67600 47.62000 43.47600
C  46.44800 48.33700 43.17900
C  45.55100 47.37900 42.73000
C  46.21800 46.16400 42.73900
C  46.24200 49.81700 43.24000
C  44.23600 47.24400 42.11800
O  43.33300 48.05400 41.83800
C  44.08600 45.66200 41.85800
C  42.77500 45.21900 42.55900
O  41.85800 44.65800 41.94700
O  42.89200 45.47900 43.93500
C  41.68600 45.09200 44.63200
H  48.54300 40.37200 42.09600
H  53.26700 44.59800 43.19200
H  48.99200 49.24700 44.08400
H  44.14200 42.56400 42.25000
H  46.08400 40.51100 41.24200
H  45.63400 39.56800 43.28700
H  44.70700 41.05700 43.64200
H  46.37500 41.01400 44.00500
H  43.42400 42.89200 40.37900
H  44.46900 41.41000 39.98200
H  46.09100 43.47400 39.26200
H  44.50400 44.16600 38.85300
H  50.36700 39.51100 41.40800
H  51.55700 39.20200 42.70500
H  52.12500 39.59400 41.02200
H  55.05000 43.50200 42.55100
H  55.51800 42.05500 43.57000
H  54.27400 43.26000 44.00500
H  52.92100 47.31400 42.76300
H  51.68600 48.37300 45.21000
H  53.59400 46.04300 45.39700
H  53.79100 47.84500 45.33800
H  54.70000 46.73800 44.27500
H  50.95800 49.86300 42.76100
H  52.70200 49.65900 42.98700
H  52.80200 51.31500 44.41200
H  51.91500 50.38200 45.62000
H  51.01800 51.33400 44.57700
H  47.17600 50.18700 42.81700
H  46.00600 50.23400 44.21900
H  45.40200 49.99700 42.56900
H  43.91900 45.48200 40.79600
H  41.91700 45.20400 45.69200
H  41.47600 44.06600 44.32900
H  40.83100 45.71500 44.37100
Mg 1.36900 42.07100 24.90000
C  3.42200 42.26300 27.81700
C  -1.24000 41.01800 26.82300
C  -0.37400 41.85300 22.12800
C  4.40700 42.31500 23.07600
N  1.14800 41.74300 27.02400
C  2.06700 42.09700 28.02900
C  1.37600 42.15700 29.35100
C  -0.05600 41.69500 29.02300
C  -0.11000 41.49200 27.55800
C  -0.49500 40.50200 29.81500
C  1.53600 43.57600 30.01400
C  1.50500 43.72100 31.55500
H  1.25700 42.64000 32.57500
N  -0.55900 41.58300 24.47700
C  -1.43700 41.07600 25.43900
C  -2.67200 40.62800 24.76800
C  -2.49300 40.93700 23.38000
C  -1.13900 41.50700 23.26400
C  -3.77200 39.88300 25.40200
C  -3.37000 40.73900 22.22600
O  -2.91300 40.80900 21.06700
C  -4.75400 40.44200 22.46500
N  1.84300 42.05800 22.96800
C  0.95300 42.11100 21.89300
C  1.70500 42.25900 20.54400
C  3.05300 42.70300 21.01400
C  3.11900 42.38900 22.48500
C  1.64200 40.92900 19.66500
C  3.36100 44.26900 20.86000
C  3.25600 44.93000 19.45600
N  3.50500 42.24600 25.32400
C  4.60300 42.31800 24.44600
C  5.85500 42.40200 25.18800
C  5.46700 42.39500 26.50200
C  4.04500 42.29500 26.55100
C  7.14500 42.25400 24.39900
C  5.90100 42.45300 27.85100
O  7.03800 42.46400 28.28400
C  4.62100 42.43800 28.78800
C  4.77600 41.53300 29.96700
O  5.08000 40.31700 29.91600
O  4.72100 42.25800 31.16700
C  4.98800 41.42500 32.35800
H  -2.04800 40.62300 27.44300
H  -0.80300 41.84100 21.12400
H  5.25800 42.43000 22.40200
H  1.79400 41.57600 30.17300
H  -0.74700 42.52200 29.18800
H  -1.52400 40.64100 30.14700
H  0.10100 40.39800 30.72100
H  -0.51100 39.52800 29.32600
H  0.78800 44.27800 29.64600
H  2.45400 43.99100 29.59900
H  0.74900 44.44300 31.86500
H  2.47900 44.12800 31.82700
H  -3.49800 39.51700 26.39100
H  -3.96100 38.97100 24.83600
H  -4.68000 40.48400 25.36000
H  -5.14100 41.21500 23.12800
H  -4.72500 39.42500 22.85800
H  -5.36800 40.44000 21.56500
H  1.28900 43.10200 19.99100
H  3.87300 42.24500 20.46200
H  1.19100 40.99200 18.67500
H  1.21700 40.10500 20.23700
H  2.63500 40.50000 19.53000
H  4.41100 44.32300 21.14900
H  2.85900 44.88500 21.60600
H  2.83500 44.26400 18.70300
H  4.20600 45.16100 18.97400
H  2.78300 45.91200 19.45800
H  7.01800 41.84900 23.39500
H  7.78300 41.63300 25.02700
H  7.74500 43.16300 24.35300
H  4.52600 43.47300 29.11500
H  5.79900 40.70200 32.26600
H  4.11700 40.84800 32.67000
H  5.25000 42.04000 33.21900

