158

Mg 24.24000 -6.82200 46.05900
C  26.53200 -4.37900 45.21000
C  21.88400 -5.29000 43.94000
C  22.15200 -9.42100 46.51400
C  26.81200 -8.56500 47.90700
N  24.26400 -5.09000 44.63400
C  25.30300 -4.21200 44.46100
C  24.93100 -3.07400 43.54200
C  23.37900 -3.31800 43.35700
C  23.14800 -4.67700 43.88500
C  22.47200 -2.15400 44.00100
C  25.77300 -3.13800 42.18000
C  26.70000 -2.00100 41.95600
H  26.85000 -1.32400 40.58400
N  22.21600 -7.26500 45.37400
C  21.47400 -6.53200 44.54200
C  20.27600 -7.26400 44.24800
C  20.25400 -8.45100 45.03200
C  21.51100 -8.43100 45.69700
C  19.19200 -6.71300 43.27300
C  19.17800 -9.44900 45.11400
O  18.22600 -9.36500 44.39100
C  19.08700 -10.60700 46.05600
N  24.54000 -8.78000 46.99700
C  23.41400 -9.62800 47.03400
C  23.83300 -10.97900 47.78200
C  25.32100 -10.67400 48.27400
C  25.64600 -9.26800 47.65900
C  22.77200 -11.46400 48.84700
C  26.37700 -11.62700 47.64600
C  27.36000 -12.22900 48.73000
N  26.26800 -6.54600 46.60900
C  27.12600 -7.31100 47.34500
C  28.36200 -6.51000 47.38600
C  28.14500 -5.42200 46.60800
C  26.87700 -5.48500 46.10700
C  29.63900 -6.94500 47.97600
C  28.74700 -4.19700 46.09200
O  29.86600 -3.76700 46.33600
C  27.76600 -3.55600 45.17000
C  27.55400 -2.16800 45.61800
O  26.87600 -1.75700 46.54000
O  28.13300 -1.31600 44.69800
C  27.97000 0.13300 44.86300
H  21.05200 -4.79800 43.43200
H  21.47200 -10.26900 46.61900
H  27.53100 -9.08200 48.54600
H  25.02900 -2.10400 44.02800
H  23.19700 -3.35300 42.28200
H  21.79500 -2.52800 44.76900
H  21.98000 -1.64000 43.17600
H  22.99800 -1.32300 44.47000
H  25.21400 -3.26600 41.25400
H  26.39800 -4.03100 42.18600
H  27.66900 -2.30800 42.34900
H  26.44600 -1.22900 42.68200
H  19.48500 -7.15200 42.32000
H  19.13600 -5.62400 43.25000
H  18.20900 -7.13400 43.48300
H  18.03400 -10.75300 46.29400
H  19.59100 -10.50300 47.01700
H  19.55500 -11.50100 45.64400
H  23.87900 -11.74000 47.00300
H  25.38900 -10.43800 49.33600
H  22.16300 -12.29600 48.49600
H  22.00000 -10.70200 48.95300
H  23.21000 -11.53500 49.84300
H  26.93900 -11.10700 46.87000
H  25.88200 -12.48200 47.18400
H  27.22600 -13.29900 48.89100
H  27.29200 -11.72200 49.69200
H  28.38400 -12.07500 48.39000
H  29.42600 -7.19500 49.01600
H  30.15900 -5.99300 48.08300
H  30.13100 -7.77500 47.46900
H  28.18400 -3.57800 44.16400
H  26.96200 0.39000 44.53800
H  28.52800 0.73700 44.14700
H  28.09200 0.52300 45.87400
Mg -2.19400 35.66400 27.21500
C  -3.54900 33.45800 29.51400
C  -0.62700 37.30900 29.64200
C  -1.11100 37.77900 24.85000
C  -3.99400 33.84600 24.71000
N  -2.29800 35.55900 29.34000
C  -2.79700 34.50000 30.09200
C  -2.59500 34.65600 31.59300
C  -1.64300 35.95000 31.61200
C  -1.60700 36.38900 30.18100
C  -2.01700 37.10700 32.69800
C  -1.89500 33.39100 32.20700
C  -2.63600 32.76100 33.40800
H  -1.75100 32.75700 34.67100
N  -1.03400 37.30400 27.20100
C  -0.42700 37.79000 28.32200
C  0.50200 38.87000 27.96500
C  0.52500 38.84900 26.57500
C  -0.58500 38.01800 26.16700
C  1.18800 39.63400 29.03500
C  1.26100 39.67900 25.63400
O  1.16800 39.67000 24.44600
C  2.39100 40.58100 26.20600
N  -2.61600 35.81700 25.12400
C  -2.04800 36.83600 24.36300
C  -2.32500 36.68900 22.85600
C  -3.20700 35.42200 22.78300
C  -3.32600 34.98900 24.31300
C  -2.93300 37.92300 22.16100
C  -2.61300 34.26700 21.93300
C  -1.45400 33.47000 22.52200
N  -3.66600 34.14400 27.12300
C  -4.24300 33.47200 26.07100
C  -4.98400 32.30900 26.58900
C  -4.79000 32.26800 27.97200
C  -3.85700 33.37300 28.23300
C  -5.83000 31.51100 25.66600
C  -4.97900 31.52800 29.19800
O  -5.43000 30.39900 29.39300
C  -4.35800 32.41300 30.25900
C  -5.50200 33.00600 31.05000
O  -6.26600 33.88400 30.64900
O  -5.58000 32.31800 32.23400
C  -6.52300 32.83200 33.17400
H  -0.04700 37.69800 30.48200
H  -0.70100 38.40900 24.05800
H  -4.58300 33.33000 23.94900
H  -3.56600 34.78000 32.07200
H  -0.59200 35.70200 31.76400
H  -2.23400 36.71500 33.69100
H  -2.83000 37.68600 32.26000
H  -1.09400 37.67500 32.81200
H  -0.94300 33.76900 32.58200
H  -1.55300 32.57100 31.57600
H  -2.91400 31.71500 33.27400
H  -3.52700 33.35200 33.61900
H  1.10500 39.20400 30.03400
H  0.75100 40.63000 28.97100
H  2.25600 39.81200 28.90600
H  2.86000 41.07800 25.35700
H  3.17700 40.10300 26.78900
H  1.91700 41.25400 26.92100
H  -1.41600 36.32400 22.37800
H  -4.26200 35.52900 22.52900
H  -3.80600 37.73700 21.53500
H  -2.19100 38.47400 21.58400
H  -3.23900 38.63900 22.92300
H  -2.22300 34.62600 20.98100
H  -3.42700 33.59600 21.65900
H  -0.65800 33.26500 21.80700
H  -1.82100 32.53800 22.95200
H  -1.02600 33.99000 23.37900
H  -5.39600 31.38200 24.67400
H  -6.62900 32.19000 25.36700
H  -6.32100 30.64900 26.11600
H  -3.73600 31.79500 30.90600
H  -7.35500 33.41200 32.77500
H  -6.04600 33.41700 33.96000
H  -7.16600 32.04100 33.56100

