158

Mg 16.72200 -2.61900 29.02800
C  15.57700 -0.27400 31.33400
C  18.95800 -3.75600 31.38700
C  18.17500 -4.51200 26.66100
C  14.74000 -1.11200 26.55900
N  17.11800 -2.09700 31.10800
C  16.49300 -1.18200 31.85000
C  16.86400 -1.34400 33.32300
C  18.08600 -2.35800 33.35000
C  18.04200 -2.79300 31.86600
C  19.46600 -1.92600 33.85200
C  15.77400 -1.81500 34.26700
C  15.44500 -0.88600 35.42200
H  16.52100 -0.28900 36.39400
N  18.33600 -3.98600 29.06700
C  19.09500 -4.35700 30.12400
C  20.07700 -5.35000 29.67200
C  19.88300 -5.52700 28.25900
C  18.73200 -4.67700 27.96600
C  20.97100 -6.13500 30.64000
C  20.77700 -6.33100 27.37300
O  20.55700 -6.47000 26.19200
C  21.99800 -7.07500 27.85600
N  16.67000 -2.73100 26.90100
C  17.23700 -3.69900 26.11200
C  16.66400 -3.72700 24.72400
C  15.73700 -2.45000 24.68100
C  15.66700 -2.14700 26.18400
C  17.78600 -3.52300 23.71300
C  14.30800 -2.75000 24.07900
C  13.70600 -1.70400 23.10000
N  15.43800 -1.08600 28.93800
C  14.72500 -0.53000 27.85600
C  13.98300 0.57100 28.33000
C  14.27200 0.71100 29.66600
C  15.17700 -0.27000 30.00300
C  12.95300 1.44900 27.55500
C  13.98600 1.53500 30.85700
O  13.33000 2.56400 30.94100
C  14.73300 0.76400 32.00400
C  15.39300 1.90400 32.84500
O  16.58600 2.10600 32.92300
O  14.48600 2.52800 33.61600
C  15.03800 3.39500 34.69300
H  19.68200 -4.09200 32.13200
H  18.53300 -5.27800 25.96900
H  14.14800 -0.66600 25.75700
H  17.18700 -0.38600 33.73200
H  17.80100 -3.16200 34.02800
H  19.45700 -1.01400 34.45000
H  20.06500 -1.68400 32.97400
H  19.88700 -2.74800 34.43100
H  15.77600 -2.83400 34.65500
H  14.90200 -1.69000 33.62400
H  14.69700 -1.32500 36.08200
H  14.88200 -0.01900 35.07600
H  20.88300 -7.20600 30.45700
H  20.80800 -5.76000 31.65000
H  22.00000 -5.83900 30.43600
H  22.55800 -7.30400 26.94900
H  21.62400 -8.02400 28.23900
H  22.58300 -6.48600 28.56300
H  16.04300 -4.58000 24.45200
H  16.32300 -1.65500 24.21800
H  18.14600 -4.48800 23.35300
H  18.60500 -2.95900 24.15900
H  17.30200 -2.99200 22.89400
H  13.63700 -2.84200 24.93400
H  14.21000 -3.72400 23.60100
H  13.03200 -1.13100 23.73600
H  13.18700 -2.20800 22.28500
H  14.34600 -0.95300 22.63500
H  12.13100 0.84200 27.17700
H  13.46400 1.98200 26.75300
H  12.69100 2.19000 28.31000
H  14.04800 0.26300 32.68800
H  15.09500 4.46300 34.48200
H  16.06400 3.17800 34.98800
H  14.31700 3.27200 35.50100
Mg 9.98600 48.36400 25.18300
C  8.10400 48.61600 28.08900
C  12.68300 49.77100 27.23400
C  12.02700 48.16500 22.71700
C  7.29700 47.27900 23.47400
N  10.32200 49.19600 27.43600
C  9.32700 49.10400 28.44600
C  9.91800 49.39100 29.80600
C  11.28600 50.11700 29.40100
C  11.49700 49.58000 27.98300
C  11.30800 51.66800 29.43000
C  10.18400 48.19300 30.71400
C  9.45300 48.25100 32.08000
H  9.72900 47.16900 33.25800
N  12.05000 48.93400 25.01300
C  12.97600 49.45000 25.93600
C  14.28200 49.43600 25.35900
C  14.16700 49.01700 23.95600
C  12.68700 48.74600 23.84600
C  15.62400 49.82700 26.03900
C  15.11900 48.90400 22.77300
O  14.72300 48.78400 21.61800
C  16.55000 48.87100 23.13600
N  9.67300 47.93300 23.29200
C  10.68200 47.90300 22.44400
C  10.19400 47.09600 21.16800
C  8.70300 46.69300 21.44100
C  8.55500 47.36700 22.85700
C  10.33900 47.88600 19.83100
C  8.41800 45.18600 21.45100
C  8.65200 44.34000 22.67000
N  8.05500 48.05100 25.57400
C  7.07200 47.67800 24.77700
C  5.77900 47.70400 25.52100
C  6.16400 47.97800 26.78700
C  7.55500 48.25500 26.80300
C  4.37300 47.23300 25.11800
C  5.66000 48.10200 28.12000
O  4.48300 47.95200 28.50400
C  6.85200 48.35400 29.01500
C  6.93600 47.12000 29.84000
O  7.67300 46.13800 29.69400
O  5.99000 47.19900 30.91300
C  5.93500 46.14500 31.89200
H  13.42500 50.27600 27.85500
H  12.75500 48.03200 21.91400
H  6.44000 46.89800 22.91400
H  9.25600 50.15100 30.21900
H  12.09200 49.70000 30.00500
H  12.29400 52.00900 29.74700
H  10.58500 51.95800 30.19300
H  11.00500 52.28300 28.58300
H  11.22200 48.03700 31.00700
H  9.79200 47.31200 30.20600
H  8.38800 48.18800 31.85800
H  9.54800 49.21500 32.58100
H  15.44700 50.14400 27.06700
H  16.11100 50.62200 25.47400
H  16.30400 48.97700 26.00700
H  16.50400 48.04300 23.84400
H  16.83800 49.76800 23.68300
H  17.19600 48.84500 22.25800
H  10.78400 46.18100 21.11100
H  8.01200 47.15100 20.73300
H  11.03700 48.70400 20.00900
H  9.37900 48.21100 19.42900
H  10.76800 47.24400 19.06300
H  8.92700 44.71600 20.61000
H  7.33800 45.13900 21.31300
H  9.36200 44.90300 23.27500
H  9.15400 43.42200 22.36200
H  7.72500 44.12100 23.20000
H  4.23700 46.38500 25.78800
H  4.33100 47.13300 24.03300
H  3.53800 47.87600 25.39500
H  6.66700 49.26500 29.58400
H  5.96000 46.68900 32.83600
H  6.73400 45.40300 31.89200
H  4.99900 45.59100 31.82700

