158

Mg 43.97500 4.40100 46.58900
C  41.80700 7.09700 46.39300
C  41.11400 2.35200 46.37500
C  46.01700 1.70300 46.05500
C  46.66400 6.57200 45.97500
N  41.81400 4.70200 46.39900
C  41.11600 5.90000 46.26600
C  39.60500 5.76100 46.00500
C  39.41100 4.22300 46.33200
C  40.86900 3.73200 46.36000
C  38.89800 3.83600 47.71500
C  39.15500 6.11400 44.58200
C  40.03500 5.68900 43.40400
H  40.23700 6.68400 42.23700
N  43.61600 2.35900 46.28700
C  42.38300 1.73400 46.24100
C  42.54600 0.32000 46.12100
C  43.97600 0.07300 45.82600
C  44.64600 1.37700 46.12200
C  41.43300 -0.68300 46.14000
C  44.57500 -1.23800 45.36200
O  43.84400 -2.17800 45.03000
C  46.09200 -1.34500 45.16700
N  45.99200 4.21100 46.07900
C  46.62600 2.97700 46.17000
C  48.16900 3.04600 46.16700
C  48.33800 4.58200 46.16200
C  46.94100 5.17800 46.09300
C  48.95200 2.32000 47.33700
C  49.26400 5.15000 45.03500
C  48.86500 4.95700 43.56800
N  44.26800 6.45600 46.49300
C  45.41900 7.20500 46.18200
C  45.02500 8.66300 46.27800
C  43.61400 8.65700 46.45600
C  43.22000 7.29500 46.49600
C  45.80400 9.84100 46.18000
C  42.42300 9.46100 46.49600
O  42.30800 10.69300 46.52600
C  41.25400 8.52600 46.53200
C  40.36100 8.78600 47.74900
O  40.35000 8.15000 48.77800
O  39.49300 9.68900 47.35100
C  38.36500 9.92600 48.24100
H  40.22600 1.77300 46.11300
H  46.74800 0.89400 46.01100
H  47.58700 7.15300 46.02800
H  39.07500 6.42100 46.69200
H  38.85400 3.78000 45.50700
H  38.58300 4.77100 48.17800
H  39.58100 3.45200 48.47400
H  38.05100 3.15800 47.60500
H  38.85300 7.16100 44.54100
H  38.32800 5.42400 44.41500
H  39.75400 4.73300 42.96200
H  41.05600 5.60500 43.77600
H  41.81200 -1.61600 46.55600
H  41.13800 -0.89500 45.11200
H  40.59200 -0.23100 46.66600
H  46.51900 -1.23900 46.16400
H  46.56000 -0.59300 44.53100
H  46.39200 -2.35700 44.89500
H  48.56200 2.66600 45.22400
H  48.80600 5.00000 47.05300
H  49.82600 1.83700 46.89900
H  48.33500 1.50700 47.72100
H  49.43500 2.93400 48.09700
H  50.18400 4.57500 45.13900
H  49.31100 6.23100 45.16300
H  48.26000 5.83800 43.35500
H  48.33300 4.03700 43.32500
H  49.78100 4.98600 42.97800
H  45.48900 10.63600 45.50300
H  46.83500 9.58000 45.94500
H  45.84100 10.31500 47.16100
H  40.67800 8.74700 45.63300
H  38.20000 9.06200 48.88500
H  37.43400 10.03600 47.68500
H  38.59100 10.78000 48.88000
Mg 53.82900 24.51200 45.07500
C  51.14200 26.33200 43.94100
C  52.52000 21.64000 43.78000
C  56.71600 22.91600 45.57300
C  55.08000 27.31700 46.74100
N  52.14400 24.09400 43.82500
C  51.05400 24.95900 43.58300
C  50.06800 24.29500 42.68000
C  50.27700 22.81400 43.17200
C  51.74100 22.82600 43.65200
C  49.25300 22.42300 44.32700
C  50.43000 24.70000 41.29900
C  49.32000 24.98000 40.32300
H  49.76000 25.53100 38.96700
N  54.54200 22.55600 44.56700
C  53.86200 21.50100 44.08300
C  54.66000 20.36200 43.83900
C  55.94500 20.72400 44.39900
C  55.77000 22.15700 44.85400
C  54.15900 19.06700 43.26200
C  57.16800 19.81300 44.45700
O  57.01400 18.65100 44.04600
C  58.47600 20.18400 45.12900
N  55.75100 25.06800 45.96900
C  56.68900 24.19000 46.13100
C  57.91800 24.83700 46.63900
C  57.39400 26.26900 47.16100
C  55.98900 26.25600 46.62600
C  58.68200 24.13100 47.70400
C  58.19600 27.50600 46.62900
C  58.26900 28.75500 47.55300
N  53.33900 26.49700 45.25100
C  53.78900 27.49800 46.08200
C  52.80600 28.62600 46.11600
C  51.79500 28.22500 45.19300
C  52.18600 26.96400 44.71400
C  52.88400 29.85900 46.91200
C  50.57300 28.65600 44.67900
O  49.95100 29.77800 44.73600
C  50.03600 27.41600 43.83800
C  49.69100 27.86000 42.45200
O  50.49200 28.16600 41.58200
O  48.35000 27.78100 42.22600
C  47.73600 28.34400 41.07000
H  51.94400 20.78900 43.41100
H  57.65700 22.36800 45.48900
H  55.46000 28.14400 47.34500
H  49.07500 24.66300 42.94000
H  50.13500 22.24800 42.25200
H  48.70300 21.50200 44.13100
H  48.55100 23.21900 44.57200
H  49.75900 22.26400 45.27900
H  51.16200 23.98900 40.91500
H  50.96100 25.64900 41.37200
H  48.70300 25.71800 40.83500
H  48.78500 24.05200 40.12300
H  53.07500 19.08800 43.14300
H  54.27000 18.17300 43.87500
H  54.61100 18.81500 42.30300
H  58.48200 20.37000 46.20300
H  58.90500 21.02700 44.58800
H  59.17600 19.35900 44.99700
H  58.58500 24.93400 45.78300
H  57.44200 26.37200 48.24500
H  59.04900 23.17300 47.33700
H  57.99600 23.99000 48.53900
H  59.49500 24.82000 47.93300
H  57.73200 27.81800 45.69300
H  59.22300 27.15300 46.54200
H  57.79700 29.61500 47.07900
H  59.28400 29.14800 47.49000
H  57.93600 28.53200 48.56700
H  53.53600 29.74100 47.77700
H  51.89400 30.05200 47.32500
H  53.21300 30.73600 46.35400
H  49.15200 27.10000 44.39100
H  48.41700 28.34100 40.21900
H  47.36600 29.32100 41.38100
H  46.89600 27.70800 40.79100

