158

Mg 17.74400 -1.49000 27.37700
C  16.72000 0.35500 30.19200
C  19.84200 -3.25100 29.45200
C  19.13100 -2.80200 24.62100
C  16.16300 0.90900 25.35700
N  18.21600 -1.45800 29.54700
C  17.57900 -0.63900 30.48600
C  18.12700 -0.97800 31.94200
C  19.30700 -1.91400 31.67000
C  19.17200 -2.24900 30.17300
C  20.70000 -1.23000 31.86400
C  17.06000 -1.59700 32.84800
C  16.99800 -1.09300 34.35800
H  18.20000 -0.29300 34.79800
N  19.04900 -2.98000 27.12500
C  19.82600 -3.55800 28.07000
C  20.57500 -4.63500 27.43200
C  20.26700 -4.62700 26.05100
C  19.44400 -3.47100 25.87500
C  21.49000 -5.54600 28.18700
C  20.80100 -5.47300 24.88000
O  20.41000 -5.31400 23.71000
C  21.88700 -6.55300 25.08000
N  17.47900 -1.04700 25.23900
C  18.26900 -1.71200 24.33400
C  18.25400 -0.97900 22.96100
C  17.10000 0.06800 23.11100
C  16.91900 0.02800 24.67200
C  19.63700 -0.31500 22.71300
C  15.70300 -0.16300 22.42800
C  15.24800 0.78000 21.26400
N  16.57400 0.16800 27.64500
C  16.00900 0.98800 26.72500
C  15.26800 2.01600 27.41700
C  15.41200 1.80000 28.79900
C  16.24700 0.69400 28.88700
C  14.34500 3.06700 26.84100
C  15.10300 2.27800 30.13200
O  14.40600 3.21400 30.47600
C  16.00800 1.44900 31.08900
C  17.08200 2.38100 31.62700
O  18.07000 2.74800 31.02300
O  16.76500 2.76300 32.90100
C  17.53600 3.83700 33.46900
H  20.53100 -3.76600 30.12500
H  19.75000 -3.04400 23.75400
H  15.70200 1.81100 24.95100
H  18.43800 -0.02600 32.37100
H  19.34100 -2.81200 32.28700
H  21.33200 -1.83200 32.51700
H  20.49200 -0.39500 32.53300
H  21.23300 -1.00900 30.94000
H  17.09000 -2.68600 32.80200
H  16.13800 -1.31700 32.33800
H  16.90300 -2.05100 34.86900
H  16.07400 -0.52200 34.44400
H  21.92900 -5.04600 29.05100
H  22.36000 -5.70300 27.55100
H  21.11300 -6.51300 28.52200
H  21.46600 -7.29300 25.76100
H  22.73400 -6.07900 25.57500
H  21.97700 -7.00700 24.09300
H  17.91400 -1.63300 22.15900
H  17.40700 1.05000 22.75000
H  20.01300 -0.56100 21.72000
H  20.33600 -0.78100 23.40800
H  19.51200 0.76700 22.74700
H  14.92800 -0.06600 23.18800
H  15.54400 -1.17200 22.04700
H  16.08500 1.40900 20.96100
H  14.41200 1.42200 21.54300
H  15.10000 0.07000 20.45100
H  14.59600 3.57600 25.91000
H  14.20700 3.88100 27.55300
H  13.32500 2.68200 26.83800
H  15.30900 1.06700 31.83300
H  17.75300 4.57900 32.70100
H  18.45600 3.46100 33.91700
H  16.89700 4.32400 34.20600
Mg 35.02100 48.21500 26.19200
C  35.13900 46.20900 29.04200
C  34.06400 50.87600 28.03300
C  34.43500 49.90900 23.31800
C  35.49800 45.19900 24.31500
N  34.51300 48.50300 28.23900
C  34.74600 47.56700 29.26800
C  34.56900 48.22300 30.67400
C  33.91000 49.60700 30.27500
C  34.18400 49.69700 28.74600
C  32.35800 49.72700 30.56400
C  35.91600 48.43000 31.39500
C  36.11200 48.11600 32.91600
H  36.24900 49.29000 33.88700
N  34.40900 50.14300 25.79400
C  34.04300 51.08900 26.61700
C  33.62600 52.35100 26.02000
C  33.81900 52.06300 24.61100
C  34.23500 50.63900 24.54400
C  32.95600 53.46900 26.74900
C  33.49100 52.95900 23.39400
O  33.54300 52.55200 22.24900
C  33.02700 54.38700 23.48400
N  34.71800 47.61500 24.18000
C  34.68200 48.50900 23.18200
C  34.56400 47.83600 21.85400
C  35.10900 46.43300 22.09400
C  35.19600 46.35700 23.63700
C  33.23000 47.71400 21.08200
C  36.51500 46.12100 21.46600
C  36.77800 44.66700 20.91100
N  35.27500 46.10600 26.54500
C  35.44900 44.99000 25.66600
C  35.73800 43.77600 26.43600
C  35.65500 44.20000 27.78100
C  35.32300 45.65400 27.78400
C  36.16100 42.45200 25.89800
C  35.77500 43.82000 29.24600
O  36.23300 42.80900 29.79300
C  35.42400 45.11700 30.06900
C  34.29000 44.79300 30.97600
O  33.20400 44.33400 30.59600
O  34.64600 44.90800 32.34400
C  33.51400 44.79600 33.27400
H  33.93100 51.74900 28.67500
H  34.30200 50.37800 22.34100
H  35.68300 44.34900 23.65500
H  33.91400 47.65900 31.33900
H  34.49200 50.37900 30.77900
H  32.33700 50.62500 31.18100
H  32.00000 48.74100 30.86000
H  31.73100 50.11400 29.76100
H  36.39200 49.40500 31.29200
H  36.58700 47.82200 30.79000
H  37.06900 47.59300 32.92100
H  35.24800 47.54600 33.25700
H  33.71400 54.18500 27.06900
H  32.42900 53.07800 27.61900
H  32.24100 53.99600 26.11700
H  32.00200 54.49900 23.83600
H  33.31600 54.83200 22.53200
H  33.64900 54.91600 24.20700
H  35.30000 48.40400 21.28500
H  34.37900 45.70400 21.74300
H  32.36600 48.16400 21.57100
H  32.95100 46.72100 20.73000
H  33.37900 48.24600 20.14200
H  37.17700 46.32400 22.30700
H  36.75300 46.77100 20.62400
H  35.81400 44.30300 20.55500
H  37.19000 44.07200 21.72700
H  37.54500 44.56100 20.14400
H  36.65000 42.74900 24.97000
H  35.32600 41.77200 25.73200
H  37.04800 42.14300 26.45000
H  36.23100 45.47300 30.71100
H  32.71800 45.50100 33.03200
H  34.00400 44.92100 34.24000
H  33.12600 43.77800 33.30700

