158

Mg 41.16200 8.62100 29.69600
C  43.00400 10.03100 32.38800
C  39.27100 6.99200 31.85200
C  39.92400 6.98000 27.08400
C  43.71700 9.94300 27.48900
N  41.11400 8.60900 31.87300
C  41.87700 9.27700 32.79400
C  41.37500 9.08800 34.25400
C  40.31700 7.94400 34.03400
C  40.28000 7.75200 32.48000
C  40.67500 6.56100 34.71900
C  40.86800 10.39800 34.85600
C  40.95200 10.43500 36.35200
H  40.92700 11.70300 37.11000
N  39.67600 7.30700 29.52200
C  38.95900 6.76800 30.52100
C  37.86400 5.94000 29.97300
C  38.06200 5.99200 28.58100
C  39.30700 6.76200 28.34800
C  36.86100 5.11700 30.85900
C  37.10800 5.35900 27.56400
O  37.44900 5.45000 26.39300
C  35.75500 4.89900 27.86100
N  41.76000 8.46400 27.61500
C  40.98400 7.75100 26.71800
C  41.36100 7.93500 25.27100
C  42.48600 9.02800 25.34900
C  42.65000 9.21300 26.86900
C  41.75300 6.59000 24.55100
C  42.10800 10.35500 24.63400
C  40.95000 11.22800 25.28400
N  43.11100 9.61100 29.88600
C  43.95100 10.13500 28.89200
C  44.96400 10.91700 29.57800
C  44.66000 10.97000 30.91700
C  43.49800 10.06700 31.05200
C  46.14900 11.58200 28.91600
C  45.01600 11.50700 32.27100
O  45.88300 12.30100 32.71200
C  43.88700 10.91500 33.27100
C  44.55000 10.27000 34.35400
O  45.35900 9.36200 34.39700
O  44.12300 10.83100 35.52200
C  44.51100 10.34300 36.86500
H  38.71100 6.62700 32.71400
H  39.47800 6.54100 26.18900
H  44.40000 10.37700 26.75600
H  42.21000 8.67700 34.82300
H  39.36300 8.19300 34.49700
H  41.65500 6.58300 35.19400
H  40.73200 5.81100 33.93000
H  39.88300 6.33700 35.43400
H  39.82000 10.42900 34.55700
H  41.36000 11.27600 34.43700
H  41.82500 9.86400 36.66800
H  40.07200 9.85600 36.63000
H  36.87500 4.11100 30.43800
H  35.83300 5.46200 30.74500
H  37.18000 4.97700 31.89200
H  35.40700 4.45000 26.93100
H  35.20700 5.77200 28.21600
H  35.76600 4.17400 28.67500
H  40.44800 8.37200 24.86600
H  43.37300 8.58400 24.89700
H  41.01800 6.02300 23.98000
H  41.95800 5.91100 25.37800
H  42.58200 6.75400 23.86200
H  41.84700 10.07600 23.61300
H  43.03700 10.92400 24.68000
H  40.55900 10.67400 26.13700
H  40.21800 11.44600 24.50600
H  41.38400 12.16300 25.64000
H  46.55500 12.45600 29.42500
H  45.94600 11.81800 27.87200
H  46.99000 10.88800 28.93700
H  43.26900 11.72200 33.66600
H  44.29100 9.30500 37.11700
H  43.86700 10.97200 37.48000
H  45.55900 10.55900 37.06900
Mg -5.31400 24.97500 26.52500
C  -3.86100 26.99600 29.02200
C  -6.52900 22.73600 28.94500
C  -6.90700 23.46700 24.04100
C  -4.20900 27.50000 24.19100
N  -5.28100 24.99500 28.67100
C  -4.61400 25.87900 29.54100
C  -4.90300 25.50600 31.02700
C  -5.65700 24.08800 30.91000
C  -5.86100 23.89300 29.38200
C  -4.81600 22.98300 31.67100
C  -5.82300 26.61400 31.73900
C  -5.49700 26.88600 33.15200
H  -6.53000 26.45400 34.18500
N  -6.41600 23.30600 26.46700
C  -6.84500 22.48500 27.54000
C  -7.64400 21.40500 27.05600
C  -7.69900 21.59000 25.61500
C  -6.92300 22.84800 25.31200
C  -8.28000 20.36500 27.80700
C  -8.46300 20.74000 24.53900
O  -8.53700 21.12300 23.37900
C  -9.14800 19.50200 24.88200
N  -5.53100 25.42100 24.43100
C  -6.25500 24.60200 23.67300
C  -6.41600 25.14900 22.21600
C  -5.76200 26.60700 22.39400
C  -5.19100 26.58400 23.81400
C  -5.63500 24.39300 21.08500
C  -6.81200 27.75200 22.19500
C  -6.55800 28.75700 21.12000
N  -4.09800 26.81900 26.48000
C  -3.70200 27.65500 25.50400
C  -2.83800 28.71400 25.99900
C  -2.91600 28.55000 27.41500
C  -3.74900 27.37100 27.65800
C  -2.13200 29.64500 25.10100
C  -2.55300 29.08300 28.68800
O  -1.90000 30.05200 28.98100
C  -3.08700 28.11500 29.80100
C  -1.99300 27.53300 30.69400
O  -1.21100 26.62000 30.49400
O  -2.09200 28.21900 31.84900
C  -1.21000 27.68600 32.89000
H  -6.79700 22.06400 29.76300
H  -7.45600 23.01300 23.21300
H  -3.93100 28.31400 23.51700
H  -3.94100 25.25800 31.47500
H  -6.60100 24.20800 31.44100
H  -5.10300 22.92600 32.72100
H  -3.74000 22.98700 31.50000
H  -5.07100 22.02500 31.21900
H  -6.88200 26.44900 31.53900
H  -5.55100 27.56900 31.29000
H  -5.32200 27.93800 33.38000
H  -4.56100 26.47500 33.53100
H  -9.36000 20.32000 27.67100
H  -7.98600 20.56900 28.83700
H  -7.89400 19.41900 27.42700
H  -9.94200 19.82000 25.55800
H  -8.36100 18.87200 25.29700
H  -9.64300 19.07900 24.00800
H  -7.47300 25.17600 21.95000
H  -4.96300 26.81100 21.68100
H  -6.13500 23.43900 20.91400
H  -4.62100 24.10600 21.36300
H  -5.68000 25.09600 20.25300
H  -6.95600 28.38100 23.07400
H  -7.78000 27.33300 21.92100
H  -6.91100 28.36700 20.16500
H  -5.51000 29.04100 21.02900
H  -7.23900 29.59000 21.29700
H  -2.55600 30.63900 25.24200
H  -2.07700 29.28000 24.07600
H  -1.11700 29.61400 25.49600
H  -3.71100 28.70300 30.47400
H  -0.13100 27.60300 32.76600
H  -1.58100 26.66500 32.98700
H  -1.44900 28.13600 33.85400

