158

Mg -3.00500 17.02100 25.93200
C  -3.20200 14.59900 28.36600
C  -2.99500 19.40000 28.21200
C  -2.90400 19.19900 23.26300
C  -3.22100 14.30700 23.47800
N  -3.24500 16.99700 28.04900
C  -3.25300 15.87000 28.91500
C  -3.33700 16.39700 30.44600
C  -3.42000 17.94800 30.21300
C  -3.24800 18.15200 28.73100
C  -4.64100 18.64800 30.83600
C  -2.06700 15.97100 31.27800
C  -1.56100 16.76800 32.53600
H  -0.83500 15.85100 33.52800
N  -2.99500 19.04100 25.77200
C  -2.94700 19.87800 26.88300
C  -3.00000 21.22000 26.45200
C  -2.82500 21.15900 24.99700
C  -2.91800 19.75400 24.60800
C  -3.16500 22.38300 27.38500
C  -2.43700 22.33000 23.99300
O  -2.19500 22.13900 22.82800
C  -2.19400 23.70800 24.44900
N  -3.02300 16.71600 23.64100
C  -2.97100 17.82800 22.86800
C  -2.96500 17.44400 21.40100
C  -3.39000 15.92700 21.42200
C  -3.15700 15.61500 22.93500
C  -4.01600 18.27000 20.43100
C  -2.53600 15.06300 20.48600
C  -3.20500 14.56500 19.16000
N  -3.10500 14.94000 25.86000
C  -3.21400 13.95100 24.85000
C  -3.46800 12.69500 25.43300
C  -3.34100 12.92100 26.76700
C  -3.12600 14.23500 27.01700
C  -3.71800 11.42500 24.72200
C  -3.39700 12.23700 27.99700
O  -3.48700 11.01800 28.14800
C  -3.34900 13.28000 29.06500
C  -2.31400 12.91300 29.96100
O  -1.10900 13.19400 29.73300
O  -2.74500 12.27200 31.10600
C  -1.65100 11.67400 31.95700
H  -2.83700 20.17200 28.96700
H  -2.79700 19.89100 22.42500
H  -3.45500 13.61500 22.66700
H  -4.18600 15.92700 30.94100
H  -2.68700 18.48000 30.81900
H  -4.30100 19.27400 31.66000
H  -5.31400 17.92700 31.30100
H  -5.28200 19.28900 30.23100
H  -1.19800 15.94900 30.62100
H  -2.31600 14.98400 31.66800
H  -2.30800 17.35600 33.07000
H  -0.87700 17.50800 32.12100
H  -3.20900 22.11200 28.44000
H  -4.05800 22.88100 27.00500
H  -2.33300 23.06900 27.22600
H  -2.19600 24.34700 23.56600
H  -1.20000 23.81100 24.88400
H  -2.94900 24.17400 25.08200
H  -1.97100 17.56500 20.97000
H  -4.46700 15.75900 21.37900
H  -4.83800 17.74100 19.94900
H  -3.26800 18.68800 19.75800
H  -4.37500 19.10700 21.02900
H  -2.12300 14.30400 21.15000
H  -1.62700 15.52800 20.10400
H  -4.28100 14.70200 19.04900
H  -3.06900 13.48400 19.19300
H  -2.77900 15.09400 18.30700
H  -4.47300 11.05700 25.41500
H  -2.89700 10.71000 24.76700
H  -4.15000 11.44700 23.72100
H  -4.33500 13.23300 29.52800
H  -1.03300 10.84000 31.62900
H  -2.21000 11.30000 32.81500
H  -0.95300 12.39700 32.38000
Mg 7.55900 53.26700 41.26500
C  7.06300 49.72300 40.70200
C  10.85400 52.73300 40.25500
C  7.96900 56.46800 41.10800
C  4.13700 53.42200 41.68300
N  8.79800 51.46400 40.52500
C  8.32800 50.18500 40.39900
C  9.55100 49.25900 39.98100
C  10.81000 50.21000 40.17700
C  10.14100 51.58200 40.37600
C  11.69800 49.78200 41.33400
C  9.49900 48.72200 38.56200
C  9.13400 49.55600 37.35300
H  8.20300 48.95200 36.27700
N  9.20600 54.45700 40.75800
C  10.46400 54.04700 40.32200
C  11.30000 55.16500 40.08000
C  10.40600 56.33900 40.29000
C  9.14900 55.83300 40.72400
C  12.68300 54.98100 39.63200
C  10.80400 57.74300 39.97900
O  11.94400 58.01900 39.72200
C  9.76700 58.90200 39.84800
N  6.11900 54.74100 41.06400
C  6.64000 55.99400 41.32200
C  5.54400 56.98300 41.74700
C  4.26700 56.01800 41.89500
C  4.86800 54.65400 41.58100
C  5.88700 57.86200 43.05500
C  3.04700 56.36800 41.13500
C  3.10800 56.32400 39.64900
N  5.92900 51.95700 41.33600
C  4.53600 52.15600 41.48900
C  3.84300 50.94200 41.52300
C  4.85200 49.96500 41.26900
C  6.08200 50.59700 41.14600
C  2.38700 50.67600 41.74600
C  5.04200 48.55000 41.12600
O  4.19700 47.63800 41.09800
C  6.45400 48.33200 40.71300
C  6.34200 47.61400 39.43600
O  5.84900 48.08300 38.41000
O  6.89900 46.37400 39.54200
C  6.79800 45.46400 38.37500
H  11.88200 52.42300 40.05700
H  8.09500 57.53500 41.30300
H  3.08100 53.46000 41.95700
H  9.64000 48.43500 40.68800
H  11.27200 50.26000 39.19000
H  11.67800 48.70700 41.51200
H  11.15500 50.29200 42.13100
H  12.68200 50.20700 41.14000
H  8.71700 47.96300 38.53200
H  10.40400 48.13000 38.42600
H  10.05400 49.84600 36.84500
H  8.66900 50.44200 37.78500
H  12.79700 54.12400 38.96900
H  13.39000 54.91300 40.45900
H  12.90100 55.89300 39.07600
H  9.05600 58.60200 39.07800
H  10.23000 59.84100 39.54500
H  9.28800 59.21800 40.77500
H  5.40500 57.66800 40.91100
H  4.07500 56.14800 42.96000
H  5.97200 58.92800 42.84300
H  6.88400 57.56100 43.37900
H  5.18900 57.63900 43.86200
H  2.86000 57.40900 41.39900
H  2.17300 55.82900 41.50100
H  2.08600 56.45400 39.29300
H  3.53700 55.38000 39.31500
H  3.70200 57.16400 39.28900
H  2.14400 49.64700 41.47900
H  1.66800 51.32000 41.23900
H  2.40000 50.87500 42.81700
H  6.92300 47.64000 41.41200
H  6.98400 45.98300 37.43500
H  5.81000 45.00400 38.34300
H  7.63400 44.76500 38.39200

