158

Mg 24.29400 -6.11600 46.44600
C  26.26600 -3.57900 44.77800
C  21.61200 -5.21300 44.39100
C  22.96700 -9.19000 46.87800
C  27.32000 -7.15400 47.86100
N  23.99400 -4.53600 44.85000
C  24.94100 -3.65300 44.30200
C  24.36300 -2.61500 43.31000
C  22.84600 -3.04600 43.40600
C  22.70600 -4.35900 44.31200
C  21.91700 -1.86700 43.82900
C  24.85900 -2.66700 41.83100
C  25.40100 -1.34900 41.17500
H  25.25800 -1.28700 39.65800
N  22.45800 -7.06400 45.75500
C  21.53800 -6.48200 44.97700
C  20.35300 -7.47700 44.89600
C  20.72300 -8.67200 45.53600
C  22.12400 -8.38800 46.07500
C  19.13900 -7.09200 44.15700
C  19.86300 -9.89400 45.57800
O  18.72100 -9.94200 45.07200
C  20.45700 -11.05600 46.31700
N  24.95900 -7.82300 47.31600
C  24.14800 -8.93000 47.48800
C  24.89700 -10.04300 48.19200
C  26.26600 -9.44000 48.59300
C  26.19600 -8.04300 47.92300
C  24.07100 -10.77400 49.35600
C  27.54100 -10.21600 48.24100
C  28.45500 -10.60000 49.41800
N  26.30600 -5.29900 46.56100
C  27.37800 -5.88500 47.17600
C  28.57100 -5.09900 46.90300
C  28.20600 -4.17100 45.92400
C  26.82000 -4.33800 45.77400
C  29.94400 -5.39300 47.49000
C  28.66300 -3.22800 45.01100
O  29.76600 -2.73900 44.77600
C  27.42300 -2.70600 44.20600
C  27.17800 -1.26100 44.55900
O  26.64400 -0.80600 45.57400
O  27.78900 -0.38400 43.67200
C  27.71300 1.06700 43.94700
H  20.74200 -4.97100 43.77800
H  22.57700 -10.16100 47.18900
H  28.24500 -7.56900 48.26700
H  24.47000 -1.67300 43.84700
H  22.59200 -3.28200 42.37200
H  22.32400 -0.86200 43.72200
H  21.58800 -2.08100 44.84700
H  21.04500 -1.97700 43.18400
H  24.26200 -3.18000 41.07800
H  25.75100 -3.29300 41.80000
H  26.45000 -1.33100 41.46800
H  25.05400 -0.38600 41.54800
H  18.44600 -7.91200 43.97000
H  19.46800 -6.54900 43.27100
H  18.59700 -6.28400 44.64900
H  20.70100 -10.64400 47.29600
H  21.32600 -11.49600 45.82600
H  19.71000 -11.84900 46.31200
H  25.10000 -10.76100 47.39800
H  26.18100 -9.27700 49.66700
H  24.11100 -11.84900 49.18300
H  23.02400 -10.48700 49.26200
H  24.41800 -10.53400 50.36100
H  28.17400 -9.69700 47.52100
H  27.19800 -11.14400 47.78400
H  28.62800 -11.67500 49.46800
H  27.93800 -10.47600 50.37000
H  29.35900 -10.00100 49.30700
H  30.55400 -4.49100 47.55800
H  30.43500 -5.95000 46.69300
H  29.91800 -5.87500 48.46700
H  27.63700 -2.80200 43.14100
H  27.56100 1.27300 45.00700
H  27.02100 1.64100 43.33000
H  28.69600 1.46800 43.70200
Mg 4.89100 55.07100 41.53000
C  3.72600 51.73100 41.50700
C  7.64400 54.06700 39.70800
C  5.57100 58.42500 41.01400
C  1.73600 55.97600 42.93300
N  5.53100 53.14900 40.62100
C  4.93600 51.92000 40.80800
C  5.69100 50.86200 39.95700
C  7.05400 51.56000 39.70900
C  6.77500 53.02300 40.08300
C  8.28600 51.01900 40.49200
C  4.95100 50.43300 38.62700
C  4.94200 48.91500 38.26800
H  5.55800 48.41300 36.99600
N  6.39800 56.12500 40.55200
C  7.46700 55.47300 39.90400
C  8.41400 56.56100 39.36400
C  7.79800 57.78400 39.77200
C  6.54200 57.49400 40.49200
C  9.57900 56.18200 38.42700
C  8.45000 59.18000 39.43800
O  9.52900 59.22700 38.80500
C  7.82900 60.53900 39.76900
N  3.77500 56.91700 41.87000
C  4.32400 58.21400 41.66500
C  3.45600 59.36400 42.12200
C  2.13200 58.47700 42.50200
C  2.59700 57.01200 42.53400
C  3.97500 60.38300 43.22400
C  0.98700 58.62700 41.46900
C  -0.05900 59.83200 41.74100
N  3.12300 54.07100 42.17400
C  2.03400 54.60600 42.80600
C  1.19600 53.48400 43.25200
C  1.88600 52.37300 42.74900
C  2.98700 52.73900 42.06700
C  -0.03100 53.61600 43.95600
C  1.75700 50.89700 42.65900
O  0.99000 50.13300 43.20000
C  3.09000 50.41100 42.00200
C  2.97000 49.33200 41.02500
O  2.12100 49.33700 40.11500
O  3.81100 48.34800 41.40200
C  3.63800 46.99600 40.95200
H  8.51600 53.68800 39.17100
H  5.89400 59.43100 40.73900
H  0.78300 56.25200 43.39000
H  5.86100 49.96000 40.54500
H  7.20100 51.53600 38.63000
H  8.80700 50.45700 39.71700
H  8.04700 50.31300 41.28800
H  8.98000 51.77300 40.86300
H  5.41900 51.04000 37.85200
H  3.94600 50.85200 38.59200
H  3.96800 48.44100 38.38900
H  5.55700 48.44700 39.03700
H  9.15200 55.63600 37.58600
H  10.36700 55.63200 38.94100
H  10.06300 57.08800 38.06200
H  8.40200 61.41600 39.46800
H  7.80700 60.58800 40.85800
H  6.90700 60.69300 39.20900
H  3.36700 59.94800 41.20600
H  1.69600 58.67400 43.48100
H  3.11000 60.65000 43.83200
H  4.37000 61.27900 42.74700
H  4.69600 59.94300 43.91400
H  0.25900 57.81700 41.51200
H  1.33900 58.88900 40.47100
H  0.08300 60.09600 42.78900
H  -1.03300 59.39700 41.51500
H  0.13600 60.72500 41.14600
H  -0.72800 53.95400 43.18900
H  -0.10000 54.33300 44.77400
H  -0.45400 52.69100 44.35000
H  3.59600 49.91700 42.83200
H  2.82900 46.43000 41.41600
H  4.59700 46.48000 40.99200
H  3.37000 47.05400 39.89700

