158

Mg 0.91300 42.91600 26.93600
C  2.44500 43.16300 30.02500
C  -1.89600 41.80900 28.45800
C  -0.17900 42.29500 23.88700
C  4.03800 43.94700 25.39200
N  0.41300 42.46600 29.07700
C  1.19000 42.73800 30.19700
C  0.39300 42.48000 31.47200
C  -0.99200 41.88400 30.96800
C  -0.83600 42.08300 29.41200
C  -1.29300 40.47400 31.48400
C  0.26500 43.70900 32.52100
C  0.34300 43.25100 34.07100
H  -0.84800 43.34500 35.00700
N  -0.78200 42.17300 26.26900
C  -1.84200 41.70400 27.03200
C  -2.92800 41.29000 26.24400
C  -2.54500 41.62100 24.87600
C  -1.02400 41.95000 24.95300
C  -4.25400 40.76100 26.79700
C  -3.32300 41.59900 23.59000
O  -2.92500 41.93400 22.50300
C  -4.69400 41.09700 23.64900
N  1.82200 43.35000 24.89800
C  1.10600 42.85000 23.80200
C  1.82300 43.09000 22.52200
C  3.09200 43.81700 23.04700
C  3.02300 43.71900 24.51800
C  2.14000 41.66800 21.82800
C  3.31700 45.21800 22.37900
C  3.75700 45.27200 20.91200
N  2.89700 43.42400 27.50500
C  4.00700 43.79500 26.78700
C  5.11100 43.91400 27.73800
C  4.57500 43.58100 29.01300
C  3.17200 43.39200 28.85800
C  6.61700 44.18600 27.49200
C  4.86500 43.41900 30.38500
O  5.92900 43.45200 31.01200
C  3.51500 43.21900 31.16600
C  3.56200 42.00100 31.97200
O  3.43600 40.83100 31.61300
O  4.01300 42.37100 33.16000
C  4.36100 41.34000 34.14600
H  -2.71000 41.31900 28.99500
H  -0.59700 42.08200 22.90100
H  4.92600 44.17900 24.80100
H  0.81600 41.72500 32.13500
H  -1.79000 42.58400 31.21600
H  -1.73200 39.89100 30.67400
H  -2.06400 40.60000 32.24400
H  -0.43600 39.95800 31.91700
H  -0.70800 44.16000 32.32500
H  0.97600 44.48900 32.25100
H  1.16400 43.82500 34.50100
H  0.82300 42.28600 34.23500
H  -4.32000 40.51700 27.85700
H  -4.51700 39.81900 26.31500
H  -5.03300 41.50900 26.65200
H  -5.38400 41.69700 24.24400
H  -4.67700 40.06800 24.00800
H  -5.08400 40.94100 22.64300
H  1.41900 43.74400 21.74900
H  3.90200 43.18400 22.68500
H  2.36500 41.00500 22.66400
H  3.02500 41.72600 21.19500
H  1.31100 41.23500 21.26900
H  3.96700 45.85500 22.98000
H  2.31400 45.61800 22.52700
H  4.72700 45.77000 20.92800
H  3.00500 45.84700 20.37100
H  3.80100 44.24500 20.55000
H  6.73400 45.14400 27.99800
H  6.79600 44.33200 26.42600
H  7.14100 43.24700 27.67100
H  3.31900 44.15300 31.69300
H  5.40400 41.02800 34.20400
H  3.68300 40.48800 34.16900
H  4.18400 41.72300 35.15100
Mg -1.84500 34.60100 27.51000
C  -3.56600 32.82600 29.75400
C  -0.68200 36.72200 29.87600
C  -0.67800 36.72500 25.01700
C  -3.41300 32.71900 24.86200
N  -2.31500 34.92400 29.49100
C  -2.83200 33.88000 30.28800
C  -2.80500 34.27700 31.79700
C  -2.03500 35.67100 31.72400
C  -1.65900 35.80900 30.26100
C  -3.01100 36.87200 32.25600
C  -2.08000 33.19600 32.61500
C  -2.79300 32.68000 33.92700
H  -1.87400 32.56400 35.16100
N  -0.71600 36.34000 27.49400
C  -0.23600 37.01200 28.57800
C  0.75400 38.02300 28.26500
C  0.69600 38.05800 26.81900
C  -0.28500 37.02400 26.37200
C  1.54800 38.89500 29.27300
C  1.40300 39.13400 25.95000
O  1.38400 39.08000 24.71300
C  2.26200 40.18500 26.60600
N  -2.24500 34.83100 25.29400
C  -1.54700 35.72900 24.52100
C  -1.69900 35.48600 23.09000
C  -2.34500 34.10500 23.04500
C  -2.71200 33.85600 24.45000
C  -2.43100 36.63000 22.27200
C  -1.66900 32.90900 22.35500
C  -0.38100 32.42300 22.95400
N  -3.22900 33.01700 27.31000
C  -3.66400 32.29400 26.18400
C  -4.59600 31.22300 26.63800
C  -4.48700 31.34400 28.07600
C  -3.69000 32.45700 28.36200
C  -5.39000 30.31400 25.84400
C  -4.84900 30.74600 29.37300
O  -5.54400 29.73000 29.64100
C  -4.19800 31.64000 30.47200
C  -5.24800 32.04500 31.47300
O  -5.87500 33.06800 31.44400
O  -5.55000 31.00400 32.31000
C  -6.29800 31.35600 33.53900
H  -0.17600 37.16400 30.73600
H  -0.26400 37.36700 24.23700
H  -3.84900 32.05400 24.11400
H  -3.81000 34.31200 32.21700
H  -1.09800 35.63000 32.28000
H  -3.62200 37.30300 31.46300
H  -2.44500 37.68100 32.71900
H  -3.61700 36.48200 33.07400
H  -1.08400 33.53000 32.90500
H  -1.84800 32.27600 32.07900
H  -3.21100 31.70800 33.66500
H  -3.65000 33.32700 34.11800
H  1.57300 38.50000 30.28900
H  1.13600 39.89400 29.41600
H  2.57000 38.98100 28.90500
H  1.83500 40.73100 27.44700
H  2.54600 40.87400 25.81000
H  3.18500 39.64700 26.82500
H  -0.69800 35.37300 22.67400
H  -3.34700 34.28500 22.65500
H  -3.45100 36.47200 21.92400
H  -1.89800 36.84100 21.34500
H  -2.32500 37.52900 22.88000
H  -1.57100 33.23200 21.31900
H  -2.41800 32.12100 22.27600
H  0.27300 32.56100 22.09200
H  -0.51100 31.38700 23.26800
H  -0.17200 32.96300 23.87700
H  -4.84900 29.44600 25.46700
H  -5.60500 30.73100 24.86100
H  -6.27500 30.18300 26.46700
H  -3.54100 31.09400 31.14900
H  -5.90900 32.20000 34.10900
H  -6.20700 30.43500 34.11400
H  -7.33000 31.67500 33.39200

