158

Mg 35.12900 2.50000 29.74700
C  32.76900 3.16600 32.07200
C  37.58900 2.73000 32.23900
C  37.37700 1.84900 27.32500
C  32.63300 2.74900 27.27700
N  35.10700 2.90800 31.89700
C  34.09000 3.09600 32.68500
C  34.40400 3.15300 34.16800
C  35.96400 3.31100 34.04200
C  36.26200 2.90500 32.64200
C  36.45000 4.74600 34.43600
C  34.04600 1.88600 34.94900
C  33.83200 2.07500 36.45800
H  34.25600 3.42400 37.02500
N  37.18700 2.18900 29.79600
C  38.04800 2.30400 30.89600
C  39.35900 1.97000 30.53500
C  39.32000 1.63900 29.07400
C  37.91200 1.84700 28.63700
C  40.51600 2.06000 31.39800
C  40.46200 1.18200 28.11900
O  40.20800 0.80500 26.96600
C  41.90700 1.23600 28.61400
N  35.07700 2.34400 27.62800
C  36.13300 2.08900 26.85100
C  35.82400 2.09400 25.35700
C  34.28000 2.39500 25.34800
C  33.95000 2.41400 26.84300
C  36.62000 3.11900 24.41600
C  33.40700 1.49700 24.38800
C  32.46200 0.46000 25.01300
N  32.99100 2.87600 29.65600
C  32.11700 2.97700 28.60800
C  30.86200 3.25200 29.13400
C  31.03300 3.40500 30.52000
C  32.36300 3.10500 30.78100
C  29.61000 3.44000 28.34500
C  30.36600 3.72800 31.81400
O  29.16900 4.05400 32.04900
C  31.54500 3.48300 32.90600
C  31.67100 4.70400 33.72700
O  32.15100 5.75900 33.30100
O  30.96800 4.54600 34.90800
C  31.05200 5.76500 35.64500
H  38.31300 2.72500 33.05600
H  38.07000 1.64900 26.50600
H  31.88300 2.75900 26.48500
H  33.94300 4.04500 34.59300
H  36.45900 2.61000 34.71400
H  37.08400 4.63100 35.31500
H  35.65100 5.43200 34.71800
H  37.13500 5.15900 33.69700
H  34.82900 1.14900 34.77200
H  33.23700 1.45500 34.35900
H  34.39600 1.29100 36.96300
H  32.77000 2.03300 36.70000
H  40.15900 2.41100 32.36600
H  41.17300 2.80400 30.94700
H  40.91000 1.05100 31.52000
H  42.51000 1.32400 27.71100
H  42.16300 0.34400 29.18600
H  42.01500 2.19600 29.12000
H  35.98200 1.09500 24.95300
H  34.15100 3.42700 25.02300
H  37.31100 3.63200 25.08400
H  35.93700 3.87200 24.02300
H  37.13100 2.80100 23.50600
H  34.02400 0.92300 23.69700
H  32.74800 2.21400 23.89900
H  32.34400 -0.38500 24.33500
H  31.47400 0.89500 25.17000
H  32.97500 -0.01000 25.85200
H  29.64800 2.90700 27.39500
H  29.62300 4.46900 27.98600
H  28.64900 3.20900 28.80500
H  31.24900 2.60200 33.47600
H  30.47800 6.61200 35.26700
H  32.08700 6.07400 35.79300
H  30.62900 5.59600 36.63500
Mg 6.66000 53.67200 41.30100
C  6.32100 50.06200 41.16500
C  9.61000 53.33600 39.63500
C  6.73600 57.02000 40.89100
C  3.39000 53.86800 42.41700
N  7.71200 51.85100 40.55800
C  7.53200 50.49900 40.61800
C  8.79500 49.67500 40.06600
C  9.85400 50.81600 39.84000
C  8.95100 52.11600 39.96900
C  11.07300 50.85700 40.77900
C  8.50200 48.77300 38.85000
C  8.54800 49.39400 37.35700
H  7.39000 48.99700 36.40800
N  8.03500 55.03200 40.37000
C  9.23500 54.66700 39.82400
C  9.89100 55.83800 39.44600
C  9.05500 56.96500 39.71900
C  7.88000 56.38300 40.39800
C  11.27000 55.85400 38.68200
C  9.45000 58.39400 39.37400
O  10.42600 58.66100 38.76500
C  8.52300 59.52000 39.85900
N  5.27400 55.22900 41.43800
C  5.54600 56.51900 41.37900
C  4.35100 57.45300 41.79400
C  3.19800 56.39900 41.99700
C  3.98300 55.12100 41.93000
C  4.66200 58.45400 42.92500
C  2.03200 56.37800 40.93500
C  0.59600 56.61800 41.40500
N  5.27000 52.30200 41.87900
C  3.94700 52.56800 42.35400
C  3.27800 51.33600 42.67900
C  4.24400 50.32300 42.25600
C  5.35000 50.93700 41.67400
C  1.97200 51.04200 43.34500
C  4.38200 48.83700 42.09100
O  3.63100 47.94900 42.46400
C  5.75300 48.63100 41.39600
C  5.38200 47.97200 40.18400
O  4.69700 48.45100 39.27500
O  5.87200 46.67700 40.08100
C  5.47600 45.92200 38.86400
H  10.63200 53.30900 39.25300
H  6.71300 58.10900 40.96800
H  2.31200 53.87600 42.59200
H  9.15200 49.06500 40.89500
H  10.37300 50.73100 38.88600
H  11.38500 49.82900 40.96900
H  10.83500 51.44700 41.66300
H  11.90900 51.32500 40.25900
H  7.48500 48.41000 38.99400
H  9.11300 47.87100 38.87000
H  9.42600 49.08800 36.78800
H  8.63200 50.46700 37.53200
H  11.07700 55.78800 37.61200
H  11.93500 55.06200 39.02600
H  11.85900 56.74800 38.88900
H  7.51400 59.49600 39.44800
H  9.01800 60.48100 39.72300
H  8.54500 59.37600 40.93900
H  4.04900 58.13100 40.99600
H  2.85700 56.39200 43.03200
H  5.69200 58.54200 43.26900
H  4.01500 58.30800 43.79000
H  4.44600 59.43200 42.49500
H  2.08700 55.38500 40.48800
H  2.33700 57.09800 40.17500
H  0.68600 56.50800 42.48600
H  -0.20700 55.95800 41.07600
H  0.39000 57.66000 41.16000
H  1.67400 50.05500 42.99200
H  1.21100 51.68400 42.90200
H  2.17200 51.08300 44.41600
H  6.45700 47.94900 41.87400
H  6.22400 45.16200 38.63700
H  5.55500 46.59700 38.01200
H  4.45500 45.54600 38.93400

