158

Mg 24.42900 -5.18200 45.58300
C  26.21400 -2.48300 44.15500
C  21.72900 -4.42100 43.32500
C  23.04600 -8.14000 46.32800
C  27.32100 -6.00400 47.30000
N  24.05800 -3.57500 43.99600
C  24.89300 -2.57700 43.61200
C  24.29600 -1.73500 42.46500
C  22.84200 -2.24700 42.38500
C  22.79100 -3.48100 43.29600
C  21.75800 -1.18200 42.84400
C  25.10200 -1.93500 41.08100
C  25.49600 -0.66400 40.34200
H  25.39800 -0.80100 38.79200
N  22.55400 -6.10200 45.05100
C  21.61700 -5.64800 44.14200
C  20.57100 -6.62400 44.06500
C  20.80300 -7.61300 45.05300
C  22.17400 -7.33700 45.59200
C  19.37400 -6.40800 43.12000
C  19.84900 -8.73100 45.37700
O  18.66000 -8.67800 45.01700
C  20.14700 -9.83200 46.41300
N  25.07300 -6.87000 46.59700
C  24.33200 -7.92000 46.82400
C  25.00700 -8.90600 47.79200
C  26.45100 -8.35900 47.89500
C  26.34600 -6.96100 47.28500
C  24.21800 -9.00100 49.14800
C  27.62400 -9.27100 47.37600
C  28.87200 -9.49700 48.35500
N  26.35900 -4.32700 45.80600
C  27.37700 -4.85900 46.55200
C  28.55600 -3.90800 46.38800
C  28.14100 -2.99100 45.40500
C  26.78900 -3.29300 45.12600
C  29.90100 -4.05300 47.01200
C  28.53200 -1.89600 44.61100
O  29.63100 -1.34000 44.49500
C  27.32700 -1.51200 43.75300
C  27.06600 -0.05500 43.97300
O  26.41500 0.54100 44.80600
O  27.84200 0.65300 43.06000
C  27.77700 2.09900 43.13400
H  20.85300 -4.21900 42.70400
H  22.78200 -9.19200 46.45500
H  28.22000 -6.17300 47.89700
H  24.22900 -0.66100 42.64000
H  22.63600 -2.54700 41.35800
H  22.09600 -0.89500 43.83900
H  20.78000 -1.65400 42.94200
H  21.72300 -0.28600 42.22300
H  24.60300 -2.68000 40.46100
H  26.04000 -2.39100 41.39800
H  26.49200 -0.35900 40.66300
H  24.71600 0.05900 40.58300
H  19.58900 -6.98500 42.22000
H  19.16400 -5.37800 42.83100
H  18.45900 -6.81700 43.54800
H  20.81000 -9.43500 47.18200
H  20.83400 -10.52800 45.93100
H  19.23200 -10.26200 46.82000
H  24.91500 -9.83100 47.22300
H  26.64100 -8.32100 48.96800
H  23.25700 -8.50600 49.00800
H  24.74200 -8.76100 50.07300
H  24.00900 -10.06500 49.25900
H  28.04600 -8.81100 46.48300
H  27.28000 -10.23200 46.99400
H  28.84800 -10.47200 48.84200
H  28.83300 -8.67500 49.06900
H  29.76000 -9.48500 47.72200
H  30.06200 -3.68500 48.02600
H  30.59100 -3.44000 46.43100
H  30.29700 -5.06400 46.91700
H  27.60700 -1.62900 42.70600
H  27.02400 2.47400 42.44000
H  28.71600 2.51800 42.77200
H  27.56200 2.46800 44.13700
Mg 35.88400 48.93900 24.54500
C  36.32700 47.08200 27.56400
C  34.47500 51.46700 26.38300
C  35.31100 50.58000 21.64200
C  37.09000 46.08600 22.68100
N  35.31700 49.18500 26.69400
C  35.72200 48.38900 27.74800
C  35.35300 49.06000 29.12800
C  34.62500 50.38500 28.63000
C  34.85700 50.40600 27.14900
C  33.12100 50.50100 29.07800
C  36.61700 49.37400 30.06000
C  36.20700 49.05900 31.52200
H  35.01500 49.85800 32.20000
N  35.10500 50.71400 24.07300
C  34.49200 51.57900 24.98900
C  34.15700 52.82000 24.30400
C  34.40900 52.64500 22.92200
C  34.95200 51.31600 22.83600
C  33.74500 54.10900 25.00000
C  34.22700 53.66500 21.72200
O  34.50500 53.35300 20.53100
C  33.96200 55.13300 22.00800
N  36.13300 48.41300 22.47500
C  35.85100 49.30200 21.46600
C  35.83900 48.56700 20.11300
C  36.78600 47.31900 20.47600
C  36.64000 47.21000 21.99800
C  34.37700 48.26300 19.61100
C  38.24800 47.51000 20.26900
C  38.92500 46.59200 19.24300
N  36.41200 46.94700 24.94600
C  37.03900 45.94400 24.13000
C  37.48900 44.79300 24.94500
C  37.21200 45.25300 26.25200
C  36.63400 46.58200 26.23400
C  38.18600 43.48100 24.56600
C  37.32100 44.78000 27.58800
O  37.83200 43.72200 28.05700
C  36.78200 45.98800 28.47400
C  35.65100 45.52400 29.31200
O  34.62700 45.13600 28.86800
O  35.99100 45.46800 30.61700
C  35.03000 44.84300 31.56100
H  34.08900 52.27100 27.01300
H  35.14900 51.13300 20.71400
H  37.51700 45.19900 22.20800
H  34.67200 48.38500 29.64800
H  35.18400 51.26100 28.95900
H  32.99200 50.18700 30.11300
H  32.57800 49.94000 28.31800
H  32.87600 51.56300 29.05500
H  36.98100 50.38900 29.90000
H  37.44500 48.72000 29.78500
H  37.17100 49.09100 32.03100
H  35.78800 48.05400 31.48100
H  33.36000 53.82300 25.97900
H  32.97900 54.74900 24.56400
H  34.64800 54.69300 25.17900
H  32.92300 55.29000 22.29800
H  34.22100 55.71900 21.12600
H  34.57500 55.31700 22.89100
H  36.30200 49.21600 19.37000
H  36.28400 46.40600 20.15500
H  33.63700 48.54300 20.36000
H  34.32700 47.23000 19.26600
H  34.26400 48.79900 18.66900
H  38.84000 47.37200 21.17400
H  38.36100 48.52300 19.88200
H  38.18500 46.03300 18.66900
H  39.58100 45.85800 19.71000
H  39.41700 47.27300 18.54800
H  39.20100 43.60900 24.18800
H  37.59400 43.04100 23.76400
H  38.16900 42.83000 25.43900
H  37.56100 46.40300 29.11300
H  35.72400 44.32900 32.22500
H  34.46100 44.09600 31.00600
H  34.36500 45.59300 31.98800

