158

Mg 6.08700 54.40100 40.70500
C  4.77500 51.25900 40.74400
C  8.97000 53.27300 39.32100
C  7.08600 57.65800 40.36200
C  2.96800 55.66500 42.00800
N  6.65000 52.48400 40.02300
C  6.04700 51.30800 40.16400
C  6.82100 50.21900 39.57200
C  8.28500 50.80000 39.57500
C  7.95200 52.30600 39.61900
C  9.15000 50.30500 40.78500
C  6.28100 49.84100 38.11600
C  6.50400 48.40900 37.61600
H  5.77200 48.13800 36.34300
N  7.75300 55.32400 39.89200
C  8.90300 54.65900 39.48300
C  9.87100 55.67700 39.19200
C  9.34700 57.00200 39.49900
C  7.96100 56.69000 39.96700
C  11.29200 55.21200 38.60100
C  10.09200 58.29700 39.42900
O  11.31000 58.31100 39.28500
C  9.49500 59.67900 39.39700
N  4.98300 56.47800 40.92600
C  5.80700 57.61400 40.86500
C  5.02800 58.80800 41.52800
C  3.75200 58.06800 42.08900
C  3.89000 56.64600 41.65200
C  5.83200 59.61900 42.57500
C  2.39700 58.73900 41.68600
C  1.86300 59.85100 42.60100
N  4.29900 53.67900 41.32300
C  3.15800 54.28200 41.84600
C  2.20900 53.20000 42.21600
C  2.88300 52.01300 41.86500
C  4.09000 52.37300 41.28200
C  0.75200 53.35600 42.67400
C  2.76800 50.65300 41.92500
O  1.87400 49.92700 42.38200
C  4.03800 49.96700 41.27100
C  3.60800 48.91600 40.30900
O  2.77100 48.93500 39.49200
O  4.29600 47.80800 40.67900
C  3.77900 46.48900 40.27900
H  9.86000 52.77500 38.93200
H  7.38100 58.70200 40.48600
H  2.03800 55.90600 42.52700
H  6.69100 49.28600 40.11900
H  8.93600 50.59600 38.72500
H  10.16200 50.18600 40.39900
H  8.74300 49.40600 41.24900
H  9.27400 51.01200 41.60500
H  6.88500 50.36300 37.37300
H  5.29100 50.25700 37.92700
H  6.21400 47.62700 38.31800
H  7.53300 48.24600 37.29600
H  11.62700 54.57000 39.41500
H  12.00700 56.02200 38.45400
H  11.20300 54.53600 37.75100
H  8.46400 59.67000 39.04300
H  10.10100 60.29900 38.73500
H  9.49600 60.03400 40.42800
H  4.76200 59.39700 40.65100
H  3.86100 57.98000 43.17000
H  6.72200 59.03600 42.81200
H  5.30800 59.98700 43.45700
H  5.99400 60.50500 41.96100
H  1.62600 57.96900 41.72900
H  2.53000 59.01100 40.63900
H  2.66300 60.10400 43.29800
H  0.91300 59.55400 43.04600
H  1.58700 60.71500 41.99700
H  0.72900 54.28600 43.24300
H  0.48400 52.46000 43.23400
H  0.18000 53.45100 41.75100
H  4.52600 49.53500 42.14500
H  4.55600 45.73400 40.15700
H  3.22600 46.42400 39.34200
H  3.08800 46.26600 41.09300
Mg -11.51500 38.32000 42.05200
C  -9.25600 35.81600 41.43700
C  -9.52000 40.35200 39.91600
C  -14.07100 40.63800 41.77800
C  -13.82000 35.99800 43.13400
N  -9.61100 38.10600 40.76700
C  -8.95300 36.95400 40.65600
C  -7.72900 37.04500 39.78000
C  -7.76500 38.59800 39.38800
C  -8.99700 39.05800 40.01400
C  -6.51700 39.52800 39.83200
C  -7.77700 36.12500 38.58800
C  -6.50400 35.19300 38.34500
H  -5.45500 35.94200 37.56600
N  -11.74800 40.24900 41.13600
C  -10.77400 40.87200 40.41200
C  -11.23000 42.25000 40.22900
C  -12.54600 42.36500 40.65200
C  -12.82000 41.05400 41.24400
C  -10.38200 43.29000 39.65900
C  -13.39000 43.64900 40.55600
O  -12.92800 44.62800 40.09300
C  -14.78300 43.74300 40.93500
N  -13.69500 38.29900 42.30700
C  -14.49700 39.40000 42.22700
C  -15.94000 39.05100 42.57300
C  -15.86700 37.48400 42.82900
C  -14.40200 37.20600 42.77200
C  -16.71400 39.89600 43.67500
C  -16.74200 36.58600 41.85700
C  -17.52000 35.39900 42.41500
N  -11.51700 36.36700 42.39600
C  -12.47500 35.54300 42.96100
C  -11.94100 34.22000 43.25000
C  -10.68800 34.30400 42.66100
C  -10.48500 35.62200 42.10800
C  -12.58100 32.99100 43.69600
C  -9.48400 33.53200 42.35400
O  -9.20300 32.38400 42.55500
C  -8.51300 34.55200 41.59400
C  -7.22500 34.70900 42.34000
O  -6.30600 33.89700 42.22900
O  -7.09400 35.83300 43.14100
C  -5.80800 36.11800 43.72600
H  -8.89200 41.00400 39.30500
H  -14.80700 41.43100 41.92300
H  -14.59800 35.30800 43.46600
H  -6.79400 36.87100 40.31300
H  -7.91400 38.74400 38.31800
H  -6.75800 40.43200 40.39200
H  -5.89000 39.76000 38.97100
H  -5.84200 38.99200 40.49800
H  -7.84900 36.84000 37.76900
H  -8.68900 35.53600 38.49500
H  -6.83000 34.33200 37.76100
H  -5.99400 34.86200 39.25000
H  -10.12700 44.08900 40.35500
H  -11.00700 43.78000 38.91200
H  -9.50600 42.92400 39.12400
H  -14.79200 43.50500 41.99900
H  -15.29700 42.92200 40.43600
H  -15.19300 44.70000 40.61300
H  -16.51500 39.15700 41.65300
H  -16.24200 37.42700 43.85100
H  -16.03600 40.56800 44.20200
H  -17.31500 39.21900 44.28300
H  -17.44900 40.47400 43.11400
H  -16.04700 36.18200 41.12100
H  -17.41100 37.29200 41.36500
H  -17.54100 35.40300 43.50500
H  -17.26200 34.44400 41.95700
H  -18.60000 35.48000 42.29700
H  -11.83900 32.30700 44.10900
H  -13.05700 32.51600 42.83900
H  -13.28300 33.22400 44.49800
H  -8.25500 34.13600 40.62000
H  -5.22800 36.77400 43.07700
H  -5.30900 35.17100 43.93000
H  -5.97000 36.58500 44.69800

