158

Mg 3.30700 -0.21500 43.78200
C  6.31000 1.52200 43.69700
C  1.67900 2.72700 42.63700
C  0.41500 -1.94900 43.60300
C  5.09600 -3.05800 44.87400
N  3.99200 1.87800 43.26200
C  5.25600 2.31300 43.27800
C  5.23900 3.85400 42.89000
C  3.72700 4.17400 42.72200
C  3.04800 2.85300 42.93700
C  3.18300 5.31100 43.62800
C  6.04000 4.14900 41.52200
C  5.77200 3.28300 40.21500
H  6.07600 4.00300 38.84900
N  1.34800 0.27500 43.09800
C  0.86600 1.51700 42.76600
C  -0.50000 1.50600 42.51000
C  -0.90500 0.11600 42.61800
C  0.25900 -0.60300 43.13800
C  -1.23400 2.67000 41.87500
C  -2.27800 -0.48700 42.23200
O  -3.12500 0.30200 41.86800
C  -2.66800 -1.93600 42.30700
N  2.84500 -2.27500 44.24700
C  1.52800 -2.77500 44.06800
C  1.43800 -4.28700 44.53900
C  3.01900 -4.56600 44.86400
C  3.75400 -3.22600 44.58500
C  0.51300 -4.57600 45.77000
C  3.67000 -5.71600 43.99600
C  3.89100 -7.06300 44.75500
N  5.24200 -0.74800 44.19800
C  5.90400 -1.89400 44.59000
C  7.34800 -1.71700 44.72000
C  7.49700 -0.37000 44.35400
C  6.21600 0.12200 44.06900
C  8.37100 -2.69100 45.27200
C  8.60500 0.59600 44.26100
O  9.81400 0.55400 44.57600
C  7.76100 1.98400 43.81800
C  7.91700 2.99000 44.94800
O  8.38000 4.11000 44.87200
O  7.25500 2.52100 46.06600
C  7.09000 3.32100 47.20600
H  1.17400 3.64100 42.31600
H  -0.50900 -2.53200 43.62000
H  5.67200 -3.91200 45.23600
H  5.60000 4.52300 43.67200
H  3.45100 4.62600 41.77000
H  2.98300 6.13100 42.93700
H  3.96700 5.50300 44.36100
H  2.31500 5.11900 44.25800
H  7.10500 4.24600 41.73300
H  5.79800 5.18700 41.29400
H  4.78700 2.81700 40.19200
H  6.38500 2.43200 40.51100
H  -0.88300 2.77900 40.84900
H  -1.02800 3.59500 42.41400
H  -2.30400 2.49200 41.98300
H  -2.64400 -2.23300 43.35600
H  -1.98900 -2.48600 41.65600
H  -3.64100 -2.14800 41.86300
H  1.11400 -4.78300 43.62300
H  3.15400 -4.76800 45.92700
H  -0.03000 -3.68300 46.07900
H  0.96800 -4.77900 46.73900
H  -0.13200 -5.42000 45.52500
H  4.50400 -5.44700 43.34800
H  2.98800 -5.94300 43.17700
H  3.27700 -7.84800 44.31200
H  3.60400 -6.96700 45.80200
H  4.95600 -7.27700 44.66400
H  9.31600 -2.21100 45.52500
H  8.48900 -3.41800 44.46800
H  8.03800 -3.10500 46.22300
H  8.17600 2.36300 42.88500
H  7.63400 4.26200 47.12400
H  7.56900 2.73100 47.98700
H  6.03200 3.47600 47.41900
Mg 1.86900 7.96300 25.97700
C  2.36100 9.92700 28.84800
C  2.17400 5.15800 28.05500
C  1.68400 6.10600 23.32100
C  2.05000 10.86800 24.02300
N  2.17100 7.60600 28.22800
C  2.30000 8.60900 29.16900
C  2.42000 8.00000 30.60100
C  2.40100 6.48100 30.36500
C  2.26700 6.36300 28.81100
C  3.58900 5.64600 30.89100
C  1.14000 8.49700 31.52200
C  1.40600 8.68800 33.04900
H  2.58200 8.02700 33.76400
N  1.73000 5.92900 25.70700
C  1.84700 4.97600 26.65000
C  1.73100 3.66100 26.06300
C  1.53900 3.93400 24.69300
C  1.71700 5.38000 24.47200
C  1.90900 2.41400 26.79300
C  1.09600 2.88100 23.67900
O  1.10600 3.21500 22.48100
C  0.71300 1.54300 24.02500
N  1.91700 8.48400 23.92900
C  1.74300 7.51300 23.07700
C  1.61300 8.09100 21.65600
C  1.67000 9.66400 21.85400
C  1.77500 9.70400 23.36100
C  2.73000 7.55000 20.66700
C  0.39900 10.46700 21.41700
C  0.71700 11.80100 20.67400
N  2.15900 9.97600 26.30400
C  2.15900 11.06600 25.41100
C  2.19500 12.35200 26.16300
C  2.28200 11.91500 27.48900
C  2.19400 10.49800 27.53000
C  2.31200 13.69300 25.51500
C  2.54100 12.37500 28.89500
O  2.68600 13.48400 29.35400
C  2.55100 11.11700 29.76200
C  3.90400 11.15900 30.35500
O  4.89000 10.54700 29.98300
O  3.81000 11.71200 31.63200
C  4.94700 11.74300 32.54000
H  2.25100 4.28300 28.70500
H  1.49900 5.53400 22.40900
H  2.22500 11.74200 23.39100
H  3.38900 8.21100 31.05300
H  1.56400 5.99000 30.86200
H  4.24900 5.34400 30.07700
H  3.22800 4.76900 31.42700
H  4.17200 6.12800 31.67500
H  0.35500 7.76300 31.34100
H  0.82400 9.43500 31.06500
H  0.50800 8.34800 33.56400
H  1.49200 9.77300 33.10800
H  1.17200 2.17900 27.56000
H  2.89200 2.32600 27.25700
H  2.02500 1.60300 26.07400
H  1.60600 0.91700 24.03500
H  0.01000 1.25300 23.24400
H  0.19300 1.41500 24.97500
H  0.64300 7.75800 21.28600
H  2.49600 10.17400 21.35900
H  3.72500 7.48400 21.10700
H  2.88500 8.13800 19.76300
H  2.47000 6.52800 20.39100
H  -0.17800 10.91500 22.22500
H  -0.41700 9.96000 20.90200
H  1.35300 12.51700 21.19500
H  -0.08600 12.41500 20.26700
H  1.35900 11.60500 19.81600
H  1.43700 14.27100 25.81000
H  2.34000 13.51800 24.43900
H  3.24600 14.04400 25.95300
H  1.83300 11.19200 30.57900
H  5.36800 12.74800 32.56200
H  5.69600 10.97400 32.35200
H  4.49900 11.56500 33.51800

