158

Mg 34.98900 3.33000 29.38500
C  33.12800 4.38600 32.14300
C  37.71900 3.04700 31.60500
C  36.96100 2.32300 26.87000
C  32.43500 4.03000 27.39500
N  35.35100 3.66300 31.64200
C  34.46700 4.08500 32.56000
C  34.97500 4.04600 33.98900
C  36.52600 3.79600 33.78500
C  36.52200 3.45000 32.25400
C  37.30400 5.10700 34.20500
C  34.32500 2.92500 34.87300
C  34.14200 3.08900 36.40500
H  34.77500 4.29000 37.06500
N  37.08000 2.83300 29.27900
C  38.06300 2.77900 30.29100
C  39.34600 2.29300 29.72600
C  39.13900 2.02900 28.31000
C  37.70800 2.45800 28.09000
C  40.55500 2.16400 30.63700
C  40.01000 1.45900 27.22100
O  39.54900 1.28400 26.07500
C  41.27600 0.93300 27.63600
N  34.77100 3.31600 27.45700
C  35.62600 2.64600 26.60900
C  35.07900 2.44900 25.17400
C  33.68500 3.05900 25.35700
C  33.56900 3.48700 26.87000
C  35.92500 3.16100 24.02700
C  32.54800 2.04900 24.93400
C  31.73600 2.64900 23.78600
N  33.16300 3.94400 29.65100
C  32.18200 4.17500 28.72200
C  30.83800 4.48800 29.38900
C  31.23300 4.63700 30.75600
C  32.64800 4.32000 30.86500
C  29.49200 4.73700 28.73800
C  30.73800 4.93000 32.05300
O  29.62100 5.20100 32.42500
C  31.92500 4.87700 32.94900
C  31.95300 6.17800 33.54800
O  32.61400 7.12600 33.21800
O  31.22100 6.17300 34.72500
C  31.34700 7.38300 35.58100
H  38.58900 3.07700 32.26500
H  37.35500 1.96500 25.91600
H  31.60100 4.05900 26.69100
H  34.73800 5.04800 34.34700
H  36.95200 2.93200 34.29700
H  38.29500 4.86600 34.58900
H  36.70900 5.54000 35.00900
H  37.46900 5.72900 33.32600
H  34.77900 1.96000 34.64600
H  33.29400 2.90700 34.52100
H  34.55100 2.24700 36.96400
H  33.07500 3.19800 36.59800
H  41.26900 1.42900 30.26700
H  40.18600 1.80100 31.59700
H  41.24600 3.00700 30.64600
H  41.80000 1.81700 27.99800
H  41.70800 0.48500 26.74100
H  41.18700 0.08800 28.31800
H  35.04200 1.37600 24.98900
H  33.69100 3.95900 24.74300
H  36.67100 2.45400 23.66300
H  36.41300 4.09500 24.30700
H  35.25900 3.37300 23.19100
H  31.80400 2.01700 25.73000
H  32.97200 1.06900 24.71600
H  31.28700 1.78700 23.29200
H  32.32800 3.20300 23.05700
H  30.93000 3.22200 24.24500
H  28.92800 3.82100 28.56400
H  29.57100 5.38200 27.86300
H  28.88500 5.27200 29.46900
H  31.82700 4.11100 33.71900
H  30.99800 8.34300 35.20000
H  32.39800 7.41400 35.87000
H  30.89300 7.17500 36.55000
Mg 50.11400 46.43600 42.44400
C  46.59700 46.69300 41.31700
C  50.17900 43.28500 41.00000
C  53.39400 46.48800 42.49000
C  49.81500 49.76600 43.37900
N  48.57300 45.11300 41.45600
C  47.27700 45.46500 41.07300
C  46.68300 44.27300 40.27300
C  47.67800 43.11900 40.45100
C  48.92200 43.89500 41.02500
C  47.13900 41.92500 41.30100
C  46.40300 44.79400 38.88000
C  44.93900 44.49800 38.32200
H  44.85600 43.65400 37.14400
N  51.59900 45.07100 41.79500
C  51.38100 43.86400 41.24700
C  52.63200 43.13900 41.21000
C  53.63100 44.06600 41.49500
C  52.89800 45.27400 41.95100
C  52.77400 41.62000 40.84800
C  55.08700 43.77200 41.50400
O  55.40700 42.58400 41.50600
C  56.13700 44.77200 41.64900
N  51.46200 47.98500 42.80500
C  52.78800 47.70300 42.85700
C  53.49400 48.96400 43.32100
C  52.33500 49.93100 43.84000
C  51.07800 49.20300 43.26100
C  54.49000 48.76200 44.48600
C  52.57300 51.41800 43.41400
C  52.01400 52.54200 44.30400
N  48.48500 47.94900 42.60400
C  48.53300 49.26800 43.05900
C  47.22200 49.92900 42.87400
C  46.47200 48.90700 42.20700
C  47.23900 47.73900 42.11300
C  46.80600 51.33900 43.16300
C  45.10900 48.60400 41.58500
O  44.16000 49.36500 41.34500
C  45.21500 47.16300 41.01100
C  44.24600 46.28100 41.80600
O  44.50000 45.66100 42.80600
O  42.99800 46.34000 41.26400
C  42.03600 45.35100 41.78500
H  50.06300 42.28100 40.58500
H  54.47200 46.55200 42.65400
H  49.88600 50.82500 43.63900
H  45.74100 43.89800 40.67500
H  47.81100 42.75400 39.43200
H  47.04500 41.00100 40.73000
H  46.10000 42.06600 41.59900
H  47.75200 41.86500 42.20000
H  47.11000 44.44300 38.12800
H  46.55400 45.87300 38.83600
H  44.45400 45.47300 38.26400
H  44.31700 44.09900 39.12400
H  53.39300 41.75400 39.96100
H  51.91700 41.05200 40.48600
H  53.34800 41.04300 41.57300
H  55.66000 45.67900 41.27900
H  56.88200 44.45100 40.92000
H  56.53900 44.79900 42.66200
H  54.03200 49.44500 42.50400
H  52.14800 49.89800 44.91400
H  54.59400 49.67700 45.06900
H  55.43000 48.31700 44.16100
H  54.00600 47.94100 45.01600
H  52.04500 51.55200 42.47000
H  53.63000 51.64000 43.26400
H  51.38400 53.20800 43.71400
H  52.76500 53.16600 44.78700
H  51.38400 52.15800 45.10700
H  46.03100 51.67300 42.47300
H  47.66700 52.00800 43.19100
H  46.38600 51.41600 44.16500
H  44.87100 47.26900 39.98200
H  41.75700 44.70400 40.95300
H  41.05700 45.71500 42.09800
H  42.51500 44.59800 42.41100

