158

Mg 1.54200 -1.51700 43.98800
C  5.05200 -0.90500 43.56200
C  1.02100 1.58200 42.46400
C  -1.57700 -2.39800 43.57600
C  2.34000 -4.74700 45.04900
N  2.84900 0.14700 43.14900
C  4.26200 0.16800 42.99300
C  4.76000 1.38600 42.28700
C  3.50500 2.31900 42.42700
C  2.36900 1.27000 42.68900
C  3.57000 3.33000 43.58400
C  5.22100 1.19100 40.89900
C  6.65500 1.68500 40.63600
H  6.83300 2.39800 39.27800
N  -0.12600 -0.46600 43.21200
C  -0.17800 0.75500 42.57900
C  -1.52100 1.10300 42.26800
C  -2.30800 -0.01000 42.63200
C  -1.34200 -1.03200 43.17400
C  -1.84500 2.54600 41.68300
C  -3.81000 -0.11900 42.40600
O  -4.47100 0.79900 41.88900
C  -4.54100 -1.43300 42.68600
N  0.57400 -3.36900 44.00700
C  -0.75200 -3.39800 44.01900
C  -1.31500 -4.67500 44.55000
C  -0.05300 -5.46800 45.02100
C  1.03200 -4.46100 44.70200
C  -2.53200 -4.63300 45.56500
C  0.12200 -6.81700 44.25000
C  0.46400 -8.03400 45.11500
N  3.27900 -2.67500 44.29600
C  3.45500 -3.90900 44.83900
C  4.88500 -4.18800 44.89400
C  5.52800 -3.03600 44.38500
C  4.52300 -2.17300 44.00800
C  5.54000 -5.46800 45.36400
C  6.85100 -2.39700 44.14800
O  7.96600 -2.83100 44.45100
C  6.53000 -1.00900 43.50100
C  7.31200 0.01600 44.24500
O  7.11500 0.34500 45.40700
O  8.28200 0.53900 43.42100
C  9.08500 1.66100 43.94100
H  0.87600 2.62000 42.15800
H  -2.58000 -2.79400 43.40500
H  2.39500 -5.71500 45.55100
H  5.58700 1.79600 42.86800
H  3.26700 2.82600 41.49200
H  3.15600 2.76700 44.42100
H  3.00900 4.22200 43.30500
H  4.57900 3.64400 43.85000
H  4.58000 1.61100 40.12400
H  5.30400 0.12800 40.67200
H  7.26600 0.78200 40.62900
H  7.13700 2.34500 41.35700
H  -2.71700 2.47900 41.03200
H  -0.99700 2.99000 41.16200
H  -2.05900 3.31800 42.42400
H  -5.57800 -1.10200 42.73500
H  -4.15700 -1.81000 43.63400
H  -4.45600 -2.09200 41.82100
H  -1.75100 -5.12600 43.65900
H  0.02600 -5.59800 46.10100
H  -2.24600 -5.33500 46.34900
H  -3.46700 -4.86800 45.05700
H  -2.66900 -3.59700 45.87400
H  0.94700 -6.69500 43.54800
H  -0.84600 -7.04700 43.80700
H  1.18700 -8.75900 44.74300
H  -0.47600 -8.57100 45.24400
H  0.69700 -7.81400 46.15700
H  6.61500 -5.43900 45.18600
H  5.08500 -6.33000 44.87600
H  5.18600 -5.66300 46.37600
H  6.87100 -1.01400 42.46500
H  8.88200 2.56200 43.36200
H  10.15100 1.43600 43.90000
H  8.75300 1.84600 44.96200
Mg 0.11700 43.75700 26.84000
C  2.48000 43.45300 29.35100
C  -2.29100 42.59900 28.98100
C  -2.00700 43.46500 24.20400
C  2.78600 44.57900 24.58800
N  0.15200 43.12000 28.95500
C  1.17500 43.33600 29.83100
C  0.73000 43.04000 31.30000
C  -0.69800 42.38900 31.05800
C  -1.01000 42.66700 29.56600
C  -0.85200 40.92900 31.33600
C  0.73700 44.38000 32.19000
C  1.22200 44.25400 33.65100
H  0.64300 43.12400 34.46600
N  -1.87400 43.08300 26.58100
C  -2.67800 42.67100 27.62900
C  -3.98700 42.44600 27.11000
C  -3.93600 42.57600 25.66800
C  -2.54700 43.03500 25.39900
C  -5.13900 42.07500 27.97400
C  -5.01500 42.42400 24.67300
O  -4.80900 42.60400 23.50400
C  -6.41000 42.09600 25.08800
N  0.36400 43.91400 24.77700
C  -0.74200 43.91500 23.95800
C  -0.39600 44.29400 22.55700
C  1.10400 44.74100 22.60200
C  1.49800 44.42300 24.10900
C  -0.76400 43.19800 21.49500
C  1.34600 46.23000 22.21400
C  1.14800 47.23500 23.37200
N  2.20500 43.99600 26.90700
C  3.19000 44.26800 25.92000
C  4.52000 44.25200 26.50800
C  4.28400 43.91900 27.78900
C  2.86500 43.79300 28.00900
C  5.88900 44.43900 25.83600
C  4.93400 43.50400 29.05100
O  6.08600 43.23200 29.30800
C  3.81200 43.40500 30.10000
C  3.84200 42.13200 30.84000
O  3.48100 41.04100 30.45100
O  4.31000 42.36700 32.05200
C  4.39500 41.23900 33.01300
H  -3.03100 42.07600 29.59100
H  -2.63700 43.51300 23.31300
H  3.53700 44.90900 23.86800
H  1.41000 42.36700 31.82200
H  -1.48100 42.96100 31.55400
H  -1.41400 40.51300 30.50000
H  -1.49700 40.81600 32.20700
H  0.04300 40.30700 31.35100
H  -0.25700 44.82600 32.19800
H  1.41100 45.03200 31.63300
H  0.84000 45.16100 34.12000
H  2.30600 44.15100 33.60800
H  -4.85900 41.70400 28.96000
H  -5.63000 41.23200 27.48900
H  -5.81000 42.92800 28.07600
H  -6.43200 41.09400 25.51500
H  -7.08200 42.12300 24.23000
H  -6.76300 42.87000 25.77000
H  -1.00800 45.18800 22.43700
H  1.74400 44.09800 21.99700
H  0.21900 42.98200 21.07700
H  -1.55700 43.55300 20.83800
H  -0.99100 42.21100 21.90000
H  0.69900 46.53600 21.39100
H  2.38000 46.39400 21.90800
H  0.57000 48.09100 23.02700
H  2.11000 47.58500 23.74600
H  0.63400 46.80600 24.23200
H  5.71400 44.59600 24.77200
H  6.61500 43.63100 25.92900
H  6.32200 45.36800 26.20600
H  3.93800 44.25800 30.76600
H  3.67500 40.43300 32.86600
H  4.07900 41.61200 33.98800
H  5.37800 40.76700 33.01800

