158

Mg 17.21800 52.14300 26.56000
C  18.84800 50.78100 29.24800
C  14.70400 53.14600 28.67800
C  15.36800 52.94300 23.82900
C  19.50700 50.67300 24.47800
N  16.82900 51.99300 28.75500
C  17.68800 51.44700 29.63100
C  17.18500 51.64700 31.02600
C  15.72400 52.31100 30.87600
C  15.73400 52.53300 29.38400
C  14.60600 51.38200 31.44200
C  18.14400 52.56000 31.85600
C  18.07600 52.43900 33.38200
H  17.13800 51.38200 34.01300
N  15.34300 53.00200 26.32100
C  14.40300 53.23600 27.30700
C  13.35500 54.01000 26.70500
C  13.55300 53.94000 25.32100
C  14.79100 53.17900 25.09500
C  12.24800 54.77400 27.54200
C  12.63400 54.49600 24.18800
O  12.81000 54.32100 23.00200
C  11.29600 55.08200 24.65200
N  17.41700 51.90100 24.39600
C  16.61000 52.41500 23.47100
C  17.18300 52.35500 22.02800
C  18.62100 51.72700 22.36500
C  18.52300 51.41200 23.89300
C  16.41300 51.39200 21.02700
C  19.81500 52.62400 21.86900
C  20.49200 52.14700 20.55600
N  18.90300 50.98500 26.78500
C  19.75200 50.40300 25.83500
C  20.80000 49.76200 26.48100
C  20.50100 49.84900 27.81400
C  19.27100 50.55500 27.92800
C  21.99300 49.07700 25.94300
C  20.98000 49.53500 29.15400
O  21.92700 48.85600 29.54700
C  19.89000 50.08300 30.09200
C  19.41900 48.86300 30.88000
O  18.87300 47.89100 30.37100
O  19.63100 48.96200 32.25200
C  19.21900 47.83900 33.14200
H  13.88400 53.58000 29.25500
H  14.80300 53.31700 22.97300
H  20.24600 50.19000 23.83500
H  17.15000 50.69400 31.55300
H  15.70400 53.27400 31.38600
H  14.04600 51.93500 32.19600
H  14.94400 50.40500 31.78600
H  13.94800 51.24600 30.58400
H  17.91800 53.58300 31.55700
H  19.17000 52.40200 31.52200
H  17.99100 53.41300 33.86400
H  19.07900 52.06900 33.59600
H  12.17100 55.83800 27.32100
H  12.45900 54.56000 28.59000
H  11.27600 54.32500 27.33800
H  10.69500 55.27700 23.76300
H  11.54700 56.03300 25.12100
H  10.69800 54.33800 25.17800
H  17.26300 53.40900 21.76300
H  18.76700 50.73200 21.94500
H  15.37100 51.41700 21.34500
H  16.84500 50.39300 20.97100
H  16.49300 51.77800 20.01000
H  20.50700 52.91000 22.66200
H  19.41700 53.57900 21.52400
H  19.80200 51.44900 20.08000
H  21.41000 51.59500 20.75500
H  20.64000 53.02800 19.93200
H  21.80900 48.21100 25.30600
H  22.56700 48.84400 26.84000
H  22.64300 49.74000 25.37100
H  20.33700 50.71700 30.85700
H  18.21700 47.43300 33.00200
H  19.27800 48.06900 34.20600
H  19.86400 46.96800 33.02500
Mg -2.07700 34.76500 27.22500
C  -3.55900 33.00400 30.00400
C  -0.57300 36.73500 29.24100
C  -0.75700 36.04300 24.44000
C  -3.98600 32.50500 25.17600
N  -2.21400 34.87700 29.29000
C  -2.81100 34.21700 30.28900
C  -2.50000 34.77100 31.70700
C  -1.72500 36.07700 31.38600
C  -1.51500 35.86100 29.88600
C  -2.30800 37.46200 31.74100
C  -1.64300 33.68700 32.49700
C  -2.35300 33.04800 33.68200
H  -1.77900 33.30100 35.13000
N  -0.88700 36.16600 26.90200
C  -0.21300 36.85300 27.88900
C  0.74100 37.75300 27.28400
C  0.74200 37.49900 25.92300
C  -0.34200 36.56200 25.68300
C  1.51800 38.69000 28.19200
C  1.55300 38.23800 24.78100
O  1.29800 38.17600 23.63600
C  2.58700 39.29200 25.22800
N  -2.49300 34.44100 25.05100
C  -1.69000 35.05300 24.13900
C  -2.21700 34.71100 22.74900
C  -2.98700 33.34500 23.02200
C  -3.17800 33.41000 24.53400
C  -3.08900 35.89500 22.23600
C  -2.38500 32.04600 22.50400
C  -1.02300 31.57900 23.08000
N  -3.48200 33.11100 27.45400
C  -4.15000 32.31800 26.53600
C  -4.94200 31.32300 27.13500
C  -4.68000 31.50500 28.48400
C  -3.83500 32.63500 28.68000
C  -5.74600 30.22200 26.46800
C  -4.84400 30.96800 29.83700
O  -5.40300 29.96400 30.19500
C  -4.23700 31.97500 30.84300
C  -5.36500 32.48300 31.67400
O  -6.05200 33.41800 31.31100
O  -5.55300 31.70600 32.75600
C  -6.52800 32.22600 33.68700
H  -0.07900 37.29700 30.03600
H  -0.40100 36.59900 23.57000
H  -4.33400 31.70500 24.52000
H  -3.41600 35.00200 32.24900
H  -0.75800 36.06700 31.88900
H  -2.75100 37.85700 30.82700
H  -1.50500 38.14600 32.01500
H  -3.03700 37.36600 32.54600
H  -0.69700 34.19200 32.69100
H  -1.49100 32.85200 31.81200
H  -2.49400 31.98000 33.52100
H  -3.35600 33.47100 33.62200
H  2.53500 38.47000 27.86500
H  1.36900 38.63300 29.27100
H  1.35300 39.70900 27.84200
H  3.40700 38.65000 25.55000
H  2.30100 39.92100 26.07200
H  2.98800 39.92200 24.43400
H  -1.37400 34.56900 22.07200
H  -4.01700 33.34700 22.66500
H  -2.86100 36.79100 22.81300
H  -4.15800 35.70500 22.32400
H  -2.75800 36.06800 21.21200
H  -2.18000 32.23500 21.45000
H  -3.10600 31.22800 22.51400
H  -0.89400 32.10100 24.02800
H  -0.29500 31.90500 22.33600
H  -1.05500 30.51000 23.29300
H  -5.33200 30.01200 25.48200
H  -6.77300 30.55800 26.32600
H  -5.70300 29.34700 27.11700
H  -3.61000 31.39900 31.52300
H  -6.25000 33.13800 34.21500
H  -6.80000 31.45000 34.40200
H  -7.45600 32.48500 33.17800

