158

Mg 2.31600 -0.63100 44.12600
C  5.62200 0.33300 43.97500
C  1.39700 2.54100 43.09400
C  -0.76300 -1.66100 43.95600
C  3.53300 -3.98100 44.61800
N  3.41400 1.21500 43.37400
C  4.75800 1.39500 43.57100
C  5.17900 2.82500 43.25400
C  3.77200 3.53900 43.16300
C  2.78000 2.40000 43.16100
C  3.53400 4.53100 44.36600
C  5.97700 2.94400 41.94800
C  5.46100 2.18100 40.72300
H  5.32100 2.98700 39.42800
N  0.54000 0.40500 43.61000
C  0.32500 1.66900 43.16900
C  -1.10900 1.92000 42.97200
C  -1.72300 0.66700 43.11500
C  -0.65800 -0.23700 43.57600
C  -1.75800 3.18800 42.46600
C  -3.24200 0.36500 42.98900
O  -3.95600 1.17100 42.46400
C  -3.85500 -0.92800 43.60000
N  1.52100 -2.58500 44.21000
C  0.18100 -2.68300 44.35500
C  -0.23400 -4.15900 44.62000
C  1.08400 -4.92700 44.57000
C  2.13800 -3.80500 44.47200
C  -1.07600 -4.41600 45.84200
C  1.22800 -5.88000 43.35400
C  1.82300 -7.34200 43.48700
N  4.13900 -1.68200 44.37600
C  4.51200 -2.92700 44.75200
C  5.93800 -3.00000 45.02800
C  6.38900 -1.73800 44.71100
C  5.27600 -0.98400 44.30100
C  6.68400 -4.11000 45.61100
C  7.64200 -0.96400 44.55400
O  8.80800 -1.23000 44.78400
C  7.11000 0.50500 44.18900
C  7.46800 1.53200 45.19800
O  8.37800 2.36500 45.08300
O  6.76800 1.43400 46.44100
C  6.87400 2.62400 47.29600
H  0.99100 3.53700 42.90700
H  -1.74000 -2.12300 44.11200
H  3.83900 -4.98900 44.90500
H  5.86900 3.11500 44.04600
H  3.68900 4.09500 42.23000
H  4.29000 4.27900 45.10900
H  2.54700 4.28900 44.76100
H  3.57200 5.56600 44.02700
H  6.93800 2.46000 42.12000
H  6.24300 3.98700 41.77700
H  4.54100 1.66000 40.98800
H  6.15300 1.38300 40.45100
H  -1.10600 4.00700 42.77000
H  -2.59300 3.51000 43.08900
H  -2.03600 3.08800 41.41700
H  -3.56600 -1.08500 44.63900
H  -3.74500 -1.71500 42.85500
H  -4.84800 -0.48300 43.65800
H  -0.86900 -4.45400 43.78500
H  1.24900 -5.56300 45.44000
H  -1.81000 -3.63200 46.02900
H  -0.50000 -4.55700 46.75600
H  -1.72200 -5.28700 45.73200
H  1.79600 -5.38400 42.56600
H  0.26100 -6.00100 42.86600
H  1.04600 -8.09300 43.34300
H  2.33500 -7.47100 44.44000
H  2.60200 -7.58800 42.76500
H  5.91200 -4.81600 45.92000
H  7.33200 -3.71800 46.39500
H  7.31800 -4.47400 44.80300
H  7.57200 0.74300 43.23100
H  7.88800 3.00600 47.40900
H  6.42600 2.49200 48.28100
H  6.19200 3.30100 46.78200
Mg -8.88000 40.95800 42.83200
C  -7.91500 37.68300 41.92400
C  -6.05700 42.15300 41.11100
C  -10.02500 44.16400 43.15200
C  -11.95900 39.66700 43.75100
N  -7.31000 40.02800 41.60200
C  -7.02200 38.68800 41.51700
C  -5.80800 38.41400 40.63900
C  -5.04700 39.82000 40.74800
C  -6.17100 40.75300 41.20300
C  -3.94500 39.91800 41.78300
C  -6.18200 37.79300 39.21300
C  -5.47200 36.44800 38.74700
H  -4.48300 36.60100 37.56500
N  -8.22200 42.88200 42.00400
C  -6.96900 43.20300 41.46300
C  -6.77200 44.63800 41.46200
C  -7.95800 45.22000 42.14400
C  -8.82300 44.08600 42.37400
C  -5.50200 45.25000 40.88100
C  -8.18500 46.68700 42.44500
O  -7.36500 47.46600 42.10900
C  -9.36200 47.24400 43.12300
N  -10.70900 41.76500 43.38700
C  -10.91500 43.14800 43.53000
C  -12.26000 43.43700 44.24200
C  -12.91600 41.96100 44.22400
C  -11.81800 41.03400 43.82100
C  -12.24500 44.11200 45.61800
C  -14.16700 41.77900 43.41700
C  -15.52200 41.72000 44.18800
N  -9.66600 39.07200 43.05500
C  -10.97100 38.70000 43.41000
C  -11.03700 37.32700 43.50600
C  -9.82700 36.80900 42.92800
C  -9.10700 37.91600 42.59800
C  -12.13100 36.54300 44.13400
C  -9.03400 35.64500 42.50000
O  -9.40700 34.49000 42.45600
C  -7.80500 36.16500 41.84900
C  -6.69600 35.57000 42.63600
O  -6.63700 35.67400 43.85600
O  -5.74800 34.93600 41.85800
C  -4.57600 34.41600 42.56600
H  -5.14900 42.52400 40.63000
H  -10.35800 45.16400 43.43700
H  -12.91100 39.27600 44.11700
H  -5.23100 37.60700 41.08900
H  -4.69100 40.27500 39.82400
H  -3.09000 40.23900 41.18600
H  -3.90600 38.91100 42.19800
H  -4.12500 40.57300 42.63600
H  -5.87400 38.63300 38.59000
H  -7.23500 37.69100 38.95000
H  -6.22000 35.67200 38.58600
H  -4.94700 36.07900 39.62800
H  -5.72700 46.11300 40.25500
H  -4.99300 44.48100 40.30000
H  -4.74400 45.62900 41.56600
H  -9.16600 48.31200 43.22400
H  -9.48800 46.89200 44.14700
H  -10.28000 47.05400 42.56600
H  -12.74900 44.11700 43.54500
H  -13.22100 41.82700 45.26100
H  -13.01500 44.88200 45.58500
H  -11.24600 44.52800 45.74900
H  -12.41900 43.51500 46.51200
H  -14.10300 40.89800 42.77800
H  -14.26300 42.70000 42.84100
H  -15.34900 41.64300 45.26200
H  -16.07100 40.79700 44.00300
H  -16.06100 42.64900 44.00100
H  -12.90300 36.45100 43.36900
H  -12.48100 36.88200 45.10900
H  -11.68900 35.58600 44.40900
H  -7.72200 35.81500 40.82000
H  -4.63900 33.32900 42.52600
H  -4.37900 34.67600 43.60600
H  -3.69300 34.72200 42.00400

