158

Mg 30.18400 57.96100 41.16400
C  27.49500 56.50300 39.52300
C  32.24000 55.67600 39.75500
C  32.72700 60.08100 41.65400
C  27.92500 60.56000 41.99100
N  29.91100 56.35100 39.79500
C  28.72400 55.85000 39.33200
C  28.93700 54.54300 38.57900
C  30.41300 54.17100 39.02300
C  30.89300 55.46300 39.74600
C  30.69300 52.90600 39.85000
C  28.69300 54.68100 37.00800
C  27.73800 53.61900 36.36400
H  26.83100 54.21500 35.23300
N  32.31800 57.92400 40.77600
C  32.93600 56.81700 40.22700
C  34.32500 57.05400 40.15000
C  34.58100 58.38700 40.73500
C  33.20500 58.84500 41.07400
C  35.12100 56.06000 39.53600
C  35.88100 59.06600 40.91500
O  36.93300 58.60800 40.40600
C  35.99500 60.34900 41.60700
N  30.33200 60.01600 41.79300
C  31.47100 60.62200 42.01100
C  31.32500 62.06000 42.53500
C  29.82800 62.19900 42.82100
C  29.31700 60.83200 42.16700
C  32.28300 62.40000 43.70900
C  29.22100 63.47000 42.14200
C  27.97400 64.05900 42.84500
N  28.09600 58.28600 41.10400
C  27.33100 59.37200 41.51600
C  25.87600 59.23700 41.19800
C  25.92200 58.12800 40.30700
C  27.26400 57.60400 40.29500
C  24.79200 60.12700 41.44300
C  25.12500 57.26900 39.48500
O  23.90800 57.30000 39.19700
C  26.14800 56.15100 38.99100
C  25.76800 54.79100 39.53400
O  26.09000 54.23200 40.57000
O  25.02200 54.27100 38.56200
C  24.26000 53.02700 38.75800
H  32.83400 54.80400 39.47700
H  33.49100 60.84900 41.79000
H  27.20900 61.32300 42.30400
H  28.28800 53.78300 39.01400
H  31.03000 54.01000 38.13900
H  31.53100 52.38300 39.38900
H  29.80500 52.32700 40.10400
H  31.02800 53.24500 40.83000
H  29.64800 54.51000 36.51000
H  28.19700 55.62300 36.77200
H  27.00900 53.22400 37.07100
H  28.27100 52.78000 35.91800
H  34.76000 55.95700 38.51300
H  35.08200 55.12900 40.10200
H  36.19700 56.21700 39.46400
H  35.63500 61.09000 40.89300
H  37.03800 60.49700 41.88600
H  35.39100 60.28100 42.51200
H  31.65700 62.69400 41.71300
H  29.56600 62.20600 43.87900
H  31.88600 63.11400 44.43100
H  33.17300 62.78600 43.21300
H  32.57200 61.53200 44.30200
H  28.93600 63.36200 41.09600
H  29.92700 64.30100 42.14300
H  28.14500 65.06800 43.22200
H  27.58400 63.33800 43.56300
H  27.13400 64.05100 42.14900
H  24.72500 60.92100 40.70000
H  25.08200 60.51400 42.42000
H  23.84400 59.59100 41.39500
H  26.25500 56.11900 37.90600
H  24.83500 52.37200 39.41300
H  24.00100 52.52700 37.82500
H  23.32400 53.18700 39.29400
Mg -9.63300 38.86300 39.80200
C  -8.77500 35.54300 39.30300
C  -6.28600 39.75300 39.06000
C  -10.59700 42.06000 39.21600
C  -13.01300 37.92200 40.15800
N  -7.69100 37.77700 39.35500
C  -7.64800 36.49000 39.13600
C  -6.20100 36.05000 38.89800
C  -5.36600 37.33500 39.15000
C  -6.43600 38.42200 39.22900
C  -4.53500 37.30300 40.44100
C  -5.86700 35.28200 37.58200
C  -6.18300 36.11100 36.30100
H  -7.32500 35.63200 35.44200
N  -8.59900 40.62900 39.30400
C  -7.25400 40.74600 39.04200
C  -6.99700 42.13400 38.67700
C  -8.19300 42.90300 38.68800
C  -9.23200 41.85300 39.01100
C  -5.62400 42.64100 38.38100
C  -8.41100 44.35100 38.32100
O  -7.47200 45.07500 38.14100
C  -9.80600 44.87000 38.08700
N  -11.53600 39.82100 39.73600
C  -11.61700 41.16400 39.53700
C  -13.03600 41.64100 39.37900
C  -13.93500 40.25000 39.74800
C  -12.77500 39.22900 39.90100
C  -13.37600 42.86900 40.36400
C  -15.02000 39.80600 38.73300
C  -16.39800 39.89600 39.41500
N  -10.64800 37.10100 39.94100
C  -12.07900 36.83300 40.05600
C  -12.29900 35.36700 40.11600
C  -11.04400 34.83700 39.75300
C  -10.09200 35.91500 39.67400
C  -13.64200 34.63000 40.44000
C  -10.31100 33.56100 39.42000
O  -10.74300 32.43600 39.38600
C  -8.92800 33.97600 39.00200
C  -7.89300 33.13700 39.75000
O  -7.73400 33.10100 40.95500
O  -7.11700 32.36100 38.88200
C  -5.97300 31.63000 39.50500
H  -5.21800 39.94000 38.92900
H  -11.05500 43.05100 39.24200
H  -14.04000 37.55900 40.23700
H  -5.97800 35.30100 39.65800
H  -4.73000 37.42800 38.26900
H  -3.50500 37.12500 40.13200
H  -4.86500 36.52700 41.13100
H  -4.67800 38.29200 40.87800
H  -6.48500 34.38700 37.49900
H  -4.81600 34.99500 37.53000
H  -5.29300 36.24300 35.68600
H  -6.44100 37.10700 36.66000
H  -5.67700 43.39400 37.59400
H  -4.89800 41.88500 38.08200
H  -5.20000 43.08200 39.28300
H  -10.25700 45.04900 39.06300
H  -10.19700 44.10500 37.41700
H  -9.85500 45.82100 37.55600
H  -13.21000 42.03500 38.37800
H  -14.28900 40.37800 40.77100
H  -13.30400 43.85200 39.89900
H  -12.59800 42.87600 41.12800
H  -14.33800 42.72500 40.85600
H  -14.93800 38.73800 38.53200
H  -15.02900 40.26500 37.74400
H  -17.01800 40.55800 38.81000
H  -16.44300 40.20600 40.45900
H  -16.91300 38.93600 39.37000
H  -13.64500 33.55100 40.28300
H  -14.54600 35.05400 40.00300
H  -13.70900 34.67100 41.52700
H  -8.81600 33.59600 37.98700
H  -4.99500 31.96200 39.15600
H  -5.93600 30.56000 39.30000
H  -5.87000 31.79100 40.57800

