158

Mg 46.46200 15.66700 27.82400
C  44.48200 15.48300 30.76200
C  48.39900 18.09600 29.40600
C  48.32000 15.98600 25.07100
C  44.18200 13.65500 26.21700
N  46.37500 16.75100 29.80700
C  45.60800 16.33000 30.88100
C  46.04100 17.07700 32.14800
C  47.03600 18.17300 31.65300
C  47.31000 17.66800 30.19900
C  46.58900 19.63000 31.63100
C  46.66100 16.07400 33.19500
C  46.50800 16.63300 34.60900
H  47.66200 16.41800 35.53300
N  48.20000 16.76500 27.36700
C  48.80700 17.73300 28.12800
C  49.93800 18.27800 27.37800
C  49.96200 17.68800 26.13900
C  48.80400 16.75400 26.15500
C  50.71200 19.46000 27.87000
C  51.00500 17.79900 25.01100
O  50.95100 17.24500 23.93400
C  52.28500 18.62900 25.27800
N  46.25900 15.01500 25.89200
C  47.20800 15.20500 24.93600
C  46.80600 14.49500 23.63300
C  45.78900 13.49200 24.10900
C  45.31000 14.10000 25.50200
C  46.34100 15.45800 22.44600
C  46.26500 12.04200 24.22200
C  47.28200 11.71100 25.28900
N  44.66400 14.84100 28.29100
C  43.81400 14.02100 27.52300
C  42.70600 13.51300 28.30700
C  42.96100 14.02700 29.62200
C  44.15800 14.89300 29.51200
C  41.56700 12.59500 28.00700
C  42.45700 14.09200 30.94000
O  41.42700 13.59000 31.50500
C  43.45800 14.91900 31.75500
C  42.74000 15.94300 32.58800
O  42.28700 16.98500 32.10700
O  42.81100 15.56600 33.91700
C  42.22300 16.52800 34.87300
H  49.02700 18.78000 29.98000
H  48.69100 16.13000 24.05400
H  43.63300 12.82400 25.76800
H  45.20100 17.60200 32.60200
H  48.01400 18.09200 32.12600
H  47.44300 20.25000 31.90400
H  45.74700 19.79500 32.30300
H  46.30200 19.97300 30.63700
H  47.72400 16.00400 32.96200
H  46.26600 15.06200 33.29000
H  45.56200 16.35000 35.07000
H  46.56700 17.71100 34.46300
H  51.72400 19.15300 28.13400
H  50.18600 19.95800 28.68500
H  50.89000 20.25000 27.14000
H  52.00600 19.68200 25.25500
H  52.87500 18.45700 24.37800
H  52.96700 18.26700 26.04700
H  47.68500 13.96000 23.27600
H  44.94600 13.58300 23.42500
H  46.85000 15.31300 21.49300
H  46.63100 16.48400 22.67200
H  45.27200 15.43000 22.23300
H  46.60600 11.63800 23.26800
H  45.41800 11.36900 24.35000
H  48.21700 11.48900 24.77400
H  46.98200 10.83500 25.86500
H  47.52500 12.51300 25.98600
H  40.71400 13.17700 27.65800
H  41.22100 12.04800 28.88400
H  41.87300 11.92300 27.20400
H  43.89000 14.17400 32.42300
H  41.23100 16.91200 34.63300
H  42.88700 17.34300 35.16300
H  41.94500 15.87300 35.69800
Mg 41.35200 41.09600 27.23600
C  41.22300 43.72900 29.58900
C  41.98100 38.93300 29.83100
C  42.02800 38.61500 25.01500
C  40.75400 43.29000 24.70000
N  41.72200 41.33800 29.48700
C  41.48400 42.43300 30.20600
C  41.43700 42.08700 31.70200
C  41.82700 40.61500 31.70800
C  41.84400 40.24500 30.24300
C  43.15300 40.25000 32.52000
C  40.17600 42.57400 32.39600
C  39.63700 41.89300 33.63800
H  39.24100 42.75200 34.86900
N  41.81400 39.05500 27.41200
C  42.08800 38.38600 28.59300
C  42.49200 37.00700 28.18800
C  42.41700 36.82500 26.80100
C  42.01700 38.19600 26.34300
C  42.84000 36.01000 29.18000
C  42.53300 35.61800 25.94500
O  42.33500 35.72600 24.73500
C  42.68700 34.25600 26.56100
N  41.41400 40.97400 25.18600
C  41.67100 39.86200 24.47800
C  41.44700 40.13300 22.95400
C  40.72300 41.55500 22.90700
C  40.96500 41.97300 24.36400
C  42.73600 40.14400 22.02700
C  39.21400 41.57800 22.51300
C  38.22600 40.58800 23.13400
N  40.99100 43.02100 27.12800
C  40.82100 43.83900 25.98500
C  40.69600 45.23300 26.42100
C  40.82400 45.18400 27.84300
C  41.06000 43.83600 28.20500
C  40.51700 46.36200 25.43900
C  40.92100 45.98700 28.97400
O  40.85500 47.23800 29.06500
C  41.08000 45.04000 30.21600
C  42.24100 45.41200 31.03800
O  43.40000 45.14800 30.79100
O  41.83500 45.97800 32.23100
C  42.74900 45.96100 33.35500
H  42.14800 38.34500 30.73600
H  42.40900 37.99900 24.19800
H  40.46900 43.95200 23.87900
H  42.23500 42.69200 32.13000
H  40.96100 40.04500 32.04500
H  42.90800 39.43600 33.20100
H  43.63400 41.04000 33.09700
H  43.93600 39.82000 31.89500
H  39.49000 42.39200 31.56800
H  40.21500 43.63600 32.63800
H  40.46100 41.27100 33.98800
H  38.88700 41.26200 33.16100
H  42.19900 35.12900 29.19400
H  42.75500 36.45000 30.17400
H  43.83500 35.57900 29.06800
H  42.56300 33.46500 25.82200
H  41.91300 34.17600 27.32400
H  43.69400 34.41300 26.94800
H  40.66900 39.42900 22.65800
H  41.27000 42.22600 22.24400
H  42.34600 39.78800 21.07400
H  43.41000 39.45000 22.52900
H  43.15900 41.13500 21.85800
H  39.16200 41.50800 21.42700
H  38.85100 42.53400 22.89000
H  37.72400 40.20400 22.24500
H  37.62400 41.09900 23.88500
H  38.74200 39.73000 23.56500
H  40.16400 47.18400 26.06200
H  39.91000 46.12100 24.56600
H  41.51700 46.56300 25.05500
H  40.16500 45.05000 30.80900
H  42.50900 45.24400 34.13900
H  42.81200 46.99900 33.68200
H  43.74900 45.57000 33.16300

