158

Mg 47.45700 16.69200 28.48000
C  45.52800 16.47400 31.53600
C  49.94000 18.18400 30.25000
C  48.95600 17.09600 25.61800
C  44.60600 15.44700 26.89000
N  47.60700 17.26600 30.62800
C  46.77400 17.08500 31.70700
C  47.43100 17.64800 33.02000
C  48.58900 18.49300 32.40600
C  48.70500 17.95200 31.00400
C  48.41900 20.02500 32.54800
C  47.84000 16.54400 34.02900
C  47.24600 16.70300 35.50300
H  47.00900 18.21000 35.92100
N  49.26500 17.29900 28.00400
C  50.20400 17.80800 28.86900
C  51.47400 17.88300 28.17200
C  51.21400 17.63900 26.81000
C  49.75900 17.26600 26.80600
C  52.82300 18.11800 28.88100
C  52.16400 17.60900 25.56100
O  51.74600 17.34100 24.42600
C  53.60300 18.02800 25.75900
N  46.87100 16.30600 26.59600
C  47.63800 16.69700 25.52500
C  46.91400 16.50200 24.19800
C  45.61400 15.72200 24.59900
C  45.70400 15.80000 26.10300
C  46.62200 17.91400 23.59400
C  45.62700 14.21700 24.02200
C  44.44300 13.86400 23.13200
N  45.48100 15.95000 29.03500
C  44.47900 15.48100 28.28500
C  43.38300 14.99300 29.07900
C  43.84500 15.32400 30.37800
C  45.07900 15.96300 30.25300
C  42.07200 14.41000 28.61500
C  43.43600 15.32100 31.75200
O  42.34400 14.87700 32.18500
C  44.52800 16.07600 32.58400
C  43.82500 17.17200 33.32600
O  43.56000 18.28600 32.84500
O  43.59000 16.84800 34.65800
C  42.83800 17.75600 35.56400
H  50.83400 18.60800 30.71200
H  49.39100 17.26800 24.63200
H  43.71000 15.13400 26.35100
H  46.72800 18.33600 33.49000
H  49.51500 18.26100 32.93300
H  47.40100 20.28500 32.84000
H  48.56100 20.52600 31.59100
H  49.12200 20.42100 33.28100
H  48.92400 16.45200 34.09000
H  47.38700 15.61900 33.67100
H  47.85300 16.27000 36.29800
H  46.32500 16.12600 35.59800
H  53.49500 17.36000 28.47900
H  52.70300 17.77600 29.90900
H  53.13800 19.15900 28.80100
H  53.52500 18.96900 26.30400
H  54.00700 18.23500 24.76800
H  54.28200 17.42200 26.35700
H  47.61600 15.93400 23.58800
H  44.73200 16.23100 24.21000
H  47.02400 17.98100 22.58300
H  47.28800 18.66100 24.02700
H  45.60300 18.30000 23.56600
H  45.61700 13.58800 24.91200
H  46.53000 14.09800 23.42300
H  44.76100 13.32200 22.24200
H  44.02200 14.80400 22.77300
H  43.81600 13.19600 23.72200
H  42.29300 13.35700 28.44000
H  41.74600 14.88100 27.68700
H  41.34900 14.45700 29.43000
H  44.91700 15.43600 33.37600
H  42.85100 17.34900 36.57500
H  41.93100 18.11000 35.07400
H  43.36400 18.70700 35.65200
Mg 5.48000 53.50400 41.47200
C  5.06100 50.19200 40.80700
C  8.70500 53.32100 40.02500
C  5.67900 56.84600 41.35900
C  2.14900 53.77500 42.26400
N  6.78000 51.88000 40.43300
C  6.40400 50.61600 40.32500
C  7.52300 49.72900 39.71400
C  8.76300 50.73500 39.80500
C  8.08600 52.09000 40.07500
C  9.65100 50.39200 41.04900
C  7.29500 49.11700 38.29400
C  6.49900 50.02700 37.31000
H  5.76300 49.29300 36.16100
N  7.07000 54.90500 41.03800
C  8.26900 54.56100 40.48000
C  9.06600 55.80500 40.43500
C  8.18700 56.88500 40.77000
C  6.88200 56.27100 40.98100
C  10.50100 55.82000 40.06400
C  8.55700 58.31300 40.66400
O  9.70200 58.68900 40.31000
C  7.71900 59.33200 41.18700
N  4.13300 55.11500 41.76000
C  4.40100 56.43300 41.71900
C  3.33000 57.37200 42.27200
C  2.18200 56.39300 42.51900
C  2.85500 55.00400 42.12800
C  3.90200 58.19800 43.54100
C  0.95100 56.89100 41.60500
C  1.11300 56.63200 40.15200
N  3.85000 52.26500 41.59300
C  2.58500 52.44700 41.99100
C  1.85100 51.18300 42.02700
C  2.81400 50.26700 41.64300
C  4.00400 51.01000 41.30100
C  0.42100 51.00600 42.53800
C  3.06100 48.93400 41.48900
O  2.42500 47.92600 41.76600
C  4.52700 48.76300 40.91700
C  4.41200 47.97300 39.65100
O  3.65700 48.23200 38.67500
O  5.06000 46.82600 39.76400
C  4.67800 45.78900 38.76300
H  9.73200 53.35800 39.65500
H  5.67000 57.92500 41.19300
H  1.07900 53.85500 42.46600
H  7.72200 48.88200 40.37100
H  9.45500 50.74000 38.96200
H  9.80000 51.28400 41.65700
H  10.59600 49.95200 40.73100
H  9.07000 49.71700 41.67700
H  6.73400 48.18300 38.25600
H  8.20800 48.90100 37.73900
H  7.04600 50.84900 36.85000
H  5.77600 50.55600 37.93200
H  10.63200 56.07700 39.01300
H  11.05700 54.88800 40.16500
H  10.98600 56.62600 40.61400
H  8.17400 60.27700 41.48300
H  7.33500 58.82100 42.07000
H  6.91300 59.37900 40.45600
H  3.09600 58.00900 41.41900
H  1.94300 56.37500 43.58200
H  4.89100 57.82800 43.80900
H  3.27600 58.02200 44.41600
H  3.94600 59.26700 43.32900
H  0.79100 57.95200 41.79900
H  0.03700 56.38300 41.91400
H  0.88400 57.53500 39.58700
H  0.43800 55.80200 39.94300
H  2.11900 56.32700 39.86600
H  0.44200 51.02900 43.62700
H  0.17700 49.96700 42.31600
H  -0.36400 51.61900 42.09600
H  5.03700 48.09700 41.61300
H  5.53700 45.68700 38.10100
H  3.80000 46.11500 38.20400
H  4.38900 44.86400 39.26300

