158

Mg 24.55600 -5.48700 45.71300
C  26.64700 -3.11200 44.22300
C  21.99000 -4.41100 43.52900
C  22.69900 -8.10400 46.68800
C  27.34500 -6.88800 47.29900
N  24.36800 -3.99400 44.14200
C  25.37600 -3.10100 43.68000
C  24.94400 -2.37200 42.44200
C  23.39000 -2.48900 42.50200
C  23.20500 -3.73500 43.43300
C  22.63900 -1.23000 42.92400
C  25.79300 -2.98700 41.19400
C  26.67300 -2.11600 40.38200
H  26.26500 -1.98300 38.89700
N  22.57300 -6.10400 45.26100
C  21.70100 -5.50300 44.37200
C  20.43300 -6.19000 44.46300
C  20.61200 -7.36500 45.30000
C  22.01600 -7.19600 45.83800
C  19.24000 -5.74400 43.64000
C  19.52300 -8.48800 45.52800
O  18.41600 -8.33300 45.23600
C  19.90000 -9.84000 46.20400
N  25.02500 -7.15200 46.91600
C  24.06200 -8.06100 47.19400
C  24.68600 -9.27600 47.88900
C  26.13900 -8.86100 48.28800
C  26.18500 -7.58000 47.41200
C  23.87300 -9.87800 48.99500
C  27.20800 -9.95300 47.83500
C  28.33100 -10.14300 48.92000
N  26.57500 -4.98800 45.96100
C  27.57800 -5.66100 46.62700
C  28.81300 -4.84800 46.44100
C  28.45000 -3.87600 45.49500
C  27.11000 -3.95700 45.32400
C  30.10200 -5.20700 47.05100
C  29.00800 -2.77000 44.73400
O  30.16100 -2.33900 44.59700
C  27.80100 -2.27200 43.81100
C  27.62900 -0.84800 44.08000
O  26.80100 -0.27300 44.78100
O  28.53600 -0.18600 43.27500
C  28.43200 1.24700 43.34800
H  21.22100 -4.12000 42.81000
H  22.18900 -9.03400 46.95000
H  28.24500 -7.33500 47.72800
H  25.17700 -1.31500 42.57600
H  23.06000 -2.85000 41.52800
H  23.07700 -0.31900 42.51500
H  22.76200 -1.23400 44.00700
H  21.55600 -1.26300 42.81100
H  25.05100 -3.32300 40.47000
H  26.35500 -3.86800 41.50500
H  27.68300 -2.49900 40.23900
H  26.72500 -1.08800 40.74100
H  19.18900 -6.17000 42.63800
H  19.22000 -4.68300 43.39100
H  18.34300 -6.04900 44.18000
H  19.05100 -10.52100 46.15500
H  20.19500 -9.60800 47.22700
H  20.69200 -10.29100 45.60600
H  24.59600 -9.98500 47.06600
H  26.28100 -8.49200 49.30400
H  22.92400 -9.36800 49.16100
H  24.43000 -9.88000 49.93100
H  23.65500 -10.88100 48.62700
H  27.65400 -9.71200 46.87000
H  26.74200 -10.93300 47.73000
H  29.31400 -9.78200 48.61700
H  28.36100 -11.18500 49.23800
H  28.10100 -9.56400 49.81400
H  30.43300 -6.16100 46.64100
H  29.98200 -5.34200 48.12500
H  30.87300 -4.45400 46.88600
H  28.05600 -2.36000 42.75500
H  29.32000 1.69700 42.90400
H  28.38700 1.63500 44.36600
H  27.55500 1.47100 42.74100
Mg 6.83000 54.26000 41.32600
C  6.54500 50.82900 40.74700
C  10.07000 54.01600 39.78600
C  6.95100 57.55700 41.19700
C  3.37200 54.38300 42.28400
N  8.15900 52.61000 40.42300
C  7.80100 51.30500 40.30600
C  8.89900 50.44300 39.57000
C  10.07100 51.42700 39.62000
C  9.42900 52.80600 39.93900
C  11.16900 51.17400 40.59000
C  8.65700 49.94400 38.08400
C  8.07000 51.01900 37.06600
H  7.49000 50.55500 35.72500
N  8.35400 55.60300 40.62000
C  9.59000 55.30000 40.02200
C  10.26300 56.56400 39.77500
C  9.39600 57.63700 40.21500
C  8.19200 56.96200 40.77500
C  11.49600 56.58000 38.94200
C  9.70700 59.11700 40.32800
O  10.69700 59.60000 39.69500
C  8.91400 60.02100 41.15100
N  5.36500 55.79200 41.72700
C  5.64600 57.07000 41.58600
C  4.49800 58.02200 41.86100
C  3.35100 56.95100 42.16400
C  4.05100 55.60600 42.06600
C  4.77600 58.97400 43.07900
C  2.08100 57.01900 41.29200
C  0.65000 57.12100 41.75400
N  5.23300 52.87800 41.63300
C  3.89100 53.09300 41.99800
C  3.34900 51.77600 42.13900
C  4.36700 50.83300 41.60700
C  5.44400 51.58800 41.27800
C  1.97600 51.39400 42.70500
C  4.47400 49.42000 41.33900
O  3.74800 48.44000 41.48500
C  6.01000 49.39500 40.76700
C  5.92200 48.88800 39.37500
O  5.29300 49.36100 38.43900
O  6.51100 47.64500 39.37200
C  5.93300 46.64400 38.49400
H  11.09200 53.82200 39.45200
H  6.89700 58.64500 41.13200
H  2.31500 54.25000 42.52400
H  9.11200 49.53000 40.12700
H  10.64300 51.57900 38.70400
H  12.06100 51.64600 40.17700
H  11.36300 50.13700 40.86200
H  10.95600 51.71800 41.51000
H  8.04400 49.04700 38.00300
H  9.57200 49.55600 37.63900
H  8.82900 51.77700 36.87500
H  7.18700 51.49400 37.49500
H  11.93700 55.61100 38.70800
H  12.18600 57.08100 39.62100
H  11.41300 57.28200 38.11300
H  8.19400 60.49300 40.48200
H  9.58300 60.79000 41.53900
H  8.38300 59.59100 41.99900
H  4.36100 58.64300 40.97600
H  3.01000 57.09100 43.18900
H  3.89900 58.97800 43.72600
H  4.77800 60.03300 42.82000
H  5.70700 58.76500 43.60500
H  2.00500 56.10800 40.69800
H  2.22300 57.88500 40.64500
H  0.06300 57.47600 40.90700
H  0.47200 57.77700 42.60600
H  0.28100 56.16000 42.11300
H  1.32900 52.26800 42.77900
H  2.17300 51.05400 43.72100
H  1.64900 50.54100 42.10900
H  6.66400 48.71100 41.30800
H  4.84500 46.71400 38.50900
H  6.18100 45.72000 39.01500
H  6.37300 46.66000 37.49700

