158

Mg 36.26400 49.78200 24.60000
C  36.15500 48.24200 27.67300
C  34.98200 52.65700 25.91400
C  36.05100 51.23800 21.43300
C  37.07100 46.75800 23.16300
N  35.73900 50.34800 26.55000
C  35.73600 49.56800 27.70400
C  35.36800 50.38300 28.96900
C  34.89400 51.82800 28.36100
C  35.14600 51.64300 26.84600
C  33.43500 52.22600 28.65200
C  36.62400 50.50700 29.82700
C  36.49600 49.90100 31.21200
H  35.36900 50.23500 32.19900
N  35.77100 51.74700 23.85800
C  35.26800 52.79200 24.53800
C  35.01100 53.91200 23.68000
C  35.12200 53.43400 22.36500
C  35.65200 52.02700 22.52900
C  34.46900 55.20400 24.26300
C  34.86500 54.04700 20.97800
O  35.11400 53.51000 19.89800
C  34.23600 55.41100 20.98500
N  36.48800 49.04800 22.59800
C  36.43600 49.88800 21.48000
C  36.73700 49.12000 20.19200
C  37.16900 47.63300 20.74300
C  36.82600 47.76000 22.26400
C  35.57300 48.97100 19.12800
C  38.64300 47.22400 20.53300
C  39.76300 48.19100 20.82400
N  36.62700 47.80600 25.26100
C  36.95500 46.70100 24.55700
C  37.20500 45.60600 25.48400
C  36.91100 46.15700 26.74300
C  36.53700 47.51500 26.55400
C  37.64800 44.16500 25.16800
C  36.80800 45.93400 28.17600
O  37.15400 45.00800 28.87300
C  36.25600 47.23900 28.83200
C  35.03200 46.91600 29.62400
O  33.90800 47.01600 29.23300
O  35.40200 46.50400 30.91000
C  34.19200 46.27600 31.74200
H  34.49800 53.49300 26.42300
H  35.92500 51.54400 20.39200
H  37.54300 45.90400 22.67400
H  34.54700 49.89400 29.49500
H  35.57900 52.60900 28.69100
H  32.92400 52.29600 27.69200
H  33.51800 53.17100 29.18900
H  32.96700 51.38800 29.16900
H  36.93600 51.55000 29.87000
H  37.53600 50.05600 29.43400
H  37.44500 50.29200 31.57800
H  36.67100 48.82600 31.18100
H  35.13800 56.02200 23.99400
H  34.37300 55.18300 25.34900
H  33.51200 55.36800 23.76700
H  33.21400 55.13500 21.24300
H  34.19900 55.89000 20.00600
H  34.70400 56.07900 21.70800
H  37.56500 49.61200 19.68300
H  36.56100 46.86900 20.25800
H  34.62200 49.33700 19.51400
H  35.31800 47.93500 18.90200
H  35.93300 49.54700 18.27600
H  38.75100 47.07000 19.45900
H  38.88200 46.25700 20.97600
H  40.51600 48.23900 20.03700
H  40.28700 47.71000 21.65000
H  39.38700 49.20500 20.96100
H  36.92700 43.53300 24.65100
H  37.92600 43.77800 26.14900
H  38.49900 44.33100 24.50700
H  37.12700 47.48700 29.43900
H  34.13300 45.19200 31.83700
H  33.23400 46.67000 31.40200
H  34.43900 46.64600 32.73700
Mg 7.02800 53.42300 40.41400
C  6.67300 49.90700 40.38200
C  10.33300 53.00500 39.95700
C  7.09900 56.61500 39.59800
C  3.65700 53.68000 41.03500
N  8.36100 51.61800 40.07600
C  7.99300 50.27500 40.13200
C  9.21600 49.36600 40.19900
C  10.35100 50.36600 40.46800
C  9.69200 51.77900 40.17800
C  11.02900 50.27000 41.90300
C  9.43000 48.57600 38.86400
C  9.54600 49.32900 37.49400
H  8.25000 49.28900 36.59900
N  8.51600 54.65700 39.86600
C  9.85900 54.30100 39.69700
C  10.58500 55.41600 39.32800
C  9.75100 56.52000 39.31400
C  8.38500 56.00100 39.55000
C  12.11200 55.51400 39.14300
C  10.23100 57.95900 39.02000
O  11.41500 58.25800 38.93200
C  9.23100 59.06500 38.79800
N  5.49800 54.93400 40.05200
C  5.85100 56.26400 39.98800
C  4.60800 57.20900 40.09500
C  3.43900 56.23000 40.60200
C  4.24400 54.84400 40.58800
C  4.83300 58.37500 41.09100
C  2.15500 56.33600 39.71400
C  1.02200 56.95900 40.41700
N  5.50100 52.20400 40.70700
C  4.23500 52.38500 41.01800
C  3.50100 51.14600 41.11700
C  4.49300 50.15100 40.92400
C  5.64500 50.83900 40.60200
C  2.13700 50.91900 41.66900
C  4.79200 48.71300 41.08700
O  4.09000 47.81600 41.49100
C  6.13100 48.53900 40.51100
C  6.04300 47.83600 39.18300
O  5.42300 48.27400 38.18800
O  6.55400 46.62500 39.28300
C  6.52700 45.76500 38.02000
H  11.41300 52.84800 39.92300
H  6.96000 57.67400 39.37300
H  2.61100 53.88800 41.26800
H  9.06000 48.60000 40.95800
H  11.16200 50.42400 39.74100
H  12.11500 50.36200 41.88600
H  10.78500 49.30900 42.35600
H  10.85300 51.21400 42.41900
H  8.62000 47.84700 38.83300
H  10.31500 47.95000 38.97300
H  10.35100 48.88900 36.90600
H  9.89400 50.36000 37.55400
H  12.48200 54.51400 39.36900
H  12.49100 56.11300 39.97100
H  12.43100 55.80000 38.14100
H  8.68400 58.80900 37.89000
H  9.79600 59.98400 38.64400
H  8.56200 59.01200 39.65600
H  4.44100 57.67200 39.12300
H  3.28500 56.48900 41.64900
H  5.08300 59.14400 40.36000
H  5.71000 58.20800 41.71600
H  3.98500 58.57900 41.74600
H  1.98100 55.32600 39.34300
H  2.38400 56.99000 38.87300
H  1.18200 56.82700 41.48700
H  0.17100 56.33500 40.14500
H  0.82000 57.95900 40.03200
H  1.71200 51.85500 42.03000
H  2.22400 50.35900 42.60000
H  1.52100 50.54800 40.84900
H  6.69300 47.98700 41.26400
H  6.10200 44.80700 38.31800
H  7.53400 45.76000 37.60300
H  5.85200 46.11900 37.24000

