158

Mg 17.54500 -2.33900 27.83000
C  16.68600 -0.23500 30.49900
C  19.58100 -4.11600 30.11500
C  18.84400 -3.96500 25.24100
C  15.78300 -0.14400 25.74900
N  18.07700 -2.16400 30.02800
C  17.44100 -1.32200 30.93200
C  17.89100 -1.56600 32.35400
C  18.96400 -2.70000 32.13900
C  18.88100 -3.06900 30.63000
C  20.43500 -2.33200 32.51300
C  16.82300 -1.96400 33.40900
C  16.96400 -1.21700 34.80900
H  18.40800 -0.94000 35.24000
N  18.83000 -3.93000 27.67300
C  19.56400 -4.54500 28.75800
C  20.27500 -5.66300 28.26000
C  19.97000 -5.71200 26.89100
C  19.23600 -4.50600 26.50600
C  21.17300 -6.54400 29.10900
C  20.46600 -6.65400 25.85100
O  20.28200 -6.50800 24.62700
C  21.34200 -7.87200 26.36200
N  17.16600 -2.26000 25.84600
C  17.92500 -2.92600 24.93400
C  17.61800 -2.60400 23.39500
C  16.51900 -1.45800 23.64900
C  16.43100 -1.27800 25.15100
C  18.91200 -2.08500 22.51300
C  15.12100 -1.60500 22.97600
C  14.85000 -0.88800 21.65600
N  16.51800 -0.49100 28.00200
C  15.76800 0.19100 27.08000
C  15.07400 1.33200 27.68500
C  15.45800 1.17300 29.10900
C  16.27900 0.08400 29.16100
C  14.19200 2.25900 27.02200
C  15.12900 1.66700 30.36700
O  14.33600 2.51100 30.70000
C  16.08900 0.84100 31.34000
C  17.10000 1.72000 32.02400
O  18.21500 1.99600 31.51000
O  16.59800 2.15700 33.22000
C  17.41200 3.17300 33.87800
H  20.06600 -4.75500 30.85600
H  19.18000 -4.39000 24.29300
H  15.32900 0.52700 25.01700
H  18.35300 -0.61800 32.62700
H  18.69400 -3.62700 32.64600
H  20.38100 -1.32000 32.91600
H  21.12700 -2.29700 31.67100
H  20.71000 -3.10400 33.23200
H  16.77200 -3.00900 33.71500
H  15.87300 -1.78900 32.90300
H  16.59800 -1.79100 35.66000
H  16.50700 -0.23600 34.67700
H  21.08200 -7.61100 28.90800
H  20.88200 -6.48500 30.15800
H  22.15700 -6.16800 28.83100
H  21.73400 -8.50600 25.56700
H  20.63700 -8.54800 26.84400
H  22.15100 -7.43000 26.94500
H  17.13400 -3.46900 22.94100
H  16.97400 -0.54800 23.25900
H  18.75300 -1.10300 22.06700
H  18.97000 -2.88800 21.77800
H  19.76400 -1.99900 23.18700
H  14.44200 -1.13700 23.68800
H  14.81500 -2.65000 22.92100
H  13.89600 -0.39000 21.82800
H  14.92900 -1.50000 20.75700
H  15.57100 -0.07500 21.57500
H  13.17700 2.15900 27.40700
H  14.22300 2.08000 25.94700
H  14.53700 3.28100 27.17500
H  15.47400 0.40400 32.12600
H  17.20700 4.08800 33.32300
H  18.45400 2.87400 34.00000
H  16.93000 3.33100 34.84200
Mg 16.11400 51.61100 25.88600
C  18.09700 50.52900 28.51500
C  13.49900 52.14600 27.93600
C  14.28600 52.43100 23.18400
C  18.70300 50.50600 23.61300
N  15.87400 51.30700 27.86200
C  16.82500 50.94000 28.82600
C  16.34800 51.32800 30.19400
C  14.74100 51.45700 29.96900
C  14.62100 51.46400 28.48500
C  13.89700 50.26800 30.62000
C  16.98400 52.59900 30.77700
C  17.05000 52.74300 32.31900
H  16.17200 51.76400 33.12500
N  14.14800 52.24500 25.58600
C  13.21700 52.36400 26.58100
C  11.93200 52.87300 26.04000
C  12.14700 52.94500 24.63900
C  13.56600 52.54100 24.38400
C  10.86100 53.44300 26.88400
C  11.22000 53.36200 23.49900
O  11.50000 53.28700 22.30100
C  9.71900 53.83500 23.85500
N  16.51300 51.49700 23.67600
C  15.60900 52.01100 22.83800
C  16.09400 51.87600 21.37800
C  17.57100 51.33000 21.55500
C  17.59500 51.09200 23.02500
C  15.18900 51.00700 20.45700
C  18.72400 52.29800 21.01900
C  19.78900 51.50800 20.17100
N  17.98700 50.55000 25.99800
C  18.97500 50.26800 24.99600
C  20.10200 49.67400 25.71200
C  19.82000 49.79600 27.09400
C  18.54400 50.25700 27.16800
C  21.31100 49.13700 25.03700
C  20.36500 49.67700 28.46000
O  21.42500 49.26100 28.87000
C  19.24200 50.12300 29.43900
C  18.86100 49.10900 30.38000
O  18.38000 48.04100 30.06400
O  19.27900 49.47900 31.63400
C  19.22300 48.44100 32.67600
H  12.90200 52.53300 28.76500
H  13.74000 52.69600 22.27600
H  19.54600 50.26100 22.96400
H  16.68300 50.51000 30.83200
H  14.39000 52.40300 30.38200
H  14.50400 49.58000 31.20900
H  13.45400 49.73600 29.77900
H  13.09700 50.67600 31.23700
H  16.49800 53.45800 30.31400
H  17.99900 52.60300 30.38000
H  16.91000 53.79800 32.55500
H  18.09900 52.56300 32.55500
H  10.54700 54.43400 26.55600
H  11.13500 53.40100 27.93800
H  10.02800 52.75300 26.74900
H  9.14700 53.17500 24.50700
H  9.24400 53.92400 22.87800
H  9.86000 54.83100 24.27500
H  16.00800 52.84000 20.87500
H  17.60200 50.29800 21.20700
H  14.54600 50.44000 21.13100
H  15.77600 50.29000 19.88300
H  14.58400 51.51200 19.70400
H  19.25500 52.75200 21.85600
H  18.41400 53.07300 20.31700
H  19.51200 51.73300 19.14100
H  19.69300 50.43600 20.34600
H  20.79400 51.80700 20.46800
H  22.07900 48.98400 25.79400
H  21.60500 49.66500 24.13000
H  21.07000 48.16500 24.60600
H  19.53200 51.02100 29.98300
H  19.62500 47.51900 32.25400
H  18.28900 48.38400 33.23400
H  19.91500 48.68800 33.48100

