158

Mg 47.27300 24.16900 28.97700
C  47.97900 26.70100 31.40600
C  46.46200 22.20500 31.48800
C  47.15400 21.75200 26.65300
C  48.44100 26.47800 26.41800
N  47.31500 24.45400 31.22100
C  47.52100 25.54900 32.01600
C  47.09600 25.33000 33.46600
C  46.70500 23.84200 33.44300
C  46.76200 23.45700 31.92000
C  47.57800 22.92100 34.28900
C  45.92700 26.34900 33.90500
C  46.36900 27.25400 35.03800
H  45.33400 27.45200 36.11200
N  46.82100 22.22600 29.05300
C  46.52500 21.55500 30.19900
C  46.34500 20.15800 29.91600
C  46.43300 20.05700 28.51900
C  46.83300 21.36100 28.01500
C  46.01700 19.20700 31.13400
C  46.07600 18.83500 27.65000
O  46.01700 18.87500 26.43800
C  45.69700 17.50500 28.21700
N  47.80800 24.12100 26.91100
C  47.56700 22.98300 26.14400
C  47.94600 23.14300 24.69600
C  48.38100 24.62300 24.68400
C  48.15100 25.13900 26.08500
C  49.06300 22.07300 24.24700
C  47.60200 25.43400 23.52500
C  46.09700 25.70700 23.88300
N  48.05300 26.16000 28.91300
C  48.36200 26.94400 27.78000
C  48.86900 28.21600 28.27900
C  48.71800 28.16500 29.69900
C  48.12400 26.90900 30.02900
C  49.50300 29.31400 27.52000
C  48.91600 28.91900 30.89800
O  49.39500 30.03200 31.16200
C  48.42900 28.00600 32.10600
C  49.65300 27.69300 32.90700
O  50.41700 26.76100 32.68000
O  49.72600 28.58000 33.95800
C  50.46400 28.12700 35.13900
H  46.14800 21.62800 32.36100
H  47.28700 20.87500 26.01600
H  48.92200 27.06600 25.63300
H  47.96000 25.36000 34.13000
H  45.64500 23.72300 33.66500
H  47.03700 22.04100 34.63600
H  48.13800 23.34900 35.12100
H  48.32800 22.51900 33.60800
H  45.07300 25.77100 34.25900
H  45.66000 26.96700 33.04800
H  46.74400 28.23900 34.76200
H  47.28000 26.80900 35.43800
H  45.92600 18.16300 30.83500
H  45.10100 19.41500 31.68600
H  46.78400 19.12700 31.90400
H  46.63400 17.20200 28.68600
H  45.46600 16.74500 27.47100
H  44.94700 17.54200 29.00700
H  47.05200 22.84400 24.14800
H  49.42400 24.49400 24.39500
H  49.83500 22.46700 23.58500
H  48.70600 21.17200 23.74900
H  49.63500 21.73800 25.11200
H  47.59500 24.85100 22.60400
H  48.12400 26.36400 23.29700
H  45.55300 25.26200 23.05000
H  46.02100 26.79300 23.94700
H  45.81500 25.15300 24.77800
H  48.88600 29.39200 26.62500
H  50.57300 29.14900 27.39100
H  49.34900 30.18000 28.16300
H  47.68300 28.49800 32.73100
H  50.90700 29.01200 35.59600
H  51.28700 27.42900 34.98900
H  49.72900 27.65500 35.79000
Mg 36.26400 49.78200 24.60000
C  36.15500 48.24200 27.67300
C  34.98200 52.65700 25.91400
C  36.05100 51.23800 21.43300
C  37.07100 46.75800 23.16300
N  35.73900 50.34800 26.55000
C  35.73600 49.56800 27.70400
C  35.36800 50.38300 28.96900
C  34.89400 51.82800 28.36100
C  35.14600 51.64300 26.84600
C  33.43500 52.22600 28.65200
C  36.62400 50.50700 29.82700
C  36.49600 49.90100 31.21200
H  35.36900 50.23500 32.19900
N  35.77100 51.74700 23.85800
C  35.26800 52.79200 24.53800
C  35.01100 53.91200 23.68000
C  35.12200 53.43400 22.36500
C  35.65200 52.02700 22.52900
C  34.46900 55.20400 24.26300
C  34.86500 54.04700 20.97800
O  35.11400 53.51000 19.89800
C  34.23600 55.41100 20.98500
N  36.48800 49.04800 22.59800
C  36.43600 49.88800 21.48000
C  36.73700 49.12000 20.19200
C  37.16900 47.63300 20.74300
C  36.82600 47.76000 22.26400
C  35.57300 48.97100 19.12800
C  38.64300 47.22400 20.53300
C  39.76300 48.19100 20.82400
N  36.62700 47.80600 25.26100
C  36.95500 46.70100 24.55700
C  37.20500 45.60600 25.48400
C  36.91100 46.15700 26.74300
C  36.53700 47.51500 26.55400
C  37.64800 44.16500 25.16800
C  36.80800 45.93400 28.17600
O  37.15400 45.00800 28.87300
C  36.25600 47.23900 28.83200
C  35.03200 46.91600 29.62400
O  33.90800 47.01600 29.23300
O  35.40200 46.50400 30.91000
C  34.19200 46.27600 31.74200
H  34.49800 53.49300 26.42300
H  35.92500 51.54400 20.39200
H  37.54300 45.90400 22.67400
H  34.54700 49.89400 29.49500
H  35.57900 52.60900 28.69100
H  32.92400 52.29600 27.69200
H  33.51800 53.17100 29.18900
H  32.96700 51.38800 29.16900
H  36.93600 51.55000 29.87000
H  37.53600 50.05600 29.43400
H  37.44500 50.29200 31.57800
H  36.67100 48.82600 31.18100
H  35.13800 56.02200 23.99400
H  34.37300 55.18300 25.34900
H  33.51200 55.36800 23.76700
H  33.21400 55.13500 21.24300
H  34.19900 55.89000 20.00600
H  34.70400 56.07900 21.70800
H  37.56500 49.61200 19.68300
H  36.56100 46.86900 20.25800
H  34.62200 49.33700 19.51400
H  35.31800 47.93500 18.90200
H  35.93300 49.54700 18.27600
H  38.75100 47.07000 19.45900
H  38.88200 46.25700 20.97600
H  40.51600 48.23900 20.03700
H  40.28700 47.71000 21.65000
H  39.38700 49.20500 20.96100
H  36.92700 43.53300 24.65100
H  37.92600 43.77800 26.14900
H  38.49900 44.33100 24.50700
H  37.12700 47.48700 29.43900
H  34.13300 45.19200 31.83700
H  33.23400 46.67000 31.40200
H  34.43900 46.64600 32.73700

