158

Mg 1.85700 -2.75500 44.64600
C  5.05100 -1.52000 43.80300
C  0.44500 -0.71700 42.27700
C  -1.07300 -4.41100 45.09600
C  3.46100 -5.42500 46.44000
N  2.71900 -1.37800 43.14400
C  4.00600 -0.88000 43.08300
C  4.07100 0.35600 42.13100
C  2.55500 0.49100 41.63100
C  1.78500 -0.59200 42.49500
C  1.98400 1.89900 41.80100
C  5.09300 0.28500 40.96200
C  5.90300 1.56600 40.69700
H  5.44300 2.27500 39.47000
N  -0.13400 -2.43200 43.87800
C  -0.47900 -1.52900 42.94200
C  -1.93800 -1.54800 42.77700
C  -2.40900 -2.59900 43.67000
C  -1.18500 -3.25100 44.25400
C  -2.73100 -0.61400 41.86200
C  -3.86800 -2.93000 44.02600
O  -4.74000 -2.34400 43.41700
C  -4.18500 -3.95100 45.01400
N  1.29600 -4.60600 45.69300
C  0.01900 -4.94800 45.75400
C  -0.22400 -6.22200 46.59700
C  1.27900 -6.50300 47.09000
C  2.08900 -5.45200 46.36800
C  -1.41500 -6.28600 47.69100
C  1.78500 -7.96700 47.16200
C  2.14400 -8.48000 48.61400
N  3.83000 -3.36700 45.09300
C  4.33000 -4.42600 45.89100
C  5.69600 -4.21900 46.00300
C  6.01000 -3.05600 45.28200
C  4.85900 -2.62800 44.64400
C  6.65200 -5.05700 46.77900
C  7.15000 -2.25500 44.85600
O  8.35900 -2.33300 45.08500
C  6.48900 -1.08200 44.03400
C  6.61100 0.15500 44.81300
O  5.93700 0.52900 45.75500
O  7.79000 0.79800 44.53300
C  7.93800 2.11200 45.25000
H  0.04500 0.02100 41.57800
H  -2.00600 -4.88700 45.40400
H  3.90000 -6.16600 47.11100
H  4.25500 1.16700 42.83500
H  2.48100 0.21700 40.57800
H  1.04400 1.98400 42.34500
H  1.83200 2.37400 40.83200
H  2.66900 2.56800 42.32200
H  4.64100 -0.07100 40.03600
H  5.84300 -0.44300 41.27300
H  6.95300 1.30400 40.56900
H  5.87500 2.25800 41.53900
H  -2.06200 -0.15300 41.13500
H  -3.24700 0.07600 42.52900
H  -3.60600 -1.09000 41.41900
H  -3.85500 -4.90400 44.59800
H  -5.24200 -3.97600 45.27700
H  -3.67400 -3.62800 45.92000
H  -0.49600 -6.96100 45.84300
H  1.20500 -6.19700 48.13400
H  -2.12600 -7.05200 47.38300
H  -1.77600 -5.27100 47.52300
H  -1.15600 -6.34800 48.74800
H  2.66700 -8.05000 46.52600
H  0.97900 -8.62800 46.84400
H  3.09600 -8.99900 48.50200
H  1.44400 -9.21100 49.01900
H  2.39500 -7.60500 49.21400
H  6.46100 -5.10300 47.85200
H  7.64700 -4.61900 46.70200
H  6.76600 -6.08700 46.44100
H  7.00600 -1.02600 43.07600
H  9.02600 2.13200 45.30900
H  7.52300 2.14900 46.25700
H  7.66800 3.01800 44.70800
Mg 8.53300 3.31000 27.77300
C  10.08500 2.03100 30.44700
C  6.61900 5.42900 29.87900
C  6.89000 4.58700 25.08000
C  10.01600 0.94200 25.75300
N  8.25800 3.61300 29.98100
C  9.11500 2.95100 30.91300
C  8.93600 3.54300 32.26900
C  7.68600 4.59900 32.01500
C  7.44000 4.51700 30.54000
C  6.46700 4.36800 32.84100
C  10.19700 4.28000 32.88600
C  9.98800 4.64300 34.33900
H  10.83900 3.93900 35.41100
N  6.94600 4.76900 27.56700
C  6.34300 5.55400 28.55000
C  5.42800 6.47500 27.94800
C  5.45400 6.14100 26.55800
C  6.45400 5.13400 26.34100
C  4.63500 7.42200 28.74300
C  4.54600 6.62800 25.41300
O  4.79700 6.36000 24.23900
C  3.39200 7.60300 25.65900
N  8.48600 2.82900 25.79800
C  7.88500 3.59100 24.86200
C  8.12500 3.09600 23.45800
C  8.96400 1.81200 23.67200
C  9.12500 1.85400 25.15900
C  6.82500 2.85900 22.53700
C  10.30600 1.76400 22.85500
C  10.41400 0.62200 21.84900
N  9.77500 1.69900 28.02600
C  10.41400 0.86800 27.10800
C  11.29200 -0.09100 27.81700
C  11.26900 0.41400 29.10300
C  10.27600 1.50000 29.20900
C  12.14300 -1.16400 27.23700
C  11.70100 0.13100 30.46100
O  12.53300 -0.69700 30.90800
C  10.96100 1.15100 31.36400
C  10.13100 0.50200 32.42700
O  9.17300 -0.18400 32.24500
O  10.67100 0.74800 33.66600
C  9.95800 0.24800 34.89400
H  6.24400 6.05700 30.69000
H  6.36200 4.90200 24.17800
H  10.53500 0.27600 25.06000
H  8.65300 2.79100 33.00600
H  8.09900 5.60100 32.12800
H  6.45800 5.01700 33.71600
H  6.56800 3.28900 32.96200
H  5.53400 4.56200 32.31200
H  10.38200 5.17700 32.29600
H  11.07900 3.71500 32.58600
H  8.96700 4.33900 34.56900
H  10.16800 5.71100 34.46700
H  4.87600 7.40500 29.80600
H  3.58900 7.11600 28.71600
H  4.72200 8.42800 28.33300
H  2.55800 7.06200 26.10700
H  3.09400 7.91400 24.65700
H  3.61900 8.38600 26.38200
H  8.69000 3.82000 22.87000
H  8.37200 0.95900 23.33800
H  5.97400 2.94800 23.21100
H  6.94100 1.93100 21.97700
H  6.71100 3.68600 21.83700
H  11.15400 1.73000 23.53900
H  10.40200 2.70000 22.30600
H  11.23300 -0.03600 22.13800
H  10.76700 1.03800 20.90600
H  9.53900 0.02000 21.60400
H  13.09600 -0.72100 26.94700
H  11.69200 -1.44300 26.28500
H  12.16500 -2.07300 27.84000
H  11.75200 1.70400 31.86900
H  9.38800 -0.67100 34.75900
H  9.25300 1.05800 35.07900
H  10.64000 0.18200 35.74100

