158

Mg 47.67400 24.97600 28.66900
C  48.35900 27.47100 31.04100
C  47.16900 22.79500 31.25800
C  46.79500 22.72000 26.39900
C  48.53800 27.21000 26.08800
N  47.90500 25.13700 30.85000
C  48.03800 26.29000 31.65000
C  47.82900 26.02700 33.20700
C  47.63800 24.46300 33.23500
C  47.61100 24.08000 31.70000
C  48.63300 23.79400 34.18100
C  46.70600 26.92900 33.84500
C  45.84800 26.42100 35.11700
H  45.85500 27.24900 36.44800
N  47.05600 23.02500 28.77700
C  46.92400 22.32100 29.97300
C  46.46900 20.94400 29.59500
C  46.26900 20.89400 28.16800
C  46.73800 22.23700 27.72200
C  46.27000 19.97100 30.65400
C  45.90900 19.76500 27.23800
O  45.89900 19.80500 25.99700
C  45.62500 18.51900 27.92500
N  47.95200 24.84900 26.42500
C  47.24500 23.95100 25.76700
C  47.08500 24.22800 24.30600
C  47.54800 25.68000 24.26900
C  48.10300 25.92000 25.71300
C  47.93000 23.30100 23.39100
C  46.58900 26.74800 23.78700
C  47.15200 27.99800 23.26000
N  48.23000 26.91300 28.53900
C  48.54600 27.70500 27.42400
C  49.00800 28.97300 27.83500
C  48.83900 29.01600 29.24400
C  48.40400 27.67200 29.64200
C  49.52300 29.92500 26.82200
C  48.94800 29.82800 30.41800
O  49.38600 30.97300 30.54900
C  48.65200 28.89500 31.60700
C  49.67700 28.89600 32.64300
O  50.81500 28.49100 32.42000
O  49.21900 29.32000 33.87300
C  50.32600 29.44700 34.92700
H  46.89300 22.09000 32.04400
H  46.35300 22.03200 25.67500
H  48.82800 27.98100 25.37100
H  48.78100 26.28900 33.66800
H  46.66600 24.17100 33.63300
H  48.13100 23.70500 35.14400
H  49.60100 24.27700 34.31000
H  48.95500 22.84200 33.75800
H  46.04800 27.35100 33.08600
H  47.19400 27.82400 34.23200
H  46.10400 25.38100 35.31900
H  44.78400 26.43300 34.88000
H  45.33500 19.47000 30.40400
H  46.20700 20.27800 31.69800
H  47.04900 19.21000 30.62900
H  44.56400 18.62300 28.15500
H  46.24600 18.38600 28.81100
H  45.82600 17.70100 27.23400
H  46.00700 24.21200 24.14400
H  48.43300 25.64100 23.63400
H  47.69600 23.50900 22.34700
H  47.70200 22.30400 23.76800
H  48.95500 23.58500 23.63000
H  45.93000 27.04800 24.60200
H  45.93300 26.27800 23.05400
H  48.23600 27.97800 23.15100
H  46.79600 28.82500 23.87500
H  46.70700 28.31900 22.31800
H  48.63800 30.38300 26.38100
H  50.20800 29.38900 26.16600
H  50.02900 30.72200 27.36600
H  47.85800 29.26700 32.25400
H  51.35100 29.32900 34.57700
H  50.06700 28.76700 35.74000
H  50.08800 30.39600 35.40700
Mg 30.71000 58.17200 38.69200
C  27.80200 56.18700 38.21200
C  32.57500 55.39500 38.12900
C  33.41000 60.09700 38.58200
C  28.55400 60.88700 38.48400
N  30.18700 56.01500 38.41800
C  29.00200 55.40200 38.21600
C  29.13600 53.96000 37.93800
C  30.64400 53.64500 38.22400
C  31.23600 55.08700 38.40200
C  30.98900 52.60800 39.33300
C  28.61100 53.52900 36.43500
C  29.13000 54.35400 35.26700
H  27.99800 54.95600 34.34200
N  32.75400 57.78900 38.48900
C  33.30600 56.59400 38.14800
C  34.69700 56.71100 37.95000
C  34.98300 58.03800 38.26400
C  33.70900 58.70400 38.48900
C  35.54800 55.57400 37.58600
C  36.34400 58.63100 38.25400
O  37.36600 57.97000 38.11400
C  36.70200 60.13000 38.61900
N  30.93100 60.07000 38.61900
C  32.17200 60.68900 38.65500
C  32.00400 62.23600 38.62200
C  30.49000 62.44200 38.42800
C  29.93500 61.04100 38.49200
C  32.61500 63.00600 39.79000
C  30.16200 63.11700 37.03900
C  29.87100 64.66500 37.04300
N  28.57000 58.51600 38.49100
C  27.88300 59.67200 38.48500
C  26.50200 59.41700 38.50000
C  26.45200 58.04400 38.25400
C  27.68200 57.57300 38.30700
C  25.39300 60.43600 38.62900
C  25.54400 56.87100 38.16800
O  24.29300 56.93200 38.23000
C  26.39600 55.64600 37.98400
C  26.03300 54.70800 39.05200
O  26.07300 54.92600 40.28200
O  25.59100 53.53400 38.53600
C  24.71000 52.67700 39.32900
H  33.16100 54.48000 38.02200
H  34.23400 60.81300 38.61000
H  27.80500 61.68200 38.49100
H  28.56700 53.46600 38.72600
H  31.05800 53.25300 37.29500
H  29.99600 52.33500 39.69200
H  31.46000 53.03000 40.22100
H  31.59400 51.82200 38.88200
H  27.52300 53.55300 36.38000
H  29.08000 52.55800 36.27700
H  29.85200 53.82700 34.64300
H  29.72200 55.16500 35.69200
H  35.00000 54.89600 36.93200
H  36.03500 55.07900 38.42600
H  36.36300 55.99600 36.99800
H  36.30600 60.38400 39.60300
H  36.37200 60.77100 37.80100
H  37.78800 60.20800 38.67400
H  32.61100 62.62000 37.80300
H  30.01700 63.03100 39.21300
H  32.30500 64.05100 39.83000
H  33.66000 62.94100 39.48900
H  32.33000 62.41500 40.66000
H  29.36500 62.68300 36.43500
H  31.07900 63.06900 36.45000
H  29.77800 65.13000 38.02500
H  28.98500 64.86000 36.43900
H  30.71600 65.07900 36.49300
H  24.39700 59.99700 38.57000
H  25.51300 61.28900 37.96100
H  25.50500 60.80500 39.64800
H  26.18300 55.21500 37.00600
H  24.19400 53.11200 40.18500
H  25.26300 51.83400 39.74500
H  24.00100 52.21400 38.64200

