158

Mg 24.64600 -6.48500 46.47200
C  26.93300 -4.22800 45.20000
C  22.41600 -5.37500 44.16800
C  22.70600 -9.14800 47.29100
C  27.38100 -8.19700 48.08900
N  24.80600 -5.08900 44.82600
C  25.72100 -4.17400 44.55900
C  25.35000 -3.21500 43.40600
C  23.82600 -3.37200 43.33100
C  23.66300 -4.75100 44.14400
C  22.91400 -2.28500 43.88300
C  26.06400 -3.65600 42.12400
C  26.79200 -2.68600 41.24200
H  26.32700 -2.62500 39.81400
N  22.65300 -7.05500 45.92100
C  21.91600 -6.44800 44.93100
C  20.67800 -7.20200 44.81000
C  20.74000 -8.26600 45.70100
C  22.05300 -8.17600 46.37200
C  19.53700 -6.92800 43.78700
C  19.73100 -9.33100 45.77400
O  18.71900 -9.25700 45.11900
C  19.85600 -10.43900 46.78900
N  25.07900 -8.50400 47.39900
C  24.04600 -9.33000 47.67800
C  24.49500 -10.57700 48.42400
C  25.99300 -10.26900 48.71800
C  26.14900 -8.87500 48.09400
C  23.66100 -11.03900 49.72500
C  27.04500 -11.33200 48.13000
C  27.52000 -12.41600 49.15100
N  26.74200 -6.28000 46.62900
C  27.68000 -6.98500 47.42100
C  28.92000 -6.20700 47.43900
C  28.68300 -5.08800 46.59400
C  27.35400 -5.23100 46.07100
C  30.13700 -6.83000 48.13400
C  29.29000 -4.01200 45.94100
O  30.46100 -3.54300 46.00400
C  28.23100 -3.36500 44.97900
C  28.06700 -1.92500 45.23200
O  28.42700 -0.97500 44.47700
O  27.36300 -1.75100 46.31200
C  27.19200 -0.39200 46.82200
H  21.72900 -4.84000 43.51000
H  22.22800 -10.09600 47.54600
H  28.13900 -8.64300 48.73700
H  25.73900 -2.21800 43.61500
H  23.40900 -3.69700 42.37800
H  23.59100 -1.57500 44.35800
H  22.27200 -2.62800 44.69400
H  22.27400 -2.00600 43.04600
H  25.42100 -4.18700 41.42200
H  26.78800 -4.39400 42.47000
H  27.85100 -2.84700 41.43900
H  26.40900 -1.74000 41.62600
H  19.73000 -6.13300 43.06600
H  18.55500 -6.63800 44.16000
H  19.28700 -7.80600 43.19100
H  20.15500 -10.07000 47.77100
H  20.73600 -10.89100 46.33100
H  19.16600 -11.28300 46.80400
H  24.45700 -11.46400 47.79100
H  26.12600 -10.18700 49.79700
H  23.38200 -10.11800 50.23700
H  24.23800 -11.61500 50.44800
H  22.89800 -11.69600 49.30800
H  27.89300 -10.78700 47.71500
H  26.67700 -11.88300 47.26400
H  27.12800 -12.48200 50.16500
H  28.61000 -12.38500 49.16500
H  27.28200 -13.36500 48.67100
H  30.89500 -6.04600 48.14400
H  30.42500 -7.70500 47.55100
H  29.93000 -6.98900 49.19200
H  28.50200 -3.36500 43.92300
H  27.51600 0.40200 46.15000
H  27.59700 -0.27500 47.82800
H  26.12500 -0.17000 46.84400
Mg 26.15100 51.44000 25.62700
C  23.79300 52.34400 28.18000
C  28.43300 50.83400 28.18400
C  28.25200 50.63400 23.29200
C  23.85500 52.72300 23.22800
N  26.06900 51.59900 27.99000
C  25.01700 51.94300 28.81400
C  25.41100 51.75400 30.26100
C  26.94300 51.45500 30.20000
C  27.20000 51.36400 28.68000
C  27.85200 52.48900 30.83900
C  24.57600 50.66700 30.94900
C  23.84100 50.98600 32.25200
H  24.06000 49.98500 33.52000
N  28.03400 50.71900 25.70200
C  28.77700 50.47900 26.86300
C  30.07600 49.91800 26.48800
C  30.09700 49.92600 25.02500
C  28.76000 50.39600 24.57100
C  31.15200 49.65400 27.55000
C  31.26600 49.54300 24.12000
O  31.25600 49.58000 22.93200
C  32.57700 49.16200 24.86600
N  26.16100 52.00400 23.59000
C  27.11700 51.33800 22.89000
C  26.79200 51.37200 21.40000
C  25.35200 51.99900 21.32400
C  25.12500 52.30100 22.80600
C  27.91800 51.99600 20.53800
C  24.37800 50.87700 20.73600
C  23.08900 51.29500 20.09700
N  24.26200 52.33100 25.61800
C  23.40200 52.73800 24.52500
C  22.10200 53.04900 25.07800
C  22.23100 52.89400 26.44900
C  23.52100 52.42900 26.73400
C  21.00500 53.66000 24.27700
C  21.58900 53.18600 27.79000
O  20.45100 53.61000 27.99800
C  22.61700 52.86400 28.91200
C  22.85600 54.08500 29.85200
O  23.25300 55.20600 29.49800
O  22.49400 53.83200 31.13500
C  22.69500 54.86300 32.09500
H  29.14300 50.67600 28.99900
H  28.89000 50.23900 22.49900
H  23.13600 52.95000 22.43700
H  25.17300 52.67100 30.79900
H  27.25000 50.50000 30.62900
H  27.37800 53.43700 31.09300
H  28.59000 52.75300 30.08100
H  28.41200 52.13200 31.70300
H  25.18300 49.77600 31.11000
H  23.83100 50.32300 30.23200
H  22.76600 51.13200 32.15000
H  24.25800 51.91400 32.64300
H  30.80700 49.67700 28.58300
H  31.94200 50.39300 27.68000
H  31.60100 48.68100 27.34900
H  32.47600 48.21900 25.40400
H  32.85000 49.96700 25.54800
H  33.40400 49.03900 24.16700
H  26.64900 50.32600 21.12900
H  25.26500 52.95500 20.80700
H  27.54700 52.77300 19.86800
H  28.34200 51.20800 19.91600
H  28.69700 52.33300 21.22100
H  24.22800 50.27600 21.63300
H  24.86200 50.21100 20.02200
H  23.18200 51.30500 19.01100
H  22.81700 52.31700 20.36000
H  22.37200 50.56400 20.47000
H  20.37100 52.78300 24.14200
H  21.45700 54.12400 23.40100
H  20.38200 54.38900 24.79600
H  22.25600 52.03800 29.52400
H  21.66200 55.04700 32.39100
H  23.14100 55.78600 31.72500
H  23.24700 54.49700 32.96100

