158

Mg 0.81100 7.56800 25.45000
C  1.15200 9.64900 28.31800
C  1.07200 4.98800 27.45900
C  0.72200 5.65500 22.65500
C  1.11900 10.49300 23.43800
N  1.16700 7.42200 27.73600
C  1.03700 8.30500 28.71600
C  1.04100 7.67500 30.09900
C  1.45200 6.20400 29.80000
C  1.20300 6.15100 28.20200
C  2.91900 5.85000 30.20900
C  -0.25000 7.83500 30.88100
C  -0.42700 7.83200 32.43900
H  0.76200 7.65300 33.39900
N  1.01000 5.59500 25.06900
C  0.99200 4.70400 26.07700
C  0.93900 3.39800 25.54800
C  0.73500 3.48000 24.14100
C  0.78200 4.98600 23.86700
C  1.31000 2.20400 26.34300
C  0.62600 2.37100 23.09000
O  0.47400 2.53100 21.87100
C  0.44800 0.95900 23.61000
N  0.90500 8.02900 23.39500
C  0.87400 7.03900 22.46100
C  0.72400 7.59200 21.07800
C  0.86600 9.18100 21.27400
C  1.02800 9.24000 22.78700
C  1.82700 7.05700 20.11800
C  -0.19100 10.03000 20.67200
C  -1.49600 10.05600 21.46300
N  1.03200 9.68700 25.77700
C  1.09300 10.69500 24.82500
C  1.16300 11.93500 25.52900
C  1.23600 11.61200 26.91000
C  1.06800 10.21200 27.02700
C  1.15600 13.26700 24.96300
C  1.39600 12.11500 28.27200
O  1.59200 13.27200 28.57100
C  1.16200 10.90400 29.24000
C  2.18800 10.67600 30.34100
O  3.24200 10.02500 30.20900
O  1.71400 11.27400 31.45700
C  2.53000 11.26800 32.76800
H  0.86400 4.08600 28.03800
H  0.67100 4.92400 21.84500
H  1.23100 11.35600 22.77800
H  1.78900 8.18800 30.70300
H  0.74200 5.56800 30.33000
H  3.59300 6.70600 30.21600
H  3.30400 5.15500 29.46300
H  3.02500 5.41900 31.20500
H  -0.96400 7.14200 30.43600
H  -0.53100 8.83300 30.54500
H  -1.14500 7.07800 32.76200
H  -0.87300 8.80100 32.66100
H  1.78000 1.43800 25.72600
H  0.50900 1.81600 26.97200
H  2.08000 2.41600 27.08500
H  1.38200 0.42600 23.79100
H  -0.16100 0.39600 22.90300
H  -0.18800 0.97100 24.49400
H  -0.19400 7.34100 20.54700
H  1.80000 9.54400 20.84400
H  2.26500 7.82500 19.48100
H  1.46900 6.30900 19.40900
H  2.62900 6.59300 20.69300
H  -0.34300 9.68700 19.64800
H  0.27000 11.00500 20.52100
H  -1.64500 9.31700 22.25000
H  -2.34300 9.97900 20.78100
H  -1.65600 11.04100 21.90300
H  0.32400 13.36500 24.26600
H  2.13600 13.46000 24.52700
H  0.79200 13.94900 25.73100
H  0.11700 10.95900 29.54400
H  3.45600 10.70400 32.65100
H  1.93700 10.92400 33.61500
H  2.82300 12.29900 32.96500
Mg 54.10100 24.08000 44.90600
C  51.43400 26.18800 43.85700
C  52.66200 21.59600 42.81000
C  57.04800 22.46500 44.77600
C  55.60800 26.72400 46.54000
N  52.30800 23.93400 43.42100
C  51.34500 24.89300 43.20500
C  50.05500 24.34400 42.59500
C  50.36300 22.82700 42.58400
C  51.87600 22.74000 42.94500
C  49.44700 21.86600 43.43400
C  49.70300 24.84300 41.18800
C  50.96300 25.07000 40.24400
H  50.68500 25.81200 38.95200
N  54.73200 22.21000 44.02700
C  53.98900 21.33500 43.19300
C  54.82600 20.20400 42.80400
C  56.07100 20.47100 43.36800
C  56.01900 21.72200 44.15400
C  54.28100 19.05300 41.96500
C  57.31700 19.59400 43.05600
O  57.25700 18.68700 42.28400
C  58.58400 19.66200 43.85500
N  56.10400 24.45200 45.61400
C  57.11100 23.65200 45.43500
C  58.37100 24.21300 46.18100
C  57.94700 25.68100 46.47300
C  56.45200 25.66300 46.17200
C  58.95400 23.28700 47.30300
C  58.64400 26.92300 45.74200
C  58.86900 28.17200 46.61700
N  53.60000 25.91900 45.28400
C  54.26600 26.87300 45.98000
C  53.42600 28.10700 46.11300
C  52.34500 27.87100 45.27300
C  52.46900 26.55300 44.74200
C  53.60800 29.35100 46.93900
C  51.07900 28.42100 44.76300
O  50.56700 29.50800 44.97500
C  50.36400 27.34300 43.93500
C  49.94900 27.84000 42.61600
O  50.65500 28.14100 41.69700
O  48.59600 28.01400 42.61600
C  47.96100 28.55100 41.38200
H  52.17200 20.83000 42.20600
H  58.03400 22.00900 44.67100
H  56.08700 27.56000 47.05400
H  49.41000 24.56800 43.44400
H  50.27800 22.39900 41.58500
H  48.84000 22.41400 44.15400
H  50.01600 21.18900 44.07100
H  48.81400 21.22200 42.82300
H  49.14600 25.77700 41.11300
H  49.12000 23.99700 40.82200
H  51.39500 24.08400 40.07200
H  51.67200 25.69700 40.78500
H  53.22800 18.85400 42.16600
H  54.76200 18.10600 42.21100
H  54.53500 19.26800 40.92700
H  59.16700 18.74400 43.77400
H  58.28000 19.83600 44.88700
H  59.13300 20.53200 43.49300
H  59.23400 24.06300 45.53200
H  57.97000 25.98300 47.52000
H  59.98200 23.00600 47.07100
H  58.37600 22.36300 47.31500
H  59.03300 23.77200 48.27500
H  58.00600 27.19100 44.90000
H  59.64800 26.70500 45.37700
H  59.88500 28.55800 46.53400
H  58.59200 27.99200 47.65500
H  58.25000 28.95200 46.17300
H  54.50900 29.26500 47.54700
H  52.74600 29.49400 47.59100
H  53.61200 30.24800 46.32100
H  49.51900 27.08700 44.57400
H  48.19600 27.90900 40.53200
H  48.17900 29.60100 41.18700
H  46.90300 28.45400 41.62600

