158

Mg 17.08800 -2.99200 27.57900
C  16.24900 -1.02400 30.24400
C  18.65700 -5.19000 29.68900
C  17.88600 -4.76600 24.89000
C  15.55500 -0.56100 25.42100
N  17.37600 -3.10800 29.69000
C  16.93000 -2.18600 30.60600
C  17.27200 -2.68900 32.06900
C  18.09500 -3.98900 31.81600
C  18.01500 -4.13400 30.29700
C  19.54200 -4.04400 32.45300
C  16.01100 -2.92100 32.93900
C  16.11800 -2.54200 34.48600
H  17.43500 -1.91800 35.07600
N  18.05300 -4.83000 27.34300
C  18.72100 -5.51700 28.32300
C  19.34200 -6.73400 27.70400
C  19.04900 -6.67200 26.27400
C  18.29400 -5.40300 26.11800
C  20.00000 -7.80400 28.55100
C  19.42000 -7.72300 25.25000
O  19.16200 -7.61400 24.01100
C  20.17600 -8.95100 25.55400
N  16.81200 -2.73100 25.42800
C  17.25300 -3.55500 24.52500
C  17.00000 -3.07500 23.03600
C  16.21700 -1.70200 23.27900
C  16.22400 -1.63400 24.82000
C  18.23100 -2.92700 22.11000
C  14.67000 -1.71300 22.88200
C  13.52200 -2.19600 23.79600
N  15.99300 -1.18200 27.77200
C  15.43300 -0.30700 26.82500
C  14.78700 0.79700 27.50400
C  15.05700 0.53200 28.89200
C  15.83300 -0.64800 28.96800
C  14.01200 1.94400 26.84400
C  14.91400 1.06900 30.16100
O  14.43300 2.08200 30.48900
C  15.61400 0.09000 31.17700
C  16.60400 0.80800 31.93300
O  17.77500 1.08000 31.59400
O  15.95400 1.19200 33.07700
C  16.79100 2.08000 33.95900
H  19.18800 -5.84500 30.38300
H  18.14900 -5.29100 23.97000
H  15.11300 0.20800 24.78500
H  17.96100 -2.00900 32.56900
H  17.53800 -4.85800 32.16600
H  19.80200 -3.06800 32.86300
H  20.28600 -4.28800 31.69500
H  19.66900 -4.78700 33.24100
H  15.66000 -3.95100 32.88200
H  15.19900 -2.34000 32.50000
H  15.85100 -3.37600 35.13500
H  15.36900 -1.75700 34.58400
H  19.41400 -8.72200 28.53700
H  20.13100 -7.45500 29.57500
H  20.98100 -8.01400 28.12400
H  21.11000 -8.90200 26.11300
H  20.40900 -9.43600 24.60600
H  19.43700 -9.55400 26.08200
H  16.22900 -3.74700 22.66200
H  16.64900 -0.76100 22.93700
H  18.49200 -1.88000 21.95600
H  18.14900 -3.59400 21.25200
H  19.16700 -3.15400 22.62000
H  14.62800 -2.24900 21.93300
H  14.45300 -0.66800 22.66200
H  12.68300 -2.45200 23.14900
H  13.16300 -1.33200 24.35600
H  13.83600 -2.98400 24.48100
H  13.94800 1.80300 25.76500
H  14.41200 2.89800 27.18800
H  12.99500 1.89300 27.23200
H  14.82100 -0.27400 31.83100
H  17.80400 1.71600 34.12800
H  16.39700 2.13000 34.97300
H  16.96700 3.06000 33.51500
Mg 35.39000 48.80200 24.82900
C  35.61100 47.38500 27.84800
C  34.50300 51.85000 26.26100
C  34.92800 50.34600 21.70800
C  36.34900 46.00800 23.27600
N  35.16900 49.57600 26.85900
C  35.26600 48.75500 27.97200
C  35.22200 49.64000 29.21800
C  34.76400 51.05700 28.68500
C  34.86100 50.85200 27.15000
C  33.28200 51.53700 29.12200
C  36.57200 49.80900 30.00900
C  36.59800 49.34500 31.46200
H  35.32200 49.56500 32.26200
N  34.75900 50.80200 24.04700
C  34.40000 51.86700 24.87100
C  34.02000 52.99800 24.06100
C  34.18300 52.58300 22.69900
C  34.60500 51.18500 22.81100
C  33.58000 54.34700 24.58900
C  33.92300 53.33100 21.44000
O  33.92200 52.76600 20.37100
C  33.67400 54.82800 21.45000
N  35.60800 48.24500 22.75000
C  35.42200 49.00000 21.64200
C  35.82200 48.28800 20.38500
C  36.72400 47.04900 21.00700
C  36.27200 47.11800 22.48200
C  34.59600 47.99300 19.49800
C  38.26800 47.16000 20.82400
C  39.01000 45.80600 20.73600
N  35.89800 47.00300 25.38500
C  36.21800 45.89100 24.67800
C  36.43800 44.73400 25.58400
C  36.10500 45.31200 26.82300
C  35.81300 46.67500 26.66400
C  36.69600 43.35100 25.12300
C  35.94800 44.98200 28.23400
O  36.02700 43.95100 28.89600
C  35.74400 46.35800 28.94000
C  34.45000 46.28800 29.87200
O  33.32900 46.61900 29.48500
O  34.74000 45.55600 31.02200
C  33.59000 45.17700 31.80800
H  34.20100 52.80400 26.69800
H  34.89500 50.68300 20.67000
H  36.52600 45.09300 22.70800
H  34.41100 49.28400 29.85400
H  35.45700 51.88900 28.80500
H  33.28000 52.49700 29.63700
H  32.75500 50.84500 29.77800
H  32.66800 51.74900 28.24700
H  36.87300 50.84800 30.14100
H  37.43000 49.41200 29.46700
H  37.41800 49.76700 32.04200
H  36.69300 48.26000 31.51200
H  32.56300 54.55700 24.25800
H  34.24800 55.06800 24.11700
H  33.53000 54.42400 25.67500
H  34.45100 55.43900 21.90900
H  32.73300 54.98300 21.97800
H  33.48600 55.18500 20.43700
H  36.57100 48.85500 19.83200
H  36.38200 46.07700 20.65100
H  34.66700 48.28200 18.44900
H  33.65600 48.40400 19.86600
H  34.53000 46.90900 19.58300
H  38.80900 47.79700 21.52500
H  38.56900 47.60000 19.87300
H  39.22500 45.61100 19.68600
H  38.39600 45.05200 21.22900
H  40.02600 45.86900 21.12600
H  35.76600 42.82500 24.90300
H  37.29500 42.87700 25.90000
H  37.28000 43.32700 24.20300
H  36.54200 46.58200 29.64800
H  33.00200 44.50600 31.18100
H  32.92000 46.01900 31.98200
H  33.87900 44.78700 32.78400

