158

Mg 0.77100 44.39900 25.09400
C  2.97100 43.89800 27.66300
C  -1.81700 43.86300 27.24300
C  -1.28100 44.18300 22.35300
C  3.44900 44.95800 22.86100
N  0.61800 43.86900 27.21000
C  1.65500 43.72400 28.10500
C  1.07600 43.74600 29.56000
C  -0.39100 43.49900 29.32900
C  -0.56600 43.86400 27.83700
C  -0.83500 42.03900 29.72100
C  1.27700 45.08100 30.39300
C  1.03000 45.03900 31.89300
H  1.11300 43.66000 32.55200
N  -1.26100 44.09400 24.83400
C  -2.20400 43.99200 25.81300
C  -3.55700 43.93200 25.27700
C  -3.28700 43.89100 23.85200
C  -1.86600 44.09000 23.63600
C  -4.77900 43.69900 26.16600
C  -4.30200 43.52400 22.70300
O  -4.00900 43.40600 21.50400
C  -5.73600 43.19300 23.06900
N  1.10500 44.29800 22.87700
C  0.05200 44.27600 22.00700
C  0.50200 44.55000 20.61500
C  2.12200 44.81300 20.75400
C  2.26100 44.67000 22.26600
C  0.16500 43.57000 19.44600
C  2.64700 46.13700 20.18600
C  2.51300 47.42800 20.89700
N  2.83500 44.32500 25.13800
C  3.79400 44.71200 24.18700
C  5.08900 44.76700 24.87700
C  4.80100 44.43300 26.18700
C  3.45100 44.15800 26.30200
C  6.38400 45.13800 24.26600
C  5.41100 44.23600 27.45900
O  6.59900 44.21500 27.82500
C  4.26200 43.96600 28.49900
C  4.45200 42.60200 28.99400
O  4.47100 41.58200 28.31900
O  4.75400 42.62100 30.32700
C  4.69000 41.31000 30.93900
H  -2.58500 43.54800 27.95300
H  -1.99600 44.37300 21.55000
H  4.27600 45.27600 22.22300
H  1.54700 42.95700 30.14700
H  -1.04500 44.12900 29.93200
H  -1.13900 41.51600 28.81400
H  -1.56800 42.05400 30.52700
H  -0.09200 41.42000 30.22500
H  0.53000 45.83300 30.13600
H  2.23200 45.39300 29.97200
H  0.04800 45.47900 32.07100
H  1.80800 45.66400 32.33100
H  -4.76000 42.61700 26.29800
H  -5.68800 43.98100 25.63400
H  -4.75800 44.10300 27.17800
H  -6.27500 43.09700 22.12700
H  -6.15400 44.02100 23.64300
H  -5.55800 42.26800 23.61800
H  -0.10600 45.45400 20.57800
H  2.68300 43.96600 20.36000
H  -0.76100 43.02800 19.63500
H  1.04000 42.92400 19.36700
H  0.08300 44.06800 18.48000
H  2.22500 46.25400 19.18800
H  3.68400 46.00600 19.87700
H  1.84900 47.40200 21.76100
H  2.13500 48.12200 20.14700
H  3.49500 47.78600 21.20800
H  6.54300 46.21500 24.20100
H  6.30100 44.76800 23.24400
H  7.17800 44.53000 24.70100
H  4.34100 44.54600 29.41900
H  5.48100 41.14100 31.67000
H  4.60600 40.44000 30.28700
H  3.74700 41.24700 31.48300
Mg -4.78900 25.90000 26.62600
C  -3.55800 27.27900 29.54600
C  -6.49300 23.56000 28.50200
C  -5.68200 24.44200 23.81200
C  -2.74500 28.12500 24.82200
N  -4.89300 25.43300 28.76600
C  -4.51500 26.28300 29.73100
C  -5.10100 25.84800 31.09200
C  -5.79100 24.47700 30.81800
C  -5.66900 24.40600 29.25600
C  -5.32700 23.27700 31.72600
C  -6.01700 26.90400 31.64700
C  -5.75800 27.32900 33.13200
H  -5.32100 26.27300 34.14400
N  -6.04000 24.32200 26.22300
C  -6.65700 23.45100 27.07100
C  -7.48600 22.47900 26.33800
C  -7.45000 22.92700 25.01100
C  -6.28600 23.89200 24.95100
C  -8.32600 21.61700 27.10300
C  -8.31900 22.49500 23.87000
O  -8.15900 22.88200 22.75700
C  -9.52300 21.59200 24.08800
N  -4.17000 26.22500 24.56900
C  -4.69700 25.41300 23.60800
C  -4.15800 25.78900 22.18200
C  -3.23400 27.01500 22.52500
C  -3.41400 27.17300 24.05800
C  -3.35900 24.61600 21.61700
C  -3.45800 28.31700 21.75100
C  -2.57900 28.52200 20.47200
N  -3.41100 27.32000 26.98300
C  -2.71500 28.13500 26.19000
C  -1.88600 29.04200 27.05300
C  -2.17700 28.74500 28.34600
C  -3.10200 27.69800 28.25900
C  -0.93900 30.13800 26.45500
C  -1.93000 29.12700 29.76600
O  -1.25500 29.96500 30.34600
C  -2.85800 28.11900 30.55700
C  -1.93500 27.43200 31.41200
O  -0.94600 26.84600 31.02100
O  -2.22500 27.64300 32.69100
C  -1.14500 27.38100 33.67800
H  -7.02700 22.85500 29.14300
H  -6.02300 23.96500 22.89100
H  -2.18500 28.85800 24.23600
H  -4.13600 25.74300 31.58800
H  -6.86300 24.57400 30.99000
H  -4.42000 23.54900 32.26600
H  -5.03100 22.33600 31.26100
H  -6.03200 23.01500 32.51400
H  -7.03600 26.59200 31.41600
H  -5.86100 27.83200 31.09700
H  -6.71900 27.73700 33.44300
H  -5.14800 28.23200 33.11100
H  -7.87000 21.40500 28.07000
H  -8.40400 20.62500 26.65900
H  -9.31000 22.06600 27.24500
H  -9.18000 20.59500 23.81100
H  -10.22700 21.85800 23.30000
H  -9.90400 21.97600 25.03400
H  -4.96700 25.95400 21.47000
H  -2.19200 26.72200 22.39000
H  -2.58700 25.03600 20.97400
H  -4.01800 23.94700 21.06400
H  -2.82800 24.00300 22.34600
H  -3.43000 29.25100 22.31200
H  -4.44700 28.27900 21.29400
H  -3.19400 28.69200 19.58800
H  -2.11800 27.54500 20.32700
H  -1.70500 29.15000 20.64300
H  -1.35700 30.72500 25.63700
H  -0.08300 29.62400 26.01600
H  -0.80900 30.84800 27.27100
H  -3.47700 28.72400 31.21900
H  -1.21000 26.33000 33.96100
H  -1.30700 27.96200 34.58600
H  -0.14500 27.41800 33.24500

