158

Mg -12.60700 16.65600 41.13600
C  -9.57700 14.72900 40.34300
C  -11.03700 19.29800 39.72300
C  -15.54300 18.34800 41.41700
C  -14.13800 13.68800 41.93400
N  -10.54000 16.88500 39.96800
C  -9.45400 16.04200 39.97300
C  -8.23300 16.75700 39.49100
C  -8.70800 18.27200 39.48300
C  -10.18100 18.18300 39.70700
C  -8.04100 19.03400 40.65300
C  -7.63600 16.23300 38.13400
C  -6.10000 16.26600 38.04300
H  -5.41800 16.86700 36.80200
N  -13.17900 18.58100 40.68500
C  -12.39700 19.52700 40.04300
C  -13.16000 20.74500 39.90700
C  -14.50300 20.48800 40.36500
C  -14.47400 19.11500 40.90200
C  -12.56000 22.02800 39.41100
C  -15.59500 21.45600 40.61800
O  -15.63000 22.62000 40.12600
C  -16.81800 21.14100 41.44500
N  -14.51500 16.12300 41.65700
C  -15.63300 16.96800 41.78800
C  -16.89200 16.23500 42.09800
C  -16.35600 14.82200 42.33300
C  -14.92500 14.86700 41.82300
C  -17.83600 16.80000 43.25000
C  -17.25500 13.72500 41.66900
C  -17.52700 12.43300 42.54100
N  -12.04500 14.56100 41.12500
C  -12.75900 13.48100 41.60000
C  -11.95300 12.36200 41.64300
C  -10.67700 12.71200 41.17200
C  -10.80000 14.14500 40.83700
C  -12.35900 11.02700 42.14700
C  -9.35000 12.30200 40.85300
O  -8.79700 11.22900 41.03100
C  -8.52700 13.57200 40.35500
C  -7.38400 13.81400 41.30800
O  -7.57700 14.30300 42.38400
O  -6.09700 13.58300 40.74500
C  -5.04200 14.02400 41.73800
H  -10.44200 20.19300 39.53200
H  -16.54100 18.78400 41.32800
H  -14.65200 12.85800 42.42400
H  -7.49100 16.55300 40.26200
H  -8.37700 18.87900 38.64000
H  -8.40600 18.72700 41.63300
H  -8.28100 20.09500 40.58400
H  -6.95900 18.90500 40.61500
H  -8.06100 16.76500 37.28200
H  -8.04100 15.25000 37.89400
H  -5.62400 15.29900 38.20500
H  -5.66000 16.78700 38.89300
H  -11.67100 21.88100 38.79600
H  -12.21500 22.58100 40.28500
H  -13.15400 22.73300 38.83000
H  -16.60000 20.66400 42.40100
H  -17.52600 20.50400 40.91600
H  -17.22800 22.11100 41.72500
H  -17.52300 16.18600 41.21000
H  -16.31100 14.62300 43.40400
H  -17.14000 17.48400 43.73600
H  -18.03600 16.00900 43.97300
H  -18.69300 17.30000 42.79900
H  -16.73500 13.48200 40.74200
H  -18.20300 14.21200 41.43800
H  -17.45500 11.41000 42.17400
H  -18.54900 12.59700 42.88400
H  -16.88600 12.47700 43.42200
H  -12.65700 10.49900 41.24100
H  -13.19000 11.16400 42.83900
H  -11.45200 10.67300 42.63700
H  -8.09300 13.41700 39.36700
H  -4.02700 13.79500 41.41300
H  -5.19200 13.53400 42.70000
H  -5.07000 15.09000 41.96600
Mg -5.65600 25.51100 25.50400
C  -4.32300 26.75600 28.42100
C  -7.64000 23.40200 27.30000
C  -6.53800 23.93800 22.58200
C  -3.17800 27.37000 23.64400
N  -5.88200 25.05800 27.68800
C  -5.27000 25.76200 28.71200
C  -5.83500 25.31200 30.07800
C  -6.59600 23.96600 29.63300
C  -6.83200 24.17600 28.11500
C  -5.69600 22.72700 29.79400
C  -6.79200 26.25500 30.75200
C  -6.69300 26.16300 32.23400
H  -6.05300 24.95400 32.95000
N  -6.96400 23.89900 25.02100
C  -7.74700 23.29600 25.90100
C  -8.62200 22.44300 25.11700
C  -8.24900 22.52200 23.75800
C  -7.20600 23.48100 23.72400
C  -9.80300 21.61700 25.79400
C  -8.74000 21.68000 22.57600
O  -8.32100 21.84900 21.42400
C  -9.81700 20.70300 22.76100
N  -4.81900 25.52300 23.43800
C  -5.42300 24.85800 22.42400
C  -4.92200 25.28000 21.04100
C  -4.13600 26.57100 21.37000
C  -3.96500 26.46400 22.86200
C  -4.18400 24.07000 20.39900
C  -4.79100 27.93100 20.94900
C  -4.06800 28.61500 19.75800
N  -4.06500 26.83300 25.84600
C  -3.12900 27.50000 25.04700
C  -2.43400 28.49000 25.93000
C  -2.86200 28.13300 27.21400
C  -3.77300 27.09700 27.15600
C  -1.58300 29.62100 25.54800
C  -2.52100 28.46600 28.58400
O  -1.69200 29.23600 28.98900
C  -3.46300 27.54100 29.42800
C  -2.50000 26.67500 30.18400
O  -1.94100 25.70000 29.67500
O  -2.38500 27.10800 31.46400
C  -1.59800 26.31700 32.39900
H  -8.31000 22.79300 27.91000
H  -6.81700 23.45700 21.64200
H  -2.52700 28.05200 23.09200
H  -4.97800 25.21900 30.74400
H  -7.51500 23.76800 30.18500
H  -4.67800 22.95000 30.11300
H  -5.65200 22.28000 28.80200
H  -6.17000 22.05200 30.50700
H  -7.80300 25.89000 30.57200
H  -6.66500 27.28300 30.41100
H  -7.72800 26.19400 32.57400
H  -6.23500 27.06000 32.65100
H  -9.85500 21.68800 26.88100
H  -9.72400 20.55700 25.55300
H  -10.72500 22.08600 25.45100
H  -10.22300 20.30800 21.83000
H  -10.65900 21.22400 23.21700
H  -9.61900 19.80600 23.34700
H  -5.81000 25.37500 20.41700
H  -3.11100 26.48500 21.01100
H  -3.24700 24.47300 20.01700
H  -4.74800 23.66900 19.55700
H  -4.20600 23.23600 21.10100
H  -4.72900 28.67300 21.74500
H  -5.82500 27.77600 20.63900
H  -3.13000 28.14700 19.45900
H  -3.72300 29.61700 20.01400
H  -4.71100 28.44700 18.89400
H  -1.61900 29.82200 24.47700
H  -0.49600 29.58200 25.62500
H  -1.94000 30.52200 26.04600
H  -4.07100 28.10700 30.13400
H  -2.26000 26.04600 33.22200
H  -0.80700 26.89400 32.87800
H  -1.28200 25.40700 31.89000

