158

Mg -1.26500 18.12400 27.08000
C  -1.85900 16.00100 29.80600
C  -1.60500 20.87700 29.26900
C  -1.28800 20.33100 24.43100
C  -1.36300 15.40800 24.89200
N  -1.86600 18.34900 29.30300
C  -1.82200 17.37500 30.21500
C  -1.97400 17.91900 31.65200
C  -1.98300 19.50200 31.41200
C  -1.76100 19.63200 29.93200
C  -3.38900 20.01300 32.00600
C  -0.90600 17.59000 32.71400
C  -1.38500 17.23200 34.13900
H  -0.37800 17.35700 35.33100
N  -1.23800 20.32500 26.87000
C  -1.42100 21.23500 27.89100
C  -1.23900 22.52000 27.31100
C  -1.25300 22.42100 25.88700
C  -1.23500 20.98100 25.64300
C  -1.32200 23.74100 28.26000
C  -1.39700 23.55400 24.83700
O  -1.55500 23.31400 23.60800
C  -1.42800 25.03400 25.27900
N  -1.15900 17.88700 24.97100
C  -1.31400 18.93300 24.09800
C  -1.09800 18.44200 22.66500
C  -0.85600 16.91700 22.84600
C  -1.10500 16.72400 24.29600
C  -2.16300 18.87400 21.62800
C  0.45600 16.37700 22.21800
C  1.78600 16.58700 23.01200
N  -1.53400 16.11500 27.19300
C  -1.52800 15.07600 26.22000
C  -1.70000 13.77800 26.91000
C  -1.79300 14.11000 28.29700
C  -1.72700 15.50700 28.41000
C  -1.67200 12.49600 26.22600
C  -1.91300 13.49600 29.59000
O  -1.92700 12.30900 29.92000
C  -1.81000 14.65300 30.61800
C  -0.53300 14.46900 31.33400
O  0.58000 14.68900 30.87100
O  -0.86600 13.99100 32.57600
C  0.35000 13.81100 33.42400
H  -1.55300 21.69300 29.99200
H  -1.40400 20.92700 23.52300
H  -1.42900 14.57300 24.19100
H  -2.96600 17.54100 31.89700
H  -1.17300 19.99400 31.95000
H  -3.80000 19.51400 32.88400
H  -4.19000 19.89800 31.27500
H  -3.35600 21.07300 32.25500
H  -0.06600 18.28400 32.75600
H  -0.55100 16.62300 32.35600
H  -1.65000 16.18100 34.01700
H  -2.25300 17.86100 34.33800
H  -2.35000 24.02600 28.03700
H  -0.60200 24.54900 28.13200
H  -1.37700 23.66800 29.34600
H  -2.36200 25.19600 25.81600
H  -1.40300 25.53900 24.31300
H  -0.54800 25.21500 25.89600
H  -0.07200 18.78700 22.53300
H  -1.73900 16.40200 22.46900
H  -2.62400 18.00300 21.16400
H  -1.68100 19.60400 20.97800
H  -3.02100 19.42700 22.01200
H  0.53800 16.78800 21.21100
H  0.33700 15.29500 22.27000
H  2.54300 16.88800 22.28800
H  2.02800 15.67800 23.56200
H  1.70100 17.38000 23.75500
H  -0.81700 11.86100 26.45900
H  -1.65000 12.70900 25.15700
H  -2.60400 11.95300 26.38300
H  -2.65500 14.74300 31.30000
H  0.76000 14.80400 33.60900
H  1.14900 13.29900 32.88700
H  -0.00000 13.27100 34.30300
Mg 17.93800 -1.25700 27.52000
C  17.13800 0.52100 30.46100
C  19.68600 -3.53000 29.57500
C  19.13300 -2.67900 24.74800
C  16.31700 1.14100 25.64700
N  18.42700 -1.33200 29.86000
C  17.95300 -0.55100 30.81300
C  18.35000 -1.10600 32.20200
C  19.09400 -2.46200 31.87100
C  18.99100 -2.50400 30.34300
C  20.54000 -2.56100 32.43000
C  17.19000 -1.49800 33.16000
C  17.41900 -1.14000 34.63800
H  18.70500 -0.44600 35.05600
N  19.24000 -2.84600 27.21700
C  19.85300 -3.65800 28.19100
C  20.72900 -4.61800 27.49200
C  20.63000 -4.32200 26.09400
C  19.57900 -3.29200 25.95000
C  21.60200 -5.55500 28.30400
C  21.46700 -4.91300 24.90700
O  21.33500 -4.52400 23.76400
C  22.49700 -5.88300 25.15400
N  17.74500 -0.88100 25.49200
C  18.32200 -1.55900 24.51300
C  18.09100 -0.97400 23.11700
C  16.91900 0.01400 23.39800
C  16.98500 0.09800 24.93100
C  19.38400 -0.30200 22.60200
C  15.49600 -0.35700 22.77200
C  14.78100 0.83500 22.07700
N  16.93600 0.48200 27.88700
C  16.25800 1.29800 27.00700
C  15.48700 2.30000 27.76100
C  15.76800 1.98600 29.08500
C  16.72500 0.93600 29.10400
C  14.49900 3.37400 27.26900
C  15.53500 2.42000 30.48400
O  14.81500 3.36700 30.83800
C  16.36100 1.49400 31.39200
C  17.25000 2.32500 32.21100
O  18.28200 2.74500 31.78100
O  16.61900 2.59500 33.40600
C  17.28600 3.49700 34.32900
H  20.42600 -4.03600 30.19800
H  19.47200 -3.12100 23.80900
H  15.75900 1.94200 25.15900
H  19.02900 -0.35800 32.61100
H  18.60100 -3.37500 32.20400
H  20.78800 -1.64700 32.97100
H  21.30100 -2.56600 31.65000
H  20.77100 -3.39800 33.09000
H  16.88100 -2.53300 33.01700
H  16.32100 -0.90400 32.87900
H  17.17400 -2.00700 35.25200
H  16.63400 -0.42600 34.88900
H  22.24200 -5.07400 29.04300
H  22.35900 -6.19700 27.85300
H  20.99600 -6.32400 28.78400
H  23.44300 -5.70100 25.66300
H  22.62000 -6.45800 24.23600
H  22.08100 -6.74700 25.67200
H  17.79800 -1.67000 22.33100
H  17.24400 1.02600 23.16000
H  19.71800 -0.76400 21.67200
H  20.21200 -0.43100 23.29900
H  19.34500 0.77600 22.44600
H  14.82900 -0.70500 23.56200
H  15.65200 -1.19700 22.09600
H  14.56700 0.37800 21.11100
H  15.40000 1.72300 21.95600
H  13.84900 1.11000 22.57100
H  13.71800 3.00600 26.60400
H  15.10400 4.09600 26.72000
H  14.08700 3.81200 28.17800
H  15.67700 0.96600 32.05700
H  16.70100 4.41500 34.26600
H  18.32100 3.66000 34.02900
H  17.34800 3.07200 35.33100

