158

Mg 43.80100 4.15600 47.52300
C  41.55600 6.91700 47.27300
C  41.01700 2.19200 48.03600
C  45.72700 1.48200 47.26400
C  46.36300 6.28500 46.87300
N  41.54400 4.57100 47.62100
C  40.90600 5.74700 47.44300
C  39.40000 5.55700 47.63800
C  39.22500 4.03600 47.90900
C  40.66600 3.53800 47.90600
C  38.28700 3.60500 49.10700
C  38.47800 6.11800 46.54900
C  38.96900 6.09300 45.13300
H  38.53900 7.21000 44.16900
N  43.43100 2.09900 47.70300
C  42.22500 1.50600 47.89200
C  42.51400 0.05800 48.02200
C  43.84900 -0.20100 47.69900
C  44.39800 1.14500 47.58700
C  41.48300 -1.00700 48.30200
C  44.52900 -1.55800 47.70700
O  43.89800 -2.55900 48.00300
C  45.89300 -1.84800 47.26700
N  45.69800 3.91200 46.84800
C  46.27800 2.67500 47.04300
C  47.81600 2.82400 47.08700
C  48.04700 4.39700 46.88800
C  46.63500 4.92000 46.85500
C  48.54800 2.18400 48.36400
C  48.87800 4.73200 45.56900
C  50.32500 4.99100 45.86100
N  43.96300 6.20800 46.97000
C  45.13600 7.00100 46.86500
C  44.76600 8.40700 46.76100
C  43.39400 8.39500 46.86600
C  42.90800 7.09900 46.98100
C  45.69700 9.58500 46.63800
C  42.29400 9.23700 47.06000
O  42.27800 10.46600 47.13900
C  40.98200 8.32200 47.14600
C  40.07900 8.72800 48.33000
O  40.24600 8.46900 49.47800
O  38.96600 9.39200 47.78900
C  38.07300 9.97300 48.73800
H  40.11700 1.57600 48.09400
H  46.40800 0.63100 47.20800
H  47.25000 6.90800 46.74500
H  39.10500 6.08800 48.54300
H  38.69700 3.59300 47.06400
H  37.91000 4.53700 49.52800
H  38.85800 3.05100 49.85200
H  37.48500 2.92900 48.80900
H  38.07700 7.10900 46.76200
H  37.53400 5.57800 46.47600
H  38.49200 5.22000 44.68900
H  40.02900 5.84300 45.07900
H  41.65400 -1.44500 49.28500
H  41.51700 -1.60900 47.39400
H  40.45700 -0.64000 48.26400
H  46.73500 -1.45700 47.83700
H  46.00700 -1.41900 46.27100
H  45.93800 -2.93500 47.19300
H  48.32300 2.28000 46.29000
H  48.51900 4.66700 47.83200
H  47.75800 1.94500 49.07600
H  49.26900 2.80700 48.89300
H  49.00000 1.25600 48.01600
H  48.54600 5.71400 45.23200
H  48.71600 4.03600 44.74700
H  50.89000 4.83700 44.94100
H  50.76100 4.40900 46.67300
H  50.38300 6.03600 46.16700
H  46.49400 9.29800 45.95100
H  46.18600 9.66800 47.60900
H  45.19600 10.51900 46.38400
H  40.35400 8.35100 46.25600
H  38.59000 10.32100 49.63200
H  37.39800 9.17000 49.03400
H  37.62700 10.79100 48.17300
Mg 16.85500 52.04100 26.88900
C  18.93600 50.54600 29.43900
C  14.48900 52.48600 29.20600
C  14.87400 53.17100 24.32200
C  19.18900 51.11500 24.48700
N  16.69100 51.27900 29.05600
C  17.72500 51.02200 29.95500
C  17.31700 51.33100 31.41200
C  15.80900 51.69400 31.29500
C  15.61500 51.84700 29.73200
C  14.84500 50.70900 31.95600
C  18.23700 52.37000 32.00400
C  18.65000 52.30000 33.42500
H  17.80100 51.41900 34.31900
N  14.98300 52.73300 26.75400
C  14.14000 52.83300 27.86200
C  12.97900 53.55900 27.46500
C  13.09900 53.84200 26.05700
C  14.39100 53.24700 25.63300
C  11.86800 54.00100 28.42900
C  12.13300 54.58500 25.17200
O  12.32300 54.68900 23.96900
C  10.87800 55.24400 25.70400
N  17.03100 51.98400 24.63400
C  16.05600 52.50900 23.80900
C  16.58100 52.62100 22.34200
C  17.92100 51.93400 22.46600
C  18.12100 51.66600 23.93900
C  15.61600 52.11100 21.28900
C  19.12600 52.78400 21.80700
C  19.98100 53.82500 22.61700
N  18.64500 51.06900 26.89100
C  19.48600 50.81400 25.85900
C  20.69200 50.24300 26.37700
C  20.48300 50.00200 27.72500
C  19.28100 50.59400 28.06600
C  21.86400 49.79900 25.51100
C  21.12100 49.58800 29.00700
O  22.19700 49.03600 29.23900
C  20.14800 49.99700 30.15300
C  19.79300 48.88800 31.06000
O  19.09700 47.93300 30.74200
O  20.58800 48.97500 32.22200
C  20.13000 48.03000 33.22900
H  13.82300 52.75500 30.02900
H  14.34800 53.65500 23.49700
H  19.92700 50.88500 23.71600
H  17.43100 50.42100 32.00200
H  15.73000 52.69500 31.71700
H  14.42600 50.09000 31.16200
H  14.11700 51.30900 32.50300
H  15.33400 50.11300 32.72600
H  17.98400 53.37200 31.65800
H  19.20000 52.21700 31.51800
H  18.54500 53.31400 33.81200
H  19.71900 52.11200 33.52200
H  12.39900 54.02800 29.38100
H  11.17900 53.16400 28.31500
H  11.39000 54.97400 28.32200
H  10.35400 55.80100 24.92800
H  11.20400 55.91200 26.50100
H  10.29800 54.36400 25.98300
H  16.79300 53.68200 22.21100
H  17.94100 50.93100 22.03900
H  16.06400 51.25200 20.78900
H  15.44500 52.68200 20.37600
H  14.68000 51.73300 21.69800
H  18.77000 53.26200 20.89400
H  19.83400 52.01000 21.51200
H  19.67500 53.66400 23.65100
H  19.74600 54.83300 22.27600
H  21.04300 53.57900 22.59300
H  21.32200 48.97900 25.04000
H  22.70700 49.46000 26.11400
H  22.09200 50.54800 24.75300
H  20.54900 50.85900 30.68600
H  20.36800 47.01600 32.90700
H  19.07800 48.02500 33.51200
H  20.67600 48.35500 34.11400

