158

Mg -2.11900 17.57100 26.62100
C  -2.31900 15.12400 29.19700
C  -2.59300 19.92300 29.01200
C  -2.34200 19.85700 23.99800
C  -2.47100 15.03600 24.30500
N  -2.22500 17.53600 28.94600
C  -2.27900 16.47500 29.77400
C  -2.39500 16.85300 31.26500
C  -2.80400 18.34500 31.08300
C  -2.53200 18.68200 29.57500
C  -4.24200 18.62200 31.53300
C  -1.17200 16.54400 32.17900
C  -1.01300 17.30500 33.47000
H  -0.64400 16.57500 34.80400
N  -2.31900 19.58100 26.61700
C  -2.47800 20.41200 27.68000
C  -2.60500 21.75800 27.26700
C  -2.70100 21.66200 25.82800
C  -2.47100 20.29600 25.44400
C  -2.67600 22.99100 28.20700
C  -2.92700 22.82500 24.88400
O  -2.87900 22.71400 23.63100
C  -3.06100 24.22500 25.35900
N  -2.29200 17.41500 24.52900
C  -2.22300 18.50200 23.64500
C  -2.21300 18.00700 22.19700
C  -2.52400 16.46900 22.27200
C  -2.33800 16.27200 23.77000
C  -3.13900 18.81300 21.18600
C  -1.50900 15.60800 21.42200
C  -2.16100 14.59200 20.45300
N  -2.19800 15.54900 26.69100
C  -2.37300 14.67100 25.66500
C  -2.41300 13.31600 26.15000
C  -2.46000 13.50500 27.57300
C  -2.36000 14.83100 27.83400
C  -2.45100 12.12900 25.29400
C  -2.59600 12.74800 28.79400
O  -2.68300 11.55100 28.96600
C  -2.50300 13.78300 29.93300
C  -1.33300 13.45000 30.76800
O  -0.22500 13.84700 30.52200
O  -1.64600 12.60300 31.85300
C  -0.50100 12.16800 32.67300
H  -2.81700 20.63200 29.81200
H  -2.57100 20.51200 23.15500
H  -2.60700 14.33300 23.48000
H  -3.19500 16.23000 31.66700
H  -2.22000 19.03500 31.69200
H  -4.60300 17.95200 32.31300
H  -5.00300 18.52900 30.75800
H  -4.34600 19.64300 31.90100
H  -0.28600 16.56800 31.54400
H  -1.22800 15.49600 32.47400
H  -1.92900 17.87900 33.60500
H  -0.14200 17.93600 33.29000
H  -3.66800 23.43300 28.10500
H  -1.95000 23.79000 28.05700
H  -2.53600 22.50300 29.17100
H  -4.01400 24.18300 25.88600
H  -2.98900 24.97100 24.56700
H  -2.18600 24.38000 25.99000
H  -1.18100 18.16200 21.88000
H  -3.54800 16.25900 21.96200
H  -3.79400 19.49300 21.73100
H  -3.65500 18.07100 20.57800
H  -2.47500 19.48900 20.64700
H  -0.77500 15.25000 22.14500
H  -1.09900 16.30300 20.69000
H  -2.02000 15.04300 19.47100
H  -3.23000 14.55500 20.66100
H  -1.62300 13.66300 20.64700
H  -1.69500 12.18500 24.51100
H  -3.46500 11.98000 24.92500
H  -2.24000 11.24800 25.90000
H  -3.41000 13.77300 30.53700
H  -0.90400 11.68600 33.56400
H  0.16800 13.02100 32.78500
H  0.06600 11.41500 32.12600
Mg 16.90300 51.49500 26.49600
C  18.84300 50.38800 29.13800
C  14.49800 52.49600 28.60500
C  15.22000 52.44700 23.78600
C  19.46800 50.22700 24.22400
N  16.81500 51.65400 28.68300
C  17.65100 51.03100 29.56800
C  17.07400 51.11000 30.97800
C  15.66100 51.68800 30.85500
C  15.59700 51.91800 29.27100
C  14.53100 50.80500 31.41700
C  18.05800 51.71800 32.00300
C  17.50400 52.52000 33.21600
H  16.51700 51.78900 34.10200
N  15.16500 52.43400 26.31500
C  14.29600 52.75200 27.30300
C  13.14300 53.45300 26.64200
C  13.41900 53.52700 25.23800
C  14.61800 52.74800 25.05700
C  12.07600 54.00500 27.50000
C  12.51500 54.16100 24.13300
O  12.71500 54.03100 22.92600
C  11.24100 54.92800 24.49200
N  17.24900 51.24800 24.24500
C  16.40500 51.81400 23.35400
C  16.83600 51.66800 21.93200
C  18.37700 51.27100 22.06800
C  18.39200 50.83200 23.57600
C  16.03700 50.58200 21.14200
C  19.42800 52.39100 21.79700
C  20.80600 51.86400 21.29500
N  18.74000 50.40700 26.59300
C  19.68500 50.06400 25.58700
C  20.79000 49.49900 26.20700
C  20.52100 49.51200 27.58400
C  19.28800 50.20400 27.80200
C  22.02400 48.93100 25.45400
C  21.03600 49.20600 28.97300
O  22.02700 48.62500 29.39500
C  19.97600 49.79400 29.99100
C  19.47100 48.62700 30.67900
O  18.60800 47.86000 30.25900
O  19.95200 48.54900 31.93200
C  19.24000 47.56900 32.70500
H  13.67500 52.81500 29.24900
H  14.77500 52.98100 22.94300
H  20.27300 49.96600 23.53400
H  16.96900 50.04500 31.18100
H  15.62300 52.70000 31.25900
H  13.93300 51.34800 32.14800
H  14.94000 49.91600 31.89700
H  13.85800 50.50900 30.61200
H  18.89200 52.25400 31.55000
H  18.52500 50.85800 32.48200
H  16.96500 53.39200 32.84600
H  18.37000 52.85800 33.78600
H  12.33200 55.04700 27.69500
H  11.77200 53.43000 28.37500
H  11.12400 54.14400 26.98900
H  10.64400 54.05300 24.74900
H  10.79500 55.57500 23.73800
H  11.39600 55.53200 25.38600
H  16.81000 52.69300 21.56200
H  18.64700 50.32900 21.59000
H  16.75900 49.87500 20.73400
H  15.53600 51.18700 20.38600
H  15.41100 50.20100 21.94900
H  19.63000 52.83500 22.77200
H  18.89500 53.08000 21.14200
H  21.04300 52.44800 20.40600
H  20.67200 50.82100 21.00900
H  21.60000 51.94500 22.03700
H  22.85200 48.78300 26.14700
H  22.27900 49.63500 24.66200
H  21.90100 47.96000 24.97600
H  20.55400 50.38100 30.70500
H  19.84800 47.46600 33.60300
H  19.22500 46.56700 32.27700
H  18.23700 47.86700 33.01200

