158

Mg 44.43400 4.81400 45.81900
C  42.54800 7.80800 45.84300
C  41.37800 3.14000 45.24200
C  46.18200 1.93300 45.03700
C  47.23000 6.59200 46.26400
N  42.17800 5.45900 45.43000
C  41.70500 6.65800 45.52000
C  40.13700 6.62800 45.36400
C  39.77400 5.13900 45.47900
C  41.19900 4.51400 45.39600
C  38.92400 4.81500 46.74500
C  39.48700 7.43800 44.12100
C  40.41700 7.82600 42.94800
H  40.42800 6.84100 41.71400
N  43.92900 2.83200 45.19600
C  42.59400 2.38400 45.06900
C  42.71800 0.97900 44.80400
C  44.02400 0.61000 44.46600
C  44.82100 1.79600 44.89000
C  41.46700 0.04500 44.72100
C  44.52100 -0.77300 43.95200
O  43.77500 -1.64400 43.77700
C  45.94500 -0.95800 43.62400
N  46.43700 4.38400 45.45200
C  46.90600 3.12600 45.36400
C  48.47200 3.07700 45.70000
C  48.81200 4.59100 45.98900
C  47.41500 5.29700 45.82100
C  48.88200 2.03100 46.71100
C  49.97100 5.13200 45.03400
C  49.52700 5.56500 43.59900
N  44.88900 6.81400 45.81500
C  46.09400 7.38500 46.22800
C  45.88400 8.77100 46.50000
C  44.47900 8.98500 46.34400
C  43.94400 7.75000 45.95800
C  46.99900 9.67400 46.84600
C  43.42900 9.99200 46.41400
O  43.45400 11.16200 46.68700
C  42.05800 9.26500 46.07700
C  41.16500 9.36000 47.28000
O  41.23800 8.67700 48.33400
O  40.17100 10.29300 47.06400
C  39.05500 10.31600 48.01100
H  40.41600 2.62400 45.25200
H  46.91500 1.15900 44.80100
H  48.20600 7.07200 46.35800
H  39.75600 7.17200 46.22800
H  39.21900 4.69700 44.65100
H  39.60300 4.61300 47.57300
H  38.42500 3.89600 46.43900
H  38.28900 5.62500 47.10600
H  38.91500 8.29700 44.47100
H  38.72900 6.73900 43.76700
H  41.47500 7.90400 43.19800
H  40.12200 8.82900 42.63800
H  41.50200 -0.39700 43.72500
H  40.51900 0.57700 44.80000
H  41.48000 -0.73400 45.48300
H  46.18400 -1.94400 43.22600
H  46.53700 -0.88000 44.53600
H  46.15500 -0.22000 42.84900
H  49.00900 2.85700 44.77700
H  49.03000 4.83900 47.02800
H  48.09700 2.09300 47.46500
H  49.85400 2.34500 47.09300
H  48.76800 1.08100 46.19000
H  50.67400 4.33800 44.78300
H  50.53200 5.96200 45.46300
H  48.97600 6.50500 43.62200
H  48.76500 4.88900 43.20900
H  50.39100 5.57800 42.93500
H  47.08700 9.80700 47.92400
H  46.64700 10.61800 46.42800
H  47.93700 9.43900 46.34200
H  41.54400 9.69300 45.21600
H  39.38500 10.53300 49.02700
H  38.67600 9.29500 48.04700
H  38.39700 11.07000 47.58000
Mg 9.77900 46.94400 26.20700
C  7.73400 47.36200 28.98400
C  12.27400 48.58600 27.90600
C  11.56400 47.08500 23.33900
C  6.79700 46.31800 24.33100
N  9.95100 47.66300 28.22400
C  9.06700 47.68200 29.22000
C  9.69400 48.00600 30.57400
C  10.89600 48.87500 30.06100
C  11.09700 48.37300 28.62900
C  10.66000 50.46000 30.16900
C  10.21700 46.78500 31.41300
C  9.77000 46.65400 32.88100
H  9.99900 45.32500 33.66800
N  11.74700 47.55600 25.75000
C  12.65400 48.20000 26.58800
C  13.84100 48.55100 25.80100
C  13.63900 48.08300 24.49700
C  12.26600 47.57200 24.50100
C  15.03800 49.37600 26.43100
C  14.57400 48.14500 23.20000
O  14.21400 47.96400 22.05000
C  15.96600 48.61700 23.35600
N  9.26600 46.94800 24.11300
C  10.19200 46.77400 23.14000
C  9.56900 46.25700 21.83900
C  8.13900 45.83300 22.27800
C  8.05000 46.41200 23.66100
C  9.74700 47.35100 20.75000
C  7.76600 44.28100 22.13700
C  8.64900 43.31300 22.82300
N  7.75800 46.82700 26.48800
C  6.68700 46.49900 25.70800
C  5.48800 46.50500 26.49900
C  5.90900 46.75000 27.74200
C  7.22500 47.01900 27.72600
C  4.05000 46.20400 26.04200
C  5.41400 46.84200 29.10400
O  4.28600 46.75100 29.53000
C  6.64200 47.19100 30.00300
C  6.96500 45.98700 30.80700
O  7.69900 45.04700 30.54900
O  6.21500 46.02400 31.98100
C  6.42600 44.96600 32.95300
H  13.07700 49.04000 28.49000
H  12.11700 46.80100 22.44100
H  5.91300 45.84500 23.89700
H  8.94900 48.49100 31.20500
H  11.78300 48.71000 30.67300
H  10.78200 50.90500 29.18100
H  11.39400 50.94600 30.81200
H  9.69400 50.76800 30.56800
H  11.30600 46.77300 31.43900
H  10.02100 45.82900 30.92800
H  8.77200 47.07500 33.00200
H  10.45300 47.38600 33.31200
H  15.87300 48.68200 26.33300
H  14.79900 49.69300 27.44600
H  15.36400 50.30300 25.95900
H  16.62700 48.05900 22.69300
H  16.43000 48.34100 24.30300
H  16.00100 49.70500 23.28900
H  10.06800 45.33800 21.53200
H  7.36700 46.43900 21.80400
H  10.70300 47.82600 20.97000
H  8.92700 48.03700 20.96200
H  9.82700 46.83500 19.79300
H  7.77900 44.04900 21.07200
H  6.75600 44.13200 22.52100
H  8.17900 42.68000 23.57500
H  9.43400 43.90100 23.29800
H  9.12000 42.65200 22.09500
H  3.55400 47.13800 25.77600
H  3.46700 45.76200 26.85100
H  4.12400 45.46900 25.24100
H  6.50500 48.17900 30.44300
H  7.19100 44.24900 32.65500
H  5.42800 44.55700 33.11400
H  6.68800 45.34400 33.94100

