158

Mg 16.71200 53.11600 26.26800
C  18.68800 51.55200 28.78500
C  14.42900 53.84200 28.86800
C  14.42800 54.07400 24.01600
C  18.86300 51.92200 23.88200
N  16.54500 52.60300 28.49900
C  17.51200 52.02300 29.31800
C  17.10100 52.17200 30.81300
C  15.52400 52.40800 30.71700
C  15.43900 52.90300 29.27300
C  14.52600 51.26100 30.91600
C  17.87900 53.35200 31.55700
C  18.10200 53.24000 32.95400
H  17.21300 52.36800 33.80100
N  14.82700 54.02200 26.40800
C  14.10100 54.33600 27.58400
C  12.97500 55.11100 27.20300
C  13.03700 55.35700 25.81400
C  14.10400 54.47600 25.33400
C  12.10000 55.72900 28.26400
C  12.21900 56.31600 24.92700
O  12.49200 56.46900 23.80500
C  11.05900 57.25100 25.57000
N  16.64600 52.94400 24.29300
C  15.53000 53.32700 23.57300
C  15.73700 53.02000 22.16400
C  17.27300 52.73100 22.07600
C  17.69600 52.57000 23.49700
C  14.82800 51.90400 21.63400
C  18.08100 53.88900 21.38800
C  18.91300 54.89200 22.20300
N  18.42800 51.93200 26.32100
C  19.27500 51.61600 25.24000
C  20.41400 50.86600 25.74100
C  20.19100 50.84900 27.13500
C  19.06400 51.51800 27.40300
C  21.51000 50.20400 25.01200
C  20.82600 50.36300 28.36500
O  21.89800 49.75700 28.61200
C  19.87600 50.91400 29.51900
C  19.49200 49.73000 30.36500
O  18.76400 48.78400 30.17300
O  20.28000 49.80100 31.47800
C  20.17600 48.77300 32.48100
H  13.75000 54.19900 29.64400
H  13.65000 54.49400 23.37500
H  19.54900 51.55300 23.11700
H  17.17600 51.23600 31.36600
H  15.11600 53.21100 31.33000
H  13.67900 51.73300 31.41500
H  14.89200 50.42700 31.51500
H  14.18600 50.78400 29.99700
H  17.34900 54.28600 31.37000
H  18.87000 53.49200 31.12400
H  17.85700 54.21200 33.38200
H  19.13700 53.07000 33.25000
H  12.47200 56.67500 28.65800
H  11.97500 55.00000 29.06400
H  11.09000 55.89700 27.89000
H  10.10000 56.74300 25.67900
H  10.95300 58.13500 24.94100
H  11.32500 57.63400 26.55500
H  15.44200 53.81200 21.47500
H  17.58600 51.86400 21.49500
H  14.58300 52.16600 20.60500
H  13.89500 51.72700 22.16900
H  15.30500 50.92400 21.60400
H  17.43700 54.46200 20.72000
H  18.69600 53.46600 20.59400
H  18.50600 55.86000 21.91000
H  19.95600 54.73500 21.92700
H  18.87600 54.84500 23.29200
H  22.32500 49.93700 25.68500
H  21.87200 50.94500 24.29800
H  21.11500 49.38800 24.40700
H  20.33400 51.59300 30.23700
H  20.80500 49.20000 33.26100
H  20.59900 47.87700 32.02700
H  19.13000 48.70800 32.78100
Mg -4.84600 25.67800 26.27600
C  -3.80200 26.88100 29.53500
C  -6.73000 23.43300 27.69100
C  -5.00900 24.45600 23.11900
C  -2.29200 27.99200 24.97400
N  -5.08300 25.13300 28.39600
C  -4.63500 25.77000 29.53500
C  -5.42700 25.07900 30.75000
C  -6.12300 23.83100 30.14200
C  -6.02200 24.16300 28.63500
C  -5.56000 22.43300 30.66500
C  -6.27500 26.09700 31.52800
C  -5.98600 26.13200 33.06600
H  -5.67000 24.79800 33.82800
N  -5.77800 24.21200 25.51300
C  -6.62100 23.49100 26.25100
C  -7.23200 22.63100 25.30900
C  -6.61800 22.72000 23.98300
C  -5.73000 23.87300 24.17900
C  -8.38900 21.71300 25.69200
C  -6.89000 21.88100 22.69300
O  -6.34000 22.08300 21.62800
C  -7.79900 20.64000 22.85500
N  -3.80900 26.27000 24.24100
C  -4.16200 25.51600 23.11700
C  -3.53800 26.06000 21.88900
C  -2.79500 27.37100 22.44800
C  -2.93600 27.24700 23.97000
C  -2.44100 25.06800 21.33800
C  -3.36200 28.67600 21.98100
C  -3.26400 28.84500 20.41000
N  -3.46500 27.21600 27.00300
C  -2.52200 28.04800 26.33900
C  -1.93500 28.94100 27.36500
C  -2.43000 28.58200 28.62400
C  -3.28200 27.44500 28.33800
C  -1.03000 30.08800 27.12800
C  -2.37900 28.88100 30.02100
O  -1.84300 29.76000 30.64100
C  -3.23100 27.71300 30.67100
C  -2.34400 26.84300 31.61000
O  -1.73100 25.77900 31.36500
O  -2.38000 27.31300 32.90300
C  -1.55000 26.67500 33.97300
H  -7.39500 22.62700 28.00600
H  -5.34800 24.04400 22.16600
H  -1.55600 28.72900 24.64600
H  -4.66500 24.70600 31.43400
H  -7.19200 23.79500 30.35100
H  -4.71400 22.49900 31.34900
H  -5.07800 21.87200 29.86500
H  -6.27400 21.81500 31.20800
H  -7.31900 25.90400 31.28200
H  -5.91100 27.03000 31.09700
H  -6.95800 26.49700 33.40000
H  -5.16200 26.83000 33.21100
H  -9.25500 21.86200 25.04700
H  -8.76200 21.78100 26.71400
H  -8.13400 20.65700 25.59700
H  -8.16400 20.46800 21.84300
H  -8.73000 20.88800 23.36400
H  -7.25300 19.90500 23.44700
H  -4.30700 26.11800 21.11900
H  -1.71600 27.50900 22.36800
H  -1.51500 25.53200 21.00000
H  -2.93200 24.62900 20.46900
H  -2.29100 24.30600 22.10300
H  -2.86000 29.47800 22.52300
H  -4.42300 28.74400 22.22200
H  -2.56000 28.08600 20.06900
H  -3.02700 29.89600 20.24600
H  -4.18500 28.60400 19.88000
H  -1.38900 30.59300 26.23100
H  -0.05600 29.64200 26.92800
H  -1.06100 30.82800 27.92800
H  -4.00300 28.24500 31.22600
H  -1.04900 27.53400 34.41900
H  -0.72800 26.08400 33.57100
H  -2.14300 26.19700 34.75400

