158

Mg 8.50500 3.15400 27.79900
C  9.82200 1.59300 30.68100
C  6.34300 4.89500 29.85500
C  7.18900 4.58500 25.04200
C  10.21500 0.92500 25.85300
N  8.06500 3.16800 30.00600
C  8.82300 2.58100 30.95900
C  8.45100 3.12100 32.39600
C  7.22600 3.97300 32.08800
C  7.21100 4.06200 30.54900
C  5.94500 3.51000 32.79800
C  9.59400 3.73600 33.17400
C  9.12500 4.39000 34.47300
H  10.03500 4.00500 35.61600
N  7.02700 4.58300 27.45900
C  6.24300 5.18500 28.46600
C  5.34600 6.11400 27.86900
C  5.45700 5.95600 26.44900
C  6.61200 5.03100 26.25900
C  4.35500 6.94700 28.73400
C  4.61000 6.64500 25.37800
O  4.78900 6.32500 24.21400
C  3.43400 7.63600 25.72400
N  8.81900 2.92600 25.68300
C  8.13800 3.50800 24.69900
C  8.57100 3.08500 23.31000
C  9.56600 1.96100 23.61000
C  9.58300 1.93500 25.12900
C  7.33700 2.64400 22.47900
C  10.96400 2.09300 23.06300
C  11.85200 3.28000 23.63500
N  9.60000 1.52100 28.14400
C  10.28000 0.74000 27.20400
C  11.13700 -0.15600 27.93500
C  10.97300 0.15900 29.31300
C  10.05500 1.14400 29.39400
C  12.02900 -1.29800 27.35900
C  11.43300 -0.18500 30.67000
O  12.23400 -1.09300 30.98400
C  10.79200 0.87200 31.63200
C  10.11700 0.00300 32.61000
O  9.06000 -0.58500 32.45300
O  10.83000 0.02900 33.70000
C  10.25500 -0.20200 35.03900
H  5.58100 5.33700 30.50100
H  6.80500 5.03300 24.12300
H  10.73300 0.15200 25.28200
H  8.02700 2.23900 32.87500
H  7.44600 5.01400 32.32600
H  6.22400 2.75900 33.53700
H  5.29200 3.04700 32.05900
H  5.47900 4.29900 33.38800
H  10.00800 4.55700 32.58900
H  10.43500 3.07700 33.39100
H  8.07900 4.12300 34.62300
H  9.19800 5.47400 34.37700
H  4.38400 7.98600 28.40700
H  4.49900 7.08500 29.80600
H  3.44500 6.38100 28.53500
H  2.90700 7.83300 24.79100
H  3.72100 8.61500 26.10900
H  2.71500 7.00400 26.24500
H  9.01000 3.92100 22.76500
H  9.09000 1.02400 23.32300
H  6.45100 2.61100 23.11400
H  7.40200 1.66500 22.00400
H  7.23300 3.45500 21.75900
H  10.89700 2.19500 21.98000
H  11.46100 1.14000 23.24000
H  12.22000 3.85000 22.78200
H  12.74600 2.83000 24.06600
H  11.39100 3.75500 24.50000
H  12.01900 -1.34900 26.27000
H  11.79500 -2.19300 27.93500
H  13.05100 -0.97200 27.55300
H  11.70000 1.30900 32.04700
H  9.18900 -0.42700 35.09200
H  10.39700 0.68000 35.66400
H  10.83500 -0.97500 35.54200
Mg 5.81200 53.86000 38.80700
C  5.05600 50.42900 39.02200
C  9.07100 53.10000 38.00100
C  6.28300 57.12200 38.18200
C  2.38400 54.57500 39.59900
N  6.87200 52.01100 38.28900
C  6.34600 50.73600 38.53500
C  7.44800 49.67300 38.32500
C  8.72700 50.49600 38.35800
C  8.22100 51.96000 38.20000
C  9.54800 50.19900 39.71100
C  7.39700 48.93000 36.94800
C  7.00400 49.75700 35.73500
H  5.74100 49.50100 34.94900
N  7.44300 54.97900 38.16600
C  8.72400 54.45300 38.05300
C  9.60300 55.56100 37.84200
C  8.88100 56.80000 37.90500
C  7.47900 56.32300 38.10900
C  11.13100 55.43500 37.60600
C  9.40400 58.23500 37.61200
O  10.61300 58.46300 37.43100
C  8.49300 59.36800 37.47200
N  4.47300 55.56200 38.71000
C  4.90700 56.80800 38.41100
C  3.80500 57.86800 38.68500
C  2.57700 56.97300 39.00600
C  3.18200 55.61500 39.16400
C  4.04100 58.87300 39.73400
C  1.45000 56.98200 37.82000
C  -0.02000 57.01500 38.30400
N  4.06900 52.77900 39.35100
C  2.76700 53.23900 39.65100
C  2.03200 52.09500 40.07500
C  2.80500 50.92700 39.91300
C  4.06900 51.42800 39.37200
C  0.59800 52.12900 40.55500
C  2.97400 49.46100 39.98300
O  2.12100 48.63600 40.35700
C  4.38100 49.14500 39.32300
C  4.06200 48.23600 38.18000
O  3.80100 48.62900 37.02500
O  4.13300 46.93600 38.58000
C  4.24400 45.91400 37.52400
H  10.13200 52.85700 38.09100
H  6.48400 58.19000 38.07600
H  1.33400 54.79500 39.80200
H  7.46500 48.95600 39.14500
H  9.41300 50.25800 37.54500
H  10.46800 49.67500 39.45200
H  9.05900 49.51800 40.40800
H  9.70200 51.07700 40.33800
H  6.81500 48.01000 36.99700
H  8.39100 48.49900 36.82600
H  7.75100 49.61400 34.95400
H  7.01100 50.81200 36.00700
H  11.34300 55.45200 36.53700
H  11.46200 54.47900 38.01200
H  11.64500 56.18700 38.20500
H  7.70200 59.07600 36.78200
H  8.96500 60.28500 37.11900
H  8.03800 59.56900 38.44100
H  3.75900 58.33000 37.69900
H  2.00900 57.18700 39.91100
H  4.95700 58.58400 40.25000
H  3.22900 59.09700 40.42600
H  4.32400 59.75700 39.16300
H  1.71300 56.08400 37.26000
H  1.53300 57.84700 37.16300
H  -0.73800 56.32700 37.85900
H  -0.42400 57.94600 37.90500
H  -0.12600 57.00100 39.38800
H  0.51100 51.60100 41.50400
H  0.00000 51.68700 39.75800
H  0.23200 53.14900 40.66800
H  4.92100 48.50200 40.01900
H  3.26100 45.78500 37.07300
H  4.63700 45.06300 38.08000
H  4.99000 46.30400 36.83000

