158

Mg 6.76000 53.38000 41.24600
C  5.81100 49.98500 41.19700
C  9.94700 52.40300 40.32700
C  7.56000 56.59200 40.62700
C  3.34900 54.25100 41.58800
N  7.65900 51.43600 40.63500
C  7.16800 50.17100 40.82400
C  8.13600 49.07300 40.31300
C  9.51500 49.86000 40.61900
C  9.03300 51.34200 40.43100
C  10.18100 49.51500 41.99100
C  8.07200 48.64700 38.79400
C  7.30400 49.67300 37.85500
H  6.64300 49.06500 36.59200
N  8.54400 54.36700 40.60500
C  9.78400 53.78000 40.39400
C  10.76600 54.80400 40.22700
C  10.09400 56.05900 40.40300
C  8.66400 55.72000 40.55700
C  12.21400 54.53900 39.84400
C  10.70200 57.38400 40.38000
O  11.93600 57.45000 40.22000
C  9.96500 58.66000 40.66100
N  5.61600 55.12200 41.16200
C  6.18500 56.36000 40.87600
C  5.16900 57.44900 40.97300
C  3.85900 56.69500 41.17700
C  4.27800 55.26300 41.33400
C  5.56800 58.42600 42.08500
C  2.92200 56.85600 39.94100
C  1.46000 56.98600 40.24900
N  4.91200 52.37500 41.65100
C  3.65800 52.84200 41.78200
C  2.76800 51.74300 41.98800
C  3.59200 50.58900 41.98700
C  4.89300 51.02900 41.59000
C  1.22800 51.78400 42.01200
C  3.63900 49.13700 42.04700
O  2.79700 48.29100 42.27200
C  5.03700 48.67300 41.44200
C  4.78700 47.89200 40.14800
O  4.44100 48.49100 39.12100
O  4.94200 46.52100 40.22600
C  4.61800 45.70900 38.95400
H  10.98100 52.06300 40.23900
H  7.85200 57.64200 40.69400
H  2.28400 54.46700 41.69300
H  8.06700 48.13600 40.86500
H  10.32900 49.48300 40.00000
H  9.56400 48.81400 42.55400
H  10.28000 50.43800 42.56300
H  11.21300 49.17300 41.91900
H  7.63200 47.65000 38.76300
H  9.06000 48.47500 38.36800
H  8.02900 50.39700 37.48200
H  6.66000 50.37900 38.38000
H  12.90600 55.37900 39.77200
H  12.23100 54.12100 38.83800
H  12.54000 53.75100 40.52300
H  9.50100 59.04500 39.75200
H  10.67400 59.41000 41.01200
H  9.25800 58.69800 41.49000
H  5.26100 57.95400 40.01200
H  3.26600 56.90900 42.06600
H  6.55100 58.21700 42.50700
H  4.86700 58.31200 42.91200
H  5.61700 59.47300 41.78600
H  2.99400 55.97200 39.30600
H  3.23700 57.80500 39.50900
H  1.11500 58.00000 40.04600
H  1.21800 56.70300 41.27300
H  1.02300 56.30800 39.51400
H  0.74500 52.73500 42.23600
H  0.86800 51.01700 42.69700
H  0.85600 51.51700 41.02200
H  5.59000 48.06900 42.16100
H  5.43500 45.73100 38.23300
H  3.74200 46.08900 38.42900
H  4.56900 44.68500 39.32500
Mg -2.33700 34.41500 25.82300
C  -3.94800 32.51400 28.32600
C  -0.75000 36.03400 28.35200
C  -1.17600 36.50300 23.50600
C  -4.42900 32.85500 23.49800
N  -2.52600 34.37900 28.08000
C  -3.03300 33.42900 28.88800
C  -2.65200 33.65300 30.37000
C  -1.86000 34.99000 30.30300
C  -1.77900 35.19500 28.80100
C  -2.38500 36.14100 31.24300
C  -1.84400 32.46100 31.07200
C  -2.36300 31.95000 32.39600
H  -1.49200 32.12000 33.72800
N  -1.08200 35.93700 25.88000
C  -0.43100 36.44700 27.03700
C  0.60800 37.38200 26.56100
C  0.45500 37.58200 25.13200
C  -0.66700 36.65600 24.78800
C  1.54000 38.07900 27.47500
C  1.32300 38.37500 24.12600
O  1.19500 38.24700 22.95800
C  2.56200 39.14600 24.64500
N  -3.13300 34.95400 23.75200
C  -2.24900 35.72900 23.00000
C  -2.64300 35.58100 21.49400
C  -3.37200 34.21300 21.51700
C  -3.68600 33.94500 23.00500
C  -3.32900 36.83200 20.97500
C  -2.51500 33.02600 20.82600
C  -1.58900 32.25100 21.74400
N  -3.95900 33.01300 25.84500
C  -4.57200 32.38700 24.85100
C  -5.39600 31.30500 25.36100
C  -5.09000 31.30200 26.75600
C  -4.29600 32.41200 26.99000
C  -6.07000 30.20700 24.61000
C  -5.30600 30.53200 27.97300
O  -5.96800 29.50700 28.20600
C  -4.64800 31.32100 29.09100
C  -5.75900 31.79500 29.97900
O  -6.74500 32.37600 29.53000
O  -5.52900 31.50600 31.31300
C  -6.63400 31.92700 32.19600
H  -0.25200 36.54700 29.17800
H  -0.82000 37.11100 22.67200
H  -4.85500 32.14200 22.78900
H  -3.60900 33.81300 30.86500
H  -0.82200 34.84500 30.60200
H  -2.86000 36.95200 30.69000
H  -1.46600 36.50300 31.70500
H  -3.13800 35.73700 31.91900
H  -0.86700 32.91700 31.22700
H  -1.68800 31.65100 30.35900
H  -2.57700 30.89100 32.24800
H  -3.23400 32.51600 32.72700
H  1.55200 37.72500 28.50600
H  1.43700 39.16400 27.48900
H  2.57800 37.91200 27.18900
H  2.98000 39.82100 23.89800
H  3.17800 38.34800 25.06100
H  2.20100 39.82800 25.41500
H  -1.69800 35.56500 20.95000
H  -4.32000 34.23500 20.97900
H  -3.82800 37.33400 21.80500
H  -4.13300 36.57100 20.28700
H  -2.71400 37.60400 20.51300
H  -1.87700 33.40000 20.02500
H  -3.24900 32.33000 20.42000
H  -2.14200 31.33600 21.95400
H  -1.38700 32.74400 22.69500
H  -0.65100 32.01600 21.24200
H  -6.75500 30.70000 23.91900
H  -6.68200 29.76400 25.39600
H  -5.38400 29.50500 24.13700
H  -4.00100 30.67500 29.68300
H  -6.48800 32.89600 32.67400
H  -6.68800 31.10800 32.91200
H  -7.61000 31.86300 31.71300

