158

Mg 54.26900 24.38000 44.03900
C  51.60300 26.42100 43.27100
C  52.29800 21.65400 43.36800
C  57.04800 22.35500 43.87000
C  56.20400 27.05600 44.78900
N  52.25600 24.07200 43.25400
C  51.33900 25.05300 43.10900
C  49.94800 24.50400 42.83500
C  50.09400 23.01600 43.20900
C  51.64300 22.89900 43.38300
C  49.40100 22.55900 44.53600
C  49.64000 24.59800 41.25600
C  48.16000 24.45800 40.85000
H  47.77800 24.22400 39.41600
N  54.67200 22.26300 43.67600
C  53.64900 21.34500 43.41600
C  54.25500 20.04900 43.32200
C  55.68600 20.17000 43.44400
C  55.91000 21.60800 43.69900
C  53.50800 18.72900 42.98000
C  56.78100 19.04000 43.29800
O  56.51000 17.90100 43.00300
C  58.16000 19.44900 43.56300
N  56.29300 24.60700 44.26600
C  57.30900 23.74500 44.20500
C  58.58900 24.25800 44.86400
C  58.30400 25.74800 45.13200
C  56.86600 25.81000 44.67500
C  59.04400 23.50900 46.06300
C  59.30800 26.76700 44.38800
C  60.21800 27.48700 45.38900
N  54.00200 26.35100 43.99800
C  54.83300 27.33100 44.46100
C  54.17200 28.63500 44.52400
C  52.90100 28.36600 44.01100
C  52.85900 26.90600 43.71500
C  54.91700 29.88200 44.99900
C  51.61300 28.87800 43.70900
O  51.10700 30.01700 43.77700
C  50.72300 27.62600 43.22400
C  50.46800 28.11700 41.85000
O  51.33700 28.13400 40.97300
O  49.11400 28.39300 41.73400
C  48.68700 28.72600 40.36000
H  51.58400 20.82800 43.36200
H  57.98100 21.82900 44.08300
H  56.71300 27.89100 45.27500
H  49.24100 25.00500 43.49600
H  49.78000 22.42800 42.34500
H  49.44500 23.37300 45.26000
H  50.06200 21.75600 44.86200
H  48.33900 22.32100 44.48700
H  50.30200 23.86100 40.80200
H  49.88100 25.57200 40.83000
H  47.75300 25.44000 41.09000
H  47.71900 23.79500 41.59500
H  52.61700 18.71700 43.60600
H  54.10400 17.83000 43.13800
H  53.09900 18.70500 41.97000
H  58.49600 20.13600 42.78600
H  58.74300 18.53200 43.63800
H  58.23000 19.84500 44.57600
H  59.36800 24.14300 44.11100
H  58.23500 25.93800 46.20300
H  59.80800 22.85200 45.64900
H  58.21500 22.94300 46.48900
H  59.41400 24.25700 46.76500
H  58.71900 27.39700 43.72200
H  59.99100 26.21800 43.74100
H  61.19900 27.24700 44.98000
H  60.09900 27.33500 46.46100
H  60.10000 28.56200 45.24800
H  54.75800 29.80300 46.07400
H  54.33400 30.76300 44.73000
H  55.91500 29.94000 44.56500
H  49.75200 27.55100 43.71400
H  49.34900 28.44400 39.54200
H  48.72400 29.79300 40.57900
H  47.67400 28.37600 40.15700
Mg 31.09300 58.36800 40.31500
C  28.21700 56.76500 38.82100
C  33.01200 55.78100 38.98300
C  33.82400 60.27000 40.41500
C  29.11000 61.11300 41.07400
N  30.59300 56.48800 39.14500
C  29.36500 56.06800 38.65100
C  29.44000 54.66600 38.30400
C  30.91100 54.19100 38.80500
C  31.55200 55.57900 38.89600
C  30.73800 53.50200 40.21600
C  29.12700 54.40000 36.74900
C  29.19700 55.52100 35.74300
H  28.29800 55.45300 34.48400
N  33.22700 58.06500 39.84900
C  33.70600 56.89400 39.40700
C  35.14700 56.99400 39.21200
C  35.45300 58.35900 39.56400
C  34.19200 58.95000 40.01300
C  35.95100 55.98700 38.53900
C  36.80900 58.98800 39.44400
O  37.74900 58.48700 38.87500
C  37.01200 60.32800 40.02400
N  31.39500 60.37800 40.56500
C  32.63200 60.97300 40.62600
C  32.56400 62.46500 41.04200
C  31.03200 62.72600 41.41800
C  30.45300 61.33500 40.99600
C  33.59200 62.76400 42.21100
C  30.32700 63.88500 40.76500
C  29.50500 64.86300 41.61900
N  28.99900 58.81900 40.24800
C  28.35300 59.99400 40.55400
C  26.93100 59.79600 40.36900
C  26.80300 58.54100 39.66200
C  28.13700 57.99000 39.58700
C  25.85600 60.77100 40.74700
C  25.91000 57.60600 38.98100
O  24.73300 57.62700 38.71600
C  26.70500 56.41000 38.62400
C  26.23100 55.20600 39.32500
O  25.97600 55.12200 40.55200
O  26.01600 54.21600 38.42700
C  25.39700 53.04800 39.05700
H  33.55400 54.87100 38.71800
H  34.60400 61.03300 40.45200
H  28.63200 62.04400 41.38600
H  28.64900 54.15500 38.85200
H  31.44500 53.56300 38.09200
H  31.47800 52.70300 40.26000
H  29.78500 52.97600 40.16400
H  30.91100 54.25100 40.98900
H  28.11500 54.01600 36.62000
H  29.79000 53.62000 36.37600
H  30.20200 55.51600 35.32000
H  29.01500 56.51400 36.15500
H  35.72500 56.10500 37.48000
H  35.76600 54.94500 38.80100
H  36.99100 56.18800 38.79700
H  36.57200 60.38100 41.01900
H  36.48500 61.04000 39.38900
H  38.08200 60.53800 40.03800
H  32.75800 63.02200 40.12500
H  30.94000 62.72500 42.50400
H  34.50600 63.27400 41.90600
H  33.99900 61.84800 42.63900
H  33.14200 63.39600 42.97700
H  29.52900 63.53200 40.11200
H  31.02400 64.48100 40.17700
H  30.21300 65.59900 41.99800
H  28.92800 64.37200 42.40400
H  28.77700 65.44000 41.04800
H  25.74200 61.51600 39.96000
H  26.30300 61.31300 41.58200
H  24.91800 60.29300 41.02800
H  26.48800 56.28500 37.56300
H  25.53900 52.30700 38.27100
H  24.33600 53.16500 39.28000
H  25.92600 52.73200 39.95600

