158

Mg 16.43500 -2.11900 28.26200
C  15.45900 0.06000 30.73900
C  18.21900 -4.01100 30.59800
C  17.74000 -4.00000 25.73100
C  15.02400 0.01600 25.84900
N  16.86200 -2.00100 30.34300
C  16.29300 -1.01400 31.13100
C  16.82300 -1.13500 32.57900
C  17.84200 -2.32300 32.47200
C  17.62800 -2.82000 31.00600
C  19.32300 -1.97300 32.65000
C  15.67800 -1.42700 33.57100
C  15.88800 -0.76900 34.96300
H  17.31500 -0.20900 35.34000
N  17.72100 -3.83800 28.22900
C  18.27800 -4.54500 29.26700
C  18.97600 -5.76700 28.82200
C  18.86900 -5.64500 27.36600
C  18.10100 -4.44500 27.01400
C  19.45500 -6.82000 29.77600
C  19.40500 -6.66100 26.37200
O  19.31900 -6.52300 25.14900
C  20.27800 -7.78900 26.83500
N  16.44600 -1.93700 26.08500
C  17.03800 -2.83600 25.35500
C  16.71100 -2.58300 23.83500
C  15.82300 -1.31000 23.85300
C  15.71500 -1.05000 25.32200
C  18.11700 -2.40400 23.13200
C  14.42100 -1.58000 23.11800
C  14.60900 -2.00600 21.66900
N  15.23500 -0.38100 28.24800
C  14.74100 0.38700 27.21600
C  14.11500 1.54700 27.83200
C  14.30600 1.41200 29.15900
C  15.05500 0.25800 29.37600
C  13.55400 2.70700 27.09200
C  14.04600 1.99600 30.50600
O  13.27000 2.91400 30.88500
C  14.84100 1.15400 31.60100
C  15.82500 2.07100 32.40400
O  16.86500 2.58800 32.00200
O  15.25800 2.44100 33.55600
C  15.93900 3.50200 34.27900
H  18.83700 -4.60400 31.27500
H  18.04400 -4.51300 24.81700
H  14.50700 0.53100 25.03600
H  17.36800 -0.24700 32.89700
H  17.55400 -3.14900 33.12300
H  19.92600 -2.22200 31.77700
H  19.71000 -2.45000 33.55000
H  19.48400 -0.92900 32.91900
H  15.53600 -2.50600 33.62500
H  14.77400 -1.00200 33.13600
H  15.53600 -1.47700 35.71300
H  15.25200 0.08500 35.19700
H  19.97200 -7.68800 29.36500
H  18.60100 -7.08000 30.40100
H  20.06800 -6.35600 30.54900
H  20.75400 -8.31000 26.00400
H  19.61000 -8.50900 27.30700
H  21.12400 -7.48500 27.45200
H  16.28900 -3.48900 23.40000
H  16.35000 -0.56000 23.26400
H  18.23800 -3.19000 22.38700
H  18.89100 -2.31400 23.89500
H  18.14400 -1.41600 22.67200
H  13.87200 -0.63900 23.16300
H  13.82100 -2.31400 23.65700
H  13.88500 -1.44100 21.08100
H  14.58000 -3.08400 21.51000
H  15.64600 -1.73600 21.47000
H  13.90500 3.64000 27.53200
H  12.47400 2.83100 27.00500
H  14.04000 2.85700 26.12800
H  14.02700 0.77800 32.22100
H  16.02700 4.30300 33.54500
H  16.88700 3.21200 34.73400
H  15.24900 3.78200 35.07500
Mg 36.18000 49.55500 25.52900
C  35.87900 47.47700 28.33200
C  35.39800 52.20600 27.68300
C  35.98800 51.53500 22.89600
C  36.82000 46.74100 23.53000
N  35.36300 49.79600 27.73300
C  35.51300 48.82900 28.67700
C  35.38700 49.35700 30.11700
C  34.98000 50.81900 29.84800
C  35.32700 50.98300 28.31800
C  33.53400 51.29700 30.06400
C  36.66900 49.20100 31.02500
C  36.32700 48.89900 32.50400
H  34.95400 49.31400 33.15200
N  35.83700 51.56300 25.31400
C  35.64400 52.53400 26.31300
C  35.61400 53.86200 25.70000
C  35.57000 53.58500 24.33200
C  35.79000 52.21000 24.10200
C  35.54400 55.19400 26.44300
C  35.36000 54.57700 23.19200
O  35.22100 54.24800 22.00300
C  35.51600 56.01600 23.44300
N  36.20800 49.13000 23.51500
C  36.23100 50.13600 22.64900
C  36.23500 49.58800 21.22500
C  36.78200 48.12700 21.39800
C  36.71700 47.99300 22.94200
C  34.92000 49.55300 20.46900
C  38.23000 47.87200 20.90700
C  39.43900 48.44900 21.84900
N  36.28000 47.52000 25.78200
C  36.61100 46.50100 24.92700
C  36.72600 45.22600 25.70700
C  36.45900 45.62400 27.00400
C  36.19100 46.98100 27.06000
C  37.10300 43.85600 25.23900
C  36.34800 45.05700 28.27800
O  36.49500 43.89500 28.67400
C  35.99600 46.23100 29.24800
C  34.75400 46.05900 30.04800
O  33.62900 46.50500 29.83500
O  35.12400 45.31800 31.15900
C  34.01600 45.14800 32.11300
H  35.27000 53.05500 28.35800
H  35.94400 51.94800 21.88700
H  36.90900 45.79700 22.98800
H  34.58200 48.81700 30.61400
H  35.66900 51.50700 30.33900
H  32.88000 50.56300 30.53400
H  33.10200 51.68700 29.14200
H  33.67100 52.19600 30.66500
H  37.23600 50.13100 31.07000
H  37.26700 48.40800 30.57600
H  37.15900 49.31500 33.07200
H  36.45900 47.81800 32.55200
H  36.20200 55.97300 26.05700
H  35.86400 55.02300 27.47100
H  34.52300 55.57700 26.41300
H  36.52800 56.22200 23.79100
H  34.79600 56.32400 24.20100
H  35.33600 56.46900 22.46800
H  36.82600 50.30500 20.65500
H  36.06700 47.33800 21.16500
H  34.51800 48.55300 20.30900
H  34.98000 49.96100 19.46000
H  34.26900 50.27200 20.96700
H  38.34400 48.23100 19.88400
H  38.31200 46.80400 21.11200
H  39.90000 47.65800 22.44100
H  39.14600 49.24400 22.53500
H  40.28800 48.82100 21.27700
H  36.89700 43.77000 24.17200
H  36.49900 43.09800 25.73900
H  38.15100 43.76200 25.52300
H  36.71100 46.51100 30.02200
H  33.13900 44.78500 31.57600
H  33.92100 46.08400 32.66500
H  34.29800 44.31000 32.75000

