158

Mg 40.93600 7.95700 29.07800
C  42.53000 9.53500 31.88700
C  38.60600 6.74600 31.28900
C  39.49500 6.47000 26.57500
C  43.49100 9.20900 27.05600
N  40.67300 8.05300 31.43200
C  41.29700 8.96200 32.30600
C  40.70700 8.81500 33.68600
C  39.54700 7.81900 33.42200
C  39.63800 7.43500 31.96400
C  39.60400 6.45700 34.20600
C  40.33000 10.19600 34.22200
C  39.40400 10.18000 35.48400
H  40.01200 11.00400 36.66800
N  39.20900 6.81400 28.96400
C  38.35000 6.44300 29.98500
C  37.30700 5.71600 29.45100
C  37.50100 5.75800 28.03500
C  38.79200 6.33400 27.79300
C  36.13600 5.25900 30.29500
C  36.54300 5.27600 26.98500
O  36.87900 5.46100 25.81100
C  35.19900 4.64400 27.21600
N  41.40500 7.83400 27.01100
C  40.65300 7.10300 26.20800
C  41.28700 7.09300 24.81400
C  42.58600 8.03200 24.91300
C  42.50500 8.41000 26.41600
C  41.59100 5.66600 24.21000
C  42.57800 9.25400 24.02600
C  41.48500 10.37200 24.22300
N  42.74300 8.93400 29.36300
C  43.60900 9.45900 28.44100
C  44.57400 10.31000 29.02100
C  44.18800 10.27500 30.34500
C  43.00100 9.51300 30.51100
C  45.56800 11.09600 28.35700
C  44.57500 10.83800 31.60500
O  45.46000 11.61100 31.97400
C  43.51300 10.35600 32.58200
C  44.05300 9.64700 33.84500
O  44.51100 8.53500 33.87800
O  43.86900 10.43000 34.92600
C  43.97400 9.69000 36.17700
H  37.81100 6.45900 31.98000
H  39.06700 5.98400 25.69600
H  44.21600 9.43800 26.27100
H  41.49300 8.29700 34.23600
H  38.55800 8.26100 33.54400
H  39.31900 5.58700 33.61400
H  38.89000 6.57900 35.02100
H  40.64000 6.20700 34.43700
H  39.82800 10.76700 33.44100
H  41.26000 10.69600 34.49200
H  39.34300 9.15700 35.85500
H  38.34500 10.31800 35.26800
H  36.45700 5.22400 31.33600
H  35.85000 4.23900 30.03600
H  35.22500 5.85400 30.22900
H  34.49600 5.45000 27.42700
H  35.24900 3.98300 28.08100
H  34.99100 4.05800 26.32100
H  40.60000 7.57100 24.11600
H  43.33300 7.27900 24.66000
H  41.54900 5.02100 25.08700
H  42.56000 5.77700 23.72400
H  40.85200 5.32900 23.48200
H  42.45400 8.80400 23.04200
H  43.54700 9.75100 24.04900
H  41.87600 11.23200 24.76700
H  40.71500 9.88700 24.82200
H  40.89600 10.64800 23.34800
H  46.47300 10.49200 28.29300
H  45.65700 12.00800 28.94600
H  45.19700 11.44000 27.39200
H  42.97300 11.19400 33.02200
H  43.65600 10.32400 37.00400
H  45.02700 9.43500 36.29400
H  43.32400 8.81600 36.22200
Mg 47.14400 16.18800 28.12200
C  44.95400 15.65800 30.86200
C  48.97100 18.34900 29.91800
C  49.25600 16.37500 25.40600
C  45.03000 14.11900 26.19200
N  46.89700 17.08000 30.13800
C  46.03900 16.59600 31.15400
C  46.36700 17.30200 32.45400
C  47.53800 18.26400 32.03800
C  47.89400 17.85000 30.55600
C  47.20500 19.80600 32.08800
C  46.80400 16.29200 33.52600
C  46.56000 16.51700 35.06300
H  47.73900 16.26500 36.05900
N  48.82600 17.28700 27.72400
C  49.49000 18.14500 28.59500
C  50.50100 18.84400 27.83600
C  50.42200 18.32400 26.48700
C  49.49300 17.26900 26.50400
C  51.34500 19.92200 28.36800
C  51.23900 18.77400 25.31500
O  50.94600 18.35500 24.20200
C  52.39300 19.79900 25.44000
N  47.04500 15.47100 26.11900
C  48.09000 15.63100 25.24700
C  47.75500 14.96400 23.99200
C  46.69200 13.93600 24.36100
C  46.22800 14.53200 25.63800
C  47.32700 15.99800 22.87100
C  47.10100 12.46000 24.59300
C  46.11500 11.33700 24.01200
N  45.32200 15.18300 28.39400
C  44.56700 14.43200 27.50100
C  43.36200 13.85200 28.21500
C  43.49900 14.29100 29.47000
C  44.71000 15.11600 29.57200
C  42.31400 13.03900 27.55900
C  42.84700 14.22500 30.77800
O  41.84000 13.63700 31.10500
C  43.85600 15.01900 31.79900
C  43.06800 16.06200 32.48600
O  42.43800 16.98400 32.00900
O  43.08100 15.83900 33.83500
C  42.34400 16.62100 34.83900
H  49.56200 19.09800 30.45000
H  49.93000 16.11200 24.58800
H  44.37300 13.41400 25.67800
H  45.56200 17.92400 32.84700
H  48.42900 18.08900 32.64100
H  46.34500 20.11600 32.68300
H  47.03200 20.13900 31.06500
H  48.03900 20.43800 32.39200
H  47.85700 16.03100 33.42100
H  46.20500 15.42100 33.26200
H  45.77300 15.80800 35.31800
H  46.21200 17.50500 35.36600
H  50.93000 20.79100 27.85800
H  52.41500 19.80800 28.19200
H  51.19500 20.00000 29.44500
H  53.08400 19.50300 26.22900
H  51.99400 20.73300 25.83800
H  52.82700 20.01200 24.46300
H  48.63200 14.34300 23.80700
H  45.77500 14.08100 23.78900
H  46.33300 15.69100 22.54500
H  48.01400 16.13400 22.03600
H  47.24400 16.99500 23.30300
H  47.19800 12.32200 25.67000
H  48.01000 12.18100 24.06100
H  45.27100 11.84100 23.54200
H  45.75000 10.65600 24.78100
H  46.62000 10.66600 23.31700
H  42.48500 11.98600 27.78400
H  42.31600 13.10000 26.47100
H  41.38200 13.51400 27.86500
H  44.30500 14.40500 32.57900
H  43.12800 17.07000 35.44800
H  41.73500 16.05200 35.54100
H  41.82700 17.43000 34.32300

