158

Mg 36.18000 49.19700 24.68800
C  35.94400 47.21500 27.67300
C  34.79100 51.74000 26.52200
C  35.73900 50.61000 21.82300
C  37.33100 46.26400 23.16700
N  35.47400 49.43400 26.90800
C  35.59300 48.53100 27.92100
C  35.49200 49.29500 29.36900
C  34.79000 50.69400 28.91500
C  35.05900 50.62300 27.35300
C  33.31400 50.85100 29.43400
C  36.81200 49.35300 30.20000
C  36.74000 49.05800 31.71700
H  35.41200 49.33500 32.46200
N  35.31300 50.95000 24.22500
C  34.85400 51.91400 25.11300
C  34.64700 53.17000 24.38200
C  34.93800 52.89500 22.95900
C  35.30300 51.42700 22.91200
C  34.30400 54.51100 24.98300
C  35.05300 53.72600 21.72100
O  35.30500 53.25100 20.64800
C  34.70700 55.09700 21.83100
N  36.44400 48.46400 22.78500
C  36.29400 49.31500 21.73900
C  36.69800 48.64600 20.42900
C  37.52700 47.45600 20.96800
C  37.05200 47.37500 22.39100
C  35.51300 48.20000 19.49800
C  39.09600 47.71800 20.91500
C  39.75200 49.14900 20.92000
N  36.48300 47.10800 25.25000
C  36.97800 46.06700 24.48900
C  37.14600 44.79900 25.29100
C  36.73700 45.32800 26.55700
C  36.38400 46.71000 26.45100
C  37.68000 43.47100 24.85000
C  36.52900 44.88000 27.98300
O  36.65100 43.73500 28.46300
C  36.14400 46.13600 28.75500
C  34.90300 45.86800 29.58600
O  33.78500 46.22600 29.33800
O  35.24800 45.24700 30.77900
C  34.13000 44.87900 31.67600
H  34.48800 52.64000 27.06200
H  35.52400 50.95400 20.80900
H  37.73400 45.42000 22.60300
H  34.82200 48.66500 29.95400
H  35.25300 51.58300 29.34500
H  33.17900 51.79900 29.95500
H  32.98300 50.08000 30.13000
H  32.52600 50.91600 28.68300
H  37.26300 50.33400 30.04800
H  37.39500 48.61000 29.65700
H  37.63300 49.50700 32.15300
H  36.90000 47.98700 31.84000
H  35.12900 55.18200 24.74600
H  34.00600 54.59600 26.02800
H  33.46400 54.88900 24.40000
H  33.69200 55.13600 22.22600
H  34.75900 55.51600 20.82600
H  35.44200 55.66400 22.40200
H  37.29900 49.30800 19.80500
H  37.36300 46.44300 20.60100
H  34.52800 48.38600 19.92600
H  35.61500 47.17800 19.13500
H  35.54500 48.87200 18.64000
H  39.38600 47.17700 20.01400
H  39.31000 47.19200 21.84600
H  40.25400 49.28700 19.96200
H  40.61600 49.33700 21.55800
H  39.07100 49.99800 20.97600
H  37.95700 43.38500 23.79900
H  36.86000 42.82800 25.17000
H  38.58500 43.28600 25.42800
H  37.00400 46.48700 29.32500
H  34.32000 43.91800 32.15500
H  33.14400 44.88400 31.21200
H  34.21000 45.74700 32.33000
Mg 1.42000 42.47000 25.84500
C  2.98800 42.58700 29.02900
C  -1.51800 41.56000 27.59800
C  0.16000 41.56100 22.94700
C  4.51500 43.06700 24.39200
N  0.79700 42.09900 28.04700
C  1.65200 42.27300 29.14600
C  0.96900 41.83300 30.48500
C  -0.44600 41.42700 29.99300
C  -0.40700 41.75500 28.45500
C  -0.83800 39.91300 30.34500
C  0.89400 43.12000 31.46500
C  0.93200 42.94900 32.95700
H  0.80800 41.48200 33.52900
N  -0.49700 41.80200 25.29500
C  -1.56600 41.61500 26.17000
C  -2.69900 41.27600 25.28900
C  -2.24500 41.19200 23.88500
C  -0.84700 41.50700 23.99900
C  -4.08800 40.95400 25.75900
C  -2.93200 40.80000 22.64400
O  -2.39600 40.77400 21.52200
C  -4.41000 40.54100 22.62500
N  2.18100 42.47500 23.96100
C  1.46200 41.96700 22.89600
C  2.38300 41.77900 21.62900
C  3.52800 42.83900 21.98700
C  3.43900 42.77500 23.55300
C  2.89600 40.30200 21.54800
C  3.42500 44.26400 21.47200
C  4.36400 44.62200 20.30800
N  3.33700 42.80200 26.51700
C  4.48000 43.08200 25.80100
C  5.56700 43.16000 26.71300
C  5.06300 42.98900 27.96800
C  3.68600 42.76700 27.82400
C  6.94500 43.25800 26.21100
C  5.38700 42.77500 29.36800
O  6.50300 42.66600 29.89200
C  4.00900 42.64000 30.18900
C  4.13200 41.37200 31.03300
O  4.19100 40.21700 30.61600
O  4.33100 41.82100 32.31700
C  4.77500 40.72700 33.28100
H  -2.42200 41.24700 28.12400
H  -0.13700 41.22000 21.95300
H  5.51300 43.29000 24.00800
H  1.52300 41.09100 31.06000
H  -1.23300 42.01800 30.46100
H  -0.83900 39.35000 29.41100
H  -1.78500 39.78500 30.86800
H  -0.07900 39.40500 30.94000
H  -0.10400 43.44000 31.16700
H  1.53500 43.87300 31.00700
H  0.01300 43.45700 33.24900
H  1.83300 43.41700 33.35400
H  -4.12900 39.87600 25.60300
H  -4.78500 41.57100 25.19200
H  -4.19100 41.02100 26.84200
H  -4.55300 39.51300 22.95600
H  -4.60800 40.59000 21.55500
H  -4.89800 41.37100 23.13600
H  1.72600 42.05800 20.80500
H  4.47100 42.45300 21.60000
H  2.65200 39.91600 22.53700
H  3.96400 40.17100 21.36900
H  2.44700 39.72700 20.73900
H  3.58000 44.96200 22.29400
H  2.42000 44.30600 21.05300
H  3.80000 44.92500 19.42600
H  5.18700 43.91100 20.23400
H  4.82100 45.57400 20.58300
H  7.17900 42.50800 25.45600
H  7.57000 43.25400 27.10400
H  7.04900 44.19000 25.65600
H  3.88300 43.54300 30.78700
H  5.86400 40.75000 33.31600
H  4.47800 39.72800 32.96100
H  4.23600 40.91300 34.21000

