158

Mg 47.46200 14.53800 27.61700
C  45.52800 14.87100 30.45100
C  49.81500 16.55000 28.93800
C  48.95600 14.68800 24.47500
C  44.57900 13.29600 25.85200
N  47.64800 15.59400 29.50800
C  46.75800 15.56800 30.58000
C  47.41200 16.29400 31.76700
C  48.62300 17.04500 31.17800
C  48.75900 16.38000 29.80900
C  48.38100 18.54500 30.86700
C  47.72700 15.29400 32.97900
C  46.95500 15.56000 34.31100
H  47.69400 15.39400 35.63600
N  49.18800 15.33500 26.88400
C  50.00100 16.13800 27.61000
C  51.18400 16.44000 26.82700
C  51.02100 15.82700 25.53800
C  49.66800 15.24700 25.56900
C  52.36700 17.19000 27.41300
C  51.91100 15.87100 24.35500
O  51.64700 15.31300 23.33400
C  53.19300 16.75000 24.29500
N  46.86200 14.04000 25.45500
C  47.69900 14.17500 24.34000
C  47.07200 13.58500 23.00600
C  45.75700 12.98600 23.63200
C  45.69800 13.49400 25.04900
C  46.90000 14.54000 21.79600
C  45.66500 11.44200 23.39700
C  46.32900 10.65500 24.52300
N  45.48500 14.01700 28.07100
C  44.45600 13.61500 27.21800
C  43.26800 13.43600 28.11900
C  43.65900 13.84300 29.40200
C  45.04200 14.23700 29.30100
C  41.85800 13.03300 27.74400
C  43.33500 14.00900 30.80500
O  42.30700 13.56600 31.34100
C  44.49900 14.67000 31.55200
C  43.96500 15.87200 32.22500
O  44.26700 17.04400 31.85600
O  43.31300 15.55600 33.37000
C  42.80100 16.72800 34.11700
H  50.68200 17.06800 29.35400
H  49.53000 14.61100 23.55000
H  43.70900 12.82500 25.39000
H  46.76800 17.11100 32.09400
H  49.53700 16.99100 31.76900
H  48.64100 18.73000 29.82500
H  49.08700 19.14200 31.44400
H  47.35300 18.81900 31.10600
H  48.79800 15.11800 33.07400
H  47.31200 14.33700 32.66300
H  46.13600 14.84400 34.36900
H  46.58500 16.58100 34.21800
H  52.64500 16.90600 28.42800
H  52.32100 18.25500 27.18600
H  53.30800 16.83800 26.99100
H  54.07700 16.25000 24.68900
H  52.89700 17.69100 24.76000
H  53.33200 17.07600 23.26400
H  47.63400 12.68000 22.77700
H  44.85400 13.45400 23.24100
H  47.42700 14.24100 20.89000
H  47.37500 15.45700 22.14800
H  45.86300 14.58700 21.46400
H  46.03500 11.06100 22.44500
H  44.59600 11.23200 23.42700
H  46.81800 9.80700 24.04400
H  45.62500 10.30700 25.27900
H  47.15300 11.23100 24.94500
H  41.61100 13.73100 26.94400
H  41.19500 13.03300 28.61000
H  41.91600 11.98900 27.43600
H  44.94900 14.02100 32.30400
H  42.16300 17.39700 33.53800
H  43.61200 17.30200 34.56400
H  42.11100 16.31900 34.85500
Mg 30.62600 59.23600 39.52300
C  27.75400 57.52300 38.56400
C  32.54900 56.65200 38.37200
C  33.31500 61.16300 39.88600
C  28.52300 62.02100 40.15300
N  30.20800 57.41600 38.42100
C  28.92900 56.90900 38.04100
C  29.12400 55.64500 37.16200
C  30.66300 55.23800 37.35700
C  31.20000 56.44300 38.18200
C  30.88700 53.75200 38.04800
C  28.60700 55.73000 35.64200
C  27.70700 54.55000 35.23000
H  26.44400 54.93300 34.40800
N  32.69600 58.86800 39.20900
C  33.29000 57.75600 38.77800
C  34.72400 57.94700 38.71300
C  35.02100 59.21800 39.15100
C  33.67600 59.82400 39.44400
C  35.64900 56.83100 38.25200
C  36.40200 59.80700 39.37400
O  37.38900 59.08600 39.02400
C  36.69900 61.17800 39.94100
N  30.79600 61.24900 39.98900
C  32.09000 61.81700 40.13400
C  32.05000 63.31700 40.54100
C  30.54700 63.64400 40.37500
C  29.85900 62.24500 40.18300
C  32.66500 63.60100 41.95800
C  30.21600 64.55300 39.16900
C  29.68300 65.95000 39.53000
N  28.54400 59.70500 39.53600
C  27.78300 60.83900 39.88500
C  26.35700 60.50800 39.71700
C  26.34700 59.22300 39.25500
C  27.64000 58.77200 39.13300
C  25.12700 61.42400 39.91200
C  25.42700 58.22600 38.85500
O  24.21500 58.21200 38.74600
C  26.33000 57.05000 38.35600
C  25.96700 55.79800 39.00800
O  26.26000 55.36000 40.10600
O  25.10400 55.09000 38.19200
C  24.70600 53.76100 38.67600
H  33.17300 55.85600 37.96100
H  34.14800 61.86400 39.98100
H  27.87500 62.88700 40.30900
H  28.63200 54.77100 37.58800
H  31.20400 55.15800 36.41400
H  31.00200 53.02200 37.24600
H  30.02400 53.56600 38.68700
H  31.81200 53.83000 38.61900
H  29.43500 55.80500 34.93800
H  28.05200 56.64200 35.42200
H  27.37200 54.21400 36.21100
H  28.21600 53.77000 34.66300
H  36.64000 57.14300 37.92200
H  35.18500 56.29800 37.42300
H  35.86200 56.09900 39.03200
H  37.78800 61.20200 39.92100
H  36.42900 61.27900 40.99300
H  36.26400 61.94400 39.30000
H  32.64200 63.96700 39.89600
H  30.03100 64.06800 41.23700
H  33.06000 62.66900 42.36400
H  31.93400 64.03500 42.64000
H  33.43100 64.35700 41.78500
H  29.46300 64.08200 38.53700
H  31.09600 64.64600 38.53400
H  30.22000 66.74400 39.01100
H  29.87400 66.08000 40.59500
H  28.60400 65.97900 39.37900
H  24.16500 60.97900 39.65700
H  25.29700 62.34600 39.35600
H  25.05700 61.72000 40.95900
H  26.23900 56.88000 37.28300
H  24.27600 53.02500 37.99600
H  23.89600 54.10800 39.31800
H  25.39700 53.17200 39.27900

