158

Mg 41.21300 9.04500 30.08500
C  43.13600 10.35700 32.71400
C  38.81400 7.96900 32.29500
C  39.35900 7.91700 27.47600
C  43.76400 10.02300 27.85300
N  40.99800 9.22100 32.26800
C  41.86700 9.86300 33.18300
C  41.31600 9.81700 34.64800
C  40.07100 8.78800 34.48000
C  39.94300 8.66400 32.93500
C  40.32200 7.45100 35.18800
C  41.04000 11.18800 35.24300
C  40.36100 11.23400 36.68800
H  41.05300 12.17400 37.65300
N  39.29600 8.05400 29.89900
C  38.47900 7.72800 30.95500
C  37.30600 7.13000 30.39700
C  37.38000 7.15200 28.95500
C  38.69000 7.75900 28.74100
C  36.25700 6.53400 31.33900
C  36.37600 6.67900 27.86100
O  36.66800 6.59800 26.68600
C  34.91500 6.24600 28.24900
N  41.57500 8.87700 27.99900
C  40.62100 8.46300 27.17800
C  41.00200 8.51800 25.75400
C  42.46000 9.13200 25.84400
C  42.63000 9.39000 27.31300
C  40.91900 7.29400 24.80600
C  42.72800 10.37100 24.92400
C  42.34200 11.74200 25.50300
N  43.06100 9.93600 30.19700
C  44.00600 10.22400 29.21400
C  45.08000 10.95500 29.78000
C  44.80500 11.05700 31.13600
C  43.56900 10.35900 31.37900
C  46.24000 11.54000 29.10400
C  45.15400 11.68300 32.43800
O  46.06800 12.50700 32.63700
C  44.09200 11.25000 33.52300
C  44.73400 10.48800 34.62900
O  45.36300 9.49800 34.55000
O  44.41500 11.13800 35.77700
C  44.61700 10.34500 37.05900
H  37.97400 7.78400 32.96900
H  38.79100 7.70200 26.56800
H  44.53100 10.45900 27.20900
H  42.08400 9.30800 35.23200
H  39.10500 9.14600 34.83600
H  39.75900 7.34400 36.11500
H  41.38300 7.37100 35.42400
H  40.06600 6.60700 34.54700
H  40.46900 11.86600 34.60800
H  42.00300 11.67200 35.40300
H  40.34300 10.27400 37.20500
H  39.35200 11.63500 36.59500
H  36.10600 5.50700 31.00600
H  35.32100 7.05800 31.14700
H  36.50400 6.34600 32.38300
H  34.27500 6.35700 27.37400
H  34.61600 6.73300 29.17800
H  35.13500 5.20100 28.46700
H  40.40200 9.30000 25.28800
H  43.31000 8.55600 25.47900
H  40.85900 6.36000 25.36500
H  41.81500 7.34500 24.18700
H  40.11600 7.35000 24.07100
H  42.24300 10.24800 23.95500
H  43.81200 10.42400 24.82200
H  41.47500 11.60000 26.14800
H  42.05900 12.39600 24.67900
H  43.16900 12.09200 26.12100
H  45.93700 12.23200 28.31900
H  46.80400 10.71400 28.67100
H  46.92300 12.04500 29.78700
H  43.65200 12.21200 33.78800
H  44.26900 9.31500 36.98100
H  44.20500 10.80300 37.95900
H  45.67800 10.42300 37.29800
Mg 49.80600 46.24000 42.51900
C  46.56100 46.54200 41.11900
C  49.94700 43.04600 41.20900
C  53.12200 46.22200 42.79600
C  49.84900 49.71700 42.98400
N  48.37300 45.02700 41.29300
C  47.14200 45.32900 40.80000
C  46.47700 44.17000 39.98000
C  47.53900 43.05400 40.13100
C  48.69400 43.71200 41.00000
C  47.04600 41.75200 40.72400
C  46.10700 44.65400 38.51500
C  44.71200 44.52600 38.04000
H  44.46000 43.50100 36.90400
N  51.26200 44.74600 42.27600
C  51.10600 43.54600 41.73100
C  52.33200 42.75600 41.88200
C  53.37800 43.63700 42.26100
C  52.63400 44.92600 42.47200
C  52.46400 41.25600 41.61600
C  54.84600 43.30100 42.46100
O  55.34500 42.21400 42.12800
C  55.77100 44.42200 43.08200
N  51.26400 47.69300 42.79900
C  52.54800 47.42900 42.98200
C  53.41900 48.70500 43.22400
C  52.36300 49.81500 43.08500
C  51.04900 48.99900 43.02200
C  54.20200 48.79100 44.58500
C  52.43700 50.65000 41.75700
C  52.48000 52.19000 41.93600
N  48.44500 47.85400 42.35400
C  48.57800 49.19800 42.65800
C  47.29200 49.81200 42.49100
C  46.52400 48.79700 41.90900
C  47.26000 47.67200 41.74100
C  46.98600 51.28400 42.70200
C  45.13400 48.56900 41.40400
O  44.16400 49.26000 41.44400
C  45.16600 47.09700 40.78800
C  44.21700 46.30600 41.64200
O  44.25100 46.10000 42.93000
O  43.12200 45.81200 40.87000
C  42.00400 45.18500 41.67500
H  50.04800 42.02000 40.85000
H  54.19100 46.35200 42.97900
H  49.93200 50.80500 43.00400
H  45.62300 43.86000 40.58000
H  47.95900 42.74800 39.17200
H  47.11700 40.96700 39.97200
H  46.00500 41.89800 41.01200
H  47.63400 41.64100 41.63500
H  46.73800 44.05600 37.85800
H  46.44800 45.68000 38.37800
H  44.15200 45.44200 37.85100
H  44.20100 44.05100 38.87800
H  51.50500 40.74200 41.68600
H  53.05100 40.83400 42.43200
H  52.90800 41.05000 40.64100
H  55.90000 45.19100 42.32000
H  56.74600 43.95800 43.23000
H  55.44900 44.70500 44.08400
H  54.20400 48.71400 42.46900
H  52.29100 50.41600 43.99200
H  54.77200 47.87700 44.75200
H  53.54700 48.99900 45.43100
H  54.90500 49.62300 44.54000
H  51.49500 50.47500 41.23900
H  53.16900 50.28200 41.03700
H  53.43300 52.51700 41.51900
H  52.41600 52.46300 42.98900
H  51.66600 52.56100 41.31300
H  47.42300 51.84500 41.87500
H  47.48100 51.71100 43.57500
H  45.90900 51.44800 42.72300
H  44.90000 47.12300 39.73200
H  41.25300 45.12800 40.88700
H  41.57100 45.79700 42.46700
H  42.26900 44.24900 42.16700

