158

Mg 48.63300 24.81600 28.67000
C  49.45400 26.87200 31.43800
C  48.10800 22.26900 31.10600
C  48.01000 22.77600 26.33800
C  49.71500 27.24800 26.55700
N  48.74800 24.69100 31.06100
C  49.08800 25.64600 31.95100
C  48.87800 25.27800 33.41300
C  48.63100 23.68700 33.26800
C  48.51600 23.48300 31.69700
C  49.62400 22.81200 34.03400
C  47.79400 26.04700 34.18800
C  48.04700 26.51900 35.63000
H  46.96200 26.23200 36.68300
N  48.01700 22.76300 28.70400
C  47.87300 21.91000 29.76900
C  47.54100 20.52500 29.23000
C  47.38600 20.76200 27.87600
C  47.83200 22.09700 27.58600
C  47.27500 19.32100 29.97800
C  46.73200 19.94100 26.78600
O  46.61400 20.34800 25.58300
C  46.05900 18.51300 27.15300
N  48.89800 24.97800 26.69900
C  48.50800 23.97300 25.88600
C  48.71800 24.31400 24.33800
C  48.99800 25.81700 24.43100
C  49.32500 26.00400 25.96300
C  49.79600 23.51700 23.53700
C  47.80800 26.72900 24.11300
C  47.23300 26.58900 22.71600
N  49.38100 26.74600 28.91100
C  49.84600 27.57700 27.92900
C  50.41200 28.70400 28.58700
C  50.16900 28.52900 29.88800
C  49.62700 27.22800 30.10200
C  50.93200 29.90600 27.89600
C  50.32400 29.12900 31.14500
O  50.66500 30.26100 31.42600
C  49.77800 28.16100 32.19300
C  50.81800 27.93700 33.29800
O  51.83500 27.31000 33.30400
O  50.46900 28.60100 34.45300
C  51.31500 28.34900 35.63600
H  47.86600 21.53300 31.87600
H  47.81300 22.15600 25.46100
H  50.00700 28.03900 25.86200
H  49.65700 25.49200 34.14400
H  47.67100 23.32300 33.63300
H  50.38100 22.53600 33.30000
H  49.09300 21.99500 34.52400
H  50.10700 23.38200 34.82800
H  46.84100 25.51900 34.16800
H  47.60000 26.88100 33.51200
H  47.89800 27.59800 35.57800
H  49.06300 26.30000 35.95800
H  47.62400 19.45000 31.00300
H  47.70600 18.46900 29.45400
H  46.19900 19.14800 29.98500
H  45.44900 18.66200 28.04400
H  46.87000 17.78700 27.10700
H  45.38500 18.35500 26.31200
H  47.72100 24.16100 23.92500
H  49.87400 26.07300 23.83700
H  50.76100 24.01600 23.45600
H  49.39500 23.49000 22.52400
H  49.95200 22.49100 23.87100
H  48.05300 27.79100 24.12300
H  46.86600 26.55600 24.63400
H  47.86500 25.89200 22.16600
H  47.37700 27.51400 22.15800
H  46.17100 26.35700 22.64600
H  51.29200 30.58300 28.67100
H  50.22000 30.34500 27.19700
H  51.67400 29.55700 27.17900
H  48.96700 28.78400 32.56800
H  51.81200 27.37900 35.62500
H  50.82700 28.42600 36.60700
H  52.13900 29.06200 35.62600
Mg -10.63600 39.59400 40.26400
C  -9.81700 36.32200 39.43100
C  -7.28700 40.45300 39.32700
C  -11.50700 42.78400 40.05300
C  -13.88600 38.54500 40.79900
N  -8.77900 38.52900 39.20000
C  -8.71100 37.18000 39.11400
C  -7.30300 36.78700 38.72700
C  -6.47500 38.04100 38.98600
C  -7.53800 39.09700 39.27000
C  -5.38100 37.89500 40.03800
C  -7.13500 36.14000 37.36400
C  -7.73000 37.02600 36.24500
H  -8.87500 36.40500 35.42900
N  -9.53900 41.33400 39.86900
C  -8.22000 41.49800 39.47300
C  -7.92500 42.87600 39.47300
C  -9.11100 43.62700 39.65900
C  -10.12200 42.58400 39.87200
C  -6.55800 43.36200 39.03600
C  -9.17600 45.15000 39.59000
O  -8.22700 45.80200 39.23200
C  -10.45400 45.87300 39.87800
N  -12.53100 40.59200 40.34700
C  -12.65200 41.91100 40.20200
C  -14.08300 42.33300 39.95700
C  -14.90100 41.00500 40.42600
C  -13.71700 39.96700 40.52300
C  -14.46200 43.57800 40.73300
C  -16.08500 40.54600 39.52200
C  -17.47300 41.14800 39.91100
N  -11.66600 37.85700 40.17800
C  -12.93400 37.57900 40.55900
C  -13.13600 36.14200 40.49700
C  -11.98300 35.53300 39.99000
C  -11.08700 36.70900 39.82900
C  -14.41300 35.45000 40.83400
C  -11.28200 34.26700 39.59000
O  -11.63800 33.08800 39.50900
C  -9.87200 34.79000 39.20700
C  -8.90400 34.05000 40.10200
O  -8.72100 34.32600 41.29400
O  -8.35300 33.01300 39.43100
C  -7.19200 32.36100 40.11600
H  -6.22700 40.68500 39.20700
H  -11.86400 43.81300 39.96500
H  -14.91700 38.35600 41.10400
H  -7.05700 35.96000 39.39300
H  -5.94200 38.33400 38.08100
H  -4.46100 38.02000 39.46500
H  -5.27900 36.92800 40.53000
H  -5.39100 38.65900 40.81500
H  -7.50100 35.11600 37.28400
H  -6.07700 36.31100 37.16300
H  -7.00300 37.33600 35.49500
H  -8.09200 37.94600 36.70500
H  -6.42500 44.17500 39.75000
H  -6.60800 43.67700 37.99400
H  -5.76100 42.63400 39.19300
H  -10.92600 45.66800 40.83900
H  -11.18000 45.71500 39.08100
H  -10.10700 46.90300 39.79000
H  -14.27700 42.50500 38.89800
H  -15.35500 41.10800 41.41100
H  -13.73700 44.00900 41.42400
H  -15.32900 43.44300 41.37900
H  -14.67100 44.38500 40.03100
H  -16.17200 39.46000 39.52900
H  -15.83700 41.05800 38.59300
H  -17.44100 41.86300 40.73400
H  -18.00500 40.21600 40.09900
H  -18.00100 41.66600 39.11100
H  -15.22500 35.83400 40.21500
H  -14.68000 35.57900 41.88300
H  -14.34700 34.40900 40.51800
H  -9.60000 34.45400 38.20600
H  -7.39900 32.13100 41.16100
H  -6.38700 33.08700 40.23500
H  -6.85600 31.45400 39.61400

