158

Mg 9.22900 3.45000 28.44500
C  10.71700 1.91200 31.22900
C  7.96800 5.87200 30.40600
C  7.93300 4.75400 25.56800
C  10.57900 0.78800 26.50900
N  9.30900 3.72800 30.62000
C  9.98800 3.04700 31.56800
C  9.74200 3.77000 32.91800
C  8.86500 5.06400 32.59300
C  8.65500 4.85900 31.06000
C  7.49300 5.22200 33.41000
C  11.09700 4.06800 33.75600
C  11.06100 5.24600 34.69100
H  11.84000 5.14600 36.03900
N  8.03800 5.07600 28.01100
C  7.59700 5.94300 29.00200
C  6.65100 6.87400 28.36200
C  6.75700 6.66400 26.92100
C  7.59600 5.42900 26.77100
C  5.82300 7.92400 29.17900
C  5.84400 7.30000 25.76400
O  5.79800 6.87400 24.58700
C  4.95800 8.47100 26.08100
N  9.24400 2.95300 26.38100
C  8.67700 3.63700 25.37900
C  8.97700 2.99700 23.98600
C  9.71600 1.73000 24.33800
C  9.95400 1.81600 25.88800
C  7.73100 2.80100 23.07600
C  10.99200 1.47900 23.53400
C  11.06500 0.27300 22.52900
N  10.32300 1.74000 28.74900
C  10.73500 0.74900 27.87600
C  11.44300 -0.28100 28.57800
C  11.52600 0.20900 29.90300
C  10.74900 1.32200 29.95900
C  11.95200 -1.52800 27.98100
C  12.12300 -0.14500 31.19200
O  12.99700 -0.96000 31.41100
C  11.55200 1.04500 32.17600
C  10.75700 0.38100 33.30000
O  9.60800 -0.04500 33.27700
O  11.51800 0.44600 34.41600
C  10.87200 0.13100 35.74800
H  7.52000 6.61700 31.06700
H  7.62500 5.24500 24.64200
H  10.83800 -0.16500 26.04300
H  9.05900 3.11600 33.46100
H  9.48000 5.96200 32.65700
H  7.37900 6.24800 33.75800
H  7.33600 4.42300 34.13500
H  6.65700 5.13600 32.71600
H  11.86900 4.22600 33.00300
H  11.32900 3.19600 34.36800
H  10.01500 5.37300 34.97200
H  11.56100 6.00800 34.09300
H  6.61300 8.59400 29.51800
H  5.31600 7.48600 30.03900
H  5.06800 8.51000 28.65400
H  4.40300 8.87800 25.23700
H  5.44900 9.21800 26.70500
H  4.13300 8.07700 26.67400
H  9.69400 3.67700 23.52500
H  9.06400 0.86100 24.24400
H  7.60400 1.74500 22.83700
H  7.75400 3.41000 22.17300
H  6.82900 2.87100 23.68400
H  11.83800 1.49900 24.22100
H  11.17100 2.36800 22.92900
H  10.18300 -0.36600 22.48700
H  11.87800 -0.41000 22.77400
H  11.23300 0.60700 21.50500
H  11.33600 -2.03000 27.23500
H  11.97300 -2.19700 28.84100
H  13.00300 -1.44300 27.70200
H  12.38700 1.58900 32.61800
H  9.81700 -0.13600 35.80500
H  10.86100 0.95600 36.46100
H  11.45800 -0.68800 36.16600
Mg 17.21500 -2.56300 28.41400
C  16.57200 -0.53200 31.32400
C  19.12700 -4.57300 30.46400
C  18.09100 -4.34100 25.72200
C  15.76400 -0.11400 26.46900
N  17.67000 -2.58500 30.61200
C  17.22700 -1.69500 31.65100
C  17.73300 -2.09100 33.04300
C  18.80400 -3.21200 32.67300
C  18.51300 -3.50000 31.20800
C  20.31600 -2.87500 32.88300
C  16.52400 -2.53300 33.98200
C  16.25800 -1.61400 35.22800
H  17.35000 -0.83300 35.83600
N  18.37600 -4.32900 28.15000
C  19.04700 -4.92400 29.11000
C  19.71100 -6.05200 28.54400
C  19.64500 -5.95600 27.13900
C  18.67800 -4.86600 26.89100
C  20.35300 -7.05900 29.43700
C  20.36600 -6.75100 26.09400
O  20.19900 -6.58700 24.89000
C  21.31100 -7.86100 26.45500
N  16.87900 -2.36600 26.45100
C  17.30400 -3.21900 25.47900
C  16.90700 -2.71000 24.09600
C  16.11900 -1.40800 24.40000
C  16.22100 -1.26600 25.88500
C  18.10400 -2.54000 23.15400
C  14.69200 -1.39700 23.86400
C  13.75100 -2.41600 24.52600
N  16.32400 -0.68200 28.82300
C  15.78900 0.15500 27.89800
C  15.18100 1.32000 28.49000
C  15.48300 1.12500 29.87100
C  16.16600 -0.12200 30.01100
C  14.48200 2.44200 27.76500
C  15.27400 1.65600 31.23600
O  14.72600 2.65500 31.70900
C  16.10700 0.65000 32.19900
C  17.31500 1.53000 32.56700
O  18.40500 1.60300 32.03400
O  16.93900 2.27100 33.68300
C  17.96200 3.27300 34.15800
H  19.83800 -5.12500 31.08200
H  18.38000 -4.81800 24.78300
H  15.09700 0.51300 25.87300
H  18.31100 -1.28100 33.48900
H  18.62600 -4.14200 33.21400
H  20.69400 -3.63800 33.56400
H  20.43300 -1.87400 33.30000
H  20.84100 -2.89000 31.92800
H  16.70400 -3.57100 34.26300
H  15.66800 -2.52800 33.30600
H  15.88300 -2.31300 35.97600
H  15.54000 -0.81100 35.06100
H  20.11300 -7.14300 30.49700
H  21.41600 -6.82000 29.44400
H  20.18600 -8.10700 29.18800
H  21.98300 -7.48900 27.22800
H  21.87100 -8.04800 25.53900
H  20.65900 -8.69200 26.72600
H  16.22400 -3.43700 23.65500
H  16.55000 -0.44200 24.13800
H  18.13200 -1.46300 22.98900
H  18.03400 -3.04100 22.18900
H  19.02700 -2.85500 23.64100
H  14.75100 -1.66200 22.80800
H  14.06400 -0.50600 23.88100
H  12.97500 -1.91200 25.10200
H  14.35200 -3.04500 25.18400
H  13.27600 -3.02100 23.75400
H  13.66800 2.06000 27.14900
H  15.20900 2.96600 27.14500
H  14.02600 3.12900 28.47800
H  15.43900 0.37600 33.01500
H  17.95200 4.25100 33.67600
H  18.96700 2.90500 33.95200
H  17.99400 3.26700 35.24800

