158

Mg 1.06500 -1.79700 44.80000
C  4.47300 -1.39100 44.01900
C  0.41000 0.78100 42.53900
C  -2.23700 -2.61900 44.97000
C  1.87000 -4.78300 46.36000
N  2.32900 -0.62500 43.17900
C  3.68900 -0.57700 43.22800
C  4.21500 0.44000 42.13100
C  2.82800 1.22200 41.78600
C  1.78400 0.47400 42.50800
C  2.96100 2.76000 41.99600
C  4.88700 -0.32100 40.94100
C  6.27300 0.30900 40.55000
H  6.35000 1.50800 39.53100
N  -0.70200 -0.97900 43.88400
C  -0.71200 0.10300 43.08200
C  -2.09300 0.54900 42.89600
C  -3.00400 -0.42500 43.60000
C  -1.99100 -1.38900 44.23200
C  -2.50100 1.79100 42.06600
C  -4.53900 -0.44600 43.69300
O  -5.12300 0.48500 43.12300
C  -5.32000 -1.42500 44.40000
N  0.00700 -3.46600 45.66000
C  -1.36500 -3.52700 45.61600
C  -1.87600 -4.82300 46.35200
C  -0.55900 -5.54900 46.88500
C  0.47300 -4.62900 46.16700
C  -3.00100 -4.48700 47.45100
C  -0.36500 -7.10700 46.75500
C  -1.47200 -8.01500 47.31800
N  2.73800 -2.82900 45.24100
C  2.97800 -4.05600 45.86200
C  4.40200 -4.27600 46.16000
C  4.96900 -3.21400 45.46600
C  3.96900 -2.44300 44.90100
C  5.09700 -5.38700 46.90200
C  6.34000 -2.63600 45.09100
O  7.46800 -3.01200 45.36400
C  5.96200 -1.46900 44.13600
C  6.45100 -0.15200 44.67500
O  6.21300 0.19600 45.80700
O  7.29800 0.45700 43.79000
C  7.90500 1.72000 44.20500
H  0.14200 1.66700 41.95900
H  -3.28600 -2.80300 45.21100
H  2.25000 -5.56500 47.02100
H  4.93100 1.14400 42.55300
H  2.67800 1.18800 40.70700
H  3.89700 2.97200 42.51300
H  2.13500 3.09400 42.62300
H  2.95200 3.38800 41.10500
H  4.19200 -0.28700 40.10200
H  5.11700 -1.37700 41.07600
H  6.76700 -0.58300 40.16400
H  6.77400 0.58500 41.47800
H  -2.81500 1.46500 41.07500
H  -1.77500 2.60100 41.99400
H  -3.38200 2.18000 42.57700
H  -6.39700 -1.36800 44.24000
H  -5.11900 -1.28300 45.46100
H  -5.00200 -2.44600 44.18700
H  -2.26300 -5.49100 45.58200
H  -0.54600 -5.43700 47.96900
H  -3.86700 -5.13100 47.29400
H  -3.26500 -3.43300 47.36500
H  -2.71100 -4.61600 48.49400
H  0.55000 -7.39800 47.27200
H  -0.23200 -7.38700 45.71000
H  -1.83100 -8.60500 46.47500
H  -2.22400 -7.40600 47.81900
H  -1.09000 -8.77300 48.00200
H  5.31800 -6.22200 46.23900
H  4.56200 -5.68400 47.80500
H  6.00300 -4.87400 47.22600
H  6.46700 -1.62800 43.18300
H  8.93100 1.43300 44.43700
H  7.46700 2.03000 45.15300
H  7.73800 2.49500 43.45700
Mg 0.37900 43.68600 26.43500
C  2.78700 43.69400 28.89800
C  -2.06300 43.59700 28.76500
C  -1.72500 43.26400 23.88200
C  3.02600 43.45700 24.00000
N  0.41200 43.53000 28.55400
C  1.48600 43.65000 29.38800
C  1.02600 43.60600 30.91600
C  -0.50900 43.30700 30.85800
C  -0.80000 43.47800 29.33700
C  -0.89900 41.86400 31.27100
C  1.40700 44.80800 31.81100
C  2.11600 44.49500 33.12100
H  1.49400 43.30200 33.83500
N  -1.68800 43.43500 26.34400
C  -2.49600 43.51300 27.43700
C  -3.88300 43.66600 26.92600
C  -3.82900 43.59000 25.54100
C  -2.39900 43.36300 25.17000
C  -5.06300 43.90600 27.86400
C  -4.90300 43.79600 24.52700
O  -4.66100 43.80100 23.28800
C  -6.46400 44.14900 24.96800
N  0.65900 43.27500 24.24100
C  -0.40300 43.29600 23.43600
C  -0.04700 43.03500 21.97500
C  1.52000 43.20300 21.95200
C  1.79400 43.28600 23.49000
C  -0.56600 41.62200 21.51700
C  2.11900 44.47000 21.27800
C  1.77700 45.80900 21.80200
N  2.52600 43.66300 26.40600
C  3.40000 43.57600 25.35800
C  4.74000 43.72500 25.91700
C  4.52600 43.67300 27.28600
C  3.17600 43.69000 27.57000
C  6.03000 43.77100 25.18600
C  5.18900 43.76800 28.60100
O  6.34000 43.96800 28.83500
C  4.04900 43.77800 29.70500
C  4.29700 42.74900 30.67700
O  3.80000 41.62300 30.75300
O  5.18000 43.25200 31.58400
C  5.40000 42.50100 32.86200
H  -2.77400 43.55100 29.59200
H  -2.45300 43.47000 23.09400
H  3.85500 43.41900 23.29000
H  1.52800 42.74900 31.36400
H  -1.15000 43.97300 31.43600
H  -0.02600 41.21700 31.35200
H  -1.59700 41.42000 30.56000
H  -1.35000 41.80600 32.26200
H  0.57900 45.48100 32.03400
H  2.09700 45.51700 31.35400
H  1.99700 45.33800 33.80100
H  3.17300 44.35000 32.89600
H  -5.44900 44.89800 27.62700
H  -4.78600 43.94100 28.91800
H  -5.68500 43.02400 27.71300
H  -6.86500 43.22600 25.38600
H  -7.02800 44.38400 24.06500
H  -6.45800 45.00400 25.64400
H  -0.41600 43.64000 21.14600
H  2.09800 42.35400 21.58600
H  0.19700 40.84700 21.59500
H  -0.96900 41.62000 20.50400
H  -1.41300 41.28700 22.11500
H  1.73500 44.47100 20.25700
H  3.20200 44.35300 21.31400
H  2.73800 46.23800 22.08600
H  1.17800 45.73700 22.71000
H  1.26500 46.42100 21.06000
H  6.73000 44.50400 25.58600
H  5.90500 44.01200 24.13000
H  6.39400 42.74800 25.28300
H  4.14000 44.69400 30.28900
H  6.44000 42.18000 32.80300
H  4.77500 41.61900 33.00600
H  5.17200 43.13900 33.71600

