158

Mg 47.48200 16.44800 28.61100
C  45.43300 16.67500 31.34900
C  50.05400 17.85500 30.53100
C  49.31800 17.07300 25.76500
C  44.90900 15.27200 26.66600
N  47.64500 17.25300 30.66400
C  46.72100 17.04400 31.64100
C  47.31000 17.27100 33.02300
C  48.76900 17.83300 32.76100
C  48.82300 17.71400 31.18300
C  48.81400 19.32900 33.23900
C  47.21600 16.05900 33.99000
C  47.08700 16.48100 35.46400
H  47.15800 17.97800 35.95400
N  49.44300 17.33000 28.18100
C  50.34500 17.72800 29.14200
C  51.58000 18.22100 28.46800
C  51.32500 18.17600 27.05800
C  49.94100 17.55200 26.95200
C  52.72200 18.83900 29.31200
C  52.10800 18.66900 25.87100
O  51.71300 18.54400 24.74900
C  53.45400 19.20500 26.05300
N  47.28600 15.86000 26.53000
C  48.13900 16.22000 25.53200
C  47.60800 15.78700 24.14300
C  46.19800 15.18300 24.45600
C  46.09300 15.46700 25.95300
C  47.40600 16.92000 23.12800
C  45.88000 13.79300 23.95000
C  45.26900 13.67600 22.59600
N  45.58600 16.12700 28.83700
C  44.60000 15.57800 28.01000
C  43.29300 15.43700 28.71500
C  43.59400 15.85600 30.07100
C  44.94300 16.30900 30.05300
C  42.01200 14.88000 28.09400
C  43.12400 15.96700 31.45000
O  42.01700 15.71600 31.97000
C  44.30300 16.46300 32.35200
C  43.98100 17.67100 33.02700
O  43.97500 18.83500 32.70400
O  43.57700 17.30100 34.29100
C  42.77800 18.26300 35.10900
H  50.83100 18.26000 31.18200
H  49.75100 17.20400 24.77100
H  44.14300 14.82500 26.03000
H  46.70100 18.08700 33.41300
H  49.52100 17.25900 33.30200
H  48.42000 19.37200 34.25400
H  48.21400 19.85400 32.49500
H  49.87300 19.58700 33.28400
H  48.13500 15.47800 33.90600
H  46.37400 15.42000 33.72400
H  47.74100 15.82500 36.03900
H  46.07000 16.17200 35.70600
H  52.63700 18.59800 30.37200
H  52.55000 19.91100 29.21100
H  53.69900 18.55000 28.92400
H  54.01000 18.42100 26.56700
H  53.41100 20.14800 26.59800
H  54.11100 19.38000 25.20000
H  48.33100 15.08100 23.73600
H  45.39800 15.80300 24.05100
H  46.38300 17.24400 22.93400
H  47.67300 16.38700 22.21600
H  48.03300 17.80800 23.20200
H  45.28200 13.32400 24.73100
H  46.78700 13.19400 23.86600
H  45.36100 14.60100 22.02800
H  44.18300 13.73900 22.66300
H  45.65100 12.82800 22.02800
H  41.91900 15.35900 27.11900
H  41.19300 15.28500 28.68900
H  41.95300 13.79900 27.96600
H  44.40300 15.66200 33.08400
H  43.45100 19.05800 35.43300
H  42.50200 17.71800 36.01200
H  41.94100 18.73200 34.59200
Mg 1.53700 41.93400 25.35000
C  2.45700 42.00800 28.70900
C  -1.29400 40.23700 26.51600
C  0.81200 40.99200 22.16900
C  4.79200 42.61700 24.32900
N  0.58600 41.40100 27.46700
C  1.16500 41.62000 28.63600
C  0.19700 41.26000 29.78600
C  -0.97700 40.46000 29.01400
C  -0.47000 40.58100 27.57800
C  -1.27300 39.00900 29.46400
C  -0.26900 42.40900 30.64800
C  -0.19300 42.28400 32.19700
H  -0.59700 40.91900 32.79700
N  -0.09700 40.97900 24.51000
C  -1.16600 40.44000 25.15100
C  -2.13200 40.13200 24.10100
C  -1.51300 40.27000 22.87800
C  -0.20100 40.80500 23.10600
C  -3.49600 39.68200 24.51600
C  -2.23600 40.07300 21.51300
O  -1.71700 40.21800 20.44000
C  -3.59400 39.39900 21.42500
N  2.62700 41.73700 23.54300
C  2.09700 41.36500 22.33600
C  3.04600 41.65100 21.17000
C  4.16700 42.50100 21.96100
C  3.87600 42.21800 23.34700
C  3.50400 40.45400 20.35200
C  4.31100 44.02100 21.62700
C  2.97600 44.81600 21.32600
N  3.20300 42.33500 26.27800
C  4.50000 42.62600 25.74400
C  5.35900 42.99000 26.86600
C  4.62500 42.63300 28.00900
C  3.30000 42.32300 27.61000
C  6.76100 43.34500 26.78400
C  4.67500 42.66100 29.47700
O  5.62100 42.97400 30.19600
C  3.32600 42.17200 29.96600
C  3.52900 40.88000 30.61000
O  3.99500 39.92600 30.01600
O  3.23000 40.96700 31.92100
C  3.54200 39.78800 32.63400
H  -2.18800 39.73300 26.88700
H  0.52400 40.59700 21.19300
H  5.75000 42.98800 23.95900
H  0.69700 40.57500 30.47100
H  -1.89400 41.03200 28.87300
H  -0.63900 38.67900 30.28700
H  -1.00800 38.31600 28.66500
H  -2.29000 38.85500 29.82600
H  -1.29200 42.64800 30.35700
H  0.33100 43.29600 30.44500
H  -0.87800 43.04200 32.57600
H  0.77900 42.53700 32.62000
H  -3.70600 39.83400 25.57500
H  -3.42200 38.60800 24.34500
H  -4.23400 40.18400 23.89100
H  -4.35600 40.17500 21.35600
H  -3.81300 38.60500 22.13900
H  -3.55100 38.91300 20.45100
H  2.49800 42.27400 20.46300
H  5.07600 42.01700 21.60500
H  2.94500 39.57000 20.65800
H  4.57000 40.23300 20.41200
H  3.26200 40.59400 19.29900
H  4.80400 44.01500 20.65500
H  4.89200 44.66100 22.29100
H  2.11200 44.15500 21.39000
H  3.15000 45.32700 20.37900
H  2.87400 45.55800 22.11800
H  6.90300 44.29000 27.30800
H  7.22400 43.56100 25.82200
H  7.32300 42.54600 27.26900
H  2.96100 42.92900 30.66000
H  4.46800 39.35100 32.25900
H  2.75600 39.06900 32.40100
H  3.52700 39.91900 33.71600

