158

Mg 25.04900 -7.23000 47.49000
C  27.24900 -4.74200 46.64700
C  22.97400 -6.22300 44.98900
C  23.19200 -10.08400 47.80900
C  27.74900 -8.74000 49.14500
N  25.19100 -5.76400 45.89300
C  26.16000 -4.75200 45.79800
C  25.81300 -3.72100 44.75200
C  24.35000 -4.14400 44.44400
C  24.13000 -5.48100 45.10100
C  23.26100 -3.21100 44.90600
C  26.81200 -3.77100 43.61100
C  27.36800 -2.38100 43.13100
H  27.09900 -2.02000 41.74100
N  23.16600 -7.87600 46.74900
C  22.53600 -7.37400 45.63600
C  21.37800 -8.12600 45.35600
C  21.30000 -9.21100 46.30300
C  22.59900 -9.14600 46.98800
C  20.39900 -7.85500 44.24500
C  20.18800 -10.20500 46.53100
O  19.16300 -10.14000 45.87900
C  20.28300 -11.31500 47.47400
N  25.45100 -9.12300 48.39900
C  24.47300 -10.07200 48.45400
C  24.95900 -11.29500 49.35300
C  26.40900 -10.91800 49.60700
C  26.59800 -9.57400 48.98000
C  24.23200 -11.42100 50.64300
C  27.38700 -11.97300 48.95100
C  28.36900 -12.70400 49.91400
N  27.06300 -6.78400 47.93500
C  28.00700 -7.47800 48.61600
C  29.19500 -6.68200 48.82200
C  28.88400 -5.53400 48.04400
C  27.64100 -5.68900 47.54900
C  30.35000 -7.05500 49.64800
C  29.36000 -4.25900 47.55100
O  30.44200 -3.69600 47.84600
C  28.23000 -3.66800 46.71500
C  27.61000 -2.46400 47.43000
O  27.09800 -2.51900 48.48700
O  27.80600 -1.26400 46.70600
C  27.02000 -0.13400 47.16500
H  22.32800 -5.83800 44.19800
H  22.70800 -10.99300 48.17300
H  28.57200 -9.19500 49.69900
H  25.99100 -2.78300 45.27900
H  24.31600 -4.29100 43.36500
H  22.63400 -3.68900 45.65800
H  22.66900 -2.72400 44.13000
H  23.74200 -2.43800 45.50600
H  26.35900 -4.37300 42.82400
H  27.65500 -4.40900 43.87400
H  28.44500 -2.52500 43.22400
H  27.08000 -1.52900 43.74700
H  20.05400 -8.84800 43.95700
H  20.86100 -7.33000 43.40900
H  19.52900 -7.30500 44.60500
H  21.06500 -12.07400 47.49300
H  19.31900 -11.79900 47.62800
H  20.54200 -10.76700 48.37900
H  24.81200 -12.17200 48.72200
H  26.73600 -10.70000 50.62400
H  23.56900 -10.57800 50.84000
H  24.88300 -11.57700 51.50300
H  23.70300 -12.36600 50.51600
H  27.92500 -11.62900 48.06800
H  26.78400 -12.81700 48.61600
H  28.22100 -12.29200 50.91200
H  29.42100 -12.56500 49.66300
H  28.12800 -13.76700 49.91300
H  30.99200 -7.62200 48.97400
H  30.09200 -7.54900 50.58500
H  30.85500 -6.09700 49.76700
H  28.57000 -3.54800 45.68700
H  26.54400 0.33000 46.30100
H  27.73500 0.60500 47.52700
H  26.22500 -0.35500 47.87800
Mg 48.02600 34.86600 27.91400
C  45.95900 33.22000 30.15300
C  48.59100 37.19400 30.11900
C  49.15400 36.79700 25.35600
C  47.16500 32.41700 25.49500
N  47.27900 35.16800 29.85500
C  46.61400 34.30900 30.71300
C  46.68300 34.69300 32.16500
C  47.10500 36.23100 31.96300
C  47.71500 36.25600 30.56300
C  45.94500 37.15700 32.21300
C  47.65600 33.77200 33.05500
C  48.56800 34.46100 34.14000
H  47.92700 35.54300 35.04100
N  48.87100 36.73400 27.78400
C  49.05100 37.57100 28.83900
C  49.85800 38.68200 28.44200
C  49.87200 38.66300 27.06800
C  49.25000 37.36200 26.66600
C  50.56500 39.57000 29.48600
C  50.44300 39.68000 26.05500
O  50.53200 39.42900 24.78200
C  50.92900 41.02500 26.46600
N  47.99900 34.65000 25.69600
C  48.61700 35.61000 24.91400
C  48.68100 35.12800 23.47500
C  48.15000 33.67100 23.44700
C  47.73100 33.58700 24.97600
C  47.98200 36.11400 22.45800
C  49.15300 32.58000 22.96000
C  50.25900 32.07000 23.96400
N  46.95500 33.08800 27.84900
C  46.63900 32.19500 26.85900
C  45.91400 31.04500 27.43300
C  45.47300 31.49700 28.65500
C  46.14800 32.76400 28.87600
C  45.45600 29.86100 26.71600
C  44.71700 31.14700 29.75400
O  44.02300 30.16200 29.99100
C  44.91000 32.30600 30.76700
C  45.14200 31.84200 32.10700
O  46.09900 31.16000 32.47600
O  44.20000 32.29300 32.90400
C  44.35400 31.94900 34.32100
H  48.89100 37.88600 30.90800
H  49.37900 37.47900 24.53400
H  47.07400 31.56700 24.81600
H  45.69400 34.60300 32.61400
H  47.95700 36.40900 32.62000
H  45.98000 37.54200 33.23200
H  45.00700 36.60500 32.27000
H  45.93200 37.99800 31.51900
H  48.32000 33.33700 32.30800
H  47.24500 32.84500 33.45300
H  49.39700 34.94100 33.61900
H  48.94400 33.69700 34.82100
H  50.68400 40.60200 29.15400
H  51.54700 39.11500 29.62000
H  50.15600 39.35200 30.47300
H  50.17500 41.58200 27.02200
H  51.43600 41.49900 25.62600
H  51.71300 40.79400 27.18700
H  49.73900 35.19700 23.22000
H  47.26600 33.55500 22.82000
H  47.05900 35.73300 22.01900
H  48.78800 36.26800 21.74000
H  47.83400 37.00600 23.06600
H  49.79900 33.02200 22.20100
H  48.56900 31.80100 22.46900
H  50.37600 31.01900 23.69900
H  50.01600 32.05000 25.02600
H  51.24600 32.49200 23.77200
H  46.27500 29.28000 26.29300
H  44.87400 30.32500 25.92000
H  44.87100 29.24700 27.40000
H  44.01700 32.93000 30.78100
H  43.37400 32.15000 34.75300
H  45.10300 32.63600 34.71700
H  44.58200 30.93600 34.65400

