158

Mg -2.35500 16.79600 26.31900
C  -2.65000 14.77300 29.00300
C  -2.89900 19.51600 28.29400
C  -1.85900 18.70300 23.59500
C  -2.02400 13.88600 24.22800
N  -2.53800 17.06300 28.48000
C  -2.68200 16.10500 29.40000
C  -2.85900 16.63500 30.80400
C  -2.98400 18.15700 30.56700
C  -2.85800 18.30300 29.03500
C  -4.29800 18.69800 31.23300
C  -1.68500 16.17800 31.70100
C  -1.23700 16.81100 33.02600
H  -1.02900 16.00800 34.26900
N  -2.31000 18.82500 26.01600
C  -2.66900 19.77800 26.97600
C  -2.51300 21.11800 26.44700
C  -1.98200 20.91000 25.06800
C  -2.08000 19.39000 24.81100
C  -2.96300 22.34900 27.16300
C  -1.54800 21.88600 24.02100
O  -1.51900 21.56800 22.83600
C  -1.29600 23.28800 24.40000
N  -1.84800 16.32700 24.21800
C  -1.78000 17.37200 23.33400
C  -1.65000 16.80700 21.95100
C  -1.55900 15.25300 22.11900
C  -1.93600 15.12100 23.56000
C  -2.64700 17.23100 20.91400
C  -0.18200 14.66100 21.76200
C  0.05700 14.14800 20.35200
N  -2.48400 14.78400 26.49000
C  -2.31100 13.70400 25.59000
C  -2.47600 12.46400 26.27600
C  -2.59600 12.83200 27.64500
C  -2.60400 14.19900 27.70900
C  -2.39200 11.12300 25.64300
C  -2.69700 12.31100 28.96100
O  -2.69600 11.13500 29.33800
C  -2.67600 13.47800 29.89700
C  -1.50000 13.17400 30.69400
O  -0.37600 13.27900 30.28200
O  -1.78100 12.69200 31.96900
C  -0.73000 12.11500 32.82600
H  -3.01600 20.43500 28.87300
H  -1.63600 19.32600 22.72600
H  -1.77600 13.02200 23.60800
H  -3.73000 16.12400 31.21400
H  -2.12000 18.69500 30.95700
H  -4.92900 19.22000 30.51400
H  -4.02400 19.46700 31.95500
H  -4.87800 18.00600 31.84300
H  -0.79400 15.95000 31.11600
H  -2.04300 15.20600 32.04100
H  -2.05900 17.50800 33.18800
H  -0.25700 17.28200 32.95200
H  -3.64900 22.07400 27.96400
H  -3.59000 23.04700 26.60800
H  -2.01700 22.78400 27.48600
H  -2.23200 23.72200 24.75200
H  -0.95300 23.75400 23.47500
H  -0.48400 23.44200 25.11000
H  -0.70700 17.22100 21.59600
H  -2.31300 14.71400 21.54600
H  -2.13500 17.75400 20.10600
H  -3.32500 17.97900 21.32400
H  -3.26000 16.43600 20.48900
H  0.06700 13.88900 22.49000
H  0.49700 15.51200 21.81500
H  -0.92000 14.37300 19.92400
H  0.23200 13.07200 20.35200
H  0.80100 14.83100 19.94200
H  -1.75100 10.99500 24.77100
H  -3.35400 10.73400 25.31100
H  -1.94500 10.46300 26.38600
H  -3.57400 13.49600 30.51400
H  0.10300 12.78700 33.03100
H  -0.42700 11.20500 32.30900
H  -1.07400 11.80700 33.81400
Mg -12.57700 15.98500 41.40700
C  -9.41500 14.30400 41.10300
C  -11.11600 18.66000 39.80100
C  -15.59000 17.27100 41.18400
C  -13.98700 12.72400 41.64100
N  -10.48700 16.46400 40.59100
C  -9.39000 15.60700 40.51900
C  -8.14500 16.27400 39.89800
C  -8.75500 17.73700 39.56100
C  -10.21800 17.63100 40.04300
C  -7.94900 18.86200 40.29500
C  -7.64400 15.50000 38.60700
C  -6.14200 15.15000 38.62300
H  -5.42500 15.64900 37.37100
N  -13.25400 17.84000 40.84400
C  -12.53500 18.76900 40.20600
C  -13.43400 19.91100 40.00800
C  -14.67100 19.57600 40.58000
C  -14.52000 18.19800 40.90100
C  -12.92100 21.25200 39.51900
C  -15.89700 20.42800 40.86400
O  -15.88600 21.58300 40.52800
C  -17.11600 20.01000 41.70900
N  -14.56400 15.08700 41.21100
C  -15.66300 15.90400 41.28900
C  -16.95100 15.05700 41.35500
C  -16.38500 13.60500 41.38700
C  -14.85400 13.82900 41.45600
C  -17.88600 15.38300 42.58800
C  -17.01500 12.61800 40.34400
C  -18.21400 11.79300 40.82500
N  -11.89200 13.97000 41.56100
C  -12.57100 12.74800 41.64800
C  -11.62600 11.69400 41.92600
C  -10.38000 12.26400 41.73400
C  -10.60100 13.65400 41.51000
C  -12.07800 10.30100 42.17700
C  -8.95400 11.91600 41.52900
O  -8.34200 10.86800 41.49500
C  -8.32600 13.26600 41.21800
C  -7.25000 13.62600 42.15000
O  -7.46700 13.96200 43.33800
O  -5.98800 13.57500 41.51900
C  -4.79600 13.80100 42.34400
H  -10.81100 19.53400 39.22200
H  -16.58800 17.68800 41.03800
H  -14.32000 11.68600 41.70000
H  -7.32800 16.22800 40.61800
H  -8.56500 17.89700 38.50000
H  -6.95400 18.49100 40.54200
H  -8.48000 19.02400 41.23300
H  -7.97500 19.85700 39.85000
H  -7.67300 16.14700 37.73000
H  -8.26700 14.61000 38.52200
H  -5.94900 14.08700 38.76600
H  -5.65900 15.61800 39.48000
H  -12.23600 21.05500 38.69400
H  -12.53200 21.85800 40.33700
H  -13.73000 21.79600 39.03300
H  -17.55700 20.87600 42.20300
H  -16.58500 19.40400 42.44300
H  -17.87000 19.45200 41.15300
H  -17.52200 15.10000 40.42800
H  -16.58300 13.17400 42.36900
H  -18.51200 16.27300 42.53500
H  -17.18300 15.39000 43.42200
H  -18.50900 14.49800 42.71500
H  -16.22200 11.94600 40.01500
H  -17.46500 13.20400 39.54200
H  -19.06000 12.17300 40.25100
H  -18.43900 11.77800 41.89100
H  -17.98700 10.79000 40.46300
H  -12.53600 9.91600 41.26600
H  -12.96100 10.31900 42.81600
H  -11.26000 9.64300 42.46900
H  -7.83400 13.11500 40.25700
H  -5.10000 14.25200 43.28800
H  -4.21000 14.40700 41.65200
H  -4.15000 12.95500 42.57900

