158

Mg 24.94400 -8.00300 46.11800
C  27.31400 -5.44300 44.82900
C  22.58600 -6.75400 43.90400
C  23.30500 -10.75000 46.68700
C  27.64500 -9.18400 47.95600
N  25.05800 -6.48700 44.41900
C  26.06900 -5.50400 44.24200
C  25.46900 -4.42800 43.28900
C  24.01300 -4.83200 43.09100
C  23.86200 -6.15000 43.84300
C  22.99200 -3.76700 43.70700
C  26.20300 -4.36100 41.92900
C  26.10600 -3.04000 41.21500
H  25.53100 -2.99700 39.82300
N  23.14300 -8.69300 45.46400
C  22.26100 -7.97300 44.59300
C  21.03800 -8.74800 44.46900
C  21.22100 -9.93800 45.25900
C  22.60300 -9.86800 45.81000
C  19.91000 -8.30800 43.64000
C  20.19200 -10.99400 45.41700
O  19.05300 -10.84900 44.93300
C  20.44100 -12.24500 46.12500
N  25.42700 -9.78800 47.11700
C  24.50600 -10.75400 47.34000
C  25.14400 -11.96200 48.05600
C  26.38900 -11.36700 48.72500
C  26.55700 -10.00300 47.90600
C  24.16200 -12.74000 49.02200
C  27.64700 -12.32900 48.68600
C  28.22500 -12.59900 50.11300
N  27.02900 -7.42700 46.38100
C  27.97900 -8.02600 47.18400
C  29.17900 -7.22100 47.27900
C  28.94000 -6.21400 46.36300
C  27.67100 -6.41200 45.73000
C  30.43100 -7.41800 48.07600
C  29.55200 -5.01700 45.81600
O  30.65900 -4.47600 45.97800
C  28.52300 -4.57000 44.71100
C  28.22200 -3.12400 44.78500
O  28.53600 -2.33400 43.89000
O  27.60300 -2.73400 45.97200
C  27.20600 -1.31900 46.03700
H  21.88400 -6.26900 43.22200
H  22.78400 -11.68700 46.89800
H  28.50700 -9.48400 48.55500
H  25.58500 -3.46600 43.78800
H  23.76700 -5.00500 42.04400
H  22.32400 -3.27100 43.00400
H  23.51400 -2.91600 44.14500
H  22.46100 -4.19400 44.55800
H  25.80000 -5.16000 41.30700
H  27.25700 -4.57800 42.10300
H  27.15400 -2.76900 41.08900
H  25.57800 -2.30600 41.82400
H  20.09800 -7.37900 43.10200
H  19.03000 -8.03700 44.22300
H  19.74500 -9.15200 42.97000
H  20.45800 -12.07000 47.20000
H  21.34100 -12.76000 45.79100
H  19.66700 -12.90100 45.72700
H  25.36800 -12.63600 47.22800
H  26.06400 -11.24000 49.75700
H  24.57300 -12.87900 50.02100
H  23.90400 -13.70500 48.58600
H  23.18600 -12.28200 49.18100
H  28.48700 -11.83700 48.19500
H  27.37800 -13.28200 48.23100
H  29.04700 -11.92500 50.35300
H  28.73500 -13.54500 49.93200
H  27.45500 -12.64900 50.88200
H  30.35700 -8.06000 48.95300
H  30.99500 -6.52100 48.32900
H  31.07000 -8.08700 47.49900
H  29.00600 -4.57200 43.73400
H  26.11800 -1.38400 46.01100
H  27.47300 -0.64300 45.22500
H  27.58300 -0.91700 46.97800
Mg 7.47500 54.46100 40.20200
C  6.87700 51.03900 40.31800
C  10.85400 53.84600 39.46100
C  7.96900 57.72600 39.46600
C  4.17500 55.13300 40.68500
N  8.65000 52.67100 39.73000
C  8.15100 51.35800 39.89000
C  9.33000 50.40000 39.66100
C  10.60700 51.31900 39.82000
C  10.08000 52.70500 39.67400
C  11.48100 51.09200 41.06800
C  9.30500 49.56000 38.29000
C  9.28400 50.55900 37.01100
H  7.82700 50.71100 36.39400
N  9.20600 55.56500 39.40900
C  10.50900 55.17400 39.37800
C  11.34600 56.29500 39.09600
C  10.54400 57.47900 39.09300
C  9.14900 56.93500 39.28100
C  12.88100 56.27200 38.87000
C  11.04200 58.97700 38.89200
O  12.21900 59.19400 38.66600
C  10.15500 60.15700 39.11400
N  6.22600 56.15700 39.99300
C  6.64200 57.42800 39.82600
C  5.53400 58.48900 39.90500
C  4.36300 57.63300 40.40300
C  4.97300 56.24100 40.43000
C  5.81000 59.79800 40.71800
C  3.15500 57.63600 39.41000
C  1.75100 57.46500 40.09600
N  5.76700 53.34400 40.40800
C  4.49200 53.70900 40.65100
C  3.73300 52.55800 41.06700
C  4.65000 51.51700 40.93300
C  5.84900 52.02500 40.46700
C  2.25100 52.52200 41.42500
C  4.82600 50.02700 41.13000
O  4.07900 49.18800 41.66000
C  6.27300 49.70200 40.67500
C  6.03100 48.71000 39.50500
O  5.55400 48.98000 38.40700
O  6.12300 47.42000 39.99500
C  6.04300 46.32700 39.02800
H  11.93600 53.69500 39.44700
H  8.10600 58.80000 39.32000
H  3.18100 55.25200 41.12000
H  9.27400 49.69200 40.48800
H  11.21800 51.14200 38.93500
H  11.08700 50.52400 41.91100
H  11.57900 52.11900 41.41900
H  12.49600 50.71600 40.94100
H  8.61300 48.72100 38.37200
H  10.29000 49.10800 38.17100
H  10.05600 50.21300 36.32300
H  9.56200 51.57700 37.28300
H  13.05400 56.80500 37.93500
H  13.20000 55.24900 38.67300
H  13.50000 56.69700 39.66000
H  9.33800 60.31100 38.40800
H  10.75000 61.05900 38.96700
H  9.78500 60.23900 40.13600
H  5.32200 58.78600 38.87800
H  4.05700 57.88000 41.41900
H  5.53500 60.56000 39.98900
H  6.81600 59.90900 41.12300
H  5.12500 59.80700 41.56600
H  3.28400 56.92600 38.59400
H  3.10700 58.60000 38.90300
H  1.89800 57.23400 41.15100
H  1.18100 56.78600 39.46100
H  1.13800 58.36500 40.09400
H  2.00800 51.69900 42.09700
H  1.70500 52.43700 40.48600
H  1.96800 53.40700 41.99400
H  6.87300 49.23400 41.45600
H  6.44200 45.38100 39.39500
H  6.69800 46.53700 38.18300
H  5.00600 46.14400 38.74600

