158

Mg 1.87500 -1.17300 43.48700
C  5.32200 -0.51800 42.74600
C  1.09000 1.84000 41.79700
C  -1.36400 -1.88100 43.60800
C  2.74000 -4.22600 44.59200
N  3.09800 0.40600 42.37600
C  4.47200 0.54500 42.32700
C  4.84900 1.74500 41.44900
C  3.60000 2.64500 41.62200
C  2.44100 1.57400 41.88600
C  3.68400 3.64800 42.73000
C  5.22000 1.27700 39.94200
C  6.72100 1.60200 39.64900
H  7.41300 0.82900 38.53100
N  0.07800 -0.17100 42.86400
C  -0.03400 1.09300 42.21000
C  -1.40200 1.35900 41.93600
C  -2.15700 0.23400 42.28900
C  -1.17500 -0.69000 42.95300
C  -1.84700 2.62500 41.27900
C  -3.68300 0.14000 42.23700
O  -4.29200 0.90000 41.51200
C  -4.44700 -0.93400 42.92300
N  0.88000 -2.87600 43.70000
C  -0.47000 -2.89500 43.91000
C  -0.93200 -4.27100 44.37000
C  0.44300 -5.16300 44.37300
C  1.42900 -4.03600 44.21100
C  -1.77200 -4.28600 45.67000
C  0.68000 -6.25800 43.32500
C  0.67300 -7.66300 43.85200
N  3.64500 -2.18900 43.79200
C  3.83600 -3.45400 44.29700
C  5.22400 -3.67100 44.46200
C  5.77600 -2.53700 43.88900
C  4.83100 -1.68900 43.43300
C  5.91800 -4.83400 45.11300
C  7.12500 -1.90300 43.70100
O  8.23900 -2.28400 43.97200
C  6.85100 -0.63900 42.81600
C  7.61400 0.54500 43.30600
O  8.48900 1.11200 42.67300
O  7.19000 0.82400 44.60700
C  7.92500 2.01200 45.03700
H  0.82000 2.75200 41.26000
H  -2.41000 -2.18000 43.70100
H  3.04600 -5.22300 44.91600
H  5.72000 2.09600 42.00200
H  3.53700 3.23500 40.70700
H  3.56200 4.68400 42.41600
H  4.63500 3.64300 43.26200
H  2.91100 3.54300 43.49100
H  4.76500 1.86900 39.14800
H  5.01900 0.21500 39.80700
H  7.30300 1.52000 40.56700
H  6.63200 2.61000 39.24600
H  -2.28400 2.38200 40.31000
H  -1.10300 3.37200 41.00100
H  -2.68300 3.00900 41.86300
H  -5.53300 -0.85100 42.96500
H  -4.09200 -1.05200 43.94700
H  -4.27500 -1.75900 42.23200
H  -1.63100 -4.49400 43.56400
H  0.49500 -5.69000 45.32600
H  -2.45100 -3.43300 45.66600
H  -1.04200 -4.23900 46.47900
H  -2.34400 -5.20100 45.82100
H  1.69700 -6.10100 42.96800
H  -0.13500 -6.25300 42.60200
H  0.36300 -7.60900 44.89600
H  1.67800 -8.05000 43.68300
H  -0.08300 -8.30700 43.40300
H  5.32300 -5.45000 45.78700
H  6.84100 -4.61100 45.64700
H  6.26200 -5.50900 44.32900
H  7.25300 -0.91000 41.84000
H  8.92700 1.83700 45.42900
H  7.43900 2.33100 45.95900
H  7.96200 2.85800 44.35100
Mg 42.03300 40.57600 27.02900
C  41.15200 42.95800 29.55200
C  42.99600 38.43000 29.59400
C  43.23700 38.75500 24.82600
C  41.39100 43.23000 24.68500
N  42.06100 40.73400 29.28700
C  41.54100 41.70600 30.07100
C  41.50600 41.35300 31.53100
C  42.27700 39.96200 31.58800
C  42.52800 39.66400 30.03000
C  43.54600 39.85100 32.51800
C  40.11500 41.44300 32.16600
C  39.86000 40.58800 33.44100
H  39.09600 41.20600 34.60800
N  42.93700 38.82100 27.11600
C  43.18000 38.02300 28.25300
C  43.71100 36.73200 27.83500
C  43.78600 36.75000 26.45300
C  43.29000 38.16700 26.06100
C  44.10300 35.64800 28.81300
C  44.18100 35.65500 25.47900
O  44.18800 35.86200 24.26800
C  44.60700 34.32200 26.00900
N  42.21000 40.96000 25.00900
C  42.88500 40.02800 24.30700
C  43.08800 40.41500 22.78100
C  42.42700 41.85700 22.80000
C  41.97500 42.04500 24.22100
C  44.51300 40.33400 22.29000
C  41.23800 41.95100 21.80600
C  40.05500 41.01000 22.09800
N  41.40200 42.68800 27.05400
C  41.16100 43.57600 26.01400
C  40.54500 44.83500 26.48900
C  40.55200 44.59900 27.95500
C  41.06800 43.29100 28.19900
C  40.02400 45.94700 25.70500
C  40.18900 45.20600 29.18900
O  39.73600 46.27700 29.46500
C  40.49200 44.13000 30.28600
C  41.36000 44.82200 31.30800
O  42.55900 45.14800 31.28900
O  40.57800 45.14900 32.41000
C  41.06400 46.00400 33.49800
H  43.28100 37.70800 30.36200
H  43.74100 38.16900 24.05500
H  41.18100 43.99700 23.93600
H  42.08500 42.13000 32.02900
H  41.63000 39.11900 31.83000
H  43.36100 39.04600 33.22900
H  43.82600 40.80300 32.96800
H  44.38300 39.50700 31.91000
H  39.47100 41.07000 31.37000
H  39.94800 42.50000 32.37400
H  40.82400 40.29200 33.85500
H  39.40700 39.61900 33.23300
H  44.02700 35.71200 29.89800
H  45.12900 35.31900 28.64500
H  43.42100 34.82900 28.58600
H  44.05500 33.86200 26.82900
H  45.64000 34.55500 26.26800
H  44.82900 33.64600 25.18300
H  42.43700 39.76800 22.19300
H  43.13700 42.64700 22.55300
H  44.65300 40.12600 21.23000
H  44.92400 39.49100 22.84500
H  45.06400 41.20300 22.64900
H  41.62300 41.52400 20.88000
H  40.94800 43.00100 21.84200
H  40.03600 40.74400 23.15500
H  40.08400 40.22800 21.33900
H  39.22100 41.70600 22.01100
H  39.01500 46.09300 26.09100
H  39.87500 45.73300 24.64600
H  40.70300 46.79600 25.78200
H  39.53700 43.84300 30.72600
H  41.75500 46.76600 33.13600
H  41.51400 45.40000 34.28500
H  40.19100 46.48100 33.94400

