158

Mg -2.12500 17.14300 27.06900
C  -2.79400 14.94100 29.61700
C  -2.85100 19.73500 29.25500
C  -2.31500 19.18300 24.46600
C  -2.36300 14.34400 24.79900
N  -2.76500 17.27100 29.23100
C  -2.75600 16.22600 30.08900
C  -3.02900 16.74800 31.56300
C  -3.40600 18.25400 31.25200
C  -2.96300 18.44600 29.80000
C  -4.83500 18.74100 31.60300
C  -1.83000 16.45700 32.49400
C  -1.52600 17.45600 33.56700
H  -1.02300 16.99700 34.93100
N  -2.24700 19.19900 26.93300
C  -2.55500 20.06900 27.95500
C  -2.43700 21.41100 27.43200
C  -2.23800 21.29100 25.98200
C  -2.25400 19.81900 25.71700
C  -2.61200 22.82400 28.25200
C  -2.06800 22.35700 24.91100
O  -1.90800 22.06300 23.73100
C  -2.00100 23.73100 25.30700
N  -2.39000 16.79200 24.91000
C  -2.27500 17.85700 24.08100
C  -2.24400 17.37000 22.61700
C  -1.96100 15.88100 22.74400
C  -2.30300 15.61400 24.21700
C  -3.57900 17.69100 21.86600
C  -0.51500 15.41200 22.42600
C  0.62400 16.01600 23.25900
N  -2.37200 15.01400 27.10000
C  -2.52900 14.04600 26.15000
C  -2.88200 12.81600 26.75700
C  -2.94400 13.08700 28.09700
C  -2.73000 14.47900 28.24800
C  -3.21000 11.49300 26.09300
C  -3.15600 12.51700 29.43100
O  -3.28900 11.33200 29.74900
C  -3.19100 13.76300 30.46200
C  -2.28000 13.33300 31.60400
O  -1.04000 13.19900 31.47400
O  -3.04700 13.02300 32.76700
C  -2.30900 12.43500 33.87600
H  -2.93200 20.56600 29.95900
H  -2.31800 19.91000 23.65000
H  -2.41900 13.58200 24.01900
H  -3.84800 16.17600 32.00100
H  -2.77500 18.95000 31.80600
H  -5.57500 17.98900 31.87700
H  -5.09900 19.30600 30.70900
H  -4.76700 19.53700 32.34600
H  -0.93800 16.38000 31.87200
H  -2.15400 15.50200 32.90600
H  -2.44100 17.97100 33.85800
H  -0.80200 18.18800 33.20700
H  -1.97800 23.62200 27.86600
H  -2.49800 22.63400 29.31900
H  -3.59000 23.16300 27.90900
H  -2.90700 24.02500 25.83600
H  -2.07100 24.21900 24.33400
H  -1.13500 24.01600 25.90400
H  -1.43500 17.87800 22.09100
H  -2.51800 15.23100 22.06900
H  -4.18600 18.35300 22.48300
H  -4.27300 16.85800 21.74700
H  -3.37400 18.23000 20.94100
H  -0.35400 15.66300 21.37700
H  -0.57300 14.32400 22.46400
H  0.22900 16.56200 24.11500
H  1.20000 16.74000 22.68300
H  1.30100 15.22300 23.57500
H  -3.21900 11.66300 25.01600
H  -4.23400 11.31000 26.41600
H  -2.46300 10.84400 26.55000
H  -4.23400 13.80400 30.77500
H  -2.20800 13.32500 34.49600
H  -1.39800 11.88900 33.63200
H  -2.94900 11.68000 34.33200
Mg 43.96400 5.11900 47.06700
C  42.04100 8.08200 46.78200
C  41.02200 3.38700 46.56100
C  45.88700 2.39100 46.56100
C  46.90100 7.06700 46.74800
N  41.77200 5.65800 46.77400
C  41.25200 6.90700 46.63500
C  39.75000 6.81500 46.42200
C  39.43100 5.36100 46.83900
C  40.81000 4.74300 46.72100
C  38.79000 5.09700 48.23900
C  39.42700 7.09300 44.93200
C  38.75900 8.42200 44.58300
H  39.29600 9.30100 43.41400
N  43.49100 3.17300 46.77200
C  42.27900 2.63000 46.61700
C  42.38600 1.18400 46.40700
C  43.73300 0.88100 46.68300
C  44.51000 2.19300 46.58800
C  41.28000 0.29900 46.16100
C  44.30100 -0.53100 47.11800
O  43.61600 -1.53800 47.13500
C  45.70800 -0.58000 47.36900
N  46.11500 4.81400 46.52900
C  46.63300 3.52700 46.49800
C  48.21400 3.58000 46.44500
C  48.50000 5.11700 46.45400
C  47.06600 5.67800 46.55800
C  48.92300 2.89500 47.60700
C  49.36200 5.57700 45.24900
C  50.61300 6.33800 45.50400
N  44.49000 7.19400 46.84700
C  45.71400 7.83800 46.86900
C  45.46700 9.28100 46.92300
C  44.02100 9.44800 46.99400
C  43.49800 8.13000 46.90800
C  46.52200 10.37900 46.77300
C  42.91100 10.38200 47.03500
O  42.83500 11.59400 47.14800
C  41.63600 9.54100 46.76200
C  40.71800 9.84200 47.90900
O  40.79400 9.51700 49.12100
O  39.94100 10.78500 47.49800
C  39.09300 11.38300 48.51900
H  40.19000 2.71000 46.35300
H  46.48300 1.48400 46.43900
H  47.88700 7.53600 46.76900
H  39.17200 7.48000 47.06400
H  38.79200 4.85000 46.12000
H  39.36500 4.52900 48.97000
H  37.83700 4.61500 48.02300
H  38.74800 6.10200 48.66000
H  38.84100 6.29300 44.48000
H  40.37800 7.14200 44.40200
H  38.71000 9.05700 45.46800
H  37.74700 8.06600 44.39200
H  40.56900 0.48200 46.96700
H  41.54300 -0.75700 46.09200
H  40.75300 0.63300 45.26700
H  46.26600 -0.65800 46.43600
H  45.98000 -1.46500 47.94400
H  45.99500 0.27700 47.97800
H  48.43000 3.17100 45.45800
H  48.92000 5.44600 47.40400
H  49.31100 1.90300 47.37800
H  48.34600 2.84800 48.53100
H  49.81400 3.47200 47.85500
H  48.74100 6.28100 44.69500
H  49.67800 4.70700 44.67300
H  51.41500 6.08700 44.81100
H  50.89400 6.20700 46.54900
H  50.40600 7.39400 45.32900
H  46.17600 11.28800 46.28000
H  47.33900 9.90200 46.23200
H  46.95200 10.48000 47.76900
H  41.28700 9.96700 45.82200
H  38.83800 12.41500 48.27700
H  39.71200 11.46900 49.41200
H  38.21400 10.76200 48.68900

