158

Mg -0.82800 18.29200 26.96500
C  -1.56800 15.85100 29.54900
C  -1.71000 20.80600 29.13900
C  -0.55500 20.37600 24.43700
C  -0.51900 15.52500 24.76400
N  -1.56900 18.25700 29.00100
C  -1.69900 17.16800 29.90800
C  -1.92100 17.69400 31.37100
C  -2.28400 19.23300 31.13200
C  -1.89800 19.48600 29.62400
C  -3.79400 19.59900 31.40700
C  -0.59900 17.65100 32.17200
C  -0.92800 17.28100 33.61500
H  0.17700 17.09500 34.68900
N  -0.97600 20.33800 26.83800
C  -1.22700 21.20400 27.83800
C  -1.20100 22.54900 27.32600
C  -0.78600 22.50000 25.96400
C  -0.77700 21.02100 25.69000
C  -1.61100 23.70400 28.17500
C  -0.40200 23.59100 24.99600
O  -0.15400 23.33200 23.82100
C  -0.17000 25.01000 25.59400
N  -0.72400 17.97300 24.96900
C  -0.53000 19.04300 24.11700
C  -0.39900 18.64800 22.67300
C  -0.29500 17.14300 22.74900
C  -0.45900 16.86800 24.22500
C  -1.53300 19.16200 21.81100
C  1.06600 16.66200 22.22600
C  2.31900 17.25500 22.93200
N  -1.05700 16.15800 27.05100
C  -0.89400 15.19400 26.09600
C  -1.24400 13.94000 26.62400
C  -1.45900 14.15100 28.01700
C  -1.35700 15.47600 28.22200
C  -1.36500 12.69800 25.86200
C  -1.79800 13.49200 29.30700
O  -1.96400 12.32300 29.62900
C  -1.72400 14.56300 30.30700
C  -0.57200 14.27700 31.17900
O  0.49100 14.84600 31.00600
O  -0.90300 13.49100 32.22800
C  0.08500 13.13500 33.23900
H  -2.04800 21.57800 29.83200
H  -0.30700 21.01500 23.58700
H  -0.44700 14.70500 24.04700
H  -2.70800 17.12400 31.86500
H  -1.73200 19.86600 31.82800
H  -4.01200 20.31800 32.19600
H  -4.23700 18.65600 31.72800
H  -4.20500 19.98200 30.47300
H  -0.07300 18.58800 32.35700
H  0.20000 17.02400 31.77700
H  -1.21400 16.25700 33.37800
H  -1.79100 17.86500 33.93400
H  -0.74300 24.15900 28.65300
H  -2.28600 23.42600 28.98500
H  -2.06100 24.46600 27.54000
H  0.19800 25.48500 24.68500
H  0.67800 24.87700 26.26500
H  -1.01100 25.51900 26.06500
H  0.48400 19.13600 22.25900
H  -1.05000 16.55400 22.22800
H  -2.07100 18.31900 21.37800
H  -1.10900 19.67900 20.95000
H  -2.30000 19.76800 22.29400
H  1.15900 17.03400 21.20600
H  1.12000 15.58000 22.10600
H  2.91600 17.68900 22.13000
H  2.73800 16.34200 23.35400
H  2.05700 17.92100 23.75400
H  -1.47700 12.89200 24.79600
H  -2.33800 12.24200 26.04800
H  -0.57300 12.02900 26.19700
H  -2.65800 14.60400 30.86600
H  1.03900 13.62200 33.03800
H  0.10100 12.05000 33.34000
H  -0.30800 13.46600 34.20000
Mg 17.30800 -1.21600 28.29200
C  16.22700 0.90900 30.91300
C  19.15400 -2.94300 30.42400
C  18.66900 -2.71400 25.52400
C  15.73800 1.10100 26.04800
N  17.57200 -1.01400 30.46500
C  16.99500 -0.18300 31.33100
C  17.52100 -0.49700 32.71200
C  18.59800 -1.57600 32.48100
C  18.41600 -1.94300 31.00400
C  19.99100 -1.28200 32.99500
C  16.33800 -0.79400 33.67600
C  16.47900 -0.29000 35.13000
H  17.80700 0.20000 35.61800
N  18.62600 -2.68300 28.06100
C  19.33200 -3.27700 29.02300
C  20.14100 -4.38500 28.52800
C  19.88800 -4.47800 27.13100
C  19.00900 -3.21500 26.82500
C  21.02200 -5.28400 29.40500
C  20.24200 -5.52500 26.19900
O  19.87700 -5.55300 25.03700
C  21.13100 -6.73400 26.59000
N  17.25300 -0.78900 26.05600
C  17.88500 -1.61400 25.12300
C  17.38200 -1.42500 23.71100
C  16.37100 -0.19200 23.97800
C  16.37800 0.04500 25.45200
C  18.52900 -1.21800 22.67800
C  15.04600 -0.46500 23.38200
C  14.00000 -1.17100 24.21100
N  16.10700 0.57900 28.39900
C  15.58500 1.45400 27.43700
C  14.88400 2.56400 27.98400
C  15.08500 2.33500 29.42200
C  15.78900 1.19900 29.60300
C  14.16900 3.64000 27.18200
C  14.72300 2.89100 30.68500
O  14.06900 3.87400 31.01300
C  15.49000 1.97200 31.73200
C  16.36100 2.96100 32.51600
O  17.28500 3.58000 32.00900
O  15.86900 3.15800 33.82400
C  16.48300 4.07000 34.75600
H  19.76500 -3.46900 31.16100
H  19.08100 -3.32500 24.71800
H  15.19000 1.73300 25.34600
H  18.14300 0.33600 33.04100
H  18.31200 -2.45600 33.05800
H  20.21900 -1.89100 33.86900
H  20.12300 -0.23900 33.28300
H  20.71100 -1.52500 32.21400
H  16.41600 -1.87400 33.79900
H  15.39900 -0.47300 33.22400
H  16.17100 -1.17800 35.68100
H  15.78300 0.52300 35.33600
H  20.63700 -6.29200 29.25600
H  20.95100 -5.06600 30.47100
H  22.06400 -5.19300 29.09900
H  20.52800 -7.43100 27.17200
H  21.97200 -6.44600 27.22000
H  21.55800 -7.27000 25.74200
H  16.81900 -2.33200 23.49200
H  16.83300 0.68800 23.53100
H  19.44900 -1.68600 23.02800
H  18.57900 -0.14300 22.50700
H  18.22200 -1.77700 21.79400
H  15.19900 -1.25300 22.64400
H  14.68100 0.39000 22.81400
H  14.08800 -0.87100 25.25500
H  14.12900 -2.23900 24.38600
H  12.98800 -0.92900 23.88600
H  14.01500 3.31900 26.15200
H  14.76600 4.54900 27.11200
H  13.19700 3.94100 27.57200
H  14.75600 1.46100 32.35500
H  16.44400 5.10000 34.40300
H  17.52600 3.77300 34.86500
H  15.91500 4.05500 35.68600

