158

Mg 16.85700 52.71500 26.83400
C  18.74300 51.31900 29.14100
C  14.51900 53.79200 29.25500
C  15.08000 54.28400 24.40200
C  18.94400 51.45600 24.33900
N  16.60600 52.55200 29.00200
C  17.55000 51.97700 29.70600
C  17.29600 52.20700 31.24500
C  15.80200 52.59300 31.17700
C  15.60100 53.07300 29.72000
C  14.90900 51.36000 31.52400
C  18.23800 53.27700 31.87800
C  18.60200 52.93100 33.31600
H  17.63900 52.11900 34.14800
N  15.04500 53.80800 26.88400
C  14.28000 54.23900 27.95400
C  13.07300 54.94800 27.42500
C  13.26400 55.14300 26.01300
C  14.51900 54.35600 25.73100
C  12.04000 55.44900 28.31300
C  12.35600 55.86400 24.98500
O  12.51800 55.83400 23.74200
C  11.15400 56.67800 25.47600
N  16.95100 52.74600 24.61300
C  16.18600 53.54500 23.90300
C  16.61300 53.48100 22.42000
C  17.68400 52.48300 22.35400
C  17.86900 52.15600 23.88300
C  15.43300 53.31300 21.37300
C  18.94000 53.02500 21.56300
C  19.91100 53.98500 22.28000
N  18.53500 51.52900 26.68700
C  19.31100 51.14300 25.70300
C  20.45600 50.43300 26.17600
C  20.24900 50.43500 27.55300
C  19.09600 51.09300 27.81400
C  21.49600 49.82600 25.34100
C  20.77800 49.97300 28.78500
O  21.61500 49.07600 29.00600
C  19.85500 50.67000 29.91100
C  19.46800 49.58700 30.81600
O  18.48800 48.81400 30.68700
O  20.24700 49.59400 31.90300
C  20.10400 48.59400 32.92300
H  13.80400 53.91700 30.07000
H  14.68200 54.89500 23.58900
H  19.69000 51.18500 23.58900
H  17.40700 51.26400 31.78000
H  15.44300 53.50100 31.66200
H  15.56000 50.49300 31.63700
H  14.10700 51.20500 30.80200
H  14.38000 51.52400 32.46300
H  17.85100 54.29500 31.83400
H  19.12200 53.26900 31.24100
H  18.60600 53.89400 33.82600
H  19.60700 52.50900 33.28800
H  11.13800 55.07900 27.82500
H  11.99200 56.53700 28.30300
H  11.97900 55.06300 29.33000
H  10.38800 55.94000 25.71500
H  10.60900 57.11800 24.64100
H  11.38400 57.42100 26.24000
H  16.99800 54.49500 22.30900
H  17.37700 51.56400 21.85500
H  15.53700 52.49200 20.66300
H  15.22100 54.22400 20.81500
H  14.53600 53.11400 21.95900
H  18.45900 53.66300 20.82200
H  19.47700 52.20400 21.08800
H  20.86700 53.46700 22.35600
H  19.49600 54.05900 23.28500
H  20.07300 54.93000 21.76200
H  22.29000 49.52100 26.02200
H  21.75500 50.34500 24.41800
H  21.12200 48.87900 24.95100
H  20.49700 51.36100 30.45700
H  19.81000 47.64900 32.46600
H  19.32300 48.84700 33.64000
H  21.10300 48.61200 33.35800
Mg 0.77300 43.49600 26.14700
C  2.93100 42.98500 28.86000
C  -1.78900 42.46800 28.09100
C  -1.27300 43.49200 23.40600
C  3.63500 43.88900 24.10300
N  0.61700 42.94800 28.25700
C  1.62600 42.83800 29.24100
C  1.02400 42.71100 30.60200
C  -0.47400 42.29800 30.26500
C  -0.57700 42.58100 28.74200
C  -0.76100 40.76500 30.42300
C  1.12400 44.00600 31.44200
C  1.63000 43.87700 32.88200
H  1.01000 42.86400 33.82600
N  -1.28500 43.12800 25.77500
C  -2.18400 42.76200 26.80700
C  -3.49400 42.78700 26.30000
C  -3.36400 43.15600 24.89200
C  -1.95300 43.26200 24.60900
C  -4.78900 42.49000 27.16900
C  -4.48100 43.35800 23.82100
O  -4.22600 43.55700 22.65900
C  -5.92500 43.48100 24.24500
N  1.16000 43.62300 24.08200
C  0.12600 43.71600 23.18700
C  0.69300 43.81500 21.72900
C  2.16900 44.28100 21.96900
C  2.34900 43.90300 23.48300
C  0.59400 42.43700 20.99200
C  2.51800 45.70700 21.67300
C  1.55900 46.79600 22.12600
N  2.87400 43.55700 26.42300
C  3.92100 43.76500 25.52300
C  5.12600 43.68500 26.18100
C  4.82600 43.40400 27.50600
C  3.42400 43.31600 27.60600
C  6.51300 43.78900 25.58800
C  5.43900 43.16400 28.78000
O  6.62300 43.10900 29.10800
C  4.20000 43.04100 29.73000
C  4.29500 41.77100 30.58500
O  4.06200 40.67000 30.10300
O  4.59000 42.09900 31.85800
C  4.52100 41.07200 32.83800
H  -2.60600 42.17600 28.75300
H  -1.80700 43.79400 22.50200
H  4.43900 44.05300 23.38300
H  1.47100 41.90500 31.18300
H  -1.19200 42.90100 30.82000
H  -1.09900 40.28000 29.50700
H  -1.37700 40.45900 31.26800
H  0.17300 40.28400 30.71500
H  0.20500 44.58800 31.37700
H  1.77000 44.74700 30.97300
H  1.65800 44.85100 33.36900
H  2.69900 43.67900 32.81100
H  -5.76300 42.77200 26.76700
H  -4.69800 42.72700 28.22900
H  -4.72700 41.40300 27.22600
H  -6.23000 42.44400 24.38900
H  -6.44800 43.85200 23.36400
H  -6.01300 44.18700 25.07100
H  0.15800 44.63400 21.24700
H  2.83900 43.61100 21.43100
H  0.45100 41.63900 21.72000
H  1.45300 42.28000 20.34000
H  -0.28000 42.38700 20.34200
H  2.54000 45.82600 20.59000
H  3.46800 45.99500 22.12200
H  1.20400 47.30200 21.22700
H  1.99100 47.54100 22.79400
H  0.69200 46.35700 22.61900
H  7.01300 44.72400 25.84100
H  6.38500 43.71700 24.50800
H  7.11600 42.94400 25.92000
H  4.30200 43.93000 30.35300
H  3.92800 41.50900 33.64100
H  5.52900 40.89200 33.21300
H  4.07300 40.14900 32.46900

