158

Mg 47.35000 24.83600 29.46100
C  48.09400 27.24200 31.94900
C  46.22300 22.79100 32.05100
C  46.81200 22.56500 27.21800
C  48.90700 26.90900 27.05900
N  47.14500 24.98800 31.69900
C  47.52800 26.07600 32.45200
C  47.18000 25.81900 33.91600
C  47.00200 24.25400 33.95500
C  46.72900 24.01600 32.50800
C  48.19200 23.54800 34.61200
C  46.02200 26.70400 34.46500
C  46.39000 27.58800 35.72200
H  46.52100 26.84900 37.06400
N  46.57600 22.96500 29.65100
C  46.18600 22.28300 30.74100
C  45.68400 20.96000 30.36900
C  45.80300 20.92000 28.92400
C  46.39800 22.19400 28.51600
C  45.01800 19.98800 31.34400
C  45.41200 19.81000 28.02200
O  45.49700 19.89500 26.84700
C  45.13500 18.37700 28.57600
N  47.74300 24.78500 27.42500
C  47.45600 23.70100 26.65200
C  47.72300 23.89700 25.16700
C  48.33100 25.31800 25.12100
C  48.35300 25.71600 26.61200
C  48.66900 22.77300 24.69300
C  47.57500 26.46900 24.25300
C  48.54500 27.06400 23.24100
N  48.28800 26.71900 29.46400
C  48.90600 27.41100 28.41800
C  49.35800 28.71500 28.90500
C  49.10800 28.63200 30.30700
C  48.40400 27.44200 30.58500
C  50.02300 29.79600 28.17200
C  49.22000 29.43200 31.58400
O  49.69400 30.53600 31.74000
C  48.55900 28.51700 32.65500
C  49.73300 28.13600 33.63000
O  50.71000 27.42500 33.41600
O  49.52400 28.65500 34.92000
C  50.62700 28.36300 35.86300
H  46.08300 22.19900 32.95900
H  46.47400 21.93500 26.39300
H  49.28800 27.66400 26.36800
H  48.10200 25.93300 34.48600
H  46.08700 23.99000 34.48400
H  47.91300 22.76100 35.31300
H  48.93100 24.23500 35.02300
H  48.66300 22.86700 33.90300
H  45.20800 26.02200 34.71300
H  45.44800 27.27700 33.73700
H  45.70300 28.42900 35.82100
H  47.37800 28.03800 35.63100
H  45.60400 19.07600 31.45500
H  44.03100 19.60700 31.08300
H  44.95000 20.34200 32.37200
H  45.84200 18.01900 29.32400
H  45.15200 17.65700 27.75800
H  44.16400 18.49100 29.05900
H  46.80700 23.91600 24.57600
H  49.33000 25.22800 24.69500
H  49.07400 23.18200 23.76700
H  48.13200 21.86300 24.42400
H  49.40000 22.63500 25.49000
H  47.19700 27.28500 24.86800
H  46.64800 26.16100 23.77100
H  48.71000 28.13800 23.32400
H  48.07100 26.99400 22.26200
H  49.56700 26.68900 23.17400
H  49.97500 29.63900 27.09500
H  51.08700 29.88300 28.39500
H  49.43600 30.66800 28.46300
H  47.66900 28.82200 33.20400
H  50.04900 27.76200 36.56500
H  50.97400 29.29800 36.30400
H  51.41400 27.70700 35.49000
Mg 9.98100 47.36900 26.02800
C  8.02700 47.33500 28.92900
C  12.63300 48.77900 27.97200
C  11.92200 47.56600 23.29000
C  7.09600 46.86600 24.14100
N  10.18000 48.01200 28.12000
C  9.35000 47.71700 29.11600
C  9.84000 48.35100 30.37200
C  11.12700 49.12100 30.02900
C  11.34200 48.55300 28.62300
C  11.02100 50.67300 30.08100
C  10.10500 47.31400 31.56300
C  9.74500 47.69100 33.01300
H  9.87900 46.60000 34.07000
N  12.02800 47.96400 25.67700
C  12.92600 48.47800 26.64100
C  14.29000 48.43400 25.97200
C  14.09500 48.09800 24.57400
C  12.61000 47.90100 24.45300
C  15.59500 48.78100 26.76500
C  15.24300 47.75900 23.52600
O  14.98600 47.45300 22.34300
C  16.68800 47.82500 23.94200
N  9.51900 47.28800 24.01300
C  10.55500 47.24700 23.09400
C  10.01900 47.07900 21.65300
C  8.50100 46.67700 21.92400
C  8.34300 46.99500 23.46200
C  10.35600 48.31000 20.78000
C  8.21800 45.21800 21.57500
C  8.47900 44.13800 22.68600
N  7.90100 47.03600 26.43500
C  6.86500 46.87100 25.57000
C  5.65600 46.77900 26.36800
C  6.04800 46.87700 27.69100
C  7.46800 47.06400 27.69900
C  4.25300 46.64900 25.80700
C  5.59100 46.88600 29.08600
O  4.43800 46.65300 29.55800
C  6.90900 47.27500 29.91200
C  7.15800 46.13300 30.82400
O  7.72500 45.13300 30.48300
O  6.58700 46.42400 32.05600
C  6.50200 45.24200 32.89200
H  13.44200 49.13800 28.61200
H  12.47700 47.50800 22.35200
H  6.20000 46.74500 23.52900
H  9.06200 49.04000 30.70000
H  12.00400 48.82600 30.60600
H  11.41400 51.06100 29.14200
H  11.52500 51.12600 30.93500
H  10.02000 51.09000 30.18700
H  11.19100 47.23100 31.59700
H  9.75800 46.30200 31.35600
H  8.70100 48.00400 33.05100
H  10.41200 48.52800 33.21600
H  15.40200 48.94000 27.82600
H  15.86200 49.74500 26.33200
H  16.32700 47.97900 26.67200
H  16.72000 46.89300 24.50600
H  16.84300 48.71600 24.54900
H  17.50200 47.91800 23.22400
H  10.50900 46.21500 21.20400
H  7.74400 47.28500 21.42900
H  10.76300 49.12900 21.37300
H  9.49800 48.83400 20.35800
H  11.11600 48.05700 20.04100
H  8.75800 44.91000 20.68000
H  7.14400 45.08800 21.44000
H  8.93800 44.32700 23.65600
H  9.23300 43.49300 22.23500
H  7.55700 43.57200 22.81900
H  4.04300 45.59600 25.62100
H  4.27100 47.15100 24.84000
H  3.57000 47.17700 26.47400
H  6.82200 48.21300 30.46000
H  6.26900 44.36100 32.29500
H  5.62500 45.35500 33.53100
H  7.36500 45.28300 33.55600

