158

Mg 26.50400 1.04600 29.70300
C  28.44600 0.84700 32.44800
C  23.73900 1.77000 31.79600
C  24.42800 0.93500 27.09600
C  29.06800 -0.02600 27.73300
N  26.18700 1.41800 31.89000
C  27.14200 1.24700 32.83600
C  26.62600 1.56700 34.25100
C  25.11200 1.64500 34.01500
C  24.95100 1.55600 32.46000
C  24.26800 0.61800 34.83300
C  27.30300 2.90800 34.73400
C  28.08800 2.98900 36.08800
H  27.44100 3.85300 37.12800
N  24.43600 1.33400 29.45300
C  23.54300 1.80400 30.40800
C  22.21700 1.88100 29.74500
C  22.41900 1.65700 28.38900
C  23.84400 1.28800 28.25900
C  20.96200 2.12600 30.50200
C  21.41200 1.75700 27.29100
O  21.63100 1.73600 26.06700
C  19.89700 1.89600 27.61600
N  26.69800 0.50600 27.70900
C  25.74000 0.56100 26.81200
C  26.18600 0.16700 25.38700
C  27.69300 0.02500 25.57200
C  27.82100 0.15700 27.10400
C  25.40100 -1.04900 24.85800
C  28.44200 1.07200 24.92400
C  28.71300 2.45700 25.63500
N  28.43100 0.68900 29.96600
C  29.43900 0.23500 29.06500
C  30.68900 0.06700 29.73700
C  30.35200 0.18300 31.14100
C  28.97800 0.63100 31.16800
C  32.00200 -0.36600 29.06800
C  30.79300 0.06300 32.50300
O  31.90800 -0.15200 32.87300
C  29.56700 0.51200 33.39400
C  29.33900 -0.56800 34.39600
O  28.56400 -1.46700 34.31000
O  30.19400 -0.39200 35.44900
C  30.03800 -1.19400 36.73400
H  22.97000 2.12000 32.48700
H  23.95600 1.00400 26.11400
H  29.95200 -0.29600 27.15200
H  26.91200 0.66200 34.78600
H  24.75200 2.62600 34.32400
H  23.49100 1.20300 35.32500
H  24.79900 0.01100 35.56700
H  23.70300 -0.00500 34.14000
H  26.61800 3.74900 34.62000
H  28.05100 3.21900 34.00400
H  29.09800 3.32200 35.85100
H  27.97600 1.97300 36.46800
H  20.40900 3.01200 30.19100
H  21.18300 2.19000 31.56700
H  20.42000 1.19800 30.32300
H  19.32200 1.81100 26.69400
H  19.85300 2.86900 28.10500
H  19.63700 1.23500 28.44300
H  25.85900 1.05900 24.85300
H  28.07600 -0.94300 25.24900
H  26.08600 -1.74900 24.38000
H  24.65400 -0.80200 24.10300
H  25.08400 -1.58300 25.75400
H  28.16000 1.21100 23.88000
H  29.46300 0.71900 24.77900
H  28.17700 2.61200 26.57100
H  28.43600 3.26000 24.95200
H  29.78200 2.57400 25.81400
H  32.04200 0.03400 28.05500
H  32.03500 -1.45500 29.02800
H  32.85000 0.05400 29.60900
H  29.84300 1.40200 33.95900
H  30.42600 -2.20500 36.61500
H  29.00400 -1.11200 37.06900
H  30.68400 -0.82800 37.53200
Mg 41.80000 8.86200 29.64500
C  43.62300 10.02800 32.39200
C  39.52800 7.40000 31.76500
C  40.08700 7.82200 27.03700
C  44.19700 10.26900 27.55700
N  41.60500 8.66300 31.84600
C  42.43000 9.31500 32.76600
C  41.94500 8.93800 34.21000
C  40.81300 7.95000 33.94600
C  40.64000 7.94400 32.40400
C  41.13100 6.45200 34.45400
C  41.51300 10.32600 34.93100
C  40.91400 10.11900 36.36000
H  41.15300 11.32900 37.31000
N  40.05100 7.68400 29.37100
C  39.23700 7.25200 30.38000
C  38.12300 6.54800 29.80500
C  38.19900 6.76400 28.37200
C  39.49500 7.39600 28.21900
C  37.07000 5.80100 30.56600
C  37.16000 6.31700 27.30200
O  37.44800 6.39600 26.11600
C  35.71700 5.70200 27.65400
N  42.12700 9.05900 27.51800
C  41.22300 8.54100 26.64200
C  41.78600 8.67100 25.18100
C  42.90900 9.71600 25.37700
C  43.08100 9.82400 26.92200
C  42.33500 7.37100 24.63300
C  42.61100 11.10400 24.69000
C  41.33200 11.77600 25.03400
N  43.58700 9.92100 29.87200
C  44.48100 10.45200 28.89600
C  45.56200 11.20800 29.56000
C  45.26700 10.93700 30.93400
C  44.11200 10.17200 31.10200
C  46.72900 11.96600 29.00300
C  45.79300 11.19700 32.30700
O  46.84400 11.74100 32.73600
C  44.62800 10.68100 33.28200
C  45.27300 9.66500 34.15800
O  45.97400 8.70700 33.81700
O  44.79700 9.84100 35.50100
C  45.20000 8.87600 36.50700
H  38.89400 6.98700 32.55300
H  39.51900 7.47000 26.17300
H  44.97500 10.64800 26.89100
H  42.70600 8.50800 34.86000
H  39.87900 8.11600 34.48300
H  41.17700 5.75800 33.61400
H  40.41300 6.04900 35.16900
H  42.06000 6.40100 35.02200
H  40.80900 10.91200 34.34100
H  42.32400 11.03000 35.11900
H  41.14200 9.18600 36.87500
H  39.83500 10.09200 36.20800
H  37.33900 5.85000 31.62100
H  37.02200 4.78400 30.17800
H  36.07100 6.19100 30.37300
H  35.78600 4.85200 28.33300
H  35.28100 5.43100 26.69200
H  35.24700 6.60000 28.05500
H  41.01600 9.14200 24.57100
H  43.83600 9.37700 24.91600
H  42.12200 6.57300 25.34400
H  43.37000 7.34400 24.29200
H  41.78100 7.13400 23.72400
H  42.64600 10.90300 23.61900
H  43.48000 11.71600 24.92900
H  41.48800 12.79700 25.38200
H  40.94200 11.24900 25.90500
H  40.57400 11.73700 24.25200
H  47.64300 11.38400 29.12000
H  46.78400 12.91800 29.53100
H  46.37600 12.23000 28.00600
H  44.21600 11.50500 33.86400
H  46.05800 8.24100 36.28500
H  44.35000 8.20300 36.62600
H  45.38400 9.60000 37.30000

