158

Mg 36.14200 48.72000 25.87800
C  36.36200 47.05200 28.89600
C  35.24600 51.52000 27.65700
C  36.09900 50.35900 23.02200
C  36.86000 45.68100 24.17700
N  35.64300 49.13300 28.05400
C  35.93100 48.36400 29.14200
C  35.68000 49.04800 30.48600
C  34.94300 50.36300 29.97400
C  35.24400 50.33600 28.46300
C  33.45400 50.60200 30.37100
C  37.02300 49.26100 31.33200
C  36.84900 48.94200 32.76600
H  35.49600 49.11000 33.41500
N  35.74000 50.68000 25.40000
C  35.46600 51.69200 26.29800
C  35.45500 52.94200 25.58900
C  35.77300 52.64400 24.20100
C  35.80900 51.17600 24.12400
C  35.08400 54.27000 26.22000
C  35.98700 53.61300 23.00100
O  36.43300 53.22100 21.90600
C  35.79600 55.06500 23.05100
N  36.16300 48.01800 23.81800
C  36.28600 48.99700 22.82300
C  36.41500 48.23500 21.51400
C  37.01600 46.83400 21.97300
C  36.65700 46.78000 23.39500
C  35.16800 48.20600 20.64500
C  38.56800 46.61700 21.71500
C  38.94900 45.49800 20.89800
N  36.51700 46.74500 26.33000
C  36.89600 45.69000 25.55700
C  37.18600 44.57900 26.37600
C  36.91200 45.00800 27.71900
C  36.56600 46.38900 27.60100
C  37.65200 43.25700 25.85000
C  36.94300 44.69400 29.13500
O  37.17100 43.62100 29.68300
C  36.55100 46.03500 29.92600
C  35.34400 45.77800 30.75800
O  34.15100 45.71700 30.27900
O  35.58700 45.68100 32.05100
C  34.47300 45.14900 32.87200
H  34.89200 52.34600 28.27700
H  36.11800 50.87700 22.06100
H  37.00400 44.70000 23.72100
H  34.90800 48.49600 31.02200
H  35.35900 51.24900 30.45300
H  33.41400 51.52600 30.94900
H  33.15700 49.84800 31.09900
H  32.91100 50.65800 29.42700
H  37.34800 50.30200 31.32300
H  37.69400 48.49400 30.94600
H  37.46400 49.56200 33.41900
H  37.17200 47.90700 32.88200
H  34.89300 54.24500 27.29200
H  34.20700 54.70700 25.74200
H  35.90400 54.97500 26.08100
H  36.34400 55.49100 22.21000
H  36.37600 55.39600 23.91200
H  34.77900 55.45200 22.98400
H  37.15100 48.86200 21.01000
H  36.55800 46.02300 21.40600
H  35.17800 47.40800 19.90200
H  35.16400 49.09500 20.01400
H  34.34500 48.15200 21.35700
H  39.01900 46.40300 22.68400
H  38.98900 47.55900 21.36200
H  39.36700 46.01100 20.03200
H  38.07500 44.91500 20.60500
H  39.67800 44.88500 21.42800
H  38.67100 43.51300 25.55900
H  37.08800 43.01300 24.95000
H  37.53100 42.50700 26.63200
H  37.38000 46.28900 30.58700
H  34.17200 44.24300 32.34700
H  33.79300 46.00100 32.85800
H  34.77700 44.84100 33.87300
Mg -10.45800 16.80800 41.44600
C  -7.00200 16.88000 41.56000
C  -10.49300 20.25800 40.85400
C  -13.87300 16.74300 40.86500
C  -10.38000 13.35100 41.57300
N  -8.87400 18.32900 41.00500
C  -7.50700 18.20200 41.15700
C  -6.81500 19.56900 40.94700
C  -7.97000 20.51700 41.35500
C  -9.22300 19.67300 41.02100
C  -8.05800 20.95100 42.85200
C  -6.18200 19.95000 39.58000
C  -4.80900 19.31700 39.25000
H  -4.71500 18.29200 38.15800
N  -11.99500 18.29900 40.84300
C  -11.76900 19.61800 40.79100
C  -13.02100 20.27600 40.51100
C  -14.01200 19.34000 40.72700
C  -13.33900 18.05900 40.80400
C  -13.08700 21.75700 40.14000
C  -15.41600 19.51900 40.72400
O  -15.84200 20.63900 40.70300
C  -16.45500 18.45700 40.91500
N  -11.83600 15.28200 41.09200
C  -13.15700 15.51000 40.91900
C  -13.98800 14.14600 40.96200
C  -12.93400 13.14100 41.37100
C  -11.63400 13.93400 41.25200
C  -15.42000 14.01000 41.58900
C  -13.02800 11.77700 40.57400
C  -13.25900 10.43500 41.27200
N  -9.02400 15.38400 41.68100
C  -9.10500 14.01900 41.60700
C  -7.81700 13.43100 42.05000
C  -6.94200 14.51200 41.91700
C  -7.74100 15.67800 41.69800
C  -7.50800 11.99200 42.16000
C  -5.50200 14.94800 42.02400
O  -4.48200 14.29700 42.36600
C  -5.49800 16.46700 41.78900
C  -4.88500 17.10200 43.00000
O  -3.66400 17.30700 43.19700
O  -5.84800 17.51300 43.88500
C  -5.61000 18.10800 45.20700
H  -10.40900 21.34600 40.88600
H  -14.92500 16.69400 40.57600
H  -10.40300 12.26300 41.67300
H  -6.01800 19.70300 41.67800
H  -7.86800 21.37100 40.68400
H  -8.38300 21.97400 42.66400
H  -7.04800 20.95800 43.26100
H  -8.69500 20.22000 43.35000
H  -6.19400 21.03600 39.48600
H  -6.94200 19.75300 38.82300
H  -4.43200 18.94300 40.20200
H  -4.06900 20.08200 39.01700
H  -12.49500 22.36100 40.82700
H  -14.10700 22.13500 40.07400
H  -12.80100 21.90300 39.09900
H  -17.35900 18.89800 41.33500
H  -16.10400 17.85400 41.75300
H  -16.58700 17.95300 39.95800
H  -14.15900 13.98100 39.89800
H  -13.02000 12.79300 42.40000
H  -15.50800 13.00300 41.99500
H  -16.22100 14.16800 40.86700
H  -15.59200 14.74900 42.37200
H  -12.16300 11.65400 39.92200
H  -13.80900 11.92800 39.82800
H  -14.28400 10.29600 41.61800
H  -12.79800 10.48500 42.25800
H  -12.94800 9.50000 40.80700
H  -6.48700 11.86500 42.52100
H  -7.55800 11.69100 41.11300
H  -8.21600 11.43500 42.77300
H  -4.91200 16.68900 40.89700
H  -4.62600 17.76500 45.52600
H  -6.37500 17.89800 45.95400
H  -5.42100 19.17800 45.12400

