158

Mg 3.45600 0.69500 44.44300
C  6.25500 2.77800 44.25500
C  1.55300 3.20300 42.98100
C  0.89900 -1.55500 43.90900
C  5.64400 -1.95800 45.28900
N  3.87800 2.67300 43.70000
C  5.11400 3.30700 43.66400
C  4.97300 4.77500 43.28200
C  3.36000 4.95100 43.20600
C  2.86400 3.55500 43.33500
C  2.69900 5.89700 44.26000
C  5.74500 5.11700 41.89700
C  6.08800 3.97000 40.93300
H  6.51600 4.25300 39.50100
N  1.43100 0.79000 43.70400
C  0.88400 1.91400 43.13400
C  -0.42300 1.59600 42.66300
C  -0.64600 0.22400 42.97600
C  0.55700 -0.26200 43.59000
C  -1.41800 2.62800 42.03100
C  -1.92300 -0.64700 42.56000
O  -2.83200 -0.09000 41.98100
C  -2.20400 -2.06700 43.02300
N  3.32400 -1.46900 44.37800
C  2.11600 -2.12700 44.28900
C  2.36000 -3.59500 44.51300
C  3.78000 -3.73400 45.18400
C  4.30800 -2.32000 44.92600
C  1.30000 -4.42100 45.16700
C  4.68900 -4.98300 44.71800
C  5.35000 -5.73400 45.82300
N  5.50100 0.35200 44.67300
C  6.23600 -0.70900 45.16800
C  7.55900 -0.31000 45.49900
C  7.69100 1.00500 45.07900
C  6.39800 1.37700 44.65500
C  8.64200 -1.20200 45.98200
C  8.54600 2.20400 44.97300
O  9.73700 2.32000 45.14100
C  7.60400 3.35300 44.49500
C  7.61500 4.55600 45.35500
O  8.38700 5.47700 45.14800
O  6.69600 4.58300 46.34500
C  6.62000 5.81900 47.16300
H  1.01000 4.08300 42.63100
H  0.13500 -2.32500 43.78100
H  6.27300 -2.73600 45.72700
H  5.38200 5.31400 44.13700
H  3.11100 5.38000 42.23600
H  3.02400 5.48600 45.21600
H  1.64700 5.79900 43.99100
H  3.02000 6.93400 44.16400
H  6.64300 5.54600 42.34400
H  5.17800 5.89800 41.38900
H  5.40100 3.12500 40.96300
H  7.02500 3.52500 41.26500
H  -1.41400 2.38600 40.96800
H  -1.06200 3.65400 42.11900
H  -2.43200 2.42800 42.37700
H  -1.94600 -2.18700 44.07500
H  -1.55900 -2.59300 42.31900
H  -3.27000 -2.29100 42.97900
H  2.31200 -3.87000 43.45900
H  3.58100 -3.70300 46.25600
H  0.64400 -3.82600 45.80100
H  1.80500 -5.22900 45.69600
H  0.83500 -4.92400 44.31900
H  5.33500 -4.59100 43.93300
H  4.09200 -5.73100 44.19600
H  4.91600 -5.43000 46.77600
H  6.41200 -5.50200 45.75300
H  5.13100 -6.80100 45.82700
H  8.88800 -2.02800 45.31500
H  8.37500 -1.53300 46.98500
H  9.61600 -0.71400 46.01000
H  8.24700 3.59300 43.64800
H  5.84600 6.47500 46.76600
H  7.57600 6.34200 47.17700
H  6.32000 5.54500 48.17400
Mg 46.91800 24.92500 28.41400
C  47.55800 27.01600 31.08500
C  46.22200 22.25200 30.61100
C  47.06100 22.81000 25.82200
C  48.51300 27.36600 26.28100
N  47.01100 24.63100 30.54900
C  47.15600 25.70800 31.47300
C  46.72600 25.39500 32.86000
C  46.43900 23.91800 32.74900
C  46.60300 23.53500 31.20700
C  47.44700 22.97800 33.49900
C  45.47800 26.22800 33.30900
C  45.50500 27.04600 34.66200
H  44.43200 26.85700 35.75300
N  46.62600 22.86900 28.21400
C  46.20900 21.98600 29.23500
C  45.76800 20.69400 28.63100
C  46.04800 20.85000 27.23800
C  46.55700 22.20000 26.99700
C  45.27100 19.49200 29.40400
C  45.81900 19.84700 26.21500
O  46.16100 20.04400 25.06300
C  44.96600 18.63800 26.62000
N  47.70900 25.03600 26.32300
C  47.65700 23.95900 25.50300
C  48.13700 24.33400 24.07800
C  48.55200 25.88700 24.21800
C  48.23300 26.12000 25.68200
C  49.36500 23.45100 23.56600
C  47.83400 26.74000 23.11000
C  46.25400 26.95900 23.28000
N  47.69700 26.83100 28.58800
C  48.26200 27.66500 27.63900
C  48.53900 28.88600 28.33400
C  48.32400 28.70700 29.66900
C  47.86600 27.38500 29.76800
C  49.11000 30.15800 27.75400
C  48.34200 29.27100 30.92600
O  48.58700 30.42600 31.22000
C  48.02400 28.18500 31.99200
C  49.22400 27.97400 32.90400
O  50.23500 27.35600 32.55500
O  48.85900 28.35800 34.20200
C  49.90500 28.12300 35.23300
H  45.85000 21.52800 31.33800
H  47.08100 22.21600 24.90600
H  49.04900 28.18200 25.79300
H  47.49500 25.67700 33.57900
H  45.41900 23.75500 33.09900
H  48.26100 23.57400 33.91200
H  47.89000 22.32100 32.75000
H  46.80000 22.52500 34.25000
H  44.65900 25.52800 33.47300
H  45.16800 26.95600 32.56000
H  45.49500 28.11500 34.44700
H  46.46600 26.95400 35.16700
H  44.22400 19.40900 29.11100
H  45.29800 19.76700 30.45800
H  45.81900 18.56900 29.21200
H  45.34900 17.92500 27.35000
H  44.64700 18.13600 25.70600
H  43.96400 18.93200 26.93300
H  47.38800 24.20300 23.29800
H  49.62000 25.98300 24.02200
H  49.72800 22.80100 24.36100
H  50.16000 23.93000 22.99300
H  48.83300 22.78800 22.88400
H  48.01600 26.17300 22.19700
H  48.21000 27.74300 22.90600
H  45.95300 26.60400 24.26600
H  45.62400 26.47700 22.53300
H  45.92600 27.99800 23.25900
H  48.40200 30.97000 27.58700
H  49.62800 30.01800 26.80500
H  49.89200 30.53200 28.41400
H  47.17500 28.48800 32.60500
H  50.73600 27.46900 34.97100
H  49.40800 27.57500 36.03400
H  50.38300 29.00800 35.65500

