158

Mg 26.04300 -0.90000 29.28500
C  28.00200 -0.89100 32.25800
C  23.26300 -0.58500 31.29800
C  24.20700 -0.66100 26.58700
C  28.90400 -1.16400 27.45700
N  25.69800 -0.84500 31.53800
C  26.64300 -0.76800 32.52200
C  26.02000 -0.53500 33.90800
C  24.49300 -0.46100 33.59700
C  24.45500 -0.59000 32.06600
C  23.68000 -1.57700 34.21200
C  26.54300 0.77600 34.59600
C  25.94400 1.17000 35.92000
H  26.89500 1.30400 37.13800
N  24.02900 -0.65000 28.98800
C  23.03500 -0.68800 29.92500
C  21.76600 -0.66700 29.34800
C  21.99600 -0.47000 27.90600
C  23.46200 -0.64800 27.72300
C  20.52900 -0.56300 30.21000
C  20.98200 -0.32700 26.79500
O  21.30700 -0.09500 25.58300
C  19.48800 -0.29900 27.11600
N  26.45500 -1.17000 27.26100
C  25.54800 -0.84500 26.34400
C  26.18000 -0.71700 24.93000
C  27.67300 -0.73800 25.25800
C  27.68000 -1.09600 26.76400
C  25.71500 -1.92600 24.03000
C  28.46200 0.55800 24.90700
C  29.84100 0.37800 24.15500
N  28.05400 -1.11600 29.72000
C  29.10400 -1.28600 28.86200
C  30.36100 -1.30300 29.60000
C  30.00100 -1.20800 30.93500
C  28.56300 -1.07000 30.92800
C  31.71100 -1.38300 28.96500
C  30.51500 -1.19500 32.33700
O  31.65400 -1.52900 32.73400
C  29.24000 -0.89400 33.22900
C  29.08000 -1.84800 34.37500
O  28.62900 -2.95300 34.28100
O  29.52600 -1.25200 35.55700
C  29.41300 -2.12500 36.72700
H  22.40500 -0.47900 31.96600
H  23.79500 -0.68600 25.57600
H  29.80700 -1.15800 26.84400
H  26.41200 -1.29100 34.58800
H  24.09500 0.49300 33.94200
H  24.17800 -2.29800 34.86000
H  23.11800 -2.18100 33.50000
H  22.98400 -1.26300 34.99000
H  26.46500 1.62500 33.91600
H  27.58500 0.57300 34.84300
H  25.04200 0.59100 36.12000
H  25.45600 2.13600 35.78500
H  19.82500 -1.31600 29.85700
H  20.20800 0.46600 30.04500
H  20.47400 -0.72900 31.28600
H  18.96200 0.22900 26.32100
H  19.25100 0.26700 28.01700
H  19.18700 -1.33100 27.29700
H  25.82700 0.25500 24.58600
H  28.19100 -1.50600 24.68400
H  26.58600 -2.41600 23.59500
H  25.04500 -1.63900 23.21900
H  25.20100 -2.70200 24.59600
H  28.72400 1.12700 25.79900
H  27.87800 1.15700 24.20800
H  29.70700 0.33000 23.07400
H  30.18600 -0.63400 24.36900
H  30.65100 1.06800 24.38900
H  31.78200 -2.32700 28.42600
H  32.37700 -1.34600 29.82700
H  31.91800 -0.61600 28.21800
H  29.36100 0.12900 33.58400
H  30.12000 -1.78200 37.48200
H  29.61900 -3.17200 36.50500
H  28.38700 -1.92600 37.03600
Mg -9.48400 40.65600 43.62400
C  -8.04700 37.49400 42.90200
C  -6.94000 42.19300 41.86100
C  -11.17300 43.49800 43.77700
C  -12.23700 38.85500 45.03400
N  -7.88400 39.92100 42.28300
C  -7.44800 38.58300 42.19200
C  -6.31600 38.55300 41.25000
C  -5.62100 39.96200 41.58100
C  -6.91300 40.77400 41.95400
C  -4.55600 39.98000 42.64000
C  -6.71900 38.38400 39.76200
C  -6.32400 37.04300 39.16000
H  -5.24500 37.09400 38.12400
N  -9.14100 42.50300 42.81900
C  -8.02400 42.97000 42.18700
C  -8.12500 44.39800 41.93400
C  -9.37000 44.83500 42.41600
C  -9.94400 43.63400 43.07800
C  -7.14200 45.24300 41.22400
C  -9.85600 46.37400 42.38100
O  -9.24500 47.26200 41.81800
C  -11.23200 46.68100 42.92600
N  -11.37200 41.10900 44.26600
C  -11.78900 42.34300 44.30600
C  -13.10900 42.47400 45.13200
C  -13.52700 40.99400 45.42900
C  -12.31400 40.24900 44.87700
C  -12.92600 43.43200 46.33900
C  -14.77400 40.50700 44.64900
C  -15.82600 39.64400 45.37200
N  -10.00800 38.62100 44.07900
C  -11.06500 38.04400 44.73500
C  -10.96200 36.63900 44.68400
C  -9.69400 36.36500 44.19800
C  -9.23500 37.59900 43.66100
C  -12.02200 35.71400 45.14800
C  -8.80000 35.31700 43.84100
O  -8.84900 34.05600 43.99300
C  -7.70300 36.03000 42.87200
C  -6.27700 35.77400 43.35300
O  -5.66500 36.36000 44.23500
O  -5.72200 34.82400 42.56800
C  -4.31500 34.50200 42.68900
H  -6.01300 42.67900 41.55000
H  -11.69700 44.45600 43.80600
H  -13.02200 38.27900 45.52900
H  -5.62000 37.75500 41.50600
H  -5.10400 40.42500 40.74100
H  -4.76400 40.83400 43.28500
H  -3.56600 40.10400 42.20400
H  -4.52800 39.15800 43.35600
H  -6.33000 39.18700 39.13600
H  -7.80900 38.37300 39.75400
H  -7.24200 36.77500 38.63600
H  -6.07700 36.29300 39.91200
H  -6.35600 44.67300 40.72800
H  -6.74100 45.95200 41.94800
H  -7.65600 45.78100 40.42700
H  -11.39500 46.61400 44.00100
H  -12.00500 46.12700 42.39300
H  -11.36300 47.71700 42.61200
H  -13.88300 42.90400 44.49700
H  -13.57000 40.91600 46.51600
H  -13.57100 44.29700 46.18200
H  -11.88900 43.76000 46.41100
H  -13.23000 43.02500 47.30300
H  -14.52200 39.88400 43.79100
H  -15.34400 41.30900 44.17800
H  -16.15000 38.83700 44.71500
H  -16.67500 40.28600 45.60700
H  -15.44800 39.13700 46.25900
H  -12.88000 35.85500 44.49100
H  -12.27500 35.86000 46.19800
H  -11.67400 34.68800 45.02300
H  -7.85100 35.64400 41.86300
H  -4.11000 33.73500 41.94200
H  -4.07800 34.10000 43.67400
H  -3.61900 35.33500 42.59300

