158

Mg 40.79300 8.98700 28.11100
C  42.36200 10.41000 30.80200
C  38.28300 7.92900 30.21600
C  39.46400 7.32700 25.51800
C  43.39500 10.04100 26.01700
N  40.48100 9.04600 30.26800
C  41.20700 9.81000 31.19400
C  40.57600 9.72200 32.60300
C  39.29200 8.93100 32.34000
C  39.30000 8.66600 30.83500
C  39.08700 7.63100 33.14900
C  40.26100 11.10400 33.25300
C  39.78500 11.02000 34.69900
H  40.65000 11.56700 35.85200
N  39.05000 7.76300 27.87500
C  38.25600 7.38400 28.91300
C  37.16500 6.59600 28.34400
C  37.45700 6.43000 26.93300
C  38.73300 7.13900 26.68200
C  36.08500 6.00000 29.17600
C  36.62900 5.78100 25.80500
O  37.09900 5.67700 24.65600
C  35.29200 5.32300 26.04800
N  41.48000 8.58400 26.17200
C  40.60800 8.00000 25.25700
C  41.16500 7.96600 23.80400
C  42.30800 9.00200 24.00600
C  42.44200 9.23300 25.45500
C  41.57900 6.57400 23.24900
C  42.09600 10.27200 23.10000
C  41.26800 11.36000 23.78300
N  42.56300 9.90700 28.27900
C  43.59300 10.32100 27.36200
C  44.64100 11.05200 28.04600
C  44.17600 10.95900 29.34400
C  42.88300 10.35400 29.49100
C  45.84300 11.64100 27.38800
C  44.52000 11.49500 30.65000
O  45.52000 12.09800 31.03000
C  43.38200 11.12600 31.64800
C  44.00000 10.32300 32.74100
O  44.10100 9.09500 32.89600
O  44.41500 11.11800 33.70100
C  44.90500 10.57800 35.03400
H  37.51400 7.62600 30.93000
H  39.23200 6.67700 24.67100
H  44.23900 10.39200 25.41800
H  41.29100 9.18400 33.22500
H  38.36300 9.47800 32.50100
H  38.90600 6.75100 32.53100
H  38.32300 7.67500 33.92500
H  40.04600 7.31400 33.55900
H  39.56700 11.62700 32.59500
H  41.23500 11.59300 33.28400
H  39.65500 9.94700 34.83600
H  38.89900 11.64400 34.80900
H  35.99500 4.91600 29.12000
H  35.15300 6.49200 28.89800
H  36.14500 6.23800 30.23800
H  35.58800 4.67500 26.87300
H  34.83000 4.80200 25.21000
H  34.74400 6.24400 26.24600
H  40.43100 8.42900 23.14400
H  43.24400 8.52700 23.71400
H  40.91800 6.26000 22.44100
H  41.54100 5.86300 24.07400
H  42.62200 6.50900 22.93700
H  41.72100 9.92000 22.13900
H  43.10600 10.67800 23.04500
H  41.94000 12.09100 24.23000
H  40.58100 10.87000 24.47300
H  40.69500 11.75900 22.94500
H  46.53100 11.99500 28.15500
H  45.52400 12.57200 26.91700
H  46.32500 10.89500 26.75600
H  42.94800 12.03500 32.06500
H  44.75300 9.50000 35.08700
H  44.30200 11.03300 35.82000
H  45.95300 10.85700 35.14000
Mg 25.99000 50.57900 27.06500
C  23.52200 51.42200 29.43400
C  28.19700 49.97600 29.45100
C  28.39900 50.37800 24.57800
C  23.62000 51.43300 24.53000
N  25.78200 50.69700 29.16000
C  24.74300 51.01600 29.97000
C  25.03300 50.77800 31.49100
C  26.56800 50.57000 31.42900
C  26.86700 50.33500 29.90700
C  27.48100 51.65700 32.15700
C  24.20900 49.53400 31.99700
C  23.53800 49.66100 33.38100
H  24.19900 50.51000 34.51100
N  27.94300 50.13000 27.05800
C  28.75100 49.90900 28.16600
C  30.15300 49.77600 27.79100
C  30.19600 49.82800 26.43200
C  28.80100 50.08100 25.95000
C  31.21400 49.55900 28.85000
C  31.48100 49.65300 25.54400
O  31.46400 49.74300 24.32600
C  32.78200 49.40500 26.18700
N  25.98200 50.89000 24.88300
C  27.12600 50.76400 24.11600
C  26.90800 51.19400 22.65000
C  25.30800 51.26600 22.60400
C  24.92900 51.12700 24.09800
C  27.59800 52.51000 22.21500
C  24.67600 50.13500 21.73100
C  24.10200 50.43000 20.34300
N  23.97200 51.31600 26.96900
C  23.14700 51.57800 25.86000
C  21.85700 51.93900 26.36900
C  22.00900 51.94000 27.76000
C  23.30700 51.55400 28.08600
C  20.74500 52.26700 25.47300
C  21.28700 52.22300 29.02200
O  20.13900 52.54800 29.22100
C  22.30300 51.91800 30.20300
C  22.60500 53.08800 31.12400
O  23.14700 54.12400 30.81200
O  22.02500 52.82200 32.36100
C  22.03900 54.00100 33.25100
H  28.86100 49.73500 30.28400
H  29.20500 50.31900 23.84400
H  22.92800 51.65800 23.71600
H  24.69700 51.66900 32.02200
H  26.82100 49.62300 31.90600
H  28.40500 51.24200 32.56000
H  26.89400 51.95700 33.02500
H  27.52900 52.38000 31.34300
H  24.89200 48.68600 31.95000
H  23.45700 49.50000 31.20900
H  23.46900 48.63000 33.72900
H  22.53500 49.99100 33.11100
H  30.77700 49.52000 29.84800
H  31.95800 50.35300 28.89800
H  31.72900 48.61400 28.67200
H  32.74100 48.42700 26.66600
H  33.10100 50.28600 26.74500
H  33.57400 49.12800 25.49200
H  27.35200 50.46200 21.97600
H  24.94100 52.23400 22.26300
H  28.30500 52.28500 21.41700
H  28.02500 52.85600 23.15600
H  26.95600 53.31500 21.85900
H  23.78900 49.77000 22.24900
H  25.27900 49.25600 21.50000
H  24.29800 49.64000 19.61800
H  24.56500 51.38800 20.10700
H  23.03600 50.65800 20.33900
H  19.83900 52.45500 26.05000
H  20.56900 51.43000 24.79800
H  21.07000 53.18400 24.98300
H  21.89900 51.12900 30.83900
H  22.73500 54.82600 33.10000
H  22.26700 53.69900 34.27300
H  21.00200 54.33500 33.28200

