158

Mg -1.79500 17.49500 25.42900
C  -2.13700 15.34800 28.35200
C  -1.90900 20.18100 27.44500
C  -1.47700 19.32300 22.74600
C  -1.67400 14.47000 23.41800
N  -1.93500 17.59900 27.66500
C  -2.05000 16.70200 28.67500
C  -2.33700 17.34100 30.03600
C  -2.61600 18.85600 29.63300
C  -2.09800 18.92000 28.18200
C  -4.13800 19.25700 29.74900
C  -1.14800 17.00900 31.02900
C  -1.19400 17.84400 32.38300
H  -1.09000 17.02900 33.73200
N  -1.56900 19.50000 25.16700
C  -1.57000 20.43400 26.12700
C  -1.30300 21.71500 25.47300
C  -1.22700 21.51600 24.08000
C  -1.42100 20.04400 23.91600
C  -1.22800 22.93600 26.20500
C  -1.11900 22.47900 22.94000
O  -1.12300 22.02300 21.81800
C  -0.91800 23.95900 23.23300
N  -1.58000 16.93600 23.33400
C  -1.61500 17.94700 22.44100
C  -1.74900 17.42500 21.00800
C  -1.39200 15.93800 21.17600
C  -1.63200 15.72700 22.70100
C  -3.17100 17.87200 20.39000
C  -0.00100 15.56700 20.67100
C  1.25000 15.62300 21.55800
N  -1.94000 15.39700 25.79100
C  -1.78900 14.29600 24.87100
C  -1.90400 13.12200 25.57300
C  -2.02300 13.43000 26.90200
C  -2.01900 14.86100 27.03800
C  -1.83000 11.73600 25.03900
C  -2.16400 12.84200 28.22900
O  -2.16400 11.67600 28.62500
C  -2.25300 14.09300 29.21600
C  -1.01600 13.74100 29.98600
O  0.09300 13.84200 29.44100
O  -1.24300 13.37000 31.31400
C  -0.09300 12.99700 32.17400
H  -1.95700 21.14400 27.95700
H  -1.69200 19.91400 21.85300
H  -1.55400 13.63200 22.72800
H  -3.21900 16.91000 30.51100
H  -2.09000 19.56500 30.27300
H  -4.25400 19.66000 30.75500
H  -4.85000 18.43100 29.72700
H  -4.54400 19.95200 29.01400
H  -0.20700 17.21500 30.52000
H  -1.27800 15.94500 31.22900
H  -2.06500 18.49900 32.41900
H  -0.40200 18.58300 32.25500
H  -0.79800 22.86200 27.20300
H  -2.24400 23.32900 26.26000
H  -0.56700 23.67300 25.74900
H  -0.86100 24.59800 22.35200
H  -0.00400 23.88200 23.82100
H  -1.78000 24.32100 23.79200
H  -1.02600 17.85000 20.31200
H  -2.12800 15.33300 20.64800
H  -3.16100 18.07800 19.32000
H  -3.59600 18.77300 20.83300
H  -3.81600 17.02300 20.61800
H  0.14300 16.01700 19.68800
H  -0.02800 14.53700 20.31500
H  1.92800 16.14600 20.88400
H  1.52800 14.61700 21.87300
H  1.05600 16.12700 22.50500
H  -2.35900 11.76100 24.08700
H  -2.32400 11.06300 25.74000
H  -0.79200 11.52000 24.78600
H  -3.16500 13.99100 29.80500
H  0.32300 13.88300 32.65300
H  0.61200 12.46900 31.53100
H  -0.44600 12.33800 32.96600
Mg 2.46300 -1.52500 43.85200
C  5.77700 -1.18500 42.68700
C  1.61200 1.20800 41.97000
C  -0.67600 -2.45200 44.21500
C  3.53100 -4.65400 45.25000
N  3.58500 -0.16900 42.45800
C  4.89300 -0.21500 42.12200
C  5.26600 0.94300 41.19700
C  4.06400 1.90200 41.39000
C  2.97500 0.97600 42.02400
C  4.25200 3.23000 42.22700
C  5.56300 0.52000 39.74300
C  6.61000 1.41200 39.01700
H  6.17200 2.05500 37.65800
N  0.66800 -0.66200 43.30900
C  0.56600 0.43900 42.47700
C  -0.87900 0.67200 42.28300
C  -1.58500 -0.28200 43.10800
C  -0.51000 -1.16500 43.61400
C  -1.40900 1.84300 41.44200
C  -3.05900 -0.38500 43.33600
O  -3.81000 0.38700 42.79700
C  -3.74800 -1.51000 44.13000
N  1.55600 -3.31700 44.55000
C  0.22400 -3.40100 44.62300
C  -0.18800 -4.77900 45.13500
C  1.15200 -5.42500 45.64300
C  2.18400 -4.42700 45.04100
C  -1.53600 -4.79400 45.98400
C  1.46400 -6.90500 45.22300
C  1.48100 -8.04000 46.24100
N  4.30000 -2.69600 44.05600
C  4.56600 -3.89900 44.68200
C  6.00700 -4.23700 44.65000
C  6.53300 -3.15200 43.84100
C  5.43800 -2.32800 43.49200
C  6.59000 -5.42700 45.25600
C  7.71700 -2.64400 43.21200
O  8.88700 -3.07700 43.23700
C  7.28500 -1.27100 42.57400
C  7.97400 -0.18100 43.25000
O  7.87000 0.08000 44.40300
O  8.77300 0.54000 42.41000
C  9.14500 1.83400 42.88900
H  1.26600 2.17100 41.58900
H  -1.67700 -2.86800 44.35000
H  3.82400 -5.67900 45.48800
H  6.10600 1.50800 41.60200
H  3.65200 2.29800 40.46200
H  5.24200 3.15200 42.67700
H  3.56300 3.40500 43.05300
H  4.21700 4.07800 41.54300
H  4.67600 0.56500 39.11100
H  6.08800 -0.43500 39.75800
H  7.55400 0.86800 39.05200
H  6.82000 2.28300 39.63700
H  -2.40400 2.06500 41.82800
H  -1.43600 1.52000 40.40100
H  -0.75200 2.70400 41.56200
H  -4.81600 -1.29600 44.18300
H  -3.36600 -1.59900 45.14700
H  -3.66800 -2.44400 43.57500
H  -0.37100 -5.09300 44.10700
H  1.23400 -5.32500 46.72500
H  -2.39200 -5.01800 45.34700
H  -1.64000 -3.79800 46.41400
H  -1.49100 -5.54900 46.76900
H  2.29900 -6.91300 44.52300
H  0.62200 -7.07500 44.55100
H  2.23100 -8.78200 45.96800
H  0.55100 -8.59600 46.11500
H  1.45600 -7.78900 47.30100
H  6.75800 -6.11900 44.43100
H  6.03800 -5.87300 46.08300
H  7.57400 -5.30100 45.70700
H  7.70600 -1.24300 41.56900
H  9.48600 1.75700 43.92100
H  8.27600 2.49100 42.92600
H  10.02200 2.21400 42.36400

