158

Mg 35.30800 48.41400 24.45800
C  35.67900 46.89200 27.68400
C  33.58000 50.96200 26.11400
C  34.67400 49.70400 21.41600
C  36.64700 45.54700 23.07600
N  34.89400 48.97600 26.65000
C  35.13400 48.20300 27.73400
C  34.87100 48.98400 29.02800
C  34.03900 50.23000 28.52000
C  34.12800 50.02900 27.00100
C  32.61600 50.47400 29.16600
C  36.25400 49.27900 29.78600
C  36.21000 49.03600 31.26700
H  34.90800 48.99300 32.01900
N  34.24500 50.06000 23.83400
C  33.61200 51.03100 24.65400
C  33.13900 52.12400 23.85600
C  33.38100 51.67900 22.51500
C  34.19600 50.45800 22.51500
C  32.60000 53.41100 24.40000
C  33.03600 52.46900 21.26500
O  33.29800 52.10800 20.10700
C  32.19100 53.75300 21.25900
N  35.55700 47.67100 22.55700
C  35.26500 48.39500 21.48000
C  35.73500 47.72300 20.19700
C  36.53600 46.54000 20.72700
C  36.19000 46.56800 22.24700
C  34.70500 47.41000 19.06800
C  38.03300 46.44900 20.35800
C  38.24500 45.72700 19.03000
N  36.08300 46.55000 25.23000
C  36.53000 45.46000 24.46300
C  36.89500 44.35200 25.36000
C  36.68300 44.89500 26.67800
C  36.09000 46.22100 26.51700
C  37.32400 42.92800 24.90500
C  36.79000 44.70800 28.16000
O  37.35800 43.83100 28.78100
C  36.13700 45.98400 28.85700
C  35.02200 45.59200 29.75400
O  33.82300 45.64800 29.50200
O  35.53600 45.23300 31.04300
C  34.43900 44.93000 32.02100
H  33.27400 51.83900 26.68900
H  34.50500 50.10500 20.41400
H  37.17700 44.71200 22.61200
H  34.24700 48.35600 29.66400
H  34.63700 51.14000 28.57000
H  32.42300 49.83300 30.02700
H  31.83300 50.46600 28.40800
H  32.64100 51.48500 29.57200
H  36.68100 50.25600 29.55600
H  37.03400 48.64700 29.36100
H  36.90200 49.75400 31.70700
H  36.75500 48.14000 31.56400
H  32.66000 54.30800 23.78300
H  33.06300 53.61100 25.36600
H  31.52900 53.22700 24.49200
H  31.33600 53.70300 21.93400
H  31.89700 53.98300 20.23500
H  32.86400 54.51300 21.65500
H  36.42900 48.37900 19.67100
H  36.03900 45.61800 20.42600
H  33.70200 47.73800 19.34200
H  34.66300 46.32500 18.98000
H  34.94000 47.79300 18.07500
H  38.63300 45.86400 21.05400
H  38.38300 47.48200 20.33100
H  38.84100 46.45900 18.48500
H  37.28400 45.47900 18.58000
H  38.81100 44.80600 19.16700
H  37.95100 43.02400 24.01900
H  36.47900 42.29700 24.62900
H  37.91100 42.51600 25.72600
H  36.88800 46.52000 29.43600
H  34.15600 43.87800 31.98600
H  33.55200 45.55500 31.90900
H  34.82600 44.96400 33.03900
Mg 9.41100 48.67000 26.40700
C  7.55900 48.61500 29.47500
C  11.98500 50.09700 28.19600
C  11.08900 48.90000 23.54200
C  6.66600 47.34300 24.78000
N  9.63300 49.45100 28.61200
C  8.76200 49.20200 29.64200
C  9.32000 49.95700 30.98100
C  10.80200 50.26200 30.53900
C  10.79100 49.93500 28.99400
C  11.26300 51.74700 30.77000
C  9.23700 49.04800 32.23900
C  10.17000 49.40000 33.37600
H  9.55100 49.63700 34.76600
N  11.32800 49.20100 25.96100
C  12.25500 49.76800 26.83700
C  13.53900 49.96500 26.16000
C  13.31200 49.60200 24.81900
C  11.87600 49.19500 24.69300
C  14.80500 50.51900 26.80100
C  14.26900 49.51800 23.62600
O  13.92000 49.32900 22.44900
C  15.76300 49.74000 23.93200
N  8.82100 48.35000 24.46100
C  9.67500 48.58000 23.47200
C  9.05700 48.20300 22.12100
C  7.82500 47.35400 22.48700
C  7.71800 47.68500 23.98300
C  8.78500 49.50700 21.30700
C  7.93300 45.84200 22.13000
C  9.22000 45.17400 22.63700
N  7.42400 48.16800 26.93400
C  6.41700 47.63300 26.17600
C  5.20200 47.48500 26.95100
C  5.60100 47.76100 28.24600
C  6.96100 48.27500 28.18600
C  3.88600 46.95000 26.55000
C  5.23400 47.77500 29.68800
O  4.23400 47.42500 30.20200
C  6.46200 48.29100 30.45500
C  6.80700 47.14500 31.31700
O  7.48500 46.21700 30.98300
O  6.18100 47.23100 32.54900
C  6.56100 46.31700 33.64800
H  12.80400 50.56600 28.74600
H  11.62000 49.06400 22.60100
H  5.78900 46.85000 24.35500
H  8.74600 50.86700 31.15400
H  11.51500 49.68100 31.12400
H  10.41900 52.37200 31.06300
H  11.65900 52.13800 29.83200
H  12.10800 51.76700 31.45800
H  9.23500 48.03300 31.84200
H  8.24500 49.11600 32.68400
H  10.77200 50.28200 33.16100
H  10.98300 48.67800 33.30300
H  15.17900 51.40100 26.28100
H  15.59900 49.77300 26.79800
H  14.75100 50.77400 27.86000
H  16.27200 49.48700 23.00100
H  16.19200 49.14500 24.73800
H  15.85500 50.77900 24.24700
H  9.70900 47.57300 21.51600
H  6.93500 47.72300 21.97700
H  9.36200 50.27800 21.81800
H  7.71200 49.69100 21.35100
H  9.08500 49.29700 20.28100
H  7.91500 45.80800 21.04100
H  7.16900 45.23300 22.61500
H  8.94100 44.29000 23.21000
H  9.75200 45.79700 23.35600
H  9.82900 44.87200 21.78500
H  3.16800 47.75800 26.40600
H  3.48500 46.37300 27.38300
H  3.95100 46.34500 25.64500
H  6.09300 49.11400 31.06700
H  7.54600 45.89600 33.44600
H  5.87300 45.50100 33.86600
H  6.72900 46.89600 34.55600

