158

Mg 36.27000 49.20600 25.40300
C  36.30700 47.11300 28.20700
C  35.07000 51.67300 27.41500
C  35.80900 50.87100 22.63100
C  36.91900 46.26900 23.45600
N  35.55500 49.35900 27.51300
C  35.90600 48.39900 28.48700
C  35.71300 48.96300 29.90100
C  35.15100 50.38600 29.57500
C  35.34300 50.52900 28.06400
C  33.69000 50.60800 29.98800
C  36.98200 49.00500 30.82800
C  36.86800 48.39100 32.26900
H  36.87800 49.45800 33.35100
N  35.51100 51.02000 25.10300
C  35.22300 51.95200 26.02500
C  35.19600 53.24200 25.42900
C  35.23800 52.97300 23.98100
C  35.53500 51.55000 23.81700
C  34.92300 54.45400 26.32300
C  34.93600 53.87500 22.80100
O  34.85500 53.57500 21.60200
C  34.74800 55.46200 23.08000
N  36.33800 48.67900 23.28500
C  36.13000 49.54900 22.38000
C  36.23500 48.91800 20.91500
C  36.76000 47.46700 21.26100
C  36.73700 47.46000 22.79500
C  34.96400 48.89000 20.01500
C  38.05400 47.00900 20.57200
C  38.02200 46.00100 19.42800
N  36.55300 47.12600 25.68400
C  36.91700 46.10500 24.84600
C  37.20100 44.91900 25.52500
C  36.99900 45.27200 26.86000
C  36.56900 46.63600 26.92600
C  37.66700 43.62500 24.97000
C  37.02400 44.86800 28.23900
O  37.12300 43.76600 28.75500
C  36.67800 46.02100 29.13100
C  35.54400 45.67200 30.00000
O  34.34700 45.71000 29.65600
O  35.90800 45.26700 31.24600
C  34.93700 44.64500 32.11500
H  34.64500 52.44600 28.05900
H  35.72500 51.45800 21.71400
H  36.93400 45.39200 22.80600
H  34.98600 48.34500 30.42900
H  35.67100 51.18800 30.09900
H  33.50300 49.97500 30.85500
H  32.88300 50.45100 29.27300
H  33.46100 51.63500 30.27200
H  37.37600 50.01700 30.92000
H  37.73900 48.37000 30.37000
H  37.71000 47.73200 32.47800
H  35.93200 47.84300 32.37700
H  35.02600 55.36000 25.72500
H  35.65800 54.52300 27.12500
H  33.89700 54.41000 26.68800
H  33.92900 55.66600 23.77000
H  34.33700 55.73800 22.10900
H  35.64100 55.99100 23.41500
H  37.00100 49.49600 20.39800
H  35.96600 46.79400 20.93900
H  35.07800 49.81700 19.45300
H  34.20000 49.08100 20.76900
H  34.77000 48.09300 19.29700
H  38.83300 46.72100 21.27800
H  38.49200 47.93300 20.19500
H  37.04400 45.51900 19.41600
H  38.75500 45.20700 19.57300
H  38.27800 46.44100 18.46500
H  38.59800 43.27300 25.41600
H  37.72100 43.56300 23.88300
H  36.96300 42.81800 25.17300
H  37.63200 46.28000 29.59200
H  34.09700 45.23900 32.47700
H  35.46900 44.34900 33.01900
H  34.43100 43.86900 31.54100
Mg -11.37400 38.39000 41.96700
C  -9.17700 35.69400 41.25400
C  -9.07100 40.49000 40.28000
C  -13.60600 40.77500 42.24500
C  -13.58000 36.07500 43.37000
N  -9.46900 38.08100 40.69900
C  -8.79500 36.89100 40.56700
C  -7.56600 37.05300 39.63900
C  -7.49600 38.60100 39.36900
C  -8.66600 39.12900 40.23000
C  -6.14900 39.28900 39.52500
C  -7.73800 36.14800 38.33400
C  -6.53600 35.29600 38.02700
H  -5.41200 35.91400 37.11000
N  -11.33500 40.42400 41.41700
C  -10.32900 41.07300 40.72800
C  -10.70700 42.46000 40.63900
C  -11.95300 42.62800 41.27600
C  -12.35400 41.24900 41.68300
C  -9.77300 43.51900 40.18100
C  -12.67800 43.90200 41.47000
O  -12.09200 44.88600 41.06200
C  -14.12400 44.06200 42.14200
N  -13.38200 38.33000 42.57100
C  -14.04800 39.54100 42.67600
C  -15.47400 39.38200 43.24100
C  -15.40900 37.90000 43.67200
C  -14.06700 37.35900 43.11900
C  -15.93900 40.46300 44.37000
C  -16.69400 37.13700 43.33500
C  -17.21800 36.21400 44.43700
N  -11.44000 36.28200 42.25600
C  -12.33800 35.51900 42.98300
C  -11.82200 34.17300 43.24500
C  -10.55300 34.28800 42.58300
C  -10.38600 35.50900 41.91700
C  -12.49300 33.12200 44.12500
C  -9.34600 33.45900 42.36800
O  -9.06900 32.28400 42.53900
C  -8.40600 34.41500 41.39500
C  -7.01700 34.67300 41.88800
O  -6.02100 34.12800 41.44000
O  -6.98500 35.70400 42.79100
C  -5.71000 36.08300 43.30200
H  -8.39600 41.18100 39.77100
H  -14.38700 41.53900 42.26100
H  -14.35200 35.50000 43.88500
H  -6.64600 36.78700 40.16000
H  -7.66500 38.79300 38.31000
H  -6.31700 40.05800 40.27800
H  -5.83000 39.71900 38.57500
H  -5.39000 38.59200 39.88000
H  -7.86900 36.88800 37.54500
H  -8.58100 35.45900 38.38300
H  -6.88300 34.33500 37.64700
H  -5.95100 35.09600 38.92400
H  -9.76600 43.72300 39.11100
H  -8.79100 43.13500 40.45900
H  -9.77800 44.43200 40.77600
H  -14.20400 43.60000 43.12600
H  -14.85500 43.61700 41.46700
H  -14.31700 45.13300 42.20600
H  -16.14100 39.54500 42.39400
H  -15.40100 37.91000 44.76200
H  -15.32500 41.36200 44.33200
H  -15.77200 39.92100 45.30000
H  -16.98200 40.77700 44.43100
H  -16.58800 36.51300 42.44800
H  -17.45100 37.86800 43.05200
H  -18.18700 36.59700 44.75600
H  -16.43000 35.95600 45.14500
H  -17.52400 35.26300 44.00200
H  -12.97500 32.40800 43.45800
H  -13.24600 33.43700 44.84700
H  -11.73700 32.45200 44.53400
H  -8.32100 33.95400 40.41100
H  -5.44500 37.10100 43.01700
H  -4.85600 35.49200 42.97300
H  -5.81400 36.01800 44.38600

