158

Mg 46.95600 16.83200 28.19700
C  45.11400 16.35700 31.28000
C  49.28700 18.49700 30.07500
C  48.28000 17.54700 25.38100
C  44.21700 15.27900 26.57800
N  47.15900 17.25000 30.47000
C  46.31400 17.03600 31.49900
C  46.82200 17.54400 32.84100
C  48.07300 18.34900 32.34200
C  48.17700 18.02500 30.86600
C  48.06800 19.92700 32.56600
C  47.05800 16.37300 33.89100
C  48.04000 16.56300 35.09100
H  48.00500 17.93000 35.88700
N  48.58100 17.84500 27.79200
C  49.41000 18.40600 28.68100
C  50.38500 19.02700 27.95000
C  50.20300 18.81300 26.58500
C  49.06800 18.00300 26.50800
C  51.40300 20.04600 28.56700
C  50.92600 19.36000 25.35500
O  50.62000 19.00500 24.21600
C  52.19400 20.22800 25.46900
N  46.30200 16.50500 26.27400
C  47.02600 16.98300 25.21400
C  46.41100 16.44000 23.86700
C  45.32400 15.41700 24.38200
C  45.27000 15.73800 25.85500
C  45.87200 17.55600 22.89000
C  45.70000 13.99100 24.08900
C  45.10000 13.43800 22.79200
N  45.01400 15.92300 28.79600
C  44.03500 15.42300 28.00100
C  42.91900 15.03400 28.78200
C  43.24800 15.35800 30.09400
C  44.54000 15.91800 30.02000
C  41.69800 14.36800 28.18500
C  42.87900 15.31600 31.44400
O  41.84700 14.95500 31.98600
C  44.04800 15.98800 32.28400
C  43.39400 17.07800 33.05000
O  43.39100 18.26400 32.74700
O  42.79900 16.58500 34.18500
C  42.18500 17.57000 35.09800
H  50.10900 18.96400 30.62100
H  48.67800 17.91700 24.43400
H  43.43500 14.74900 26.03100
H  46.06800 18.21600 33.25100
H  49.04000 18.02500 32.72700
H  48.97800 20.29900 33.03600
H  47.25600 20.17800 33.24800
H  48.05100 20.51200 31.64700
H  47.36700 15.46500 33.37300
H  46.11500 16.09300 34.36000
H  49.03700 16.47000 34.66200
H  47.88400 15.83600 35.88800
H  51.46000 20.92900 27.93100
H  52.39300 19.58800 28.56300
H  51.10400 20.27300 29.59000
H  52.91400 19.75400 26.13700
H  51.98100 21.23300 25.83500
H  52.61500 20.39800 24.47800
H  47.16700 15.89900 23.29800
H  44.31700 15.63800 24.02800
H  46.64800 17.65800 22.13100
H  45.73200 18.52900 23.36100
H  44.96200 17.26500 22.36600
H  45.43600 13.52100 25.03600
H  46.78600 13.90200 24.06700
H  45.78000 13.16500 21.98500
H  44.36200 14.16000 22.44500
H  44.44800 12.60600 23.06000
H  41.90900 13.31100 28.02600
H  41.36600 14.87700 27.28000
H  40.94900 14.41500 28.97500
H  44.43000 15.23400 32.97400
H  41.29500 17.99200 34.63200
H  42.95800 18.26600 35.42400
H  41.80100 17.05800 35.98000
Mg 1.36600 42.44800 25.35100
C  2.68600 42.57300 28.78600
C  -1.48800 41.18300 26.60300
C  0.61000 41.71100 22.26900
C  4.38700 43.82300 24.40400
N  0.70000 41.84900 27.52500
C  1.33800 42.13800 28.73900
C  0.38300 41.79700 29.86200
C  -0.89400 41.24900 29.09700
C  -0.58900 41.43500 27.66000
C  -1.21000 39.74600 29.27600
C  0.04600 42.96600 30.80800
C  0.13800 42.74900 32.30700
H  -0.34400 41.30400 32.71900
N  -0.31000 41.65500 24.55500
C  -1.42700 41.18700 25.20900
C  -2.40800 40.77400 24.24500
C  -1.81900 40.89800 22.95800
C  -0.44800 41.49500 23.20100
C  -3.87500 40.44400 24.68100
C  -2.38400 40.57100 21.62000
O  -1.82100 40.84100 20.55000
C  -3.74200 39.96100 21.62100
N  2.34200 42.76400 23.59200
C  1.80300 42.22900 22.42800
C  2.92000 42.25000 21.40200
C  3.99200 43.18200 21.99400
C  3.56100 43.34500 23.44200
C  3.39100 40.84600 20.93700
C  4.40200 44.57000 21.28900
C  3.35600 45.75500 21.41000
N  3.15800 43.12000 26.28800
C  4.28000 43.64200 25.81100
C  5.20200 44.04100 26.84500
C  4.60700 43.61700 28.01400
C  3.35200 43.10500 27.65500
C  6.64800 44.61500 26.68000
C  4.81500 43.41800 29.46900
O  5.79600 43.59800 30.15400
C  3.51000 42.77600 30.02300
C  3.85000 41.48600 30.69200
O  4.31000 40.48800 30.21100
O  3.32100 41.47700 31.90300
C  3.40500 40.25000 32.67900
H  -2.44100 40.78200 26.95300
H  0.24500 41.40400 21.28700
H  5.36500 44.14500 24.04100
H  0.89700 40.95800 30.33100
H  -1.84200 41.74700 29.29900
H  -0.51900 39.28600 29.98200
H  -1.16500 39.23500 28.31500
H  -2.20500 39.69500 29.71900
H  -0.84800 43.53800 30.55700
H  0.78800 43.73800 30.60900
H  -0.33500 43.54800 32.87700
H  1.21700 42.69900 32.45100
H  -4.02100 39.36600 24.76200
H  -4.64300 40.96100 24.10600
H  -4.08400 40.85700 25.66800
H  -4.38200 40.77800 21.95500
H  -3.65700 39.04000 22.19700
H  -3.95300 39.76000 20.57000
H  2.55400 42.76900 20.51600
H  4.88800 42.56600 22.07000
H  2.72600 40.11300 21.39300
H  4.43800 40.77100 21.23100
H  3.14600 40.85800 19.87500
H  4.71000 44.37200 20.26200
H  5.28300 44.82000 21.88000
H  2.45400 45.21400 21.69500
H  3.20100 46.34800 20.50900
H  3.67700 46.46500 22.17200
H  6.99200 44.97800 27.64900
H  6.79900 45.39200 25.93000
H  7.30600 43.76200 26.51300
H  3.06300 43.44200 30.76000
H  2.70700 39.52800 32.25600
H  3.08200 40.34800 33.71500
H  4.41800 39.85600 32.76700

