158

Mg 1.63900 -2.08500 44.14900
C  5.14400 -1.58800 43.60000
C  1.07100 0.74400 42.30100
C  -1.46200 -3.08500 43.71900
C  2.56000 -5.17900 45.60400
N  2.95600 -0.60800 43.07100
C  4.36600 -0.57800 43.03000
C  4.83600 0.62900 42.19700
C  3.55500 1.38500 42.05700
C  2.41100 0.49500 42.56600
C  3.53300 2.85100 42.64000
C  5.53000 0.27200 40.85900
C  6.92900 0.91000 40.60300
H  6.99400 1.66200 39.25200
N  -0.06100 -1.25300 43.18800
C  -0.07700 -0.08000 42.48800
C  -1.40900 0.11100 42.04900
C  -2.14800 -1.03300 42.38800
C  -1.23700 -1.85800 43.13300
C  -1.87400 1.27800 41.24600
C  -3.61900 -1.20900 42.13500
O  -4.25600 -0.30200 41.62800
C  -4.39900 -2.42900 42.48800
N  0.74100 -3.88900 44.48300
C  -0.64300 -3.96400 44.42400
C  -1.19900 -5.18200 45.00200
C  0.09900 -5.90800 45.57900
C  1.20700 -4.91600 45.23200
C  -2.27700 -4.92700 46.09700
C  0.39000 -7.25600 44.91500
C  0.17000 -8.36900 45.85900
N  3.45800 -3.21000 44.67400
C  3.68500 -4.38300 45.30600
C  5.11000 -4.59500 45.37800
C  5.68100 -3.51100 44.82100
C  4.67500 -2.70400 44.37600
C  5.63400 -5.91900 45.65600
C  7.01600 -3.00500 44.36900
O  8.15400 -3.44000 44.52200
C  6.66400 -1.67400 43.59900
C  7.19200 -0.57900 44.41500
O  6.83200 -0.28400 45.52300
O  8.25800 0.01000 43.79500
C  8.97900 1.00300 44.66700
H  0.97200 1.73100 41.84500
H  -2.45300 -3.54400 43.69800
H  2.71000 -6.11900 46.14100
H  5.52500 1.22100 42.80100
H  3.28800 1.60000 41.02200
H  3.78200 3.49200 41.79400
H  4.28300 2.95900 43.42400
H  2.57500 3.14300 43.06900
H  4.77100 0.45000 40.09700
H  5.83400 -0.77500 40.89000
H  7.72900 0.16900 40.57500
H  7.23600 1.64900 41.34400
H  -2.59900 1.12800 40.44600
H  -1.08400 1.89200 40.81300
H  -2.38100 1.93100 41.95600
H  -4.15800 -3.37000 41.99200
H  -5.40300 -2.21100 42.12400
H  -4.55000 -2.51800 43.56300
H  -1.70400 -5.73700 44.21100
H  0.11200 -5.85900 46.66800
H  -2.26200 -3.90200 46.46900
H  -2.08200 -5.43800 47.03900
H  -3.31300 -5.12600 45.82000
H  1.44900 -7.27800 44.66000
H  -0.19100 -7.41000 44.00600
H  -0.22100 -7.97500 46.79800
H  1.18800 -8.67700 46.09600
H  -0.40000 -9.14500 45.34800
H  5.64600 -6.10000 46.73000
H  6.68200 -6.03100 45.38000
H  5.04600 -6.68200 45.14500
H  6.96400 -1.63600 42.55200
H  9.34000 0.48000 45.55200
H  8.44600 1.93900 44.83600
H  9.82600 1.21700 44.01400
Mg 27.29400 51.21200 26.59100
C  25.36400 52.25800 29.17600
C  29.66300 50.03800 28.91800
C  29.46000 50.43600 24.03400
C  25.01800 52.45500 24.32000
N  27.45100 50.99000 28.73600
C  26.49500 51.52700 29.60600
C  26.79000 51.12500 31.01700
C  28.31400 50.67600 30.93500
C  28.51100 50.58500 29.42700
C  29.24600 51.75000 31.54200
C  25.72500 50.08400 31.48700
C  25.08600 50.07200 32.88500
H  26.05000 50.37600 34.05500
N  29.24500 50.25000 26.50000
C  30.01900 49.80300 27.56200
C  31.21700 49.14600 27.05400
C  31.17000 49.41000 25.61000
C  29.91100 50.11500 25.31700
C  32.35000 48.49800 27.91000
C  32.26600 49.16700 24.63400
O  32.21800 49.47400 23.40800
C  33.52100 48.51000 25.02600
N  27.33700 51.61600 24.51600
C  28.34700 51.15600 23.67800
C  27.84900 51.07500 22.22800
C  26.40900 51.66700 22.30700
C  26.19200 51.90800 23.81400
C  28.78200 51.90200 21.25800
C  25.38400 50.74400 21.79200
C  24.90100 49.51600 22.58600
N  25.49000 52.09900 26.70600
C  24.63300 52.52900 25.72700
C  23.54600 53.32200 26.28100
C  23.74300 53.15600 27.68800
C  24.93500 52.43500 27.88300
C  22.52000 54.13600 25.50200
C  23.20200 53.45200 28.95400
O  22.18600 54.03800 29.22800
C  24.17400 52.78000 29.98100
C  24.58900 53.78000 31.01800
O  25.42000 54.67900 30.78400
O  24.02500 53.59700 32.24600
C  24.29100 54.54000 33.33900
H  30.29500 49.54300 29.65800
H  30.05900 50.06400 23.20000
H  24.21600 52.67900 23.61400
H  26.82500 52.04100 31.60600
H  28.62500 49.66400 31.19200
H  30.26800 51.50800 31.25100
H  29.25300 51.61300 32.62300
H  29.07600 52.79000 31.26400
H  26.34300 49.18700 31.45000
H  24.99200 49.89100 30.70400
H  24.72700 49.06100 33.07700
H  24.19300 50.69600 32.86300
H  32.25900 47.41600 27.82300
H  32.17800 48.58900 28.98300
H  33.29700 48.99900 27.71200
H  33.37700 47.61600 25.63200
H  34.26900 49.08100 25.57500
H  34.01000 48.23100 24.09200
H  27.76900 50.01500 21.99000
H  26.35500 52.58800 21.72600
H  29.75300 52.17900 21.66900
H  28.30200 52.76300 20.79200
H  29.09800 51.35400 20.37100
H  25.73700 50.38000 20.82700
H  24.50800 51.32900 21.51300
H  25.70300 49.27400 23.28200
H  24.82200 48.58100 22.03100
H  24.05100 49.71400 23.23900
H  22.81700 55.14000 25.20100
H  21.74000 54.29800 26.24600
H  22.24100 53.68400 24.55100
H  23.48300 52.03700 30.37900
H  24.86000 55.40600 32.99900
H  24.88900 53.95500 34.03800
H  23.35000 54.90600 33.74800

