158

Mg 41.21000 9.17200 30.02400
C  43.23400 10.34900 32.62200
C  38.97700 8.03500 32.43300
C  39.43300 7.79000 27.62900
C  43.78900 10.06500 27.75400
N  41.24400 9.10100 32.25400
C  42.09600 9.74000 33.09600
C  41.66500 9.78300 34.57700
C  40.43900 8.78100 34.46300
C  40.16400 8.59200 32.92700
C  40.70600 7.37100 35.05500
C  41.38000 11.22000 35.04900
C  40.43000 11.39700 36.25600
H  40.77100 12.41300 37.44100
N  39.38800 8.25300 29.96800
C  38.56200 7.88200 31.06300
C  37.38200 7.30900 30.55100
C  37.48900 7.24400 29.18500
C  38.81700 7.80400 28.86400
C  36.25000 6.82600 31.45000
C  36.49300 6.78500 28.15600
O  36.66800 6.70300 26.98500
C  35.09600 6.52400 28.53800
N  41.62100 8.85600 27.94600
C  40.67600 8.26900 27.16700
C  41.09500 8.24200 25.70300
C  42.55700 8.88800 25.71000
C  42.67500 9.42900 27.14700
C  40.84200 7.07400 24.76200
C  42.75400 9.89100 24.56100
C  42.38700 11.35200 24.95000
N  43.10500 10.00600 30.12800
C  44.04400 10.31900 29.08500
C  45.23200 10.94300 29.76300
C  44.89300 11.07100 31.13700
C  43.63800 10.40800 31.30000
C  46.47400 11.43100 29.09200
C  45.32700 11.57300 32.35800
O  46.26200 12.25500 32.63700
C  44.32000 11.00800 33.39200
C  45.02700 10.10500 34.27500
O  45.44200 9.01300 33.96700
O  44.79300 10.52300 35.52100
C  45.07500 9.66600 36.63600
H  38.21400 7.80300 33.17800
H  38.87000 7.52700 26.73100
H  44.61000 10.27000 27.06200
H  42.47300 9.39900 35.20000
H  39.61500 9.16600 35.06300
H  40.48200 6.56000 34.36200
H  40.13700 7.27500 35.97900
H  41.78100 7.39300 35.23600
H  40.83700 11.70700 34.23900
H  42.28900 11.81500 35.13600
H  40.23700 10.48700 36.82300
H  39.45200 11.70800 35.88900
H  36.57500 6.60700 32.46700
H  35.91300 5.84300 31.12000
H  35.59000 7.66600 31.23700
H  35.06700 5.87300 29.41200
H  34.61400 6.00300 27.71100
H  34.44900 7.38700 28.69600
H  40.48100 8.99000 25.20100
H  43.29000 8.08200 25.68100
H  41.75700 6.94900 24.18300
H  40.03200 7.40300 24.11200
H  40.58300 6.21300 25.37800
H  42.37100 9.43300 23.64900
H  43.81400 9.75000 24.35400
H  43.27200 11.98600 24.99900
H  41.93200 11.44400 25.93600
H  41.67000 11.65300 24.18600
H  47.13600 10.64900 28.72100
H  47.12200 12.00300 29.75600
H  46.26400 12.02900 28.20600
H  43.97700 11.90500 33.90800
H  45.21600 8.62400 36.35200
H  44.32500 9.91700 37.38700
H  46.06600 9.90700 37.02000
Mg 5.50900 53.48300 41.70500
C  4.56700 50.17700 41.34400
C  8.74600 52.72700 40.91600
C  6.12200 56.77900 41.57600
C  2.17500 54.17200 42.46900
N  6.51000 51.66000 41.14100
C  5.94900 50.44200 40.88200
C  7.02600 49.36800 40.46600
C  8.36000 50.25600 40.73800
C  7.85100 51.68900 41.01700
C  9.27800 49.70200 41.92100
C  6.88200 48.99300 38.89000
C  6.93100 50.17700 37.95300
H  6.76700 49.68100 36.47100
N  7.25900 54.60500 41.25200
C  8.48000 54.09900 40.94000
C  9.39400 55.17700 40.70900
C  8.63500 56.39600 40.85500
C  7.26000 55.96000 41.24200
C  10.76800 54.94900 40.10200
C  9.18500 57.75500 40.57100
O  10.37500 57.87800 40.20200
C  8.40000 59.02900 40.73700
N  4.33100 55.29400 41.93100
C  4.84200 56.52700 42.00600
C  3.71500 57.59600 42.12600
C  2.47900 56.76200 42.62600
C  3.02300 55.30100 42.20400
C  4.03800 58.90000 42.97300
C  1.14700 56.95500 41.87800
C  -0.08000 57.41800 42.74500
N  3.70600 52.38000 41.88800
C  2.49000 52.82000 42.33400
C  1.67900 51.62900 42.63500
C  2.39900 50.54500 42.19900
C  3.62800 51.06700 41.80500
C  0.26300 51.82700 43.07600
C  2.39500 49.14800 41.99300
O  1.47600 48.36000 42.10200
C  3.91900 48.74000 41.57800
C  4.00700 47.90700 40.35600
O  3.71300 48.22200 39.25600
O  4.53100 46.70100 40.67700
C  4.63700 45.74600 39.57700
H  9.72000 52.32500 40.62900
H  6.37300 57.84200 41.54900
H  1.18300 54.39900 42.86600
H  7.01700 48.47500 41.09100
H  9.00000 50.25800 39.85600
H  8.88900 48.73700 42.24400
H  9.29500 50.28700 42.84100
H  10.28100 49.41400 41.60700
H  6.01500 48.37700 38.64700
H  7.73900 48.36400 38.64900
H  7.90800 50.65100 38.04600
H  6.05800 50.80000 38.15100
H  10.71300 55.11100 39.02600
H  11.15000 53.95400 40.32900
H  11.54800 55.56200 40.55500
H  8.96000 59.93300 40.49900
H  8.00700 59.06900 41.75300
H  7.56800 59.07400 40.03400
H  3.58400 57.84000 41.07200
H  2.33900 56.91500 43.69600
H  5.04600 58.82300 43.38100
H  3.35800 59.03700 43.81400
H  3.96000 59.75800 42.30600
H  0.81600 56.10800 41.27800
H  1.36700 57.84400 41.28600
H  0.09200 57.18500 43.79500
H  -0.92600 56.85500 42.35300
H  -0.14100 58.50600 42.76900
H  -0.29000 52.51400 42.43600
H  0.26100 52.28800 44.06400
H  -0.32500 50.92800 43.26100
H  4.33600 48.22600 42.44400
H  5.26800 44.93200 39.93300
H  4.97400 46.10700 38.60500
H  3.61900 45.38800 39.42400

