158

Mg 24.58800 -5.02500 45.80500
C  26.84500 -2.60800 44.45700
C  22.25700 -3.78100 43.64700
C  22.83000 -7.73300 46.32600
C  27.42900 -6.38600 47.49800
N  24.59600 -3.32400 44.15400
C  25.58600 -2.47700 43.87900
C  25.06100 -1.35900 42.96600
C  23.52300 -1.49900 43.23700
C  23.43500 -2.99100 43.63200
C  22.91800 -0.53300 44.25900
C  25.63800 -1.62500 41.55700
C  25.72300 -0.36500 40.57500
H  25.08000 -0.45800 39.27900
N  22.75400 -5.61000 45.26400
C  21.95300 -4.94200 44.38200
C  20.73200 -5.71000 44.20300
C  20.73000 -6.74000 45.11400
C  22.09900 -6.74900 45.70700
C  19.60500 -5.22800 43.29900
C  19.57200 -7.63900 45.40400
O  18.48500 -7.60200 44.87300
C  19.71200 -8.59200 46.66400
N  25.01400 -6.76800 46.90300
C  24.15400 -7.78700 46.84500
C  24.74000 -9.09800 47.42600
C  26.19800 -8.65500 47.75900
C  26.20400 -7.14500 47.44700
C  23.88500 -9.84100 48.43500
C  27.35200 -9.41000 47.06100
C  28.56700 -9.58500 47.93800
N  26.76900 -4.47000 46.11400
C  27.71600 -5.18000 46.84400
C  28.89500 -4.41800 46.84900
C  28.67600 -3.35900 45.93800
C  27.32800 -3.49400 45.45900
C  30.19300 -4.72800 47.52600
C  29.21000 -2.19800 45.30000
O  30.24200 -1.60700 45.54200
C  28.14200 -1.75200 44.20000
C  27.87300 -0.28200 44.51700
O  27.14400 0.05100 45.45600
O  28.42500 0.51300 43.56400
C  28.36300 1.99600 43.84600
H  21.44400 -3.30700 43.09300
H  22.33700 -8.67800 46.56000
H  28.30600 -6.91400 47.88000
H  25.49800 -0.40300 43.25700
H  22.93300 -1.46800 42.32100
H  22.86500 -0.96400 45.25900
H  21.88300 -0.31000 44.00000
H  23.60600 0.31300 44.27400
H  25.00200 -2.32200 41.01000
H  26.61900 -2.10000 41.55500
H  26.78600 -0.12300 40.55000
H  25.29400 0.49600 41.08800
H  19.38900 -5.78600 42.38800
H  19.56300 -4.14600 43.17500
H  18.65600 -5.38300 43.81200
H  20.22300 -8.15100 47.52000
H  20.16000 -9.51900 46.30500
H  18.75200 -9.02600 46.94000
H  24.84300 -9.80300 46.60000
H  26.25500 -8.79400 48.83800
H  23.13800 -9.10600 48.73400
H  24.42500 -10.09100 49.34800
H  23.43700 -10.73400 47.99700
H  27.73400 -8.89400 46.18000
H  26.98300 -10.38700 46.75100
H  28.54400 -9.21400 48.96300
H  29.44800 -9.09400 47.52700
H  28.86500 -10.62900 48.03900
H  30.66700 -5.53200 46.96300
H  29.84000 -5.18900 48.44900
H  30.79400 -3.84500 47.74000
H  28.59000 -1.84600 43.21100
H  28.41400 2.15500 44.92300
H  27.48600 2.50900 43.45000
H  29.14500 2.41700 43.21300
Mg -10.27800 17.63500 40.61300
C  -6.71400 17.21800 40.88000
C  -9.82600 20.93800 39.79300
C  -13.38400 17.72700 39.56200
C  -10.47600 14.08100 40.70300
N  -8.45600 18.83600 40.31300
C  -7.13800 18.49900 40.44100
C  -6.22400 19.59600 39.87500
C  -7.20000 20.81800 40.16300
C  -8.61700 20.16200 40.03800
C  -7.12000 21.40700 41.60800
C  -5.89000 19.36200 38.38600
C  -4.48700 18.85300 38.04000
H  -4.30200 17.45500 37.32000
N  -11.50000 19.13300 39.98500
C  -11.10900 20.45800 39.77400
C  -12.27800 21.27000 39.51500
C  -13.32700 20.30900 39.58300
C  -12.80000 18.98700 39.79000
C  -12.04900 22.77200 39.30100
C  -14.75100 20.74500 39.31700
O  -15.09000 21.88400 39.04800
C  -15.80200 19.84200 39.50500
N  -11.64800 16.06200 39.83900
C  -12.88000 16.43200 39.58900
C  -13.77200 15.18700 39.39800
C  -12.76400 14.01500 39.68800
C  -11.52500 14.75000 40.11200
C  -15.06700 15.11800 40.32900
C  -12.59400 13.14400 38.29900
C  -12.70600 11.61800 38.44900
N  -8.96200 15.99400 40.96300
C  -9.22600 14.61600 41.03500
C  -7.96400 13.93100 41.19300
C  -6.96700 14.89200 41.17200
C  -7.60700 16.20900 40.99300
C  -7.67100 12.43700 41.30400
C  -5.52400 15.07500 41.23600
O  -4.60000 14.20100 41.23400
C  -5.27400 16.61900 41.09500
C  -4.60000 17.03700 42.33500
O  -4.77200 16.63400 43.46000
O  -3.82600 18.18900 42.01400
C  -3.31300 19.02700 43.09000
H  -9.58400 21.98600 39.60300
H  -14.41900 17.74700 39.21600
H  -10.47600 12.99300 40.61400
H  -5.31600 19.63400 40.47800
H  -6.97000 21.62800 39.47000
H  -6.45100 22.25700 41.47700
H  -6.52200 20.77000 42.26000
H  -8.10100 21.55000 42.06300
H  -5.98100 20.31800 37.87100
H  -6.68600 18.74300 37.97200
H  -3.93000 18.82900 38.97700
H  -3.98200 19.64300 37.48500
H  -11.22300 22.91500 38.60300
H  -11.68400 23.11000 40.27100
H  -12.95700 23.28700 38.98600
H  -16.79700 20.27400 39.61400
H  -15.52000 19.35000 40.43600
H  -15.65200 19.21000 38.63000
H  -14.15400 15.16600 38.37800
H  -13.18000 13.40500 40.48900
H  -15.89800 14.86300 39.67200
H  -15.45100 16.07500 40.68100
H  -15.06400 14.35000 41.10300
H  -11.59100 13.37900 37.94300
H  -13.36300 13.41500 37.57600
H  -11.75600 11.14200 38.20700
H  -13.48900 11.25300 37.78500
H  -12.82900 11.32300 39.49100
H  -8.11300 11.82900 40.51400
H  -8.35400 12.08800 42.07800
H  -6.64200 12.21500 41.58500
H  -4.72400 16.94100 40.21000
H  -2.86000 19.90500 42.62900
H  -2.44800 18.51400 43.51200
H  -4.13900 19.32700 43.73500

