158

Mg 8.94500 3.73200 27.07100
C  10.25700 2.16500 29.92700
C  7.00500 5.74300 29.07900
C  7.67200 5.29600 24.30600
C  10.43000 1.40500 25.09400
N  8.55700 3.80500 29.24900
C  9.34300 3.20700 30.24400
C  9.04600 3.74700 31.66300
C  8.11100 4.86600 31.35500
C  7.98000 4.92100 29.78700
C  6.68800 4.87000 32.09800
C  10.31500 4.22500 32.45400
C  9.96800 4.72900 33.85300
H  11.05100 4.47400 34.91600
N  7.46700 5.18500 26.73300
C  6.86200 5.92300 27.68600
C  5.96700 6.94900 27.07900
C  6.24800 6.93100 25.74200
C  7.16100 5.80400 25.48900
C  5.13800 7.94500 27.82200
C  5.81900 7.85600 24.61800
O  6.27000 7.74400 23.46500
C  4.90100 9.08200 24.92100
N  8.97400 3.36900 24.91000
C  8.46400 4.16600 24.01700
C  8.86400 3.74200 22.53900
C  9.61400 2.35300 22.86300
C  9.68200 2.37700 24.37700
C  7.87700 3.65100 21.34400
C  10.95500 2.14100 22.11900
C  10.84300 1.38000 20.76100
N  10.12400 2.15800 27.36100
C  10.67300 1.27500 26.47300
C  11.49200 0.30700 27.15300
C  11.45900 0.69000 28.50300
C  10.53200 1.75800 28.61500
C  12.10700 -0.86000 26.50300
C  11.92400 0.37000 29.86100
O  12.71100 -0.49300 30.24000
C  11.19500 1.30700 30.84300
C  10.50400 0.57100 31.85700
O  9.51700 -0.15000 31.74300
O  11.15900 0.84300 33.05700
C  10.53000 0.22100 34.25000
H  6.43800 6.41000 29.73300
H  7.46300 5.85800 23.39300
H  10.70000 0.54100 24.48400
H  8.58600 3.00600 32.31700
H  8.55900 5.81500 31.65300
H  5.95800 4.50500 31.37600
H  6.54600 5.89100 32.45100
H  6.52300 4.17400 32.92100
H  10.78300 5.00800 31.85700
H  11.09500 3.47000 32.36100
H  9.03000 4.26600 34.16100
H  9.75700 5.78300 33.67300
H  5.69500 8.88200 27.79600
H  4.96900 7.85000 28.89500
H  4.26400 8.14000 27.20100
H  5.28300 9.82300 25.62400
H  3.89400 8.80100 25.22700
H  4.87900 9.63200 23.98100
H  9.60200 4.47700 22.21700
H  8.90100 1.54500 22.70000
H  7.88800 2.61100 21.01600
H  8.17800 4.38300 20.59400
H  6.85700 3.92300 21.61500
H  11.67900 1.71300 22.81300
H  11.32800 3.15000 21.94300
H  11.59800 0.62900 20.52900
H  10.91300 2.18200 20.02600
H  9.82500 1.00200 20.67300
H  12.39500 -0.72300 25.46100
H  11.39200 -1.67800 26.41100
H  12.96700 -1.20600 27.07600
H  11.96300 1.95300 31.26800
H  9.49000 0.53100 34.35000
H  10.89700 0.75400 35.12700
H  10.66600 -0.84600 34.42300
Mg 48.21100 45.53700 43.17100
C  44.78200 45.35800 41.94900
C  48.23900 42.11500 42.67900
C  51.44000 45.80800 43.52600
C  47.85100 49.02500 42.96000
N  46.67600 43.88800 42.22700
C  45.31700 44.07300 42.04500
C  44.53500 42.70800 41.79500
C  45.66000 41.74100 42.28400
C  46.92100 42.62200 42.44200
C  45.19000 41.07400 43.58700
C  44.11900 42.58400 40.29600
C  45.21200 42.64400 39.15900
H  45.01100 43.64900 38.03200
N  49.68900 44.13000 43.04600
C  49.48300 42.80400 42.93200
C  50.78900 42.19400 43.12600
C  51.73300 43.16800 43.41400
C  51.01000 44.43400 43.41700
C  51.04100 40.65200 43.01200
C  53.19900 42.94100 43.52800
O  53.65000 41.84400 43.32900
C  54.08500 44.03400 43.91800
N  49.46100 47.14900 43.23700
C  50.79900 47.01800 43.48600
C  51.48200 48.35700 43.27500
C  50.32200 49.38300 43.24200
C  49.12600 48.45400 43.11400
C  52.69500 48.73000 44.18200
C  50.41700 50.48400 42.11000
C  50.25200 51.92900 42.52400
N  46.60700 46.95800 42.78800
C  46.60400 48.36000 42.81700
C  45.25400 48.87800 42.47100
C  44.54600 47.69300 42.09500
C  45.44600 46.56000 42.24000
C  44.81300 50.28700 42.26600
C  43.27800 47.29900 41.54700
O  42.25700 47.86800 41.18400
C  43.36900 45.74600 41.39900
C  42.22700 45.11500 42.16600
O  41.35000 44.43300 41.66900
O  42.55200 45.15600 43.52500
C  41.56700 44.36200 44.35000
H  48.30900 41.03200 42.80200
H  52.51700 45.94900 43.41600
H  47.67000 50.09400 43.09600
H  43.63200 42.74200 42.40500
H  45.83900 40.89400 41.62100
H  44.17400 41.37900 43.83800
H  45.86000 41.24100 44.43000
H  45.11000 39.98900 43.51600
H  43.31300 43.28100 40.06700
H  43.67000 41.59500 40.20300
H  45.27600 41.62400 38.78100
H  46.20300 42.69700 39.61000
H  51.41900 40.20600 43.93200
H  51.76600 40.45800 42.22200
H  50.09900 40.15900 42.77200
H  55.08000 43.82600 44.31100
H  53.47300 44.52500 44.67500
H  54.19200 44.60700 42.99700
H  51.82200 48.28100 42.24200
H  50.30900 49.96400 44.16400
H  52.57900 49.68400 44.69800
H  53.57100 48.87000 43.54800
H  52.92100 48.01700 44.97500
H  49.62700 50.34200 41.37200
H  51.40600 50.43300 41.65400
H  49.77100 51.91600 43.50300
H  49.59600 52.36800 41.77200
H  51.19000 52.48300 42.55200
H  43.74800 50.32300 42.04000
H  45.51100 50.64900 41.51000
H  44.90700 50.81800 43.21300
H  43.14300 45.60400 40.34200
H  40.51100 44.42500 44.08600
H  41.71500 44.45400 45.42600
H  41.95700 43.35800 44.18800

