158

Mg 46.57300 44.65900 43.13200
C  43.10500 43.84300 43.22600
C  47.27100 41.32700 42.77300
C  49.72800 45.52300 42.63700
C  45.57000 48.00600 43.64500
N  45.26300 42.82900 42.91600
C  43.92200 42.72600 43.09200
C  43.47300 41.28800 42.85500
C  44.80200 40.50200 43.03000
C  45.89500 41.58100 42.97100
C  44.93600 39.65200 44.24900
C  42.72600 40.96500 41.50600
C  43.01500 41.89000 40.22500
H  42.99700 41.23300 38.89600
N  48.22500 43.60800 42.73000
C  48.35000 42.20900 42.67100
C  49.69100 41.80400 42.60900
C  50.48400 43.01000 42.48400
C  49.47800 44.14700 42.61200
C  50.18400 40.42100 42.40300
C  52.04700 43.04000 42.33500
O  52.65300 42.00000 42.31400
C  52.79100 44.35100 42.25900
N  47.51400 46.51600 43.12200
C  48.81900 46.64000 42.85500
C  49.23200 48.06300 42.88600
C  47.87800 48.90600 42.97400
C  46.94100 47.76400 43.27800
C  50.34500 48.44900 43.90500
C  47.53300 49.92400 41.83400
C  47.65400 51.37300 42.28400
N  44.76200 45.77100 43.45200
C  44.49200 47.10100 43.57400
C  43.10600 47.33000 43.53800
C  42.48900 46.09000 43.42300
C  43.53300 45.16800 43.40800
C  42.50700 48.70300 43.70800
C  41.26500 45.40500 43.27700
O  40.11900 45.84400 43.27500
C  41.65600 43.88100 43.21700
C  40.93400 42.97900 44.23000
O  40.43800 41.91100 44.01400
O  40.82200 43.62200 45.43500
C  39.85300 42.98700 46.37200
H  47.56400 40.27700 42.83900
H  50.74900 45.77500 42.34200
H  45.29300 49.06200 43.68000
H  42.82500 41.14400 43.71900
H  45.04500 39.90900 42.14800
H  45.24800 38.64100 43.98600
H  43.98400 39.57100 44.77300
H  45.57000 40.12300 45.00000
H  41.69800 41.17100 41.80500
H  43.01300 39.93600 41.28800
H  43.93400 42.45800 40.36200
H  42.17600 42.57700 40.10900
H  50.56500 40.12500 41.42600
H  49.29800 39.79000 42.47800
H  50.91000 40.06800 43.13500
H  52.70700 44.80300 43.24700
H  52.33300 45.04700 41.55600
H  53.85000 44.14600 42.10200
H  49.60800 48.22000 41.87500
H  47.87100 49.40600 43.94200
H  50.47900 47.59400 44.56700
H  50.15400 49.38200 44.43500
H  51.32900 48.43200 43.43700
H  46.55100 49.74200 41.39700
H  48.14500 49.78900 40.94300
H  47.74600 51.45100 43.36700
H  46.80700 51.94700 41.90900
H  48.48900 51.83600 41.75700
H  43.29100 49.40800 43.43200
H  42.12700 48.82400 44.72200
H  41.66200 48.77900 43.02300
H  41.28000 43.41700 42.30500
H  39.17700 43.65700 46.90400
H  40.38100 42.38300 47.11000
H  39.21000 42.25600 45.87900
Mg 25.63400 51.14500 26.52900
C  23.31100 52.16900 28.92000
C  27.79100 50.30000 29.16300
C  27.90400 50.28100 24.24300
C  23.69300 52.67700 24.05100
N  25.65100 51.35600 28.77100
C  24.50800 51.68100 29.53200
C  24.77400 51.51900 31.06000
C  26.33500 51.11100 31.11700
C  26.66300 50.88100 29.60700
C  27.18900 52.29300 31.84300
C  23.89700 50.29900 31.66300
C  23.33000 50.49000 32.99800
H  24.18200 51.44400 33.88100
N  27.45800 50.24700 26.64900
C  28.17300 49.92200 27.78000
C  29.30600 49.16500 27.38700
C  29.31100 49.13100 25.94900
C  28.21500 49.91400 25.55000
C  30.29900 48.54400 28.39800
C  30.39200 48.46700 25.07800
O  30.36100 48.59600 23.83600
C  31.44400 47.65100 25.73700
N  25.81800 51.55400 24.50500
C  26.81300 51.02800 23.74900
C  26.67400 51.26900 22.23400
C  25.26700 52.00400 22.20800
C  24.90600 52.14200 23.70100
C  27.72200 52.16400 21.52900
C  24.20600 51.08900 21.49500
C  23.90500 49.67100 22.12300
N  23.79400 52.23000 26.42300
C  23.11700 52.78900 25.35800
C  21.91800 53.36200 25.79900
C  21.94000 53.13200 27.18300
C  23.10100 52.47700 27.55300
C  20.88300 54.12600 24.96600
C  21.24600 53.43400 28.35800
O  20.17700 53.99200 28.50600
C  22.05300 52.79100 29.58800
C  22.40100 53.85400 30.61100
O  23.39700 54.63400 30.47100
O  21.55900 53.72700 31.67900
C  21.71600 54.68400 32.75000
H  28.38100 49.83800 29.95700
H  28.56200 50.17000 23.37900
H  22.89900 53.07800 23.41700
H  24.61000 52.49100 31.52600
H  26.45800 50.20400 31.70900
H  26.66700 52.67900 32.71900
H  27.47100 52.98800 31.05200
H  28.10300 51.78400 32.14800
H  24.41100 49.34400 31.55700
H  23.05700 50.22200 30.97300
H  23.40200 49.59500 33.61600
H  22.35500 50.97800 32.99000
H  30.57200 47.49500 28.27800
H  29.87500 48.65600 29.39600
H  31.24500 49.08400 28.44400
H  32.19700 48.15800 26.34100
H  31.90400 47.00200 24.99200
H  30.92600 46.82400 26.22100
H  26.55500 50.25800 21.84300
H  25.36200 53.00000 21.77500
H  27.35300 52.70500 20.65800
H  28.27900 51.31700 21.12700
H  28.37200 52.79700 22.13200
H  24.63300 50.77400 20.54300
H  23.19900 51.47300 21.33200
H  24.43200 49.53300 23.06700
H  24.29500 48.79100 21.61100
H  22.84500 49.60300 22.36800
H  19.87200 53.97000 25.34300
H  20.90500 53.78100 23.93300
H  21.28300 55.14000 24.99000
H  21.41600 52.07300 30.10500
H  22.12800 54.30800 33.68700
H  20.72400 55.03100 33.03800
H  22.31300 55.57100 32.53900

