158

Mg 24.84600 1.79200 30.20900
C  27.14100 1.43100 32.81000
C  22.43400 2.38500 32.38100
C  22.65800 1.67500 27.62000
C  27.34700 0.65300 28.01000
N  24.80500 1.90500 32.35200
C  25.86700 1.91500 33.25300
C  25.46900 2.38600 34.59100
C  23.90300 2.43000 34.52700
C  23.65300 2.19900 32.98000
C  23.25100 1.41900 35.48400
C  26.05900 3.71600 35.03200
C  27.30700 3.69200 35.92700
H  27.16100 4.28800 37.34000
N  22.81100 2.04300 30.07300
C  22.01700 2.32000 31.09800
C  20.64500 2.48200 30.64600
C  20.64700 2.09700 29.28200
C  22.11600 1.98900 28.87900
C  19.48500 2.82600 31.50300
C  19.45400 1.96800 28.31400
O  19.55800 1.70100 27.09600
C  18.06400 2.07700 28.78000
N  25.02300 1.26700 28.10000
C  23.93300 1.32500 27.26500
C  24.28600 0.85700 25.83900
C  25.76600 0.41600 26.01500
C  26.06500 0.77700 27.47800
C  23.33500 -0.18600 25.17500
C  26.68700 1.15900 25.02900
C  27.29300 2.48700 25.43900
N  26.90100 1.22300 30.30600
C  27.81200 0.70700 29.33600
C  29.13300 0.40000 29.91500
C  28.91700 0.73000 31.30500
C  27.52100 1.11300 31.51700
C  30.36400 -0.19800 29.27700
C  29.54500 0.87700 32.61900
O  30.72800 0.70900 32.94500
C  28.49900 1.11900 33.60700
C  28.46000 0.12800 34.73600
O  27.62800 -0.75400 34.83500
O  29.42300 0.39200 35.68300
C  29.27600 -0.34200 36.96800
H  21.66600 2.66600 33.10500
H  22.00000 1.82400 26.76200
H  28.17300 0.37100 27.35400
H  25.81800 1.55500 35.20500
H  23.54900 3.41100 34.84700
H  22.39300 0.96900 34.98400
H  22.88400 1.87300 36.40400
H  23.95900 0.64900 35.79000
H  25.31500 4.28100 35.59200
H  26.24700 4.29000 34.12500
H  28.12200 4.25200 35.46800
H  27.80500 2.72400 35.98900
H  19.71000 3.04100 32.54700
H  18.81300 1.97300 31.59800
H  19.01000 3.70400 31.06600
H  17.89700 1.23800 29.45600
H  17.37500 1.98300 27.94000
H  17.97000 3.04400 29.27400
H  24.26600 1.67300 25.11700
H  25.98500 -0.64200 25.87500
H  23.81700 -1.16200 25.22900
H  22.97300 -0.05800 24.15500
H  22.40600 -0.36000 25.71900
H  26.15000 1.18400 24.08100
H  27.53900 0.49500 24.88600
H  28.37500 2.39700 25.53500
H  26.83700 2.89000 26.34300
H  27.12900 3.25500 24.68200
H  31.05800 0.53000 28.85500
H  30.12700 -0.86300 28.44700
H  30.89100 -0.68100 30.09900
H  28.84400 2.07000 34.01300
H  30.16100 -0.17400 37.58200
H  28.93300 -1.37700 36.96500
H  28.50900 0.17100 37.54800
Mg 45.60600 4.31200 46.89700
C  43.71600 7.24200 46.54600
C  42.70100 2.50000 46.29600
C  47.46500 1.62000 46.50300
C  48.52300 6.37300 46.35800
N  43.42700 4.79700 46.67200
C  42.97500 6.09400 46.53800
C  41.42200 6.06600 46.34900
C  41.07200 4.56700 46.56800
C  42.47700 3.83600 46.62400
C  40.17100 4.35300 47.81400
C  40.90000 6.62600 44.96500
C  41.88300 6.61800 43.75500
H  41.13400 6.02500 42.56100
N  45.14400 2.29500 46.55300
C  43.91700 1.77700 46.23400
C  44.04200 0.36400 45.91300
C  45.44000 0.04800 45.98600
C  46.05900 1.36000 46.37900
C  42.88100 -0.56800 45.34300
C  46.03300 -1.29400 45.67500
O  45.37300 -2.30800 45.37000
C  47.57200 -1.46100 45.47200
N  47.66700 4.06300 46.38300
C  48.17600 2.83000 46.50100
C  49.74100 2.84600 46.32700
C  50.06300 4.35800 46.31200
C  48.70400 4.98500 46.42800
C  50.67900 1.95900 47.25400
C  50.93500 4.92900 45.17200
C  52.21400 5.71000 45.47900
N  46.07300 6.34400 46.66500
C  47.27400 6.98600 46.45300
C  47.00200 8.45400 46.45100
C  45.61000 8.63700 46.60100
C  45.10400 7.27700 46.62000
C  48.06600 9.54900 46.22900
C  44.48400 9.53900 46.63400
O  44.37500 10.77000 46.68700
C  43.23400 8.69800 46.58300
C  42.36200 8.99400 47.77300
O  42.13600 8.29300 48.81200
O  41.71100 10.21600 47.64500
C  40.78100 10.63700 48.69600
H  41.75300 2.01400 46.05700
H  48.13700 0.77900 46.32100
H  49.43000 6.98200 46.37000
H  41.11800 6.66900 47.20500
H  40.56300 4.26700 45.65200
H  39.63600 5.23300 48.17100
H  40.86700 4.10900 48.61600
H  39.40600 3.60800 47.59200
H  40.76800 7.70000 45.09800
H  39.96200 6.24000 44.56700
H  42.61800 5.84300 43.97100
H  42.37500 7.54100 43.44500
H  43.03700 -0.77700 44.28400
H  41.84500 -0.23600 45.40200
H  42.83800 -1.49900 45.90800
H  47.83700 -2.48000 45.19300
H  48.11600 -1.45700 46.41700
H  47.99300 -0.69700 44.81800
H  50.00600 2.41300 45.36200
H  50.65200 4.58800 47.20000
H  51.31400 1.24500 46.73000
H  50.02500 1.44700 47.95900
H  51.20100 2.63000 47.93600
H  50.37800 5.66400 44.59000
H  51.20700 4.12200 44.49200
H  53.10600 5.13500 45.22900
H  52.16200 5.99600 46.53000
H  52.14700 6.60500 44.86200
H  48.59500 9.69300 47.17100
H  47.63900 10.51300 45.95100
H  48.82900 9.26400 45.50500
H  42.77900 8.95600 45.62700
H  40.67100 11.72200 48.70300
H  41.02600 10.57400 49.75700
H  39.87400 10.11500 48.39200

