158

Mg 47.45500 16.84900 28.75900
C  45.32800 16.69400 31.63600
C  49.70700 18.54500 30.43300
C  48.78900 17.66300 25.84500
C  44.65200 15.60700 26.89100
N  47.64300 17.38800 30.86900
C  46.66900 17.34600 31.83000
C  47.13800 17.83400 33.19700
C  48.47500 18.49600 32.77000
C  48.72100 18.07400 31.31500
C  48.39900 20.07900 32.89200
C  47.25200 16.58000 34.12600
C  46.70200 16.70500 35.56500
H  46.38400 18.12400 36.02900
N  49.13700 17.80600 28.26000
C  50.00700 18.37300 29.06600
C  51.20100 18.86800 28.42300
C  50.84000 18.66300 27.02700
C  49.57500 17.98300 27.00300
C  52.43700 19.55400 29.00500
C  51.68500 19.07100 25.81700
O  51.43700 18.58900 24.68100
C  52.91900 19.83200 25.93400
N  46.79800 16.66500 26.57200
C  47.63500 17.01600 25.61800
C  47.03900 16.76900 24.24900
C  45.85700 15.79400 24.61900
C  45.71800 16.02700 26.12900
C  46.39300 17.95600 23.54000
C  46.21200 14.32200 24.26900
C  45.34400 13.75000 23.16900
N  45.43700 16.17500 29.13400
C  44.50800 15.64800 28.28900
C  43.27000 15.33300 29.01400
C  43.59100 15.76700 30.36600
C  44.94500 16.18900 30.37700
C  41.94900 14.82300 28.39000
C  43.14700 15.87300 31.70800
O  42.02700 15.54000 32.18700
C  44.20900 16.47300 32.64100
C  43.62100 17.71200 33.23400
O  43.79800 18.82600 32.72800
O  42.83700 17.42600 34.33700
C  41.94500 18.48400 34.72400
H  50.41100 19.10200 31.05500
H  49.33400 17.88900 24.92600
H  43.97100 15.06000 26.23600
H  46.56500 18.71300 33.49200
H  49.27200 18.20500 33.45300
H  49.08600 20.37800 33.68300
H  47.41700 20.41000 33.22800
H  48.66500 20.50000 31.92200
H  48.29000 16.25100 34.17700
H  46.69500 15.71300 33.77200
H  47.48400 16.30600 36.21100
H  45.69700 16.28900 35.63900
H  53.33000 19.01600 28.68800
H  52.42700 19.47600 30.09200
H  52.48600 20.60200 28.70900
H  53.56300 19.20400 26.54900
H  52.76900 20.80900 26.39400
H  53.36700 20.11200 24.98100
H  47.80900 16.27100 23.66000
H  44.85800 15.96700 24.22100
H  45.46300 17.73100 23.01800
H  47.12000 18.27800 22.79600
H  46.21900 18.72200 24.29600
H  45.96000 13.72300 25.14400
H  47.27900 14.21900 24.06700
H  44.65800 14.45100 22.69300
H  44.78600 12.88800 23.53400
H  46.00100 13.42000 22.36500
H  41.57300 13.96200 28.94200
H  42.19800 14.54500 27.36600
H  41.14400 15.55000 28.50100
H  44.40400 15.70200 33.38500
H  41.60400 19.13200 33.91700
H  42.39900 18.97600 35.58500
H  41.04700 18.07700 35.18900
Mg 37.13600 49.70500 24.76100
C  37.28100 47.86600 27.85800
C  35.68600 52.22900 26.44400
C  36.26000 51.25200 21.69000
C  38.10500 46.97600 23.03200
N  36.46700 49.88300 26.92700
C  36.67500 49.11900 28.04500
C  36.15700 49.69100 29.28600
C  35.63000 51.07400 28.76300
C  35.90200 51.06200 27.22000
C  34.15600 51.42700 28.95700
C  37.27500 49.85600 30.40200
C  36.94500 49.42200 31.84500
H  35.42300 49.32300 32.22100
N  36.25400 51.60300 24.18500
C  35.77700 52.52200 25.06600
C  35.24600 53.69700 24.29500
C  35.33300 53.35900 22.96000
C  35.95700 51.96500 22.85800
C  34.69400 54.95500 24.98200
C  34.95200 54.24000 21.77300
O  35.18300 53.83600 20.66300
C  34.39500 55.57500 21.91700
N  37.29100 49.32000 22.76500
C  36.83900 50.02300 21.67500
C  37.08900 49.29400 20.41700
C  38.00000 48.10800 20.83200
C  37.77800 48.12700 22.33000
C  35.68500 48.82100 19.84800
C  39.52800 48.30400 20.59400
C  40.37300 47.09000 20.13600
N  37.61300 47.84500 25.23000
C  37.96300 46.80000 24.43400
C  38.52400 45.65000 25.29100
C  38.27200 46.06100 26.62100
C  37.72000 47.40500 26.54600
C  39.19900 44.45000 24.75300
C  38.36200 45.56500 28.04900
O  38.84400 44.63100 28.62000
C  37.65600 46.78100 28.82900
C  36.49700 46.33100 29.72100
O  35.28300 46.30800 29.41000
O  36.97300 45.85700 30.97500
C  36.03100 45.11700 31.77100
H  35.32500 53.12100 26.96100
H  35.94300 51.63500 20.71800
H  38.44700 46.13600 22.42300
H  35.32200 49.18100 29.76600
H  36.27200 51.90200 29.06400
H  33.50500 50.57000 29.13200
H  33.73000 52.03900 28.16200
H  34.05000 51.87000 29.94700
H  37.48900 50.91800 30.51800
H  38.23400 49.42400 30.11600
H  37.51100 49.97700 32.59300
H  37.34700 48.43400 32.06700
H  35.29300 55.82000 24.69800
H  34.76300 54.92100 26.06900
H  33.63200 55.12200 24.79900
H  33.61500 55.64100 22.67600
H  33.86700 55.73900 20.97800
H  35.14200 56.35200 22.08000
H  37.61000 49.87800 19.65900
H  37.61700 47.19300 20.38000
H  35.54800 49.33200 18.89500
H  34.84400 49.07600 20.49200
H  35.72300 47.73500 19.76300
H  40.02000 48.87300 21.38300
H  39.59100 48.96000 19.72500
H  41.07800 46.62600 20.82500
H  40.98900 47.35600 19.27700
H  39.63800 46.40700 19.70900
H  39.99400 44.60400 24.02300
H  38.51500 43.69700 24.36200
H  39.69600 43.99000 25.60800
H  38.41500 47.05800 29.56000
H  35.69700 45.79800 32.55400
H  36.44900 44.21500 32.21900
H  35.11800 44.84600 31.24100

