158

Mg 45.35900 5.51300 48.42700
C  43.03500 8.18000 47.44200
C  42.75900 3.33300 48.13300
C  47.63400 3.08500 48.58600
C  47.80400 7.97700 48.35200
N  43.21900 5.64700 47.69400
C  42.49100 6.86500 47.43300
C  41.05700 6.47300 47.08800
C  40.86700 5.11800 47.72400
C  42.33000 4.68000 48.04600
C  39.90500 4.95700 48.96200
C  40.79400 6.58100 45.51400
C  39.69900 7.57200 45.19000
H  38.77100 7.19000 43.98500
N  45.23700 3.54000 48.34300
C  44.06000 2.72300 48.29000
C  44.37500 1.31900 48.44500
C  45.81000 1.27000 48.60700
C  46.30800 2.65300 48.58900
C  43.34100 0.29300 48.26900
C  46.57100 0.02200 48.79400
O  45.95000 -1.02100 48.92800
C  48.04800 -0.05400 48.87300
N  47.43000 5.56200 48.31200
C  48.20000 4.40800 48.40700
C  49.73400 4.84800 48.56500
C  49.70300 6.42800 48.52000
C  48.24100 6.67400 48.43400
C  50.53300 4.20900 49.75300
C  50.52900 7.12300 47.39100
C  52.00500 7.39500 47.66000
N  45.35700 7.68100 48.15500
C  46.49900 8.51600 48.16600
C  46.22600 9.90700 47.77700
C  44.82400 9.84100 47.55500
C  44.37100 8.47400 47.75200
C  47.17100 11.08000 47.70500
C  43.63000 10.50900 47.22000
O  43.53900 11.67800 46.95200
C  42.39000 9.52700 47.16000
C  41.44400 9.89000 48.21500
O  41.63800 9.79500 49.44600
O  40.27700 10.27200 47.64400
C  39.21900 10.63400 48.59500
H  41.89600 2.66600 48.17500
H  48.40300 2.32000 48.70500
H  48.52200 8.79600 48.26600
H  40.53400 7.20900 47.69800
H  40.48900 4.63000 46.82600
H  39.58100 5.92100 49.35500
H  40.46500 4.41000 49.72100
H  38.97100 4.52900 48.59900
H  40.58300 5.69000 44.92300
H  41.67200 6.99600 45.02000
H  40.18900 8.50000 44.89800
H  39.08300 7.71200 46.07800
H  42.42200 0.57800 47.75800
H  43.08800 -0.13400 49.24000
H  43.76400 -0.52600 47.68700
H  48.27000 -1.10700 49.05000
H  48.27100 0.53400 49.76200
H  48.49900 0.20000 47.91300
H  50.23800 4.47100 47.67500
H  49.97100 6.84700 49.48900
H  50.94200 5.10100 50.22700
H  51.34500 3.60400 49.34900
H  50.07500 3.47600 50.41700
H  50.00100 8.00800 47.03500
H  50.52600 6.43900 46.54300
H  52.66200 6.83300 46.99600
H  52.33900 7.15400 48.66900
H  52.20200 8.46300 47.57200
H  46.77700 11.99900 47.27100
H  48.09000 10.89200 47.15100
H  47.35800 11.25800 48.76400
H  41.95400 9.51400 46.16100
H  38.65100 11.49700 48.24700
H  39.43800 10.70000 49.66100
H  38.45400 9.86200 48.50800
Mg 9.98300 47.44800 25.33400
C  7.73100 47.82900 27.94600
C  12.25800 49.07800 27.17400
C  11.89200 47.36400 22.72600
C  7.11700 46.69400 23.26100
N  10.01300 48.18400 27.32900
C  9.00800 48.14700 28.30700
C  9.48500 48.56900 29.64400
C  10.78700 49.36900 29.30000
C  11.02100 48.82500 27.87600
C  10.78200 50.89600 29.53100
C  9.76900 47.31500 30.62300
C  9.89500 47.70200 32.09000
H  9.71300 46.58000 33.06800
N  11.90000 48.03400 24.95000
C  12.64200 48.73000 25.81900
C  14.01500 48.93600 25.22400
C  13.97900 48.39000 23.91900
C  12.56800 47.90500 23.82400
C  15.17200 49.50800 25.98300
C  15.01500 48.35000 22.83800
O  14.80700 47.90500 21.66800
C  16.37000 48.74900 23.23300
N  9.50000 47.16000 23.31800
C  10.56000 46.96900 22.42600
C  10.09600 46.27600 21.07600
C  8.57700 45.95000 21.37700
C  8.36500 46.61500 22.73100
C  10.27700 47.14700 19.77300
C  8.31500 44.42800 21.40900
C  8.83500 43.53800 22.52300
N  7.89700 47.23100 25.52300
C  6.84900 46.90900 24.66800
C  5.56700 46.97800 25.25900
C  5.90300 47.30300 26.56300
C  7.27500 47.43900 26.69200
C  4.12800 46.85400 24.61900
C  5.25900 47.48600 27.82300
O  4.08100 47.16800 28.09900
C  6.44300 47.77300 28.82000
C  6.34800 46.73200 29.92500
O  6.50600 45.49500 29.74400
O  6.16400 47.41000 31.13700
C  6.05300 46.58200 32.28800
H  12.98000 49.59200 27.81200
H  12.45100 47.26600 21.79300
H  6.36000 46.32600 22.56500
H  8.75900 49.18100 30.18000
H  11.59400 49.01800 29.94300
H  11.58800 51.18800 30.20300
H  9.80700 51.25000 29.86700
H  11.02200 51.47300 28.63800
H  10.71000 46.91300 30.24700
H  9.10500 46.46900 30.44800
H  9.15700 48.48300 32.27400
H  10.86900 48.12000 32.34500
H  14.91000 49.48100 27.04000
H  15.47200 50.51500 25.69200
H  16.09600 48.93000 25.99800
H  16.97400 48.69200 22.32700
H  16.82600 48.04200 23.92500
H  16.20600 49.77200 23.57200
H  10.66300 45.37500 20.84000
H  7.98400 46.31200 20.53700
H  11.09600 46.73500 19.18300
H  10.53900 48.15000 20.10900
H  9.43200 47.20500 19.08700
H  8.71700 44.00900 20.48700
H  7.24200 44.27600 21.29200
H  9.53500 42.81600 22.10100
H  8.02600 42.86300 22.80100
H  9.20900 44.20400 23.30000
H  3.90500 45.97700 24.01200
H  4.14500 47.70200 23.93500
H  3.40700 47.09300 25.40100
H  6.21800 48.71300 29.32400
H  5.29800 45.83100 32.05600
H  5.86800 47.11300 33.22200
H  7.06600 46.18500 32.35000

