158

Mg 26.87900 49.87100 25.79600
C  25.00200 50.76000 28.62100
C  29.27500 48.69800 28.06000
C  29.10700 49.43800 23.24600
C  24.67600 51.48300 23.76600
N  27.09300 49.77100 28.03900
C  26.09600 50.08700 28.92600
C  26.53300 49.78700 30.38400
C  27.97800 49.39700 30.24000
C  28.11200 49.25600 28.76900
C  29.06400 50.43100 30.77700
C  25.65400 48.70200 31.15900
C  25.26600 49.00200 32.67500
H  26.33500 49.40000 33.76100
N  28.96600 49.03600 25.61600
C  29.62900 48.55500 26.67400
C  30.87600 48.01100 26.18700
C  30.88100 48.27900 24.78900
C  29.60400 48.95700 24.47000
C  31.90400 47.41500 27.03400
C  31.88300 47.81700 23.74700
O  31.81400 48.07600 22.55200
C  33.14300 47.05500 24.23600
N  27.02900 50.52200 23.82400
C  28.00400 50.22900 22.91400
C  27.55800 50.56800 21.47800
C  26.09700 51.21800 21.69400
C  25.88600 51.07000 23.17500
C  28.43900 51.58000 20.75200
C  25.09700 50.37400 20.90200
C  24.84300 48.93300 21.26300
N  25.17500 50.92600 26.02800
C  24.37000 51.60000 25.13200
C  23.23600 52.17300 25.81800
C  23.40300 51.80700 27.15800
C  24.62500 51.05800 27.24200
C  22.06300 52.92000 25.28600
C  22.78700 51.96800 28.44700
O  21.76400 52.60400 28.73900
C  23.84900 51.28200 29.48800
C  24.31500 52.26200 30.45500
O  25.14200 53.14900 30.26200
O  23.64400 51.98600 31.67300
C  23.92600 52.99900 32.71400
H  29.98800 48.22800 28.74000
H  29.79500 49.17200 22.44100
H  24.00700 52.07200 23.13500
H  26.42600 50.70800 30.95800
H  28.17500 48.36700 30.53500
H  29.75200 50.77700 30.00600
H  29.65300 49.81400 31.45500
H  28.80900 51.27400 31.42100
H  26.20200 47.76200 31.10700
H  24.74700 48.61300 30.56200
H  24.73900 48.10600 33.00400
H  24.56100 49.83300 32.66400
H  31.58400 47.18800 28.05100
H  32.70200 48.15600 27.06500
H  32.20900 46.47400 26.57600
H  33.80100 47.11100 23.36900
H  32.85000 46.05500 24.55400
H  33.72400 47.50800 25.03900
H  27.59000 49.63800 20.91000
H  26.11500 52.28800 21.48400
H  27.98600 52.57000 20.69500
H  28.73700 51.21200 19.77000
H  29.36200 51.73000 21.31200
H  25.49300 50.50500 19.89500
H  24.16300 50.93100 20.82400
H  25.13400 48.75000 22.29800
H  25.25400 48.28400 20.49000
H  23.76200 48.82400 21.18000
H  21.12600 52.92000 25.84400
H  21.81200 52.69500 24.25000
H  22.37500 53.95700 25.41500
H  23.52300 50.42300 30.07400
H  24.49800 53.85600 32.35800
H  24.45200 52.56700 33.56600
H  23.00400 53.40400 33.13100
Mg -2.11300 34.51100 27.41100
C  -3.78600 32.50600 29.66000
C  -0.56600 36.07600 30.00900
C  -0.75300 36.46200 25.05800
C  -4.11300 32.98100 24.82100
N  -2.43400 34.53200 29.64700
C  -2.92200 33.39800 30.27000
C  -2.48500 33.40800 31.83600
C  -1.59400 34.69700 31.91000
C  -1.50200 35.08900 30.43900
C  -2.13600 35.89000 32.77300
C  -1.81500 32.04300 32.28500
C  -2.49800 31.44400 33.55300
H  -1.72100 31.43000 34.85200
N  -0.89900 36.14600 27.48900
C  -0.31900 36.53500 28.66600
C  0.72400 37.53700 28.24700
C  0.64500 37.77900 26.81400
C  -0.39500 36.77500 26.39600
C  1.54400 38.27600 29.27800
C  1.43500 38.68000 25.90500
O  1.16100 38.78300 24.70700
C  2.63100 39.42300 26.50700
N  -2.31100 34.58400 25.19800
C  -1.60600 35.51300 24.46800
C  -1.95100 35.51500 23.02600
C  -3.08500 34.33000 22.92200
C  -3.26500 33.98100 24.41200
C  -2.57400 36.85300 22.48300
C  -2.68400 33.06100 22.03300
C  -2.59700 33.25300 20.49400
N  -3.65600 33.09200 27.18700
C  -4.27500 32.56600 26.13100
C  -5.15300 31.53100 26.53300
C  -4.95100 31.34200 27.89300
C  -3.99500 32.35500 28.29800
C  -6.02600 30.79900 25.56700
C  -5.29500 30.62300 29.05600
O  -6.01800 29.63400 29.26900
C  -4.56400 31.32800 30.20600
C  -5.60900 31.76600 31.17400
O  -6.41800 32.68200 30.97500
O  -5.67600 30.97300 32.26400
C  -6.63900 31.26800 33.30300
H  0.17000 36.41500 30.74100
H  -0.26100 36.93200 24.20300
H  -4.68200 32.53900 24.00100
H  -3.37000 33.66500 32.41900
H  -0.58700 34.37800 32.17900
H  -1.26000 36.29300 33.28200
H  -2.67300 35.50200 33.63800
H  -2.71400 36.67700 32.28900
H  -0.77700 32.25200 32.54700
H  -1.67600 31.32900 31.47300
H  -2.46100 30.42000 33.18300
H  -3.49700 31.87300 33.63100
H  2.58900 38.21700 28.97500
H  1.52100 37.99300 30.33000
H  1.19900 39.31000 29.28000
H  3.47200 38.76500 26.72600
H  2.47900 40.11000 27.34000
H  2.95800 40.10600 25.72300
H  -1.09700 35.19800 22.42900
H  -4.06900 34.65500 22.58400
H  -3.49500 36.66000 21.93200
H  -1.80300 37.26100 21.82900
H  -2.83500 37.55200 23.27800
H  -3.45000 32.29000 22.11500
H  -1.76200 32.71800 22.50200
H  -3.02200 32.42800 19.92300
H  -1.54700 33.32500 20.21000
H  -2.95700 34.24800 20.23000
H  -6.74300 30.16700 26.09100
H  -5.44400 30.21700 24.85200
H  -6.58600 31.46600 24.91100
H  -3.95800 30.70300 30.86200
H  -7.25600 32.14700 33.11500
H  -6.00600 31.50500 34.15800
H  -7.33000 30.42500 33.32600

