158

Mg 7.56900 2.50500 27.73200
C  9.18000 0.90800 30.58000
C  5.55700 4.09000 29.88400
C  5.90500 3.55400 25.09400
C  9.43000 0.21700 25.72800
N  7.37700 2.43200 29.92100
C  8.15100 1.81400 30.89400
C  7.95200 2.53100 32.17500
C  6.63500 3.38100 32.01100
C  6.50300 3.29400 30.53000
C  5.39800 2.89400 32.82900
C  9.17200 3.38100 32.65500
C  9.02600 3.52000 34.19100
H  10.23200 3.04300 35.03800
N  6.05600 3.81600 27.51300
C  5.33400 4.30800 28.53600
C  4.28500 5.05000 27.98900
C  4.45300 5.13800 26.59800
C  5.49300 4.15000 26.32200
C  3.20700 5.73700 28.73900
C  3.71100 5.92100 25.53900
O  4.02100 5.92700 24.38600
C  2.49300 6.81600 25.84800
N  7.66300 1.87900 25.70700
C  6.91000 2.56700 24.82500
C  7.06900 1.90500 23.41500
C  8.28700 0.95700 23.58300
C  8.53400 0.99500 25.09000
C  5.82100 1.24800 22.89700
C  9.56300 1.29700 22.77100
C  9.87200 0.45000 21.54700
N  8.86600 0.80100 28.06200
C  9.53400 0.02600 27.08700
C  10.48200 -0.86600 27.72300
C  10.40500 -0.56300 29.10700
C  9.33600 0.40600 29.27500
C  11.39500 -1.81300 27.05300
C  10.95600 -0.87000 30.49000
O  11.84200 -1.57800 30.91800
C  10.15600 0.10500 31.48300
C  9.46900 -0.68200 32.61200
O  8.39000 -1.27000 32.49000
O  10.21300 -0.70200 33.75400
C  9.49500 -1.17000 34.95400
H  5.09500 4.74300 30.62800
H  5.27400 3.86300 24.25800
H  10.03600 -0.41500 25.07500
H  7.70100 1.78800 32.93200
H  6.79400 4.40400 32.35300
H  5.55200 1.93300 33.32000
H  4.54100 2.82600 32.15900
H  5.24300 3.74500 33.49200
H  9.21100 4.37500 32.20900
H  10.10700 2.90200 32.36500
H  8.14300 2.98400 34.54000
H  8.85100 4.56100 34.46000
H  3.23100 5.49800 29.80200
H  2.21800 5.43900 28.39100
H  3.26900 6.81900 28.62100
H  1.66800 6.20700 26.21600
H  2.21500 7.35700 24.94400
H  2.70600 7.56100 26.61500
H  7.34200 2.69000 22.70900
H  8.03700 -0.06100 23.28500
H  5.04600 1.27900 23.66300
H  6.13400 0.24200 22.61900
H  5.51000 1.79800 22.00800
H  10.42200 1.19600 23.43400
H  9.41400 2.29300 22.35600
H  10.23000 -0.49300 21.96100
H  10.60800 1.01900 20.98000
H  9.00600 0.22000 20.92600
H  10.98100 -2.78400 26.78200
H  12.16300 -2.04500 27.79100
H  11.84900 -1.26700 26.22600
H  10.84400 0.75200 32.02700
H  8.85200 -2.03100 34.77500
H  8.92600 -0.33500 35.36200
H  10.33300 -1.53900 35.54600
Mg 6.46000 53.96900 40.73500
C  5.42000 50.55600 40.45800
C  9.58100 53.02200 39.75100
C  7.01100 57.18900 40.27000
C  3.03600 54.66000 41.77900
N  7.20200 52.10300 39.85900
C  6.67500 50.82100 39.85400
C  7.64900 49.80400 39.15000
C  9.00100 50.52600 39.47600
C  8.60300 52.01200 39.66500
C  9.70800 49.90500 40.75600
C  7.22900 49.66800 37.65400
C  7.59500 48.26800 36.93500
H  6.73200 47.84900 35.80200
N  8.15900 54.96700 40.12100
C  9.33300 54.39200 39.81100
C  10.23800 55.43200 39.55000
C  9.60400 56.69000 39.71300
C  8.14400 56.34300 40.01800
C  11.72700 55.20500 39.15600
C  10.22400 58.01200 39.51100
O  11.42600 58.13000 39.20600
C  9.43100 59.30000 39.50800
N  5.17800 55.60800 40.81900
C  5.68100 56.89200 40.65300
C  4.52900 57.94000 40.92700
C  3.38800 57.08700 41.57500
C  3.96000 55.68800 41.47200
C  4.94100 59.18600 41.79300
C  1.95500 57.15100 40.90500
C  1.40900 58.60300 40.59500
N  4.60400 52.86300 41.17500
C  3.41400 53.27900 41.68400
C  2.51800 52.14300 41.98700
C  3.31500 51.06300 41.56200
C  4.51000 51.53600 41.05300
C  1.17400 52.11600 42.55700
C  3.41600 49.60600 41.36600
O  2.61500 48.70100 41.65300
C  4.85200 49.19800 40.77100
C  4.69900 48.29000 39.57300
O  4.21400 48.52600 38.49700
O  5.05100 47.01100 39.94900
C  5.02900 45.92600 38.97000
H  10.58300 52.66600 39.49800
H  7.13000 58.27400 40.30300
H  2.06300 54.95200 42.18000
H  7.57800 48.83200 39.63800
H  9.66500 50.31300 38.63800
H  9.13700 49.13600 41.27800
H  9.92300 50.71300 41.45600
H  10.61500 49.40600 40.41700
H  7.82200 50.45300 37.18500
H  6.21600 50.00500 37.43100
H  7.60200 47.52900 37.73700
H  8.61200 48.49100 36.61300
H  11.90100 54.13300 39.06500
H  12.40900 55.62400 39.89600
H  11.96200 55.63500 38.18300
H  10.04500 60.19200 39.37500
H  8.97800 59.20500 40.49400
H  8.81100 59.29100 38.61200
H  4.17100 58.25300 39.94600
H  3.18900 57.25500 42.63300
H  4.06200 59.64200 42.24800
H  5.40700 59.88300 41.09600
H  5.73300 58.96000 42.50700
H  1.28900 56.65100 41.60800
H  2.02900 56.63800 39.94600
H  2.05600 59.34400 41.06500
H  0.36500 58.72900 40.88000
H  1.44300 58.61100 39.50500
H  0.64000 53.06600 42.54600
H  1.16900 51.74300 43.58100
H  0.64500 51.31000 42.04700
H  5.47200 48.68100 41.50400
H  4.20800 45.99600 38.25600
H  5.06700 44.96000 39.47300
H  5.88000 46.09400 38.31100

