158

Mg 26.05600 -0.25400 29.56600
C  28.19500 -0.52700 32.37400
C  23.53100 0.32300 31.70400
C  24.15100 -0.11200 26.89300
C  28.72000 -1.52100 27.62300
N  25.90900 -0.16600 31.77500
C  26.91200 -0.11600 32.68800
C  26.43900 0.33800 34.08100
C  24.90200 0.41200 33.91500
C  24.76200 0.21900 32.37000
C  24.05800 -0.65200 34.71800
C  27.14300 1.67800 34.45300
C  28.07300 1.56300 35.71600
H  27.88900 2.57900 36.87400
N  24.08900 0.11100 29.33300
C  23.16100 0.32900 30.31400
C  21.88500 0.57300 29.74700
C  21.97600 0.40000 28.36300
C  23.43600 0.10000 28.09200
C  20.69800 1.02800 30.62100
C  20.89300 0.44100 27.25600
O  21.17800 0.12500 26.08900
C  19.59900 1.09400 27.54000
N  26.41300 -0.66000 27.51500
C  25.46800 -0.45800 26.63100
C  26.00500 -0.69500 25.12300
C  27.44200 -1.12100 25.41400
C  27.59500 -1.11600 26.90500
C  25.13400 -1.69400 24.19600
C  28.52400 -0.26000 24.66200
C  28.56500 1.26800 24.86900
N  28.04100 -0.84500 29.89000
C  28.98100 -1.33500 29.01200
C  30.28600 -1.49500 29.69700
C  30.00400 -1.12700 31.03300
C  28.63900 -0.82900 31.07300
C  31.52300 -1.94700 29.10700
C  30.58200 -0.96400 32.35600
O  31.65400 -1.25400 32.82100
C  29.47000 -0.57600 33.24900
C  29.41200 -1.58100 34.31900
O  28.88000 -2.67300 34.25700
O  30.09800 -1.17100 35.43200
C  30.23600 -2.01800 36.64500
H  22.74200 0.58100 32.41400
H  23.47800 -0.00600 26.04000
H  29.63800 -1.71700 27.06600
H  26.76800 -0.40400 34.80800
H  24.55100 1.34800 34.35000
H  24.64700 -1.05700 35.54100
H  23.70900 -1.48800 34.11200
H  23.13000 -0.22300 35.09600
H  26.42700 2.48200 34.62500
H  27.75900 2.03200 33.62700
H  29.10200 1.70900 35.39000
H  28.07400 0.50900 35.99100
H  20.45200 2.07000 30.42000
H  20.88300 1.07700 31.69400
H  19.86700 0.35800 30.39500
H  19.55200 2.10200 27.95200
H  19.01300 0.45000 28.19600
H  19.05000 1.17500 26.60200
H  25.98900 0.25200 24.58200
H  27.60900 -2.15100 25.09800
H  24.21100 -1.84900 24.75500
H  25.58000 -2.67300 24.02500
H  24.80200 -1.22500 23.26900
H  28.22300 -0.26000 23.61400
H  29.48700 -0.72200 24.88000
H  27.87000 1.63400 25.62500
H  28.15000 1.75400 23.98600
H  29.61200 1.56100 24.94400
H  32.33200 -1.64400 29.77100
H  31.55400 -1.60200 28.07300
H  31.56500 -3.03600 29.14900
H  29.85100 0.40700 33.52500
H  29.64900 -1.53800 37.42700
H  31.25400 -2.08700 37.02900
H  29.95000 -3.05000 36.44400
Mg 47.00000 34.15200 27.51800
C  45.48700 32.41600 30.02400
C  47.39700 36.91500 29.74200
C  48.01300 35.93300 24.99800
C  46.48200 31.46500 25.33700
N  46.53900 34.58900 29.64000
C  46.00900 33.66100 30.50500
C  46.11100 34.23700 31.96900
C  46.35700 35.79900 31.70300
C  46.79500 35.77700 30.22100
C  45.21000 36.70500 32.00400
C  47.26700 33.58100 32.69800
C  47.37500 33.76300 34.29900
H  46.38600 34.80600 34.92300
N  47.60400 36.16800 27.44700
C  47.71100 37.12100 28.41400
C  48.26200 38.29900 27.79000
C  48.41400 38.08800 26.39500
C  48.01200 36.70300 26.23900
C  48.61200 39.46100 28.60900
C  48.93800 39.07200 25.35700
O  48.98100 38.81200 24.14200
C  49.25300 40.54300 25.73800
N  47.19900 33.65500 25.45600
C  47.61700 34.65800 24.67600
C  47.89900 34.15900 23.18300
C  47.54800 32.73400 23.26900
C  47.05500 32.57500 24.78300
C  46.98000 34.91300 22.10000
C  48.66400 31.64500 22.91700
C  48.16100 30.24000 22.58200
N  46.14900 32.32800 27.65300
C  46.01700 31.30700 26.71700
C  45.38500 30.15500 27.28800
C  45.12700 30.57500 28.62300
C  45.60100 31.89300 28.73900
C  45.19700 28.79200 26.71100
C  44.62600 30.11100 29.90000
O  44.28100 29.01200 30.33900
C  44.56000 31.47800 30.71800
C  44.77700 31.16700 32.24500
O  45.80500 30.72600 32.79300
O  43.64400 31.53500 32.82900
C  43.53200 31.34900 34.22000
H  47.57200 37.68300 30.49900
H  48.42600 36.42100 24.11300
H  46.34300 30.55900 24.74300
H  45.18700 33.97600 32.48400
H  47.16800 36.07800 32.37600
H  45.35200 37.11900 33.00200
H  44.26100 36.19800 31.82900
H  45.22000 37.57300 31.34400
H  48.08000 34.15100 32.24900
H  47.35300 32.51600 32.48300
H  48.40600 34.04600 34.51200
H  47.05900 32.85900 34.82000
H  48.29600 40.43300 28.23100
H  49.69600 39.49800 28.71600
H  48.15900 39.51500 29.59900
H  48.34900 40.91500 26.22000
H  49.33600 41.06400 24.78400
H  50.17200 40.73200 26.29300
H  48.92100 34.40700 22.89600
H  46.73600 32.43700 22.60500
H  47.59000 35.42700 21.35800
H  46.40700 35.73800 22.52400
H  46.32900 34.23700 21.54500
H  49.28200 31.52400 23.80600
H  49.35500 32.15400 22.24500
H  48.71700 29.49500 23.15100
H  48.40800 29.97600 21.55400
H  47.08000 30.13300 22.66900
H  46.06700 28.16700 26.91300
H  45.09900 28.88800 25.62900
H  44.22600 28.34800 26.93200
H  43.55100 31.87600 30.62100
H  42.60400 30.80200 34.38400
H  43.47000 32.31500 34.72200
H  44.32400 30.73800 34.65300

