158

Mg 9.36900 48.29900 25.50000
C  6.99400 48.54700 28.15200
C  11.69000 49.63800 27.66800
C  11.58300 47.86000 23.08100
C  6.70000 47.51600 23.46100
N  9.29300 49.01600 27.61200
C  8.29100 48.86300 28.53000
C  8.76700 49.30500 29.95400
C  10.07000 50.08600 29.62100
C  10.40400 49.51100 28.21000
C  9.95800 51.63700 29.52200
C  8.93300 48.11700 30.92800
C  8.48400 48.32200 32.33400
H  8.29700 47.04100 33.16900
N  11.40900 48.55200 25.38400
C  12.15300 49.11100 26.40000
C  13.55900 49.11200 26.00100
C  13.55300 48.70700 24.56700
C  12.14800 48.33500 24.30100
C  14.61900 49.73500 26.83600
C  14.65000 48.68900 23.57400
O  14.33900 48.28500 22.48200
C  15.94100 49.33200 23.78700
N  9.12600 47.84500 23.50300
C  10.22900 47.67300 22.71300
C  9.70600 47.12600 21.35300
C  8.23800 46.97000 21.48700
C  7.98000 47.39800 22.93100
C  10.21400 47.95500 20.11100
C  7.73600 45.52500 21.25200
C  8.46200 44.34400 21.95200
N  7.19500 48.08500 25.70000
C  6.29000 47.84200 24.73200
C  4.95600 47.79900 25.34300
C  5.19000 48.12400 26.70700
C  6.55200 48.18500 26.87500
C  3.68900 47.50300 24.55300
C  4.51200 48.27700 27.96500
O  3.34600 48.21200 28.29000
C  5.68000 48.62200 29.06300
C  5.63800 47.53500 30.06800
O  6.28200 46.48600 30.03400
O  4.81000 47.86200 31.12200
C  4.57100 46.80600 32.18000
H  12.46000 50.00700 28.34800
H  12.18500 47.73500 22.17900
H  5.88800 47.14300 22.83400
H  8.17700 50.10400 30.40300
H  10.85700 49.81100 30.32400
H  10.53800 52.10500 30.31800
H  8.98900 52.13200 29.57600
H  10.35700 51.81100 28.52300
H  9.97800 47.87700 31.12700
H  8.55000 47.19900 30.48300
H  7.57700 48.91600 32.44500
H  9.33000 48.74600 32.87500
H  14.88100 50.71900 26.44600
H  15.48800 49.08100 26.75700
H  14.35600 49.78800 27.89200
H  16.38400 49.20800 24.77500
H  15.67400 50.38100 23.66000
H  16.58100 49.13200 22.92700
H  10.18500 46.14700 21.33800
H  7.67300 47.61200 20.81100
H  11.03900 48.58800 20.43900
H  9.39800 48.60200 19.79000
H  10.50000 47.26400 19.31800
H  7.85800 45.37100 20.18000
H  6.70100 45.39000 21.56700
H  9.20500 44.66800 22.68100
H  8.87500 43.77400 21.12000
H  7.73200 43.73700 22.48700
H  3.85700 47.24300 23.50800
H  2.97800 48.32900 24.51800
H  3.16600 46.74200 25.13200
H  5.62600 49.62600 29.48300
H  4.81900 45.82800 31.76800
H  3.58400 46.86700 32.64000
H  5.28200 47.11100 32.94700
Mg -12.96000 15.65800 41.99000
C  -9.89000 14.22800 41.67400
C  -11.61800 18.61700 40.39200
C  -16.05600 17.07000 41.72700
C  -14.29300 12.69600 42.99700
N  -10.91400 16.29700 41.19100
C  -9.79300 15.53600 41.18700
C  -8.59700 16.14800 40.42600
C  -9.18300 17.57800 40.08900
C  -10.71600 17.49300 40.52300
C  -8.44500 18.78100 40.75800
C  -8.43700 15.27800 39.14200
C  -7.01400 14.91100 38.73000
H  -6.34200 15.81700 37.67400
N  -13.73800 17.61700 41.31200
C  -13.00000 18.64800 40.72600
C  -13.90200 19.66700 40.33800
C  -15.22100 19.17100 40.51000
C  -15.05900 17.91700 41.24800
C  -13.47800 20.94000 39.57500
C  -16.54300 19.83000 40.14100
O  -16.60200 20.99600 39.75800
C  -17.90700 19.15300 40.31500
N  -14.89300 14.96400 42.30400
C  -16.01400 15.75400 42.25400
C  -17.25900 14.85100 42.60800
C  -16.69800 13.38900 42.82800
C  -15.17800 13.67100 42.72700
C  -18.10500 15.35500 43.84000
C  -17.31700 12.25500 41.93100
C  -17.63700 10.89700 42.51600
N  -12.33300 13.84200 42.29100
C  -12.94700 12.68700 42.84100
C  -11.97700 11.62100 43.12400
C  -10.73900 12.21800 42.72200
C  -11.01200 13.55200 42.20200
C  -12.19400 10.21700 43.64900
C  -9.35600 12.06600 42.73300
O  -8.73600 11.07100 43.16800
C  -8.74600 13.21200 41.89200
C  -7.60800 13.76000 42.67800
O  -7.60600 14.17500 43.79700
O  -6.51300 13.82300 41.87300
C  -5.27300 14.36900 42.52100
H  -11.27600 19.53800 39.91500
H  -17.12000 17.31300 41.76600
H  -14.70600 11.81600 43.49400
H  -7.68900 16.12800 41.02900
H  -9.12800 17.77300 39.01800
H  -7.39200 18.62200 40.98600
H  -8.79800 18.92200 41.77900
H  -8.63100 19.73700 40.26800
H  -8.76800 15.87500 38.29200
H  -9.10300 14.42600 39.00400
H  -7.01600 13.91400 38.29100
H  -6.32100 14.81700 39.56600
H  -14.27700 21.27900 38.91600
H  -12.65100 20.84200 38.87200
H  -13.18800 21.77500 40.21200
H  -17.82100 18.24800 39.71400
H  -18.61500 19.88100 39.91800
H  -18.11100 19.11900 41.38500
H  -17.90300 14.93700 41.73300
H  -16.96800 13.06200 43.83200
H  -18.64900 14.59900 44.40600
H  -18.91400 16.04600 43.60500
H  -17.31100 15.73900 44.48200
H  -16.89700 12.15000 40.93100
H  -18.25100 12.74100 41.64900
H  -17.28600 10.15100 41.80200
H  -18.68900 10.68500 42.70900
H  -17.07500 10.80400 43.44500
H  -12.56600 10.15300 44.67200
H  -11.28800 9.62400 43.52500
H  -13.00200 9.80600 43.04400
H  -8.40400 12.77700 40.95300
H  -4.64800 13.56400 42.90600
H  -5.47500 15.18600 43.21300
H  -4.69400 14.85400 41.73500

