158

Mg 48.89900 44.65700 43.08700
C  45.43600 45.06900 42.31800
C  48.59400 41.45200 42.25400
C  52.17700 44.64400 43.15700
C  48.98200 48.18200 43.84000
N  47.12100 43.38200 42.23000
C  45.80100 43.73300 42.06200
C  45.03700 42.53600 41.62800
C  46.03300 41.33300 41.95600
C  47.33700 42.06700 42.09300
C  45.65100 40.65800 43.27200
C  44.41700 42.47300 40.21300
C  45.05100 43.24100 39.03500
H  45.02900 42.55300 37.65800
N  50.26500 43.26600 42.58100
C  49.95900 41.94900 42.36200
C  51.25500 41.24600 42.21900
C  52.28500 42.09700 42.53600
C  51.56100 43.38500 42.75800
C  51.36100 39.75100 41.78400
C  53.72700 41.73000 42.63200
O  54.08800 40.56200 42.39600
C  54.71300 42.68500 43.19000
N  50.35600 46.22600 43.46600
C  51.65200 45.87300 43.53900
C  52.60100 47.10800 43.78400
C  51.54300 48.24100 44.13700
C  50.18100 47.52300 43.89800
C  53.74400 46.91900 44.76500
C  51.73700 49.65000 43.49300
C  51.91100 50.71000 44.58000
N  47.50100 46.31000 43.18000
C  47.67600 47.62000 43.47600
C  46.44800 48.33700 43.17900
C  45.55100 47.37900 42.73000
C  46.21800 46.16400 42.73900
C  46.24200 49.81700 43.24000
C  44.23600 47.24400 42.11800
O  43.33300 48.05400 41.83800
C  44.08600 45.66200 41.85800
C  42.77500 45.21900 42.55900
O  41.85800 44.65800 41.94700
O  42.89200 45.47900 43.93500
C  41.68600 45.09200 44.63200
H  48.54300 40.37200 42.09600
H  53.26700 44.59800 43.19200
H  48.99200 49.24700 44.08400
H  44.14200 42.56400 42.25000
H  46.08400 40.51100 41.24200
H  45.63400 39.56800 43.28700
H  44.70700 41.05700 43.64200
H  46.37500 41.01400 44.00500
H  43.42400 42.89200 40.37900
H  44.46900 41.41000 39.98200
H  46.09100 43.47400 39.26200
H  44.50400 44.16600 38.85300
H  50.36700 39.51100 41.40800
H  51.55700 39.20200 42.70500
H  52.12500 39.59400 41.02200
H  55.05000 43.50200 42.55100
H  55.51800 42.05500 43.57000
H  54.27400 43.26000 44.00500
H  52.92100 47.31400 42.76300
H  51.68600 48.37300 45.21000
H  53.59400 46.04300 45.39700
H  53.79100 47.84500 45.33800
H  54.70000 46.73800 44.27500
H  50.95800 49.86300 42.76100
H  52.70200 49.65900 42.98700
H  52.80200 51.31500 44.41200
H  51.91500 50.38200 45.62000
H  51.01800 51.33400 44.57700
H  47.17600 50.18700 42.81700
H  46.00600 50.23400 44.21900
H  45.40200 49.99700 42.56900
H  43.91900 45.48200 40.79600
H  41.91700 45.20400 45.69200
H  41.47600 44.06600 44.32900
H  40.83100 45.71500 44.37100
Mg 7.09400 53.74100 41.29200
C  6.27400 50.31700 40.66900
C  10.24700 53.08500 39.82800
C  7.68600 57.12900 41.05000
C  3.74000 54.25300 41.87800
N  8.16300 51.87400 40.50900
C  7.61600 50.62500 40.27500
C  8.58300 49.78800 39.47400
C  9.95300 50.53400 39.71900
C  9.44100 51.93200 40.10100
C  10.96000 49.97700 40.74600
C  8.13900 49.63500 37.96500
C  8.36100 48.31200 37.31900
H  7.44400 47.95100 36.22900
N  8.68700 54.93000 40.59900
C  9.91000 54.43600 40.09400
C  10.82500 55.56200 40.04100
C  10.16400 56.74700 40.45800
C  8.79500 56.31900 40.78000
C  12.29700 55.39300 39.67800
C  10.84900 58.11200 40.68400
O  12.09400 58.09500 40.62200
C  10.16600 59.42900 41.04000
N  5.85400 55.35800 41.20700
C  6.34800 56.70800 41.15900
C  5.22000 57.75200 41.34900
C  4.03200 56.78500 41.75400
C  4.53300 55.35400 41.56900
C  5.41700 58.86600 42.37700
C  2.74400 57.10100 40.90400
C  2.81800 56.78400 39.38700
N  5.38100 52.48900 41.52500
C  4.11000 52.85700 41.74900
C  3.33000 51.75600 42.14100
C  4.11300 50.66500 41.72100
C  5.32600 51.23900 41.25300
C  1.86300 51.87600 42.54700
C  4.16800 49.26400 41.49800
O  3.44700 48.30100 41.74500
C  5.59400 48.98600 40.84700
C  5.28700 48.20000 39.61300
O  4.96700 48.73200 38.55000
O  5.33700 46.84200 39.74700
C  4.80400 45.95700 38.67600
H  11.26800 52.83800 39.52900
H  7.85100 58.20200 40.92900
H  2.72300 54.42400 42.23800
H  8.65200 48.80100 39.93200
H  10.44800 50.59000 38.74900
H  11.88700 49.99100 40.17300
H  10.67600 48.97800 41.07500
H  11.07300 50.72100 41.53400
H  8.76700 50.34800 37.43000
H  7.10900 49.97600 37.86400
H  8.30100 47.56800 38.11400
H  9.37700 48.38100 36.93000
H  12.52800 54.40000 39.29300
H  13.00500 55.45300 40.50500
H  12.54200 56.16400 38.94800
H  9.37300 59.28200 41.77300
H  9.67300 59.90400 40.19100
H  10.88000 60.11800 41.49200
H  5.02900 58.11800 40.34100
H  3.71400 56.83400 42.79500
H  6.03700 58.54400 43.21400
H  4.46000 59.32300 42.62800
H  6.14100 59.57600 41.97700
H  2.62700 58.18500 40.93200
H  1.82900 56.77800 41.40000
H  2.08300 56.03700 39.08800
H  3.79000 56.46000 39.01400
H  2.57200 57.71500 38.87500
H  1.43900 52.57300 41.82500
H  1.61300 52.25200 43.53900
H  1.40200 50.88900 42.57900
H  6.14300 48.34000 41.53200
H  4.06200 45.19300 38.90800
H  5.50200 45.34100 38.10900
H  4.29300 46.63500 37.99300

