158

Mg 41.58400 7.30900 29.32800
C  43.16100 9.13500 31.97200
C  38.95300 6.68500 31.45300
C  40.14500 5.47200 26.95600
C  44.33600 7.93000 27.40700
N  41.19700 7.83500 31.45800
C  41.92800 8.58900 32.33900
C  41.28500 8.58900 33.77000
C  40.01300 7.64300 33.59000
C  40.08500 7.34600 32.03700
C  40.02900 6.32200 34.34100
C  40.94800 10.02500 34.12500
C  39.90800 10.22200 35.33600
H  40.27500 11.01000 36.60900
N  39.78400 6.25400 29.23600
C  38.85600 6.15600 30.15400
C  37.71400 5.41600 29.59600
C  37.98700 5.11800 28.21500
C  39.37100 5.58800 28.11700
C  36.49600 5.03400 30.51200
C  37.19400 4.38200 27.13900
O  37.63700 4.07100 26.04400
C  35.79100 3.98300 27.46000
N  42.08500 6.87700 27.50200
C  41.38400 5.98200 26.70800
C  42.16800 5.59800 25.39800
C  43.34600 6.67000 25.48200
C  43.24700 7.21300 26.89900
C  42.55900 4.07200 25.42300
C  43.25000 7.72600 24.40700
C  42.14300 8.78600 24.53100
N  43.46300 8.29800 29.63600
C  44.42800 8.42100 28.69700
C  45.48700 9.21100 29.28800
C  45.02600 9.51900 30.62600
C  43.74600 8.97600 30.71700
C  46.74000 9.62700 28.64200
C  45.35600 10.23300 31.88800
O  46.34200 10.98200 32.10600
C  44.15300 9.88100 32.86000
C  44.74400 9.06800 34.01600
O  45.38200 8.07000 33.87400
O  44.32100 9.54100 35.20900
C  44.44000 8.56200 36.33300
H  38.22100 6.49300 32.24100
H  39.74800 4.84500 26.15400
H  45.15500 7.94700 26.68400
H  41.91800 8.17800 34.55800
H  39.02800 8.06700 33.78700
H  39.12500 6.22400 34.94200
H  40.78000 6.27200 35.12900
H  40.10600 5.49400 33.63600
H  40.49600 10.46500 33.23600
H  41.85700 10.54400 34.42600
H  39.67900 9.21300 35.67800
H  38.98300 10.66700 34.97100
H  35.58200 5.28100 29.97300
H  36.49500 5.38800 31.54300
H  36.41400 3.94900 30.57700
H  35.93900 3.19400 28.19700
H  35.08600 3.67000 26.69000
H  35.33400 4.80900 28.00500
H  41.50000 5.70900 24.54300
H  44.30900 6.23300 25.22000
H  42.19900 3.52500 26.29500
H  43.63800 3.95500 25.52400
H  42.20600 3.54100 24.53900
H  42.95200 7.20900 23.49400
H  44.25100 8.12500 24.24400
H  41.58000 8.94000 23.61100
H  42.65700 9.71200 24.78900
H  41.37200 8.51300 25.25100
H  47.18600 8.69300 28.29900
H  47.45300 10.00600 29.37400
H  46.57600 10.35900 27.85100
H  43.71000 10.72700 33.38500
H  45.48400 8.60500 36.64200
H  44.15200 7.54700 36.05800
H  43.76500 8.91500 37.11200
Mg 47.77800 14.94500 28.18800
C  45.79600 15.00700 31.03500
C  49.89500 17.25900 29.82900
C  49.55200 15.08700 25.33800
C  45.63300 12.82500 26.63000
N  47.82300 16.15300 30.14700
C  47.03800 15.74600 31.21100
C  47.41700 16.34900 32.59200
C  48.56900 17.29600 32.14100
C  48.76900 16.93900 30.60400
C  48.42100 18.81500 32.38700
C  47.82900 15.29900 33.69000
C  46.93700 15.19500 34.89800
H  47.37400 15.95000 36.16000
N  49.49500 16.03600 27.67500
C  50.26800 16.86100 28.49500
C  51.47200 17.24300 27.73800
C  51.33700 16.67200 26.42600
C  50.07400 15.91100 26.40500
C  52.54700 18.07000 28.35800
C  52.30100 16.81200 25.15800
O  52.11600 16.26000 24.06000
C  53.61800 17.57500 25.29500
N  47.56100 14.22500 26.21100
C  48.44900 14.34700 25.19900
C  48.01300 13.43400 24.00700
C  46.85300 12.52800 24.51100
C  46.69100 13.21200 25.87800
C  47.79400 14.21600 22.65900
C  47.19500 10.98100 24.47500
C  48.23000 10.37700 25.48400
N  45.93000 14.25900 28.52600
C  45.21000 13.31900 27.84300
C  43.96100 13.08700 28.56500
C  44.17700 13.74700 29.80800
C  45.40500 14.35700 29.76600
C  42.80500 12.26400 28.04700
C  43.51500 13.95100 31.09000
O  42.48600 13.56200 31.58400
C  44.66600 14.68800 31.93900
C  43.98200 15.91200 32.45300
O  44.13500 17.02600 32.01200
O  43.39400 15.59300 33.68000
C  42.78400 16.64600 34.44900
H  50.54600 17.99600 30.30400
H  50.15000 15.01300 24.42700
H  44.94100 12.02600 26.35800
H  46.56400 16.88500 33.00900
H  49.49900 17.11000 32.67800
H  48.09800 19.34200 31.49000
H  49.36800 19.21000 32.75700
H  47.56400 18.99400 33.03700
H  48.87600 15.41300 33.97000
H  47.75300 14.38600 33.10000
H  46.90200 14.16000 35.23700
H  45.88600 15.35600 34.66000
H  53.53100 17.76200 28.00600
H  52.48100 18.00800 29.44500
H  52.38500 19.09900 28.03600
H  53.32900 18.60500 25.50300
H  54.04200 17.44600 24.29900
H  54.36900 17.11000 25.93400
H  48.89600 12.81400 23.85700
H  46.00300 12.68200 23.84700
H  48.08700 15.26100 22.76700
H  46.75800 14.16400 22.32600
H  48.35900 13.86400 21.79600
H  47.66100 10.67800 23.53800
H  46.26100 10.43100 24.59900
H  47.79900 9.44500 25.85100
H  48.48400 11.04400 26.30800
H  49.16900 10.02600 25.05600
H  43.16100 11.24200 27.91200
H  42.41800 12.63400 27.09800
H  41.89900 12.38600 28.64100
H  45.06700 14.10600 32.77000
H  43.28100 16.68700 35.41800
H  41.73200 16.36900 34.52500
H  42.86900 17.65400 34.04400

