158

Mg 17.54900 -2.10100 28.37000
C  16.67800 0.23400 31.02800
C  19.52400 -3.70700 30.66000
C  18.90200 -3.70800 25.82200
C  15.83500 0.05800 26.21400
N  18.15200 -1.60800 30.52400
C  17.57800 -0.78000 31.44400
C  18.01000 -1.08200 32.86300
C  19.07300 -2.20600 32.62200
C  18.96000 -2.53900 31.13500
C  20.50800 -1.79300 32.96200
C  16.77700 -1.43300 33.83700
C  16.84100 -0.75700 35.24600
H  18.21500 -1.07000 35.82200
N  18.82400 -3.64300 28.30500
C  19.59800 -4.17200 29.30900
C  20.33600 -5.35600 28.84600
C  20.17000 -5.34500 27.40100
C  19.27000 -4.19800 27.10700
C  21.16100 -6.24800 29.71600
C  20.80000 -6.24500 26.27400
O  20.65200 -6.04400 25.08900
C  21.78400 -7.44300 26.56400
N  17.37500 -1.86100 26.28500
C  18.08400 -2.61300 25.45500
C  17.72300 -2.29900 23.99900
C  16.59800 -1.18000 24.06400
C  16.50500 -1.04800 25.59900
C  19.03200 -1.97000 23.14500
C  15.32800 -1.34000 23.31400
C  13.95600 -1.64000 24.06700
N  16.46300 -0.22300 28.50400
C  15.81200 0.51700 27.55500
C  15.17900 1.69400 28.10600
C  15.44800 1.62600 29.47400
C  16.25800 0.44500 29.70700
C  14.37200 2.63300 27.30800
C  15.20700 2.32700 30.71200
O  14.55300 3.31700 31.07600
C  16.00700 1.40000 31.82100
C  16.89600 2.40000 32.53100
O  18.08200 2.41900 32.44300
O  16.17400 3.27300 33.31400
C  17.04700 4.11200 34.17900
H  20.03500 -4.30500 31.41700
H  19.16900 -4.21600 24.89300
H  15.34200 0.64200 25.43400
H  18.52800 -0.18200 33.19400
H  18.91700 -3.05700 33.28400
H  20.53100 -0.71800 33.14100
H  21.23200 -2.15400 32.23100
H  20.78100 -2.13000 33.96200
H  16.69200 -2.50700 34.00000
H  15.79800 -1.20600 33.41500
H  16.23300 -1.24200 36.01000
H  16.66500 0.31700 35.31600
H  21.37000 -7.18600 29.20100
H  20.55100 -6.47900 30.58900
H  22.12400 -5.78300 29.92600
H  22.62000 -6.99700 27.10200
H  21.97600 -8.04400 25.67500
H  21.23800 -8.13800 27.20100
H  17.36100 -3.19400 23.49300
H  17.10500 -0.27400 23.73100
H  18.95500 -0.99700 22.65900
H  19.03500 -2.68400 22.32100
H  19.93700 -2.04800 23.74700
H  15.61300 -2.10200 22.58800
H  15.25800 -0.41200 22.74700
H  13.26600 -1.98100 23.29400
H  13.58600 -0.75000 24.57700
H  14.10700 -2.49200 24.72900
H  14.23500 3.61000 27.77100
H  13.42700 2.22200 26.95000
H  14.94300 2.93300 26.43000
H  15.35600 0.81700 32.47300
H  17.45800 3.53000 35.00400
H  16.37000 4.89100 34.53100
H  17.80900 4.61300 33.58200
Mg -4.88400 26.08000 25.80500
C  -3.15700 27.30700 28.65000
C  -6.38700 23.78800 28.12200
C  -5.98700 24.37600 23.28000
C  -2.92600 28.10500 23.87000
N  -4.88200 25.64900 28.06000
C  -4.14000 26.35000 28.96600
C  -4.55100 25.98500 30.41000
C  -5.35000 24.65100 30.25200
C  -5.60400 24.69600 28.72600
C  -4.62700 23.32200 30.78700
C  -5.31700 27.11300 31.14500
C  -5.08300 27.22800 32.70600
H  -4.90100 25.97000 33.56200
N  -6.16900 24.42000 25.69300
C  -6.69400 23.68400 26.75000
C  -7.59100 22.72100 26.20000
C  -7.54700 22.86800 24.78400
C  -6.55300 23.95400 24.50500
C  -8.33500 21.74800 27.14600
C  -8.32100 22.08500 23.73700
O  -8.18100 22.17300 22.51900
C  -9.54600 21.23200 24.13100
N  -4.43800 26.23800 23.80900
C  -5.02400 25.33400 22.96200
C  -4.69300 25.65700 21.49500
C  -3.84400 26.95700 21.67300
C  -3.80800 27.21900 23.21700
C  -3.84300 24.53200 20.77200
C  -4.41200 28.33400 21.05100
C  -3.49600 29.00100 19.99700
N  -3.35700 27.37600 26.12700
C  -2.67300 28.25200 25.25900
C  -1.95100 29.26400 25.92000
C  -2.06100 28.88900 27.26700
C  -2.87400 27.73400 27.36500
C  -1.09600 30.34000 25.31500
C  -1.58100 29.21000 28.59300
O  -0.85000 30.13300 28.96700
C  -2.31600 28.18500 29.60400
C  -1.14700 27.44900 30.20300
O  -0.35300 26.83100 29.55300
O  -1.06000 27.51200 31.56900
C  0.06800 26.81600 32.15000
H  -6.87100 23.18400 28.89200
H  -6.37900 23.87700 22.39100
H  -2.29100 28.66400 23.18000
H  -3.65400 25.75000 30.98300
H  -6.31200 24.73900 30.75800
H  -4.74700 23.31000 31.87000
H  -3.64800 23.48800 30.33600
H  -4.96400 22.39100 30.33100
H  -6.37800 26.90800 30.99600
H  -5.22400 27.99400 30.51100
H  -5.94000 27.75200 33.12800
H  -4.15100 27.79300 32.70800
H  -9.25100 22.21000 27.51400
H  -7.77800 21.50700 28.05100
H  -8.42200 20.78400 26.64400
H  -10.16000 21.01300 23.25800
H  -10.14400 21.73900 24.88800
H  -9.22300 20.24100 24.45200
H  -5.62700 25.94400 21.01100
H  -2.77900 26.82400 21.48200
H  -3.22300 25.00700 20.01200
H  -4.59800 23.82500 20.43000
H  -3.19800 24.10200 21.53900
H  -4.56500 29.02100 21.88200
H  -5.35100 28.26100 20.50200
H  -3.92800 29.14600 19.00600
H  -2.64600 28.34400 19.81500
H  -3.12100 29.91100 20.46400
H  -1.21500 30.19600 24.24100
H  -0.04100 30.10200 25.45300
H  -1.39300 31.32900 25.66400
H  -2.93400 28.80000 30.25800
H  -0.14300 25.83400 32.57200
H  0.34800 27.61200 32.84100
H  0.97700 26.80400 31.54900

