158

Mg 8.32500 4.50600 27.65900
C  9.60000 2.81500 30.51300
C  6.23300 6.17300 29.74500
C  6.93600 5.78600 24.94600
C  9.97400 2.08700 25.73000
N  7.97600 4.48200 29.93300
C  8.63800 3.78500 30.85100
C  8.24500 4.16600 32.28600
C  7.22200 5.29900 31.94500
C  7.11600 5.30200 30.42900
C  5.91000 5.17600 32.77800
C  9.38900 4.73900 33.16300
C  8.91700 5.59100 34.41100
H  9.61900 5.32200 35.76300
N  6.76500 5.73900 27.36000
C  6.10500 6.41100 28.35900
C  5.18100 7.29300 27.81000
C  5.24300 7.16500 26.45200
C  6.36500 6.21300 26.18500
C  4.18900 8.25500 28.66500
C  4.49000 7.79300 25.38200
O  4.75100 7.69300 24.20700
C  3.27400 8.56300 25.78600
N  8.42100 3.98900 25.64300
C  7.82900 4.73900 24.71300
C  8.26900 4.41400 23.29800
C  9.28900 3.23300 23.56000
C  9.17400 3.02200 25.05900
C  7.08300 3.91600 22.43600
C  10.78600 3.43400 23.05400
C  11.75600 4.21300 24.00900
N  9.67100 2.90300 27.97600
C  10.27200 2.08300 27.05200
C  11.13400 1.14700 27.79200
C  10.94600 1.42200 29.14400
C  9.99500 2.48300 29.18800
C  11.84100 -0.05500 27.20800
C  11.28300 0.93200 30.47500
O  11.88100 -0.10800 30.83500
C  10.52800 1.94400 31.42600
C  9.80500 1.17100 32.48400
O  8.71800 0.59300 32.31300
O  10.54200 1.21900 33.63100
C  9.91100 0.51600 34.75600
H  5.60700 6.56200 30.55100
H  6.46200 6.24200 24.07400
H  10.51800 1.39200 25.08700
H  7.82100 3.30900 32.80900
H  7.56900 6.28400 32.25600
H  5.12100 4.74400 32.16200
H  5.59800 6.19400 33.01200
H  5.97100 4.53100 33.65400
H  10.13300 5.32700 32.62500
H  9.89800 3.86100 33.56000
H  7.82700 5.60300 34.40500
H  9.28900 6.57800 34.13700
H  4.49000 9.29600 28.54300
H  4.34900 8.11400 29.73400
H  3.13500 8.01700 28.52000
H  2.52200 8.01600 26.35600
H  2.80600 8.96200 24.88600
H  3.74800 9.35300 26.36800
H  8.71000 5.30000 22.84200
H  9.06300 2.29900 23.04600
H  6.55300 4.71200 21.91300
H  6.36300 3.47300 23.12300
H  7.28000 3.12900 21.70800
H  10.67200 4.12300 22.21800
H  11.20800 2.47100 22.76500
H  11.23300 4.39600 24.94700
H  12.33900 5.02500 23.57400
H  12.60600 3.56600 24.22700
H  12.67500 0.36100 26.64200
H  11.27800 -0.84600 26.71200
H  12.26100 -0.60400 28.05100
H  11.35300 2.49600 31.87500
H  8.98400 1.02400 35.02100
H  10.56500 0.43700 35.62500
H  9.55700 -0.49800 34.57000
Mg 17.13900 51.91100 25.89600
C  18.90600 50.56000 28.47300
C  14.72600 52.95700 27.97800
C  15.29500 52.84300 23.20200
C  19.82400 50.98400 23.72400
N  16.82900 51.62400 27.96200
C  17.71600 51.19600 28.88600
C  17.17900 51.22700 30.28700
C  15.69200 51.90200 30.12000
C  15.69000 52.16400 28.54500
C  14.45800 51.14300 30.69300
C  18.11300 52.03700 31.23900
C  17.71400 52.14400 32.67100
H  16.65300 51.25900 33.30700
N  15.33700 52.87000 25.66300
C  14.47600 53.27300 26.65000
C  13.35000 54.00800 26.12300
C  13.62200 54.00800 24.71300
C  14.72300 53.17300 24.43300
C  12.22000 54.57500 27.00000
C  12.83900 54.75900 23.68900
O  13.09200 54.69000 22.51200
C  11.51100 55.48300 24.09200
N  17.48400 52.05200 23.84800
C  16.61200 52.42700 22.83200
C  17.19100 52.39400 21.48200
C  18.68300 51.98300 21.74700
C  18.70000 51.63200 23.21400
C  16.43500 51.38500 20.64600
C  19.67900 53.09200 21.34500
C  19.92800 54.28400 22.24300
N  18.93300 50.94800 26.02700
C  19.88900 50.51900 25.03000
C  20.99500 49.77600 25.69500
C  20.64800 49.74400 27.05000
C  19.37500 50.43300 27.15600
C  22.21800 49.24000 24.99700
C  21.10900 49.40800 28.28500
O  22.17100 48.92300 28.69300
C  20.02800 49.89000 29.31700
C  19.54000 48.73000 30.11300
O  18.92700 47.75900 29.68400
O  19.85000 48.95500 31.46300
C  19.29100 47.93800 32.34300
H  14.05200 53.33400 28.75000
H  14.65200 53.07700 22.35000
H  20.68000 50.71400 23.10200
H  17.09700 50.19900 30.63800
H  15.62600 52.89000 30.57500
H  13.89700 51.79900 31.35900
H  14.91800 50.36200 31.29900
H  13.77600 50.69600 29.96900
H  17.93600 53.02700 30.81900
H  19.18400 51.85200 31.15200
H  17.44000 53.18700 32.83000
H  18.50400 51.87700 33.37200
H  12.22900 55.66100 26.90900
H  12.29400 54.22800 28.03100
H  11.23100 54.17800 26.77000
H  11.72300 56.37800 24.67700
H  10.75900 54.85600 24.57200
H  10.97300 55.59400 23.15100
H  17.08600 53.39100 21.05400
H  18.94500 51.05400 21.24100
H  16.74000 50.36600 20.88500
H  16.52200 51.56600 19.57400
H  15.37600 51.53400 20.85500
H  19.48000 53.38600 20.31500
H  20.60800 52.52700 21.26400
H  19.03500 54.42600 22.85200
H  20.11800 55.17700 21.64800
H  20.68300 54.11800 23.01200
H  22.34000 49.10500 23.92200
H  22.20400 48.16500 25.17800
H  23.10100 49.70800 25.43300
H  20.56100 50.61300 29.93300
H  19.67700 48.22200 33.32200
H  19.70500 46.97600 32.04100
H  18.20700 47.83500 32.29900

