158

Mg 47.15500 45.21400 43.53000
C  43.81700 44.24800 43.14200
C  47.97000 41.94000 42.89500
C  50.28600 46.22700 43.13900
C  46.03300 48.57200 43.43800
N  45.94600 43.32600 42.96700
C  44.63800 43.13500 42.90100
C  44.23700 41.72500 42.64400
C  45.55400 40.95800 42.78500
C  46.59000 42.13300 42.90900
C  45.68900 39.91800 43.90800
C  43.43500 41.29600 41.34800
C  43.66100 42.10900 40.04400
H  43.22500 41.61000 38.58100
N  48.91700 44.26300 43.10600
C  49.04400 42.85800 43.00100
C  50.43800 42.53800 42.92600
C  51.20700 43.76100 42.76600
C  50.19300 44.82000 43.03200
C  50.95600 41.09500 42.89300
C  52.70000 43.88400 42.51700
O  53.32800 42.84600 42.22600
C  53.40300 45.15100 42.41700
N  47.98000 47.09100 43.33900
C  49.32900 47.26700 43.28600
C  49.82300 48.73200 43.44000
C  48.44100 49.46300 43.49300
C  47.39500 48.31800 43.39000
C  50.85700 49.00700 44.57000
C  48.22400 50.52600 42.35600
C  49.37000 51.58100 42.21000
N  45.29400 46.24000 43.42400
C  45.01500 47.62600 43.47000
C  43.57400 47.87900 43.40500
C  43.06800 46.54800 43.37500
C  44.11700 45.60400 43.31500
C  42.85000 49.13900 43.53800
C  41.83100 45.71800 43.35300
O  40.64800 46.04100 43.30600
C  42.31700 44.20800 43.32800
C  41.75400 43.48500 44.48300
O  40.80600 42.68200 44.42300
O  42.40900 43.79500 45.65700
C  41.74100 43.42300 46.91700
H  48.27400 40.90000 42.76100
H  51.33600 46.50400 43.25500
H  45.81000 49.64100 43.44400
H  43.54000 41.55600 43.46500
H  45.73300 40.35700 41.89400
H  44.76500 39.98100 44.48200
H  46.49400 40.02500 44.63500
H  45.83000 38.94200 43.44200
H  42.39200 41.32300 41.66100
H  43.54300 40.23700 41.11200
H  44.69500 42.42000 39.89700
H  43.03900 42.98700 40.22000
H  50.41700 40.51700 43.64400
H  51.97700 40.93000 43.23600
H  50.80600 40.59300 41.93700
H  52.96100 45.76800 41.63500
H  54.46600 44.99900 42.23100
H  53.34600 45.70500 43.35400
H  50.28300 48.97800 42.48200
H  48.36900 50.01500 44.43000
H  51.85400 48.70300 44.25100
H  50.54700 48.29900 45.33800
H  50.85100 50.03100 44.94500
H  47.37000 51.10800 42.70300
H  47.86300 50.05800 41.44000
H  49.05100 52.58800 42.47700
H  49.68200 51.56200 41.16600
H  50.25700 51.32800 42.79100
H  42.02800 49.21200 44.25000
H  42.43000 49.26200 42.54000
H  43.61000 49.91500 43.63700
H  41.86600 43.67700 42.49000
H  42.14500 42.47500 47.27100
H  40.69800 43.19600 46.69500
H  41.88300 44.19200 47.67700
Mg 8.88100 47.87200 26.68200
C  6.95200 47.27700 29.52700
C  11.61100 48.29400 28.76800
C  10.58500 48.53400 24.08600
C  5.97100 47.48100 24.70800
N  9.22100 47.88400 28.87000
C  8.26200 47.60100 29.87100
C  8.86400 47.76600 31.24400
C  10.26900 48.43100 30.97300
C  10.37300 48.21000 29.42500
C  10.43200 49.99800 31.17900
C  8.77000 46.60600 32.22900
C  9.70000 46.57300 33.47300
H  9.25900 45.77200 34.70500
N  10.88400 48.15500 26.48200
C  11.85000 48.30100 27.42700
C  13.10600 48.51800 26.75200
C  12.83100 48.48700 25.31500
C  11.37100 48.33400 25.25100
C  14.38300 48.48600 27.47500
C  13.83700 48.66800 24.25400
O  13.46500 48.59600 23.10100
C  15.33300 48.94400 24.57800
N  8.28100 47.99300 24.70300
C  9.23000 48.35000 23.80400
C  8.65600 48.49600 22.36300
C  7.16300 48.06400 22.58100
C  7.08800 47.83500 24.01600
C  8.82700 49.92200 21.80200
C  6.81400 46.85100 21.73300
C  6.16700 47.09700 20.42100
N  6.90800 47.50700 26.99200
C  5.85600 47.36700 26.17100
C  4.67500 47.02400 26.82400
C  5.04600 46.98200 28.14100
C  6.37200 47.28000 28.20300
C  3.35100 46.74400 26.24300
C  4.60600 46.81500 29.49700
O  3.47400 46.53000 29.83300
C  5.77700 46.92000 30.44600
C  5.99900 45.63900 31.19200
O  6.68500 44.70500 30.85300
O  5.30700 45.67100 32.41000
C  5.43000 44.52800 33.26000
H  12.41700 48.54700 29.46000
H  11.12100 48.73800 23.15700
H  5.11400 47.37400 24.04000
H  8.16600 48.50600 31.63700
H  11.14900 47.94900 31.40100
H  10.18100 50.56600 30.28300
H  11.45500 50.22300 31.48200
H  9.79800 50.33500 31.99900
H  8.87600 45.66700 31.68500
H  7.76300 46.75100 32.62000
H  9.96500 47.58700 33.77300
H  10.65000 46.12400 33.18300
H  14.92900 47.66900 27.00400
H  14.31800 48.22200 28.53100
H  14.95100 49.40500 27.32400
H  15.78800 49.23800 23.63100
H  15.80100 47.99000 24.82000
H  15.41500 49.76100 25.29500
H  9.24200 47.86700 21.69300
H  6.52100 48.89600 22.29200
H  9.87800 50.20200 21.73900
H  8.32200 50.65100 22.43600
H  8.40300 50.01400 20.80200
H  6.19900 46.14300 22.28800
H  7.75700 46.34700 21.51900
H  6.07200 48.15000 20.15400
H  5.11900 46.80100 20.46800
H  6.75500 46.53400 19.69600
H  2.90400 45.92700 26.80900
H  3.52500 46.41000 25.22000
H  2.71900 47.61700 26.07800
H  5.59100 47.62200 31.25900
H  4.52100 43.95400 33.08400
H  5.43800 44.94400 34.26700
H  6.33600 43.92900 33.16600

