158

Mg 35.70800 0.34600 30.20900
C  33.49300 1.78100 32.39800
C  38.10800 0.57100 32.82700
C  38.25700 -0.63500 28.08000
C  33.69700 0.86300 27.42600
N  35.74000 1.06100 32.31000
C  34.64500 1.49700 33.03800
C  34.92600 1.61000 34.49900
C  36.59800 1.67400 34.48900
C  36.87000 1.01000 33.13500
C  37.32000 3.09900 34.69000
C  34.36700 0.45500 35.32300
C  33.38500 0.83700 36.41400
H  33.59200 2.13800 37.22400
N  37.85800 -0.16000 30.47800
C  38.58100 0.00500 31.59800
C  39.97500 -0.42500 31.34800
C  39.94200 -0.98400 30.02200
C  38.66000 -0.53900 29.44100
C  41.06700 -0.45100 32.37300
C  40.98900 -1.72800 29.17700
O  40.79900 -2.13800 28.00600
C  42.26400 -2.09200 29.87300
N  36.08300 0.51100 27.97100
C  37.12400 -0.11400 27.41100
C  36.95800 -0.28700 25.89100
C  35.40300 0.10000 25.63600
C  35.03200 0.48400 27.11500
C  37.87200 0.52100 25.06000
C  34.47000 -0.97600 25.15700
C  33.43800 -0.52500 24.06500
N  33.95800 1.14000 29.87100
C  33.19200 1.20100 28.74700
C  31.85500 1.71800 29.06300
C  31.93600 1.93900 30.48200
C  33.23200 1.58600 30.94400
C  30.77200 1.87200 28.12100
C  31.26000 2.46400 31.61900
O  30.16600 2.95100 31.71500
C  32.20300 2.35000 32.88000
C  32.30400 3.61800 33.58000
O  33.05800 4.54400 33.27400
O  31.39400 3.76400 34.47800
C  31.35500 5.02800 35.29200
H  38.89600 0.56100 33.58200
H  38.81800 -1.23700 27.36100
H  32.97000 0.76700 26.61700
H  34.39900 2.49500 34.85600
H  36.99000 1.02900 35.27600
H  37.93500 3.51000 33.89000
H  37.85300 3.03000 35.63800
H  36.52500 3.81500 34.90100
H  35.13100 -0.09100 35.87600
H  33.63900 -0.09300 34.72400
H  33.47400 0.07600 37.19000
H  32.35900 0.81700 36.04800
H  41.26900 -1.52100 32.41000
H  40.66400 -0.21400 33.35800
H  41.96100 0.14200 32.18000
H  42.71100 -1.12200 30.08800
H  42.84900 -2.49200 29.04400
H  42.02600 -2.65600 30.77400
H  37.04600 -1.31100 25.52900
H  35.36600 0.98400 24.99900
H  38.82600 -0.00800 25.05300
H  37.92900 1.55500 25.40000
H  37.47400 0.49300 24.04600
H  34.04000 -1.41300 26.05700
H  35.02100 -1.82700 24.75800
H  32.46800 -0.74200 24.51200
H  33.52700 -1.17500 23.19400
H  33.29700 0.54300 23.90000
H  30.73500 0.88000 27.67200
H  31.06600 2.67500 27.44500
H  29.83400 2.06900 28.64100
H  31.74600 1.72500 33.64800
H  30.66300 5.85400 35.12900
H  32.34100 5.48300 35.38900
H  31.04600 4.66400 36.27100
Mg 54.72100 22.84500 44.76100
C  52.24400 25.15500 43.78800
C  52.54300 20.36300 43.79500
C  57.22100 20.74300 45.20600
C  56.88900 25.56000 45.39100
N  52.70300 22.74900 43.64500
C  51.86800 23.84400 43.43700
C  50.53500 23.33500 42.80900
C  50.50200 21.88100 43.35000
C  51.97700 21.61000 43.66400
C  49.56600 21.64400 44.53900
C  50.24400 23.45800 41.26400
C  48.95800 24.20300 40.81500
H  48.46300 23.96900 39.39600
N  54.85000 20.78800 44.63900
C  53.91800 19.97700 44.08000
C  54.46900 18.66500 43.93500
C  55.79800 18.71200 44.41900
C  56.00600 20.09900 44.85400
C  53.70900 17.47200 43.40800
C  56.67000 17.55700 44.63400
O  56.27600 16.44700 44.36500
C  58.06900 17.66600 45.26600
N  56.75300 23.13000 45.43500
C  57.62200 22.04000 45.48400
C  59.05200 22.52100 45.56500
C  58.96600 24.11000 45.59200
C  57.44500 24.28800 45.50900
C  59.66500 22.00700 46.86200
C  59.86500 24.85600 44.54900
C  60.98000 25.84100 45.06700
N  54.59600 24.93900 44.74800
C  55.58200 25.91600 45.07600
C  54.97400 27.20000 45.01500
C  53.65400 26.99300 44.54600
C  53.46700 25.54900 44.39400
C  55.60000 28.53700 45.40700
C  52.39500 27.63100 44.25000
O  52.08200 28.81800 44.13200
C  51.48500 26.50000 43.58500
C  51.32600 26.74800 42.12800
O  52.13700 26.40100 41.24700
O  50.23100 27.53700 41.89900
C  49.90500 27.95800 40.49800
H  52.01400 19.48500 43.41900
H  58.08100 20.13500 44.91900
H  57.49500 26.46700 45.45300
H  49.73100 23.85000 43.33600
H  50.28900 21.18400 42.54000
H  50.05500 21.08700 45.33800
H  48.74600 21.06400 44.11600
H  49.12900 22.50900 45.03700
H  50.23900 22.53600 40.68300
H  51.17300 23.96400 40.99900
H  49.08700 25.27300 40.97800
H  48.15500 23.91700 41.49400
H  54.24500 16.63900 42.95300
H  52.89400 17.82900 42.78000
H  53.21000 17.09000 44.29900
H  58.01900 18.28900 46.15900
H  58.83800 17.97800 44.56000
H  58.33800 16.65400 45.57100
H  59.47400 22.03200 44.68600
H  59.11800 24.54400 46.58000
H  59.56300 22.70000 47.69600
H  60.73300 21.79900 46.78800
H  59.24100 21.01700 47.03100
H  59.24300 25.35300 43.80500
H  60.45800 24.07600 44.07100
H  61.97400 25.39400 45.04800
H  60.77800 26.08300 46.11100
H  61.01000 26.67600 44.36800
H  54.86300 29.34100 45.43000
H  56.17600 28.90800 44.56000
H  56.11000 28.49900 46.37000
H  50.53300 26.49900 44.11500
H  49.82700 27.17600 39.74300
H  50.65300 28.64400 40.10000
H  48.92600 28.43700 40.48900

