158

Mg 25.06500 2.04800 29.83400
C  27.56100 2.11400 32.51100
C  22.73700 2.32900 32.01700
C  22.98400 1.97100 27.18800
C  27.82800 1.32900 27.60600
N  25.21200 2.33300 31.96700
C  26.21500 2.45100 32.88800
C  25.67300 2.48200 34.32000
C  24.16200 2.47300 34.04000
C  24.01100 2.35600 32.58200
C  23.39200 1.52400 34.97400
C  26.20800 3.72800 35.16600
C  26.91600 3.39900 36.48100
H  26.88200 4.39500 37.62900
N  23.08500 2.16800 29.62400
C  22.22900 2.29400 30.64600
C  20.85000 2.20300 30.16800
C  20.90500 1.95600 28.77500
C  22.38400 2.04700 28.46300
C  19.68600 2.15200 31.12100
C  19.80600 1.66600 27.73900
O  20.04400 1.51600 26.57400
C  18.44800 1.58200 28.06200
N  25.32500 1.66100 27.71100
C  24.32300 1.72900 26.79500
C  24.77500 1.54900 25.35200
C  26.31600 1.54500 25.56500
C  26.54400 1.48100 27.04800
C  24.10300 0.30300 24.61100
C  27.19300 2.57100 24.72200
C  27.82600 3.77600 25.47000
N  27.25100 1.78700 29.99800
C  28.11600 1.47700 29.00400
C  29.46600 1.39000 29.63300
C  29.25300 1.57000 30.99500
C  27.93100 1.94000 31.13600
C  30.77600 1.04800 28.96000
C  29.86900 1.53200 32.32400
O  31.05200 1.24300 32.69400
C  28.78100 1.95800 33.35400
C  28.68500 0.89900 34.41300
O  27.94100 -0.04100 34.41400
O  29.33800 1.38000 35.58000
C  29.04500 0.69600 36.80900
H  21.99000 2.47300 32.80100
H  22.30600 1.84000 26.34200
H  28.51200 1.01400 26.81600
H  25.91400 1.52800 34.78900
H  23.91000 3.48200 34.36700
H  22.60700 2.10800 35.45400
H  24.06800 1.05200 35.68700
H  22.93300 0.78100 34.32100
H  25.41900 4.44000 35.40800
H  26.94300 4.20700 34.51900
H  27.96900 3.30700 36.21400
H  26.50800 2.43100 36.77000
H  19.12300 1.22100 31.05000
H  18.93000 2.86100 30.78400
H  19.95900 2.27800 32.16900
H  18.44200 0.61600 28.56800
H  17.82100 1.55600 27.17000
H  18.00000 2.36500 28.67300
H  24.40800 2.49300 24.94900
H  26.69600 0.59500 25.19200
H  23.29700 -0.01300 25.27300
H  24.86300 -0.46800 24.48400
H  23.77500 0.76700 23.68100
H  26.55600 3.03400 23.96900
H  28.00100 2.12200 24.14500
H  28.88900 3.53800 25.51100
H  27.47000 3.88100 26.49500
H  27.74800 4.72600 24.94000
H  30.63500 1.14600 27.88400
H  31.07800 0.05000 29.27800
H  31.50800 1.82300 29.18900
H  29.09500 2.90600 33.79100
H  29.95000 0.35400 37.31200
H  28.34400 -0.13800 36.84200
H  28.55500 1.38500 37.49800
Mg 35.06200 3.36700 29.62900
C  32.79500 4.50600 32.06400
C  37.40900 3.04000 32.05700
C  37.23200 2.81600 27.21100
C  32.55700 3.79800 27.24000
N  35.13700 3.88500 31.78900
C  34.07100 4.10500 32.62000
C  34.47900 4.25500 34.05100
C  36.03400 4.12800 33.98100
C  36.26000 3.60300 32.53300
C  36.75900 5.41800 34.38100
C  33.78200 3.26900 34.93200
C  33.81600 3.48200 36.47200
H  34.57800 4.69200 37.12500
N  37.05700 2.94100 29.65600
C  37.87200 2.74900 30.75600
C  39.17200 2.30700 30.36600
C  39.13800 2.16600 28.92700
C  37.77200 2.57200 28.55800
C  40.35500 2.12200 31.28500
C  40.18900 1.69000 27.98500
O  39.92000 1.64300 26.76100
C  41.60700 1.16000 28.41000
N  34.88200 3.40500 27.50500
C  35.92200 3.14900 26.77800
C  35.64200 3.27700 25.20500
C  34.09800 3.29500 25.21300
C  33.81500 3.51600 26.72300
C  36.24800 4.47800 24.49500
C  33.42300 2.02500 24.64000
C  32.76900 1.00900 25.63100
N  33.12300 4.11700 29.60900
C  32.23500 4.18500 28.56500
C  30.96500 4.63700 28.97200
C  31.12100 4.86000 30.39300
C  32.50300 4.59000 30.67500
C  29.76600 4.85900 28.13000
C  30.46600 5.27700 31.58300
O  29.33800 5.74200 31.71800
C  31.54800 5.07900 32.73300
C  31.75700 6.41100 33.38700
O  32.33900 7.39500 32.90900
O  31.27200 6.33700 34.64900
C  31.43400 7.60500 35.39800
H  38.21500 2.84200 32.76700
H  37.88800 2.66500 26.35100
H  31.83700 4.03700 26.45600
H  34.21700 5.29100 34.26500
H  36.40000 3.34700 34.64800
H  37.61500 5.18700 35.01500
H  36.19300 6.19200 34.89800
H  37.27200 5.86300 33.52800
H  34.28100 2.32200 34.72400
H  32.73900 3.19800 34.62400
H  34.11300 2.61400 37.06000
H  32.75500 3.56000 36.71100
H  40.76200 1.14300 31.03000
H  40.07000 2.22500 32.33200
H  40.97700 2.97000 31.00000
H  42.03400 0.84900 27.45700
H  41.48500 0.21900 28.94700
H  42.08600 1.97200 28.95700
H  36.04000 2.37400 24.74200
H  33.64600 4.19000 24.78500
H  36.88400 4.17800 23.66300
H  36.89300 4.99800 25.20400
H  35.47900 5.13900 24.09500
H  34.03100 1.46600 23.92900
H  32.60300 2.46400 24.07200
H  33.46300 0.76100 26.43300
H  32.50100 0.09000 25.11000
H  31.79300 1.39400 25.92900
H  29.08400 5.58500 28.57200
H  29.30900 3.90800 27.85600
H  30.15500 5.25800 27.19400
H  31.13100 4.32000 33.39500
H  30.97600 8.41500 34.83000
H  32.46400 7.91400 35.57300
H  30.92000 7.33300 36.32000

