158

Mg 6.28400 53.28700 40.63800
C  6.05900 49.71400 40.42600
C  9.66100 53.05900 40.10300
C  6.18700 56.62500 40.30100
C  2.72100 53.33000 40.93800
N  7.67300 51.48400 40.23700
C  7.38200 50.16600 40.21200
C  8.69400 49.43600 39.96500
C  9.79700 50.47500 40.33200
C  9.01300 51.79600 40.25200
C  10.44100 50.31800 41.70500
C  8.95400 48.77000 38.52500
C  8.35900 49.53500 37.25200
H  7.26800 48.90800 36.19400
N  7.75200 54.62400 40.24200
C  9.01300 54.32800 40.00800
C  9.71400 55.63100 39.84400
C  8.75000 56.67300 39.92600
C  7.46000 55.97800 40.17500
C  11.26800 55.67100 39.54500
C  9.13700 58.16000 39.85300
O  10.33000 58.49500 39.56600
C  8.14900 59.36800 39.85000
N  4.65500 54.73900 40.74300
C  4.92300 56.08300 40.54900
C  3.67400 56.97100 40.62400
C  2.60000 55.88800 40.63700
C  3.34000 54.54800 40.76200
C  3.67100 57.85300 41.87600
C  1.66100 55.85600 39.38700
C  0.15800 55.67600 39.63000
N  4.69300 51.90300 40.80500
C  3.31600 52.06100 40.94800
C  2.64900 50.79300 40.94900
C  3.63200 49.82400 40.82400
C  4.90100 50.51300 40.71200
C  1.10400 50.64400 41.12900
C  3.90900 48.44100 40.75400
O  3.20900 47.49600 40.81100
C  5.45900 48.32500 40.45900
C  5.61000 47.52800 39.15800
O  5.25600 47.83600 38.04300
O  6.06300 46.29000 39.48200
C  5.90400 45.26700 38.45200
H  10.74000 52.98900 39.95500
H  6.29000 57.70500 40.17000
H  1.63000 53.34100 40.96900
H  8.71300 48.65300 40.72300
H  10.59100 50.46900 39.58500
H  9.79400 49.63900 42.26100
H  10.42700 51.27800 42.22200
H  11.50200 50.11000 41.84200
H  8.49100 47.78600 38.60200
H  10.00600 48.67800 38.25300
H  9.14300 49.79500 36.54100
H  8.02300 50.51100 37.60200
H  11.37100 56.37500 38.71900
H  11.78200 54.71800 39.41900
H  11.74300 56.06700 40.44300
H  8.70500 60.24700 39.52400
H  7.69500 59.53500 40.82700
H  7.33400 59.18100 39.15100
H  3.69800 57.52700 39.68600
H  1.94800 56.00500 41.50200
H  3.95400 58.88200 41.65500
H  4.45900 57.45000 42.51200
H  2.70200 57.83600 42.37400
H  2.01800 55.10500 38.68200
H  1.81200 56.83700 38.93700
H  -0.46000 56.45400 39.18200
H  -0.08800 55.72900 40.69000
H  -0.20800 54.69800 39.31800
H  0.83400 49.68700 41.57500
H  0.56100 50.79700 40.19700
H  0.82400 51.31700 41.94000
H  5.90200 47.83900 41.32900
H  6.90900 45.05400 38.09000
H  5.37200 45.51900 37.53500
H  5.54800 44.38300 38.98200
Mg -2.23900 34.35100 26.63200
C  -3.75400 32.53700 29.24700
C  -0.93700 36.54700 28.99800
C  -1.28900 36.38300 24.16800
C  -4.11300 32.49900 24.43100
N  -2.51100 34.55100 28.83500
C  -3.11000 33.70800 29.71000
C  -2.80500 34.20000 31.13800
C  -2.15700 35.58200 30.99100
C  -1.82200 35.57200 29.50200
C  -3.02900 36.81700 31.40900
C  -1.92200 33.22800 32.02300
C  -2.29100 32.86000 33.49600
H  -1.19700 32.94200 34.51900
N  -1.02900 36.15100 26.55400
C  -0.54300 36.83100 27.67500
C  0.35800 37.83800 27.15400
C  0.28900 37.78000 25.71300
C  -0.67900 36.72000 25.38100
C  1.17400 38.71300 28.04800
C  1.06100 38.53000 24.70900
O  0.86800 38.38900 23.50200
C  2.04200 39.56600 25.17000
N  -2.80500 34.56600 24.61800
C  -2.24000 35.45600 23.79000
C  -2.70900 35.34800 22.30900
C  -3.50200 33.99200 22.37000
C  -3.53200 33.67500 23.88000
C  -3.48600 36.64500 21.78400
C  -2.89200 32.84400 21.49900
C  -1.42400 32.54000 21.69800
N  -3.53800 32.81800 26.79200
C  -4.22300 32.09700 25.75300
C  -5.02800 31.02200 26.30000
C  -4.83700 31.08000 27.68000
C  -3.86400 32.17300 27.89500
C  -6.04200 30.17100 25.50800
C  -5.25900 30.53600 28.96000
O  -5.97500 29.57700 29.19800
C  -4.52700 31.45900 30.09500
C  -5.62600 32.02800 30.90200
O  -6.37200 32.92000 30.57100
O  -5.55700 31.43900 32.14600
C  -6.60400 31.80400 33.12500
H  -0.46900 37.14100 29.78600
H  -0.96900 37.00500 23.32900
H  -4.67100 31.81700 23.78600
H  -3.78700 34.23600 31.61000
H  -1.20800 35.66500 31.52200
H  -3.20400 37.52400 30.59800
H  -2.60100 37.31800 32.27700
H  -3.99200 36.61100 31.87800
H  -0.91900 33.65300 32.03500
H  -1.76800 32.33200 31.42200
H  -2.71100 31.85800 33.40900
H  -3.14100 33.44000 33.85300
H  0.79600 39.67000 27.68800
H  2.19700 38.40300 27.83200
H  0.91200 38.59600 29.09900
H  1.51700 40.41800 25.60300
H  2.47800 40.09700 24.32400
H  2.76100 39.09400 25.84000
H  -1.77100 35.16700 21.78300
H  -4.49300 34.25600 22.00200
H  -4.26100 36.28900 21.10500
H  -2.78600 37.15900 21.12500
H  -3.79300 37.20300 22.66800
H  -3.08700 33.13000 20.46600
H  -3.49100 31.96500 21.73800
H  -0.99700 33.14300 20.89600
H  -1.25800 31.46300 21.66000
H  -1.16800 33.07900 22.61000
H  -6.92800 30.08400 26.13700
H  -5.63500 29.21100 25.19000
H  -6.25900 30.84300 24.67700
H  -3.90400 30.81700 30.71800
H  -7.37300 32.44000 32.68700
H  -6.07500 32.34600 33.90900
H  -6.96900 30.84800 33.50000

