158

Mg 25.06500 2.04800 29.83400
C  27.56100 2.11400 32.51100
C  22.73700 2.32900 32.01700
C  22.98400 1.97100 27.18800
C  27.82800 1.32900 27.60600
N  25.21200 2.33300 31.96700
C  26.21500 2.45100 32.88800
C  25.67300 2.48200 34.32000
C  24.16200 2.47300 34.04000
C  24.01100 2.35600 32.58200
C  23.39200 1.52400 34.97400
C  26.20800 3.72800 35.16600
C  26.91600 3.39900 36.48100
H  26.88200 4.39500 37.62900
N  23.08500 2.16800 29.62400
C  22.22900 2.29400 30.64600
C  20.85000 2.20300 30.16800
C  20.90500 1.95600 28.77500
C  22.38400 2.04700 28.46300
C  19.68600 2.15200 31.12100
C  19.80600 1.66600 27.73900
O  20.04400 1.51600 26.57400
C  18.44800 1.58200 28.06200
N  25.32500 1.66100 27.71100
C  24.32300 1.72900 26.79500
C  24.77500 1.54900 25.35200
C  26.31600 1.54500 25.56500
C  26.54400 1.48100 27.04800
C  24.10300 0.30300 24.61100
C  27.19300 2.57100 24.72200
C  27.82600 3.77600 25.47000
N  27.25100 1.78700 29.99800
C  28.11600 1.47700 29.00400
C  29.46600 1.39000 29.63300
C  29.25300 1.57000 30.99500
C  27.93100 1.94000 31.13600
C  30.77600 1.04800 28.96000
C  29.86900 1.53200 32.32400
O  31.05200 1.24300 32.69400
C  28.78100 1.95800 33.35400
C  28.68500 0.89900 34.41300
O  27.94100 -0.04100 34.41400
O  29.33800 1.38000 35.58000
C  29.04500 0.69600 36.80900
H  21.99000 2.47300 32.80100
H  22.30600 1.84000 26.34200
H  28.51200 1.01400 26.81600
H  25.91400 1.52800 34.78900
H  23.91000 3.48200 34.36700
H  22.60700 2.10800 35.45400
H  24.06800 1.05200 35.68700
H  22.93300 0.78100 34.32100
H  25.41900 4.44000 35.40800
H  26.94300 4.20700 34.51900
H  27.96900 3.30700 36.21400
H  26.50800 2.43100 36.77000
H  19.12300 1.22100 31.05000
H  18.93000 2.86100 30.78400
H  19.95900 2.27800 32.16900
H  18.44200 0.61600 28.56800
H  17.82100 1.55600 27.17000
H  18.00000 2.36500 28.67300
H  24.40800 2.49300 24.94900
H  26.69600 0.59500 25.19200
H  23.29700 -0.01300 25.27300
H  24.86300 -0.46800 24.48400
H  23.77500 0.76700 23.68100
H  26.55600 3.03400 23.96900
H  28.00100 2.12200 24.14500
H  28.88900 3.53800 25.51100
H  27.47000 3.88100 26.49500
H  27.74800 4.72600 24.94000
H  30.63500 1.14600 27.88400
H  31.07800 0.05000 29.27800
H  31.50800 1.82300 29.18900
H  29.09500 2.90600 33.79100
H  29.95000 0.35400 37.31200
H  28.34400 -0.13800 36.84200
H  28.55500 1.38500 37.49800
Mg 50.12500 45.79400 42.67700
C  46.85300 46.72900 41.52700
C  49.73200 42.85800 40.99100
C  53.41700 45.40600 42.94000
C  50.63100 49.34200 43.33500
N  48.34900 44.93800 41.43400
C  47.15300 45.46300 41.08800
C  46.44200 44.57900 40.03100
C  47.34500 43.29300 40.02200
C  48.57900 43.67600 40.89700
C  46.63500 41.95300 40.40800
C  46.17200 45.19900 38.68700
C  44.67900 45.32300 38.31700
H  44.12500 44.70900 37.04400
N  51.30100 44.23700 42.31400
C  51.04100 43.10500 41.59400
C  52.10700 42.25300 41.73400
C  53.17300 42.90900 42.43500
C  52.64900 44.29000 42.57200
C  52.04700 40.85100 41.15700
C  54.54200 42.38300 42.67200
O  54.86000 41.24300 42.31200
C  55.45200 43.09400 43.54900
N  51.80000 47.16100 43.02600
C  53.06600 46.68800 43.12500
C  54.08600 47.80200 43.38200
C  53.19000 49.03000 43.49500
C  51.74200 48.51500 43.31400
C  55.19500 47.59200 44.51300
C  53.58300 50.22500 42.51400
C  53.75400 51.61100 43.22700
N  48.95000 47.66600 42.71200
C  49.24700 48.97200 43.05200
C  48.07200 49.80200 42.99000
C  47.11300 48.93500 42.39300
C  47.69500 47.69900 42.19300
C  47.91300 51.32900 43.23900
C  45.75700 48.88800 41.87700
O  44.84000 49.73300 41.91800
C  45.54100 47.38100 41.28100
C  44.43200 46.78600 42.04700
O  44.47100 46.33600 43.21900
O  43.31500 46.75600 41.32200
C  42.09600 46.17300 41.94700
H  49.61900 41.87800 40.52200
H  54.50100 45.29800 42.86500
H  50.96500 50.37700 43.43300
H  45.46700 44.26800 40.40700
H  47.68900 43.18300 38.99400
H  46.73500 41.85300 41.48900
H  47.10800 41.05100 40.02000
H  45.61600 41.99600 40.02300
H  46.69600 44.68500 37.88100
H  46.57600 46.20900 38.74500
H  44.60700 46.40700 38.23100
H  44.07700 45.04800 39.18300
H  51.19300 40.67700 40.50200
H  52.07200 40.08900 41.93600
H  52.98300 40.74200 40.60900
H  54.92000 43.77600 44.21200
H  56.18200 43.66700 42.97800
H  55.97600 42.31700 44.10500
H  54.63500 47.92000 42.44800
H  53.30200 49.34900 44.53100
H  55.20500 46.57100 44.89400
H  55.02500 48.15200 45.43300
H  56.21600 47.70600 44.14700
H  52.72500 50.33700 41.85100
H  54.54800 50.13300 42.01400
H  53.54400 51.42900 44.28100
H  52.99300 52.30700 42.87500
H  54.75400 52.03200 43.12700
H  48.37300 51.80100 42.37100
H  48.61400 51.53000 44.05000
H  46.89200 51.70300 43.31600
H  45.22300 47.55600 40.25300
H  41.82600 46.79200 42.80200
H  42.28400 45.14600 42.26000
H  41.37300 46.21800 41.13200

