158

Mg 26.46500 49.36800 26.21300
C  24.44700 50.44100 28.99100
C  28.83500 48.52400 28.47600
C  28.29500 48.65700 23.54700
C  24.07000 50.85200 24.10500
N  26.58500 49.51900 28.52500
C  25.67200 49.94000 29.43400
C  26.16900 49.64800 30.89200
C  27.64600 49.09400 30.71700
C  27.72900 49.14600 29.13000
C  28.75600 49.93200 31.36400
C  25.27600 48.57600 31.68900
C  24.76600 49.19500 32.97800
H  25.71900 49.86000 33.93700
N  28.31700 48.66600 25.97800
C  29.12300 48.32300 27.06300
C  30.28600 47.61900 26.48900
C  30.20500 47.70800 25.02700
C  28.88000 48.39900 24.79100
C  31.46600 47.13800 27.44800
C  31.04200 47.11800 23.95300
O  30.87400 47.40100 22.77700
C  32.24000 46.32100 24.24800
N  26.24200 49.75700 24.17400
C  27.17300 49.26900 23.27100
C  26.62500 49.34700 21.88500
C  25.24900 50.11200 22.00800
C  25.19100 50.21300 23.54300
C  27.52300 49.93700 20.78400
C  24.13900 49.24900 21.40700
C  23.58900 49.68700 20.06900
N  24.62600 50.32400 26.48000
C  23.78500 50.89100 25.52800
C  22.66500 51.43100 26.17100
C  22.82700 51.23400 27.56300
C  24.07400 50.60300 27.68900
C  21.54300 52.05600 25.49000
C  22.22900 51.53700 28.88200
O  21.15900 52.02200 29.24900
C  23.25800 50.98100 29.89500
C  23.60900 52.14000 30.78100
O  24.48300 52.94400 30.54800
O  22.86900 52.15100 31.92000
C  23.31700 53.10300 32.91700
H  29.49100 48.06700 29.22000
H  28.84400 48.37200 22.64700
H  23.35200 51.31500 23.42600
H  26.19000 50.58400 31.45100
H  27.70100 48.08500 31.12600
H  29.19900 50.50100 30.54700
H  29.44800 49.19400 31.77000
H  28.41500 50.63400 32.12500
H  25.73000 47.61300 31.92400
H  24.30800 48.50400 31.19300
H  24.36900 48.29800 33.45400
H  23.98500 49.91800 32.74600
H  31.48800 47.66400 28.40200
H  32.39600 47.42800 26.95900
H  31.44200 46.04900 27.49600
H  32.51300 45.56500 23.51200
H  31.92200 45.73300 25.10800
H  32.95200 47.06300 24.61100
H  26.44700 48.30100 21.63400
H  25.28900 51.09300 21.53500
H  28.39100 50.47200 21.16700
H  26.90500 50.66400 20.25800
H  27.84300 49.15200 20.09900
H  23.21100 49.19800 21.97700
H  24.42200 48.20800 21.24600
H  24.19000 50.57500 19.87400
H  22.53200 49.95600 20.07900
H  23.91400 48.96400 19.32100
H  21.38200 51.47100 24.58400
H  21.87400 53.08900 25.39200
H  20.67600 52.06700 26.15000
H  22.98400 50.18200 30.58400
H  23.43100 54.11200 32.52000
H  24.34400 52.83600 33.16600
H  22.64800 53.00300 33.77100
Mg 0.51000 42.38200 26.88400
C  2.08100 42.41500 29.97400
C  -2.34800 41.23600 28.25500
C  -0.69200 41.72200 23.78600
C  3.64900 43.20500 25.37300
N  -0.02800 41.99000 28.83600
C  0.72700 42.15700 29.98800
C  -0.18100 41.96400 31.20100
C  -1.55500 41.35200 30.71400
C  -1.30400 41.59100 29.14100
C  -1.79000 39.90500 31.18300
C  -0.39400 43.25500 32.03100
C  -0.01200 43.11500 33.56800
H  -0.31200 41.84400 34.39900
N  -1.24600 41.60400 26.11400
C  -2.39600 41.23900 26.84700
C  -3.48500 40.82200 25.94900
C  -2.96000 40.92300 24.65100
C  -1.54500 41.45000 24.79300
C  -4.90300 40.37400 26.39900
C  -3.70500 40.73300 23.35400
O  -3.21500 41.04300 22.27300
C  -5.10400 40.22900 23.23800
N  1.31500 42.41900 24.87100
C  0.64700 42.14300 23.78700
C  1.43500 42.46400 22.53200
C  2.73500 43.12600 23.02000
C  2.52600 43.02700 24.57500
C  1.65500 41.25500 21.61200
C  2.95800 44.60300 22.48600
C  3.78200 44.73800 21.13800
N  2.42600 42.81000 27.51000
C  3.61000 43.04400 26.78800
C  4.75300 43.20000 27.73600
C  4.13100 42.99900 29.04400
C  2.80300 42.69600 28.82400
C  6.15900 43.51800 27.41100
C  4.36600 42.85500 30.51700
O  5.41200 42.93800 31.17700
C  3.02100 42.61500 31.23800
C  3.06800 41.34400 32.01000
O  2.92000 40.24900 31.51600
O  3.54000 41.55700 33.30700
C  3.74500 40.36600 34.23800
H  -3.27600 40.96600 28.76400
H  -1.11700 41.53400 22.79800
H  4.59100 43.62100 25.01100
H  0.42400 41.30600 31.82600
H  -2.41000 41.90700 31.09800
H  -2.77300 39.71100 31.61400
H  -0.95100 39.51700 31.76100
H  -1.93400 39.33100 30.26800
H  -1.37900 43.70800 31.91900
H  0.30800 43.95500 31.57700
H  -0.63200 43.87500 34.04500
H  1.04800 43.30700 33.73400
H  -5.73300 41.04500 26.17700
H  -4.81300 40.35900 27.48500
H  -5.05400 39.35000 26.05600
H  -5.26900 39.25700 23.70300
H  -5.30100 40.08300 22.17600
H  -5.92500 40.93000 23.38900
H  0.87700 43.27900 22.07200
H  3.57800 42.50700 22.71300
H  1.18700 41.51700 20.66400
H  1.06700 40.43200 22.01900
H  2.70900 40.98400 21.53600
H  3.41400 45.17300 23.29600
H  1.98100 45.06100 22.33600
H  3.23300 45.29600 20.37900
H  4.08600 43.78800 20.69900
H  4.68100 45.33200 21.30400
H  6.39200 43.23300 26.38400
H  6.82600 42.97600 28.08100
H  6.31400 44.57800 27.61000
H  2.82700 43.47900 31.87300
H  4.72000 40.38000 34.72400
H  3.62100 39.34100 33.88700
H  2.96300 40.54800 34.97500

