158

Mg 1.35300 -2.77500 45.06800
C  4.34700 -1.18900 43.76100
C  -0.28500 -0.33700 43.38400
C  -1.28900 -4.38800 45.89300
C  3.44100 -5.39500 46.20000
N  2.00300 -1.07500 43.57100
C  3.23000 -0.55900 43.31900
C  3.20400 0.69000 42.50400
C  1.76700 1.13000 42.79500
C  1.09500 -0.20700 43.21600
C  1.53900 2.33300 43.80600
C  3.67300 0.49800 41.06800
C  4.77400 1.53800 40.59600
H  6.27100 0.97300 40.38600
N  -0.53800 -2.49500 44.62700
C  -1.00900 -1.45700 43.89300
C  -2.42900 -1.62100 43.70100
C  -2.78700 -2.79800 44.39700
C  -1.53000 -3.27800 45.04700
C  -3.26200 -0.76900 42.86800
C  -4.16100 -3.55200 44.39600
O  -5.07900 -2.98500 43.80100
C  -4.40700 -4.72800 45.25100
N  1.15300 -4.67000 45.97400
C  -0.11000 -5.10500 46.29000
C  -0.00700 -6.42900 47.13800
C  1.55000 -6.71800 47.11100
C  2.09600 -5.58900 46.32100
C  -0.68400 -6.44500 48.59200
C  1.90900 -8.15200 46.53000
C  2.46400 -9.29100 47.53500
N  3.45300 -3.20300 45.10500
C  4.13200 -4.32400 45.58000
C  5.57000 -4.13300 45.41500
C  5.67300 -2.89400 44.75500
C  4.35500 -2.39100 44.52700
C  6.64200 -5.12800 45.69400
C  6.58200 -1.86600 44.27100
O  7.80100 -1.90500 44.18900
C  5.70900 -0.70300 43.68600
C  5.98300 0.54600 44.47100
O  5.26200 1.13300 45.24700
O  7.19500 1.05700 44.03600
C  7.59500 2.32400 44.56900
H  -0.81300 0.53800 42.99800
H  -2.20000 -4.87600 46.24800
H  4.17500 -6.11400 46.57100
H  3.76000 1.51000 42.95800
H  1.33000 1.35200 41.82100
H  1.16900 3.10900 43.13600
H  2.42400 2.76100 44.27500
H  0.84400 2.04300 44.59400
H  2.82000 0.49300 40.38900
H  4.11400 -0.49400 40.96800
H  4.74300 2.28500 41.39000
H  4.42100 2.04700 39.70000
H  -3.87900 -1.34500 42.17900
H  -2.65800 -0.17200 42.18500
H  -3.85600 -0.19600 43.58000
H  -3.76100 -5.58300 45.05000
H  -5.41600 -5.10800 45.09100
H  -4.17200 -4.41200 46.26700
H  -0.41200 -7.19600 46.47800
H  1.79600 -6.66500 48.17100
H  -0.35600 -7.29500 49.19000
H  -1.76400 -6.51700 48.45700
H  -0.44600 -5.49500 49.07000
H  2.72700 -7.98000 45.83000
H  1.04600 -8.61400 46.05200
H  2.64000 -8.89200 48.53400
H  3.34400 -9.80200 47.14400
H  1.61400 -9.92700 47.78200
H  7.59500 -4.66300 45.44400
H  6.38200 -5.97600 45.06100
H  6.72000 -5.46500 46.72700
H  6.18200 -0.56900 42.71300
H  8.00900 2.29700 45.57700
H  6.76000 3.02500 44.55600
H  8.33600 2.62600 43.82900
Mg 24.87600 1.49700 29.44100
C  26.72800 1.70400 32.31000
C  22.00100 1.63200 31.13700
C  23.22000 1.46600 26.43800
C  27.84200 1.18100 27.62700
N  24.46500 1.59300 31.52600
C  25.33700 1.79700 32.58800
C  24.59500 1.99200 33.87300
C  23.05300 1.97800 33.46000
C  23.13500 1.64600 31.90700
C  22.18600 0.91800 34.21900
C  25.10700 3.10700 34.85300
C  25.08400 2.83600 36.38300
H  25.25200 4.09200 37.29400
N  22.81900 1.57600 28.91000
C  21.78400 1.54200 29.74400
C  20.55300 1.40900 29.09100
C  20.86500 1.43000 27.66000
C  22.32700 1.43900 27.59300
C  19.23500 1.26200 29.81300
C  19.92900 1.31800 26.46500
O  20.38800 1.33700 25.33500
C  18.48500 1.16500 26.60300
N  25.52800 1.37100 27.31000
C  24.62400 1.43800 26.27400
C  25.34000 1.29200 24.86100
C  26.82100 1.22600 25.31900
C  26.72200 1.32900 26.82100
C  24.80900 -0.08000 24.23100
C  27.80300 2.33300 24.73800
C  27.17400 3.76800 24.98300
N  26.86100 1.21100 29.82100
C  27.95700 1.13400 29.02400
C  29.15100 0.95000 29.80200
C  28.69300 1.18000 31.10700
C  27.32800 1.41100 31.07700
C  30.56700 0.52800 29.29000
C  29.13900 1.31600 32.50600
O  30.27800 1.17400 32.99400
C  27.92500 1.68700 33.29800
C  27.74100 0.70600 34.38500
O  27.13200 -0.38500 34.30300
O  28.46900 1.16600 35.52500
C  28.52900 0.16400 36.59200
H  21.16700 1.69400 31.84000
H  22.74600 1.51700 25.45600
H  28.74800 1.04000 27.03500
H  24.82100 1.08200 34.42800
H  22.68400 3.00100 33.53200
H  22.70900 0.47500 35.06600
H  21.83600 0.13200 33.55000
H  21.34000 1.46900 34.63000
H  24.33600 3.87700 34.89400
H  26.09100 3.52400 34.64000
H  25.95400 2.22200 36.61700
H  24.19900 2.29000 36.70800
H  18.82600 2.25900 29.65100
H  19.33000 1.06000 30.88000
H  18.54200 0.51100 29.43500
H  18.37200 0.15600 26.99900
H  17.88200 1.24000 25.69800
H  18.09900 1.82300 27.38100
H  24.93300 2.03000 24.16900
H  27.29000 0.30400 24.97600
H  23.91800 0.12800 23.63800
H  24.59300 -0.66100 25.12700
H  25.54000 -0.55900 23.58000
H  27.90900 2.09000 23.68000
H  28.75500 2.34200 25.26900
H  27.89300 4.34100 25.56900
H  26.24100 3.69300 25.54000
H  27.06300 4.20700 23.99100
H  31.29800 1.32200 29.13800
H  30.45300 -0.07600 28.39000
H  31.02400 -0.14700 30.01400
H  28.02600 2.69800 33.69200
H  27.94700 0.54800 37.42900
H  29.58400 -0.03500 36.78000
H  28.14800 -0.83900 36.40100

