158

Mg 49.32000 35.40900 28.61200
C  47.21200 33.32800 30.57400
C  49.34800 37.70200 31.08300
C  50.66900 37.46800 26.40800
C  48.88400 32.87600 26.03500
N  48.39100 35.53800 30.57900
C  47.75100 34.51200 31.21200
C  47.74300 34.77000 32.77200
C  48.02100 36.34200 32.83200
C  48.68100 36.51400 31.44300
C  46.73600 37.25600 33.07200
C  48.88700 33.90100 33.47900
C  48.78000 33.84700 35.09300
H  47.89700 34.83900 35.90100
N  49.89700 37.29500 28.74800
C  49.89700 38.08100 29.88700
C  50.64300 39.34600 29.58700
C  51.16100 39.19700 28.25100
C  50.58700 37.91700 27.74100
C  50.86500 40.34300 30.68800
C  52.09200 40.02400 27.47200
O  52.51300 39.72500 26.33700
C  52.52800 41.28200 28.03200
N  49.82500 35.14500 26.58600
C  50.30400 36.22600 25.86000
C  50.52500 35.85900 24.36800
C  50.22000 34.29200 24.42300
C  49.60400 34.05900 25.78400
C  49.64500 36.70500 23.49500
C  51.36400 33.35300 23.91400
C  51.25000 32.81600 22.44800
N  48.50400 33.40300 28.35600
C  48.34900 32.50200 27.26100
C  47.57600 31.39200 27.62100
C  47.12500 31.69400 28.90400
C  47.65000 32.90000 29.32300
C  47.14900 30.22400 26.80200
C  46.22300 31.20900 29.94700
O  45.43500 30.21300 29.99900
C  46.24100 32.27900 31.11200
C  46.42600 31.69300 32.45700
O  47.26600 30.92300 32.82800
O  45.50800 32.20400 33.26100
C  45.36800 31.56600 34.57700
H  49.51000 38.34900 31.94800
H  51.08000 38.12900 25.64200
H  48.61400 32.19300 25.22600
H  46.75100 34.37600 32.99300
H  48.80900 36.45100 33.57700
H  46.74400 38.00100 33.86800
H  46.06400 36.45500 33.37900
H  46.36600 37.69300 32.14400
H  49.91700 34.21900 33.31300
H  48.71900 32.86900 33.17100
H  49.84500 33.83700 35.32500
H  48.38400 32.84700 35.27300
H  50.45300 41.26300 30.27500
H  51.84300 40.54700 31.12400
H  50.21700 40.19800 31.55200
H  51.68500 41.91700 28.30400
H  53.10000 41.86300 27.30900
H  53.20000 41.06200 28.86100
H  51.56500 36.08400 24.13300
H  49.40800 34.16900 23.70600
H  50.15900 37.65300 23.33900
H  48.75100 36.98600 24.05300
H  49.47400 36.22400 22.53200
H  51.31800 32.48300 24.57000
H  52.28800 33.92300 24.00400
H  50.38800 33.19900 21.90200
H  51.26500 31.72900 22.53000
H  52.14600 33.19000 21.95100
H  46.36700 30.61800 26.15300
H  46.61500 29.43800 27.33700
H  47.96100 29.76800 26.23500
H  45.25000 32.72800 31.17100
H  44.31500 31.61800 34.85400
H  45.96200 32.08300 35.33100
H  45.57800 30.49900 34.65900
Mg 9.77900 46.94400 26.20700
C  7.73400 47.36200 28.98400
C  12.27400 48.58600 27.90600
C  11.56400 47.08500 23.33900
C  6.79700 46.31800 24.33100
N  9.95100 47.66300 28.22400
C  9.06700 47.68200 29.22000
C  9.69400 48.00600 30.57400
C  10.89600 48.87500 30.06100
C  11.09700 48.37300 28.62900
C  10.66000 50.46000 30.16900
C  10.21700 46.78500 31.41300
C  9.77000 46.65400 32.88100
H  9.99900 45.32500 33.66800
N  11.74700 47.55600 25.75000
C  12.65400 48.20000 26.58800
C  13.84100 48.55100 25.80100
C  13.63900 48.08300 24.49700
C  12.26600 47.57200 24.50100
C  15.03800 49.37600 26.43100
C  14.57400 48.14500 23.20000
O  14.21400 47.96400 22.05000
C  15.96600 48.61700 23.35600
N  9.26600 46.94800 24.11300
C  10.19200 46.77400 23.14000
C  9.56900 46.25700 21.83900
C  8.13900 45.83300 22.27800
C  8.05000 46.41200 23.66100
C  9.74700 47.35100 20.75000
C  7.76600 44.28100 22.13700
C  8.64900 43.31300 22.82300
N  7.75800 46.82700 26.48800
C  6.68700 46.49900 25.70800
C  5.48800 46.50500 26.49900
C  5.90900 46.75000 27.74200
C  7.22500 47.01900 27.72600
C  4.05000 46.20400 26.04200
C  5.41400 46.84200 29.10400
O  4.28600 46.75100 29.53000
C  6.64200 47.19100 30.00300
C  6.96500 45.98700 30.80700
O  7.69900 45.04700 30.54900
O  6.21500 46.02400 31.98100
C  6.42600 44.96600 32.95300
H  13.07700 49.04000 28.49000
H  12.11700 46.80100 22.44100
H  5.91300 45.84500 23.89700
H  8.94900 48.49100 31.20500
H  11.78300 48.71000 30.67300
H  10.78200 50.90500 29.18100
H  11.39400 50.94600 30.81200
H  9.69400 50.76800 30.56800
H  11.30600 46.77300 31.43900
H  10.02100 45.82900 30.92800
H  8.77200 47.07500 33.00200
H  10.45300 47.38600 33.31200
H  15.87300 48.68200 26.33300
H  14.79900 49.69300 27.44600
H  15.36400 50.30300 25.95900
H  16.62700 48.05900 22.69300
H  16.43000 48.34100 24.30300
H  16.00100 49.70500 23.28900
H  10.06800 45.33800 21.53200
H  7.36700 46.43900 21.80400
H  10.70300 47.82600 20.97000
H  8.92700 48.03700 20.96200
H  9.82700 46.83500 19.79300
H  7.77900 44.04900 21.07200
H  6.75600 44.13200 22.52100
H  8.17900 42.68000 23.57500
H  9.43400 43.90100 23.29800
H  9.12000 42.65200 22.09500
H  3.55400 47.13800 25.77600
H  3.46700 45.76200 26.85100
H  4.12400 45.46900 25.24100
H  6.50500 48.17900 30.44300
H  7.19100 44.24900 32.65500
H  5.42800 44.55700 33.11400
H  6.68800 45.34400 33.94100

