158

Mg 0.98500 7.13700 25.99600
C  1.86900 8.94700 28.90000
C  0.96500 4.30100 27.92100
C  0.62700 5.35200 23.13500
C  1.44500 10.06800 24.19000
N  1.27000 6.69300 28.18400
C  1.51400 7.55400 29.18400
C  1.68600 6.89600 30.53100
C  1.58600 5.37300 30.23900
C  1.29000 5.43500 28.69400
C  2.91300 4.54500 30.55100
C  0.71400 7.45500 31.57100
C  1.20800 7.85800 32.99100
H  2.18300 6.93300 33.70100
N  0.75400 5.04900 25.59200
C  0.77800 4.03300 26.52800
C  0.60400 2.81200 25.78900
C  0.32300 3.10800 24.42700
C  0.64200 4.55200 24.33200
C  0.66500 1.43000 26.50200
C  -0.19500 2.26000 23.34200
O  -0.60000 2.70800 22.25500
C  -0.23900 0.83500 23.56800
N  1.14500 7.56400 23.97300
C  0.83900 6.71100 22.94700
C  0.80700 7.40400 21.60600
C  0.91300 8.87500 22.05900
C  1.35600 8.85100 23.45800
C  1.92200 6.99200 20.69600
C  -0.42200 9.65600 21.85100
C  -0.28400 11.06600 21.44500
N  1.47100 9.10500 26.40700
C  1.56500 10.19600 25.56600
C  1.78900 11.43300 26.29200
C  2.00000 10.94500 27.62700
C  1.85400 9.53700 27.64000
C  1.84500 12.90100 25.89800
C  2.23500 11.36200 28.98000
O  2.42800 12.49700 29.42200
C  2.03700 10.10400 29.87100
C  3.14000 10.03700 30.90000
O  4.19800 9.44400 30.67900
O  2.84100 10.72900 32.03700
C  3.75400 10.76200 33.18000
H  0.89500 3.47800 28.63500
H  0.36100 4.81300 22.22300
H  1.49700 10.98900 23.60600
H  2.68300 7.10000 30.92200
H  0.74800 4.93800 30.78400
H  3.79300 5.02400 30.98000
H  3.30500 3.95400 29.72300
H  2.57900 3.83300 31.30600
H  -0.05800 6.70300 31.72900
H  0.09800 8.27600 31.20300
H  0.41200 7.84300 33.73500
H  1.66500 8.83600 32.84100
H  1.16000 0.66400 25.90500
H  -0.31500 1.03800 26.77200
H  1.18100 1.64500 27.43700
H  -0.81700 0.28600 22.82400
H  -0.78600 0.57100 24.47300
H  0.72200 0.38700 23.82100
H  -0.14200 7.15800 21.12900
H  1.77800 9.27400 21.52900
H  2.63600 7.77500 20.44300
H  1.38300 6.79600 19.76800
H  2.45500 6.09700 21.01500
H  -1.08900 9.52700 22.70300
H  -0.94700 9.09800 21.07600
H  0.74900 11.27800 21.16900
H  -0.53200 11.66500 22.32100
H  -1.01400 11.32400 20.67700
H  2.27100 12.96600 24.89700
H  2.38900 13.42200 26.68600
H  0.83600 13.31100 25.84600
H  1.07800 10.26200 30.36500
H  4.78100 11.03600 32.93800
H  3.80000 9.86000 33.79100
H  3.40000 11.50400 33.89500
Mg 17.23600 -2.45400 28.16700
C  16.07200 -0.60500 30.81900
C  19.03300 -4.54600 30.20500
C  18.37100 -4.09400 25.46300
C  15.68600 -0.17000 25.89500
N  17.48600 -2.56100 30.25000
C  16.82300 -1.73300 31.18300
C  17.26200 -2.12500 32.64500
C  18.23400 -3.35900 32.47600
C  18.26200 -3.52300 30.87400
C  19.62500 -3.11100 33.10700
C  16.05600 -2.42300 33.59900
C  15.75800 -1.47400 34.80600
H  16.99300 -0.90400 35.53200
N  18.50800 -4.10700 27.86900
C  19.07700 -4.89500 28.80600
C  19.87100 -5.99600 28.24500
C  19.59900 -5.93500 26.80200
C  18.82200 -4.69500 26.66800
C  20.69400 -6.84800 29.09800
C  20.10800 -6.75100 25.67900
O  19.73000 -6.59700 24.54700
C  21.04200 -8.01500 25.97400
N  16.99800 -2.20500 25.99300
C  17.69600 -2.93000 25.16000
C  17.67200 -2.41100 23.72700
C  16.68400 -1.17300 23.84700
C  16.41700 -1.18800 25.34900
C  19.13700 -2.14700 23.12700
C  15.33300 -1.33200 23.11100
C  14.77200 -0.03500 22.52800
N  16.07300 -0.67300 28.25600
C  15.54400 0.09000 27.28600
C  14.78200 1.15700 27.93800
C  15.01100 0.96500 29.29800
C  15.81600 -0.16600 29.44100
C  13.83100 2.08800 27.37200
C  14.66900 1.43700 30.57200
O  13.94000 2.38600 30.92200
C  15.41400 0.50300 31.65400
C  16.42900 1.30900 32.53600
O  17.60500 1.12700 32.44700
O  15.84100 2.29800 33.23500
C  16.84300 3.24800 33.81700
H  19.59700 -5.17600 30.89600
H  18.66900 -4.65600 24.57600
H  15.27700 0.51200 25.14700
H  17.75200 -1.28300 33.13500
H  17.84300 -4.30600 32.84800
H  19.66700 -2.26900 33.79700
H  20.48700 -3.12400 32.44000
H  19.87000 -4.00600 33.67800
H  16.03700 -3.48700 33.83800
H  15.22100 -2.32000 32.90500
H  15.12500 -2.07500 35.45900
H  15.19700 -0.63100 34.40100
H  19.96900 -7.54800 29.51400
H  21.14500 -6.28200 29.91300
H  21.48400 -7.32200 28.51600
H  21.13800 -8.57500 25.04400
H  20.51200 -8.44100 26.82600
H  21.97700 -7.57800 26.32400
H  17.23900 -3.27700 23.22500
H  17.16800 -0.30400 23.40200
H  19.58100 -3.00000 22.61400
H  19.78300 -1.93900 23.98000
H  19.25100 -1.29400 22.45900
H  14.53800 -1.75100 23.72900
H  15.49000 -2.10100 22.35500
H  15.51400 0.75800 22.61600
H  13.82400 0.20500 23.00900
H  14.65400 -0.14400 21.44900
H  14.18300 3.05000 27.00100
H  13.18500 2.50000 28.14800
H  13.17500 1.62000 26.63900
H  14.69400 -0.04100 32.26400
H  17.50700 3.62400 33.03800
H  17.42700 2.71000 34.56300
H  16.43200 4.18600 34.19000

