158

Mg 24.70200 -6.57000 46.23800
C  26.59100 -3.88800 44.94900
C  22.16800 -5.72900 44.08000
C  23.25300 -9.51800 46.98400
C  27.85700 -7.78500 47.56100
N  24.49000 -5.04800 44.67600
C  25.32100 -4.02500 44.38800
C  24.79900 -3.16400 43.27400
C  23.30700 -3.63400 43.14600
C  23.31800 -4.89000 44.01700
C  22.15000 -2.55400 43.33300
C  25.59600 -3.18100 41.92000
C  25.82700 -1.77100 41.24300
H  25.57100 -1.67500 39.78200
N  22.93600 -7.47400 45.66600
C  21.99600 -6.88000 44.83000
C  20.89200 -7.77300 44.72000
C  21.10100 -8.83600 45.56400
C  22.46000 -8.72900 46.13000
C  19.78900 -7.54200 43.72600
C  20.15900 -10.04500 45.66600
O  19.03400 -10.03500 45.28100
C  20.47100 -11.20300 46.40100
N  25.44900 -8.33600 47.14600
C  24.57100 -9.38700 47.45400
C  25.28500 -10.53300 48.19700
C  26.79500 -10.10200 47.96500
C  26.70700 -8.63500 47.67500
C  24.82400 -10.83500 49.67900
C  27.44500 -10.92700 46.86400
C  28.58700 -11.88600 47.18000
N  26.76800 -5.91700 46.42000
C  27.88800 -6.45700 47.00300
C  28.96000 -5.51900 46.96300
C  28.58700 -4.49500 46.12500
C  27.20500 -4.78100 45.84000
C  30.33300 -5.73400 47.51500
C  28.93000 -3.24800 45.43500
O  29.97500 -2.62300 45.32200
C  27.67000 -2.85200 44.61200
C  27.24800 -1.48700 44.95100
O  27.02500 -0.63100 44.10000
O  27.23700 -1.31300 46.33800
C  27.41100 0.18800 46.68600
H  21.36700 -5.46300 43.38700
H  22.74800 -10.32700 47.51600
H  28.79400 -8.27300 47.83600
H  24.78800 -2.11400 43.56600
H  23.17900 -4.02600 42.13700
H  21.26700 -3.08200 43.69200
H  21.89500 -2.27100 42.31200
H  22.51900 -1.73900 43.95600
H  24.94600 -3.71500 41.22700
H  26.56900 -3.66400 42.01300
H  26.89300 -1.58000 41.36600
H  25.27200 -1.01200 41.79500
H  18.80700 -7.39900 44.17800
H  19.55000 -8.45200 43.17600
H  19.86000 -6.74700 42.98400
H  20.59400 -10.98300 47.46100
H  21.34600 -11.64600 45.92600
H  19.59100 -11.84400 46.35400
H  25.11000 -11.44000 47.61800
H  27.36700 -10.22900 48.88500
H  24.25100 -11.76000 49.75200
H  24.19100 -10.05300 50.09900
H  25.74800 -10.98800 50.23600
H  27.74500 -10.27500 46.04500
H  26.74700 -11.61000 46.38000
H  29.12100 -11.43400 48.01600
H  29.30800 -11.90400 46.36200
H  28.19500 -12.83400 47.54700
H  31.06400 -5.74100 46.70700
H  30.33600 -6.65700 48.09400
H  30.47300 -4.84400 48.12800
H  27.98700 -2.84700 43.57000
H  28.23300 0.63200 46.12400
H  27.64500 0.30000 47.74500
H  26.48600 0.73600 46.50900
Mg -4.57700 24.22300 27.25900
C  -3.18400 26.45400 29.61500
C  -5.21500 22.01700 29.86900
C  -5.47300 21.94900 25.00200
C  -3.56300 26.31500 24.66500
N  -4.32700 24.25800 29.46700
C  -3.88200 25.32700 30.21100
C  -3.92300 25.05800 31.72300
C  -4.27700 23.54500 31.79300
C  -4.69000 23.20000 30.29300
C  -3.07000 22.56800 32.26300
C  -5.04400 25.96600 32.35200
C  -4.67400 26.42900 33.71600
H  -5.00400 25.46200 34.78100
N  -5.40200 22.29100 27.44400
C  -5.54200 21.53000 28.64800
C  -6.16700 20.28000 28.30500
C  -6.10200 20.20800 26.92000
C  -5.64000 21.49000 26.38600
C  -6.72600 19.37000 29.38900
C  -6.59000 19.02100 25.95300
O  -6.62800 19.16500 24.75200
C  -7.24700 17.85200 26.61300
N  -4.71200 24.23800 25.10300
C  -5.21500 23.18700 24.39700
C  -5.19000 23.40500 22.95700
C  -4.64600 24.88700 22.82400
C  -4.22300 25.20500 24.24200
C  -4.39100 22.25900 22.19300
C  -5.52000 25.94800 22.12600
C  -4.81900 26.93000 21.20200
N  -3.68700 26.06700 27.11500
C  -3.29400 26.78500 25.97000
C  -2.60700 27.97600 26.44300
C  -2.51400 27.81200 27.83900
C  -3.18800 26.74500 28.21100
C  -1.95300 29.13800 25.67300
C  -2.05600 28.44100 29.03100
O  -1.44900 29.51900 29.22700
C  -2.54900 27.64900 30.28000
C  -1.30200 27.41300 30.98100
O  -0.49300 26.54400 30.71700
O  -1.17100 28.18500 32.05200
C  -0.23300 27.71000 33.05300
H  -5.24200 21.30600 30.69700
H  -5.75300 21.18000 24.28000
H  -3.32600 27.07800 23.92000
H  -2.92100 25.21500 32.12100
H  -5.16700 23.39300 32.40300
H  -3.45800 21.76000 32.88300
H  -2.35300 23.19100 32.79600
H  -2.46700 22.08600 31.49300
H  -6.03200 25.50800 32.40500
H  -5.17800 26.81800 31.68600
H  -5.01700 27.39700 34.08100
H  -3.58800 26.51600 33.66400
H  -6.11900 18.46400 29.38900
H  -7.76600 19.16700 29.13200
H  -6.68300 19.86300 30.36000
H  -7.36400 17.10100 25.83200
H  -8.28400 18.12600 26.80500
H  -6.62400 17.35700 27.35800
H  -6.19700 23.41100 22.53900
H  -3.76200 24.77800 22.19500
H  -3.82700 21.58600 22.83900
H  -3.72000 22.58700 21.40000
H  -5.17600 21.62700 21.77800
H  -6.13800 26.39500 22.90400
H  -6.16000 25.42400 21.41700
H  -5.19000 27.92600 21.44400
H  -4.98000 26.84400 20.12700
H  -3.77100 26.99200 21.49400
H  -2.64800 29.36200 24.86500
H  -0.95500 28.85800 25.33400
H  -1.80700 30.00500 26.31800
H  -3.25100 28.20200 30.90300
H  -0.52100 28.30200 33.92200
H  0.83900 27.77000 32.86400
H  -0.51700 26.68200 33.28000

