158

Mg 39.80400 9.83400 29.20300
C  41.76100 11.30200 31.65100
C  37.85000 8.31100 31.75200
C  38.03200 8.44200 26.89400
C  42.25200 10.58900 26.92000
N  39.91900 9.74000 31.49000
C  40.70500 10.57400 32.25400
C  40.35700 10.51600 33.69900
C  39.20400 9.42700 33.72500
C  38.95400 9.09800 32.18500
C  39.42800 8.12400 34.62400
C  39.99400 11.88700 34.37600
C  40.72500 12.23400 35.73500
H  39.78000 12.65700 36.92500
N  38.14100 8.54100 29.30200
C  37.51400 8.03800 30.41600
C  36.28800 7.33600 29.87700
C  36.26600 7.32400 28.43800
C  37.55500 8.12000 28.18400
C  35.24800 6.75900 30.82600
C  35.23400 6.80000 27.44700
O  35.19900 7.15100 26.29000
C  34.22000 5.80000 27.88700
N  40.03000 9.67400 27.15600
C  39.13500 9.05700 26.40300
C  39.30000 9.42500 24.94200
C  40.69100 10.12800 24.93600
C  41.05400 10.05700 26.44400
C  39.11800 8.13900 24.05100
C  40.67900 11.59700 24.47000
C  39.75800 12.60600 25.19100
N  41.60100 10.72200 29.19500
C  42.46600 10.98100 28.19500
C  43.58700 11.66700 28.73300
C  43.32300 11.82000 30.06800
C  42.15200 11.21900 30.35300
C  44.81000 12.16100 28.12500
C  43.82600 12.45900 31.26200
O  44.86700 13.02800 31.41500
C  42.80100 12.11700 32.37100
C  43.40600 11.22400 33.38400
O  43.76700 10.05200 33.15400
O  43.66000 11.84800 34.58600
C  44.41400 11.09000 35.67900
H  37.17300 7.77200 32.41800
H  37.41600 7.87200 26.19500
H  43.01700 10.62900 26.14100
H  41.06600 10.06100 34.39100
H  38.27700 9.88700 34.07000
H  39.36200 7.21400 34.02700
H  38.66800 8.03800 35.40100
H  40.33600 7.98200 35.21100
H  38.93100 11.92600 34.61600
H  40.28500 12.59300 33.59800
H  41.31800 13.11200 35.48100
H  41.42500 11.49000 36.11600
H  35.42700 5.71400 31.08000
H  34.23600 6.91000 30.45000
H  35.27500 7.39900 31.70700
H  34.59600 5.10300 28.63500
H  33.87600 5.19900 27.04500
H  33.38700 6.39700 28.25900
H  38.50000 10.13300 24.72300
H  41.33200 9.49300 24.32400
H  38.09700 8.08600 23.67200
H  39.44900 7.25700 24.59900
H  39.78400 8.37200 23.22100
H  40.30500 11.65100 23.44700
H  41.71200 11.94400 24.50500
H  39.32500 12.26800 26.13300
H  38.93900 12.94800 24.55900
H  40.30500 13.51500 25.44100
H  44.61600 12.50000 27.10800
H  45.57600 11.39400 28.01200
H  45.20000 12.86400 28.86000
H  42.30300 13.03100 32.69500
H  44.68000 11.79600 36.46600
H  45.32800 10.87400 35.12600
H  43.86100 10.28500 36.16200
Mg -5.62100 25.71800 25.99400
C  -3.85100 26.83300 28.88400
C  -7.39600 23.71000 27.82300
C  -6.47400 24.16500 23.11500
C  -3.40100 27.78700 24.08700
N  -5.67000 25.34600 28.12800
C  -4.87900 25.87500 29.10000
C  -5.41000 25.51700 30.43000
C  -6.44700 24.30100 30.10400
C  -6.61200 24.53300 28.64000
C  -5.93500 22.87300 30.42400
C  -6.14400 26.78900 31.01800
C  -5.78200 27.11900 32.38300
H  -5.24400 26.03600 33.33400
N  -6.83000 24.25800 25.52900
C  -7.48300 23.50400 26.45300
C  -8.23600 22.40800 25.86600
C  -7.97600 22.48900 24.49900
C  -7.08000 23.67200 24.31900
C  -9.21200 21.51800 26.59200
C  -8.42800 21.58400 23.37100
O  -8.14500 21.83500 22.23700
C  -9.40000 20.35200 23.59200
N  -5.15500 26.07200 23.85200
C  -5.63900 25.29700 22.84200
C  -5.06100 25.69800 21.44300
C  -4.14000 26.91300 21.78400
C  -4.23100 26.93900 23.33100
C  -4.39900 24.46900 20.80700
C  -4.54400 28.30500 21.17000
C  -3.35800 29.25000 20.74400
N  -3.95000 27.01700 26.28000
C  -3.25000 27.84400 25.43900
C  -2.22400 28.51600 26.23100
C  -2.44100 28.06500 27.53500
C  -3.53800 27.23400 27.52600
C  -1.03100 29.36200 25.82100
C  -1.90800 28.20900 28.90500
O  -0.89400 28.88400 29.27500
C  -2.95600 27.52000 29.87900
C  -2.05600 26.60700 30.58000
O  -1.53000 25.59600 30.08300
O  -1.78200 27.23000 31.79100
C  -0.77500 26.40800 32.42900
H  -8.07800 23.28400 28.56200
H  -6.69000 23.58900 22.21400
H  -2.68000 28.41300 23.55800
H  -4.67300 25.00200 31.04700
H  -7.36300 24.35100 30.69300
H  -5.13600 22.80000 31.16200
H  -5.71700 22.33000 29.50400
H  -6.75900 22.25000 30.77200
H  -7.21000 26.58300 30.92200
H  -6.00200 27.66500 30.38600
H  -6.68000 27.41000 32.92700
H  -4.97500 27.83200 32.21000
H  -10.19000 21.57500 26.11400
H  -9.30300 21.83800 27.63000
H  -8.90900 20.47500 26.68200
H  -9.00000 19.77400 24.42500
H  -9.37900 19.79900 22.65300
H  -10.38300 20.71800 23.88900
H  -6.00100 25.98600 20.97200
H  -3.07700 26.77500 21.58500
H  -5.08700 24.16900 20.01600
H  -4.27600 23.63100 21.49300
H  -3.38500 24.66600 20.45800
H  -5.09100 28.75800 21.99700
H  -5.36900 28.15400 20.47400
H  -2.35900 29.04500 21.12900
H  -3.36800 30.28900 21.07600
H  -3.24500 29.29000 19.66100
H  -0.63100 28.92200 24.90700
H  -0.23100 29.37900 26.56100
H  -1.40100 30.33900 25.51200
H  -3.36400 28.16500 30.65700
H  0.19800 26.59800 31.97700
H  -1.08700 25.36800 32.53200
H  -0.71800 26.63300 33.49400

