158

Mg 1.15500 41.44000 26.61600
C  2.93400 41.93800 29.52700
C  -1.53300 40.42300 28.37600
C  -0.41600 40.66000 23.71400
C  4.03600 42.25700 24.80600
N  0.64200 41.31900 28.84200
C  1.52000 41.58900 29.80200
C  0.77600 41.66700 31.16000
C  -0.58000 40.97200 30.80200
C  -0.54200 40.86600 29.30800
C  -1.05800 39.66800 31.54400
C  0.66300 43.15000 31.63000
C  0.78200 43.39000 33.14100
H  0.54500 42.24300 34.10100
N  -0.67400 40.66600 26.14100
C  -1.58700 40.17800 27.00800
C  -2.63800 39.47400 26.33100
C  -2.42100 39.73900 24.96100
C  -1.13000 40.35500 24.89100
C  -3.81500 38.75700 27.02500
C  -3.34300 39.34800 23.77200
O  -2.98600 39.45000 22.64500
C  -4.63600 38.81500 24.06300
N  1.68000 41.54100 24.59100
C  0.88800 41.13500 23.54600
C  1.45000 41.45100 22.08900
C  2.90300 41.89900 22.53900
C  2.86500 41.98000 24.09900
C  1.41200 40.24800 21.10500
C  3.46700 43.20500 21.91700
C  2.99000 44.48200 22.58100
N  3.01400 42.09400 27.00600
C  4.07200 42.40200 26.21600
C  5.20900 42.65700 26.96600
C  4.80000 42.37700 28.24000
C  3.47400 42.11300 28.19600
C  6.52900 43.14400 26.50400
C  5.32500 42.34600 29.62000
O  6.45700 42.52200 30.05900
C  4.02900 42.21000 30.51900
C  4.29100 41.15400 31.62900
O  4.06200 39.95900 31.52200
O  4.91400 41.67700 32.70600
C  5.50800 40.79600 33.74400
H  -2.47500 40.10200 28.82500
H  -0.82300 40.34800 22.75000
H  4.96400 42.43900 24.26000
H  1.44900 41.07000 31.77500
H  -1.39500 41.67500 30.97600
H  -0.53200 39.45200 32.47400
H  -0.96700 38.79000 30.90300
H  -2.12300 39.69200 31.77500
H  -0.29700 43.57500 31.33400
H  1.41800 43.78400 31.16500
H  0.07900 44.21100 33.27800
H  1.83600 43.65900 33.22000
H  -3.92900 37.75300 26.61500
H  -4.61500 39.47300 26.83500
H  -3.88200 38.61100 28.10300
H  -4.60100 37.75700 24.32100
H  -5.26900 38.96700 23.18900
H  -5.01400 39.43000 24.88100
H  0.96600 42.30400 21.61300
H  3.57000 41.05300 22.37400
H  2.44200 40.12000 20.77200
H  0.81200 40.37300 20.20300
H  0.97500 39.38800 21.61200
H  3.15000 43.13100 20.87700
H  4.55300 43.17500 22.00200
H  3.82300 44.92000 23.13200
H  2.12600 44.31100 23.22300
H  2.66700 45.28900 21.92300
H  7.04300 43.63000 27.33300
H  6.49700 43.78300 25.62200
H  7.11500 42.26500 26.23300
H  3.84100 43.21700 30.89200
H  6.20500 40.01800 33.43300
H  4.71800 40.24700 34.25600
H  5.91600 41.44200 34.52100
Mg -5.95500 25.05700 25.77100
C  -4.61900 26.82500 28.57700
C  -7.60100 22.99100 28.00800
C  -6.73400 23.23100 23.28100
C  -3.80200 26.95600 23.71700
N  -5.98100 24.89000 28.00000
C  -5.43300 25.77400 28.92300
C  -5.83300 25.40300 30.38000
C  -6.66200 24.00700 30.17100
C  -6.78400 23.99800 28.59000
C  -5.83400 22.74100 30.65300
C  -6.64900 26.55400 31.09600
C  -6.37900 26.70300 32.65000
H  -6.10500 25.55300 33.57400
N  -7.13400 23.37700 25.61600
C  -7.77900 22.68200 26.59700
C  -8.58300 21.63300 25.95700
C  -8.29600 21.68600 24.59900
C  -7.33700 22.76700 24.43000
C  -9.46500 20.77700 26.82700
C  -8.90800 20.84000 23.43000
O  -8.55000 21.01100 22.32100
C  -10.00700 19.81300 23.70600
N  -5.21400 25.04800 23.78900
C  -5.87600 24.24700 22.93300
C  -5.53200 24.56700 21.47700
C  -4.56200 25.72400 21.56900
C  -4.56100 26.02600 23.09600
C  -4.96900 23.34100 20.68900
C  -4.84400 26.91900 20.58200
C  -3.61800 27.64700 20.03700
N  -4.58900 26.64400 26.08300
C  -3.82800 27.30100 25.12900
C  -3.03500 28.30900 25.73300
C  -3.31500 28.25800 27.07600
C  -4.23800 27.16700 27.22700
C  -1.96800 29.17400 25.01400
C  -3.00600 28.70500 28.43700
O  -2.34800 29.66700 28.79200
C  -3.74900 27.75900 29.49300
C  -2.67900 26.92200 30.16700
O  -1.72400 26.47400 29.54200
O  -2.86400 26.97200 31.54300
C  -1.81800 26.22400 32.28100
H  -8.12200 22.47300 28.81600
H  -7.06100 22.70400 22.38200
H  -3.17800 27.45700 22.97500
H  -4.90700 25.27700 30.94000
H  -7.61600 24.21900 30.65400
H  -6.44900 22.10100 31.28600
H  -4.94900 22.92900 31.26000
H  -5.69100 22.07700 29.80000
H  -7.73600 26.47800 31.12400
H  -6.38600 27.43100 30.50500
H  -7.08100 27.33300 33.19500
H  -5.42400 27.22700 32.65600
H  -9.36600 19.71300 26.61000
H  -10.52200 21.02800 26.73800
H  -9.22400 20.82700 27.88900
H  -9.81100 19.16800 24.56300
H  -9.97700 19.11200 22.87100
H  -10.96700 20.32800 23.71400
H  -6.50100 24.83100 21.05400
H  -3.55700 25.31700 21.45700
H  -4.89000 22.46200 21.32800
H  -3.91700 23.50200 20.45300
H  -5.50200 23.18700 19.75000
H  -5.49400 27.62900 21.09200
H  -5.51500 26.57100 19.79700
H  -3.55700 28.68700 20.35800
H  -3.52500 27.59700 18.95300
H  -2.71200 27.24600 20.49000
H  -1.12100 29.49000 25.62300
H  -2.44500 29.97600 24.45100
H  -1.58300 28.54400 24.21200
H  -4.33900 28.30000 30.23300
H  -1.40600 26.84500 33.07700
H  -0.92800 25.96300 31.70800
H  -2.27000 25.38900 32.81600

