158

Mg 42.31200 40.93100 27.63000
C  41.09100 43.06600 30.07500
C  42.71400 38.61400 29.96000
C  43.21300 39.06400 25.13300
C  41.70900 43.52100 25.22700
N  42.03300 40.86200 29.77600
C  41.46900 41.83400 30.59900
C  41.53800 41.50300 32.02500
C  42.34800 40.15500 31.98100
C  42.37400 39.83000 30.52700
C  43.65700 40.10200 32.74500
C  40.13300 41.38100 32.67700
C  39.87700 42.38600 33.89800
H  39.24300 41.83300 35.13500
N  42.93600 39.05600 27.62400
C  43.01500 38.17400 28.67300
C  43.44200 36.88500 28.11000
C  43.78000 37.10200 26.74400
C  43.30700 38.44100 26.42500
C  43.60800 35.70400 28.99000
C  44.40900 36.07400 25.70800
O  44.68400 36.47600 24.56600
C  44.77600 34.65100 26.09600
N  42.61300 41.32000 25.50100
C  42.89300 40.30300 24.67900
C  42.88400 40.63800 23.19900
C  42.10200 42.00300 23.26100
C  42.19400 42.32200 24.74900
C  44.29900 40.61700 22.46300
C  40.67300 41.84300 22.67800
C  39.79600 40.65500 23.20700
N  41.65500 42.86200 27.60600
C  41.49300 43.79000 26.52400
C  41.01600 45.05300 27.09200
C  40.78100 44.79200 28.47300
C  41.24200 43.49900 28.74500
C  40.96800 46.31500 26.36100
C  40.30100 45.33600 29.76100
O  39.74000 46.42400 30.02900
C  40.57300 44.31600 30.83700
C  41.61700 44.97100 31.66500
O  42.71400 45.30900 31.37400
O  41.05300 45.13100 32.91200
C  41.83100 45.75000 34.05600
H  42.75700 37.79300 30.67800
H  43.35400 38.39000 24.28500
H  41.33000 44.31900 24.58500
H  42.19700 42.18200 32.56500
H  41.73200 39.38600 32.44700
H  43.99500 39.06600 32.78100
H  43.55000 40.46800 33.76600
H  44.41600 40.69800 32.23700
H  40.08800 40.37700 33.09800
H  39.36800 41.54400 31.91700
H  39.17700 43.21000 33.76500
H  40.85600 42.76100 34.19300
H  43.76300 36.01800 30.02200
H  44.51800 35.15800 28.74300
H  42.76000 35.01800 28.96300
H  45.76300 34.71500 26.55500
H  45.00800 34.11600 25.17500
H  44.11100 34.09800 26.76000
H  42.39000 39.85100 22.62900
H  42.64100 42.77300 22.70800
H  44.23000 40.27900 21.42900
H  44.95100 40.03800 23.11800
H  44.77800 41.59500 22.51100
H  40.77100 41.72300 21.59900
H  40.07900 42.74200 22.84100
H  40.35900 39.89900 23.75500
H  39.34400 40.10800 22.38000
H  39.03700 41.10300 23.84800
H  41.50300 46.33900 25.41100
H  41.13600 47.06300 27.13500
H  39.94500 46.34000 25.98700
H  39.69500 44.25200 31.48000
H  41.90300 45.02700 34.86900
H  41.19400 46.56600 34.39700
H  42.78300 46.18700 33.75300
Mg -2.17400 34.73500 25.77600
C  -3.91300 33.10800 28.33000
C  -1.10500 36.98900 28.01500
C  -0.89300 36.58900 23.15400
C  -3.73700 32.67500 23.44800
N  -2.65100 35.04500 27.94300
C  -3.26900 34.27300 28.80800
C  -3.03800 34.70200 30.28300
C  -2.27000 36.02800 30.15300
C  -1.93500 36.00200 28.60600
C  -3.06400 37.35900 30.53500
C  -2.36900 33.58800 31.13600
C  -3.06900 33.28200 32.45600
H  -2.08400 33.16800 33.60100
N  -1.18400 36.52800 25.67000
C  -0.76100 37.25700 26.73100
C  0.04100 38.43500 26.20400
C  0.09200 38.32900 24.75400
C  -0.64600 37.14000 24.46900
C  0.53500 39.53200 27.10600
C  0.68200 39.27600 23.65000
O  0.72500 39.09900 22.42700
C  1.47900 40.51300 24.11400
N  -2.43400 34.72300 23.71700
C  -1.67200 35.49800 22.82800
C  -1.79100 35.00800 21.34900
C  -2.41100 33.60100 21.59500
C  -2.88900 33.67900 23.03800
C  -2.75100 35.96500 20.52600
C  -1.43600 32.35200 21.38200
C  -0.72500 31.70200 22.62300
N  -3.55900 33.10600 25.80300
C  -4.12000 32.41600 24.78300
C  -4.94000 31.30500 25.39400
C  -4.82500 31.51300 26.75900
C  -4.02600 32.65300 26.98300
C  -5.86000 30.42600 24.74200
C  -5.29800 31.03800 28.03500
O  -5.94900 30.04100 28.31100
C  -4.71500 32.06800 29.15600
C  -5.82500 32.60500 29.88100
O  -6.55000 33.48800 29.46300
O  -5.87400 32.08500 31.14000
C  -6.89100 32.44400 32.15500
H  -0.63600 37.69100 28.70700
H  -0.30600 36.93200 22.30000
H  -4.00900 31.95700 22.67000
H  -4.08100 34.80500 30.58200
H  -1.27700 36.09900 30.59700
H  -3.61300 37.75000 29.67800
H  -2.36300 38.13800 30.83500
H  -3.69600 37.13400 31.39500
H  -1.40700 33.97200 31.47600
H  -2.22200 32.71500 30.50100
H  -3.38500 32.24800 32.31900
H  -3.88300 33.98000 32.65100
H  0.98300 40.39900 26.62000
H  1.32000 39.31500 27.83100
H  -0.24700 39.92200 27.75700
H  1.91000 40.94800 23.21200
H  2.37400 40.03400 24.51000
H  1.00600 41.22800 24.78700
H  -0.89300 34.90100 20.74000
H  -3.31200 33.47500 20.99400
H  -2.21300 36.78300 20.04800
H  -3.47900 36.43400 21.18800
H  -3.08500 35.35900 19.68400
H  -0.64600 32.75000 20.74700
H  -1.92900 31.60500 20.76000
H  -1.15200 32.09900 23.54400
H  0.34300 31.89200 22.51400
H  -0.88200 30.62600 22.69600
H  -5.55800 30.29500 23.70300
H  -6.87400 30.81400 24.83400
H  -5.84700 29.48200 25.28700
H  -4.04900 31.43500 29.74200
H  -7.12800 31.57800 32.77300
H  -7.78600 32.96600 31.81500
H  -6.34600 33.11900 32.81500

