158

Mg 34.34500 2.83900 28.87400
C  32.34500 3.62500 31.69100
C  36.94900 2.56500 30.92400
C  36.29100 2.74100 26.04000
C  31.64100 3.65100 26.83900
N  34.59800 2.88900 31.10600
C  33.63900 3.15200 32.01900
C  34.25000 3.13000 33.45700
C  35.79900 2.95700 33.10900
C  35.77800 2.74800 31.66200
C  36.65200 4.15900 33.52400
C  33.59300 2.03700 34.32800
C  33.49300 2.32500 35.84200
H  34.25000 3.55700 36.33500
N  36.23700 2.47800 28.54100
C  37.13000 2.25200 29.51900
C  38.36600 1.80200 28.90600
C  38.22700 1.81900 27.50200
C  36.89600 2.44400 27.27100
C  39.45900 1.33700 29.79700
C  39.16200 1.18300 26.44500
O  39.11100 1.62500 25.31000
C  40.20600 0.11000 26.72700
N  34.01400 3.34400 26.72800
C  34.95600 3.09200 25.77200
C  34.41200 3.18800 24.34400
C  32.86900 3.09300 24.60800
C  32.79900 3.37800 26.18200
C  34.68200 4.52100 23.62600
C  32.14900 1.72400 24.22100
C  30.69900 1.83300 23.65900
N  32.37100 3.48900 29.12000
C  31.38500 3.75100 28.17400
C  30.19400 4.04900 28.82300
C  30.47700 3.96800 30.19000
C  31.87200 3.71500 30.34800
C  28.87200 4.40500 28.24500
C  29.91400 4.13900 31.56600
O  28.81800 4.46100 31.96400
C  31.16400 3.90100 32.55400
C  31.29100 5.20000 33.33100
O  32.03900 6.12600 33.03400
O  30.44700 5.25200 34.38900
C  30.52200 6.50900 35.23100
H  37.81600 2.54200 31.58700
H  36.81100 2.67600 25.08200
H  30.75100 3.62800 26.20700
H  34.12500 4.12800 33.87700
H  36.15400 2.04000 33.58000
H  36.96100 4.83500 32.72700
H  37.54300 3.70400 33.95800
H  36.15000 4.69100 34.33200
H  34.16000 1.12000 34.16700
H  32.59400 1.75500 33.99700
H  33.82200 1.46600 36.42600
H  32.43100 2.50400 36.00900
H  39.68800 0.27300 29.73000
H  39.33900 1.56500 30.85600
H  40.38900 1.86100 29.57600
H  41.17700 0.49400 27.04000
H  40.33600 -0.50200 25.83500
H  39.91100 -0.59700 27.50300
H  34.73300 2.31800 23.77100
H  32.30700 3.89200 24.12500
H  35.17400 5.25100 24.26900
H  33.74800 4.94000 23.25200
H  35.32000 4.40100 22.75000
H  31.99000 1.19000 25.15800
H  32.69800 1.21300 23.43000
H  29.95400 1.40000 24.32600
H  30.66300 1.13800 22.82100
H  30.37900 2.81400 23.30800
H  28.83500 4.17900 27.18000
H  28.58300 5.41400 28.53900
H  28.03800 3.74700 28.48800
H  30.95500 3.00000 33.13000
H  30.36800 7.34100 34.54500
H  31.47400 6.47800 35.76100
H  29.70400 6.54800 35.95000
Mg 49.32700 46.58700 43.42700
C  45.96900 47.22600 42.35600
C  49.14800 43.51200 42.24000
C  52.66400 46.42600 43.74900
C  49.41900 50.00300 44.42500
N  47.71600 45.51400 42.40100
C  46.38900 45.91600 42.05200
C  45.64900 44.73300 41.54300
C  46.65100 43.47400 41.58400
C  47.93300 44.19800 42.11600
C  46.32500 42.20000 42.27800
C  44.96000 45.00700 40.17700
C  45.79400 45.65000 39.00000
H  45.92400 44.89800 37.62700
N  50.79400 45.11700 43.05300
C  50.45500 43.86400 42.59200
C  51.63700 43.07600 42.68800
C  52.68100 43.86500 43.16800
C  52.08900 45.21900 43.33200
C  51.69000 41.61000 42.21100
C  54.10400 43.39200 43.41000
O  54.42800 42.27500 43.18800
C  55.14000 44.24600 44.07000
N  50.83200 48.03300 43.91200
C  52.13100 47.71900 44.07900
C  52.97400 48.95000 44.31900
C  51.90900 50.08500 44.54300
C  50.68200 49.34100 44.34500
C  53.87600 48.65500 45.51300
C  52.01700 51.22400 43.48600
C  51.74300 52.67200 44.00900
N  48.03500 48.26500 43.39300
C  48.15000 49.60000 43.87800
C  46.90300 50.34700 43.86800
C  46.07100 49.41800 43.19300
C  46.75600 48.21100 42.96000
C  46.72900 51.77900 44.26500
C  44.75100 49.32900 42.63000
O  43.83600 50.16400 42.48400
C  44.57500 47.84700 42.21000
C  43.54000 47.10600 43.08800
O  43.53900 46.95700 44.30000
O  42.44500 46.58200 42.38400
C  41.71300 45.43500 43.01000
H  49.06900 42.43800 42.06400
H  53.74900 46.34100 43.83800
H  49.28500 51.02900 44.77500
H  44.87100 44.62300 42.29800
H  46.94200 43.19600 40.57100
H  46.31700 41.42300 41.51400
H  45.37000 42.35700 42.77900
H  47.07800 41.88900 43.00300
H  44.05200 45.58400 40.35200
H  44.54700 44.12400 39.69000
H  46.81800 45.73300 39.36500
H  45.31700 46.59700 38.74900
H  52.25500 41.50800 41.28500
H  50.73200 41.26900 41.81800
H  52.01900 40.91500 42.98300
H  54.66700 44.67200 44.95500
H  55.52600 45.00600 43.39100
H  55.97400 43.58600 44.30700
H  53.64500 49.10400 43.47400
H  51.96900 50.48900 45.55400
H  54.87000 49.04600 45.29400
H  54.18000 47.63300 45.73900
H  53.51200 49.17100 46.40100
H  51.25300 51.04500 42.72900
H  52.96300 51.05900 42.97000
H  51.09200 53.14000 43.27100
H  52.62500 53.31000 43.95100
H  51.42400 52.74300 45.04900
H  45.68600 52.09200 44.21100
H  47.30000 52.33000 43.51700
H  46.83400 52.07400 45.30900
H  44.13200 47.77700 41.21700
H  42.22700 45.01600 43.87500
H  41.47300 44.71100 42.23200
H  40.72800 45.73200 43.37100

