158

Mg 25.95300 53.08400 26.11700
C  23.69900 53.98300 28.90100
C  28.31300 52.65100 28.45400
C  28.05700 52.72800 23.49300
C  23.39700 53.95700 23.90300
N  25.89600 53.27000 28.46400
C  24.91000 53.47900 29.36700
C  25.40100 53.21200 30.78600
C  26.83600 52.68300 30.53500
C  27.06500 52.89900 29.04900
C  27.95200 53.34000 31.35200
C  24.47700 52.30200 31.61800
C  25.05900 51.67600 32.95200
H  24.42300 52.02100 34.40300
N  27.93400 52.79000 25.96900
C  28.73500 52.60200 27.02700
C  30.07800 52.33200 26.61000
C  30.04500 52.37200 25.16600
C  28.64300 52.60800 24.77300
C  31.21100 52.05500 27.66400
C  31.18400 52.17900 24.15700
O  31.09800 52.29100 22.96700
C  32.61000 51.92700 24.72700
N  25.67400 53.48400 24.00100
C  26.71200 53.11000 23.18800
C  26.25900 53.23600 21.70600
C  24.69700 53.42200 21.77600
C  24.57500 53.61400 23.30700
C  26.93500 54.41000 20.87300
C  23.86900 52.21300 21.27900
C  22.54100 52.60200 20.48800
N  23.99000 53.87100 26.31000
C  23.04700 54.10200 25.24900
C  21.80700 54.66000 25.91000
C  22.03300 54.63700 27.26900
C  23.37900 54.14800 27.47500
C  20.66300 55.06800 25.16900
C  21.42000 54.78400 28.56600
O  20.34500 55.21400 28.82200
C  22.48400 54.34300 29.64000
C  22.65500 55.49400 30.59300
O  23.26000 56.57000 30.39200
O  22.18000 55.07700 31.82900
C  22.42200 56.16600 32.83900
H  29.11700 52.35400 29.13100
H  28.70300 52.54300 22.63200
H  22.57600 54.13700 23.20700
H  25.40800 54.18400 31.28100
H  26.94300 51.61900 30.74400
H  27.67500 53.65100 32.35900
H  28.46000 54.16000 30.84400
H  28.64000 52.54500 31.63900
H  23.93900 51.51200 31.09500
H  23.65000 52.94900 31.91000
H  26.13700 51.82900 33.01600
H  24.91100 50.60700 32.80200
H  31.44100 50.99200 27.74300
H  31.00800 52.54700 28.61500
H  32.21700 52.39700 27.42200
H  33.24900 51.58100 23.91500
H  32.54200 51.14900 25.48700
H  32.78100 52.87200 25.24400
H  26.46800 52.24900 21.29400
H  24.29400 54.29600 21.26300
H  27.67200 54.04800 20.15700
H  27.42300 55.03100 21.62500
H  26.16100 55.05100 20.45200
H  23.45100 51.64100 22.10700
H  24.35700 51.49900 20.61500
H  22.38900 53.66800 20.32000
H  21.66800 52.27700 21.05300
H  22.57100 52.20600 19.47300
H  20.88400 55.34300 24.13700
H  20.28800 56.00300 25.58600
H  19.79000 54.41800 25.21200
H  22.19600 53.50500 30.27500
H  23.47100 56.05700 33.11400
H  21.85900 55.98600 33.75500
H  22.23000 57.17500 32.47300
Mg 16.17500 52.27200 26.16100
C  18.47100 51.71300 28.66800
C  13.74100 52.06900 28.58200
C  13.84800 52.73300 23.74800
C  18.66700 51.69500 23.74400
N  16.16100 52.11700 28.42800
C  17.24500 52.00500 29.20600
C  16.87900 52.22300 30.64800
C  15.32400 52.02600 30.66600
C  14.99300 52.05600 29.15800
C  14.81400 50.81700 31.52400
C  17.54500 53.55600 31.18100
C  17.96300 53.54700 32.63300
H  17.21400 52.67900 33.69600
N  14.02800 52.29500 26.13100
C  13.22400 52.17700 27.22300
C  11.84800 52.14200 26.75500
C  11.88800 52.36800 25.33000
C  13.32200 52.47600 25.02800
C  10.69100 51.83000 27.67000
C  10.75900 52.43000 24.28000
O  11.01600 52.79300 23.18500
C  9.35700 52.11800 24.68000
N  16.18000 52.24300 24.06300
C  15.16500 52.65600 23.33300
C  15.63600 52.95300 21.86500
C  17.16700 52.61700 21.83200
C  17.33700 52.12000 23.26500
C  14.76000 52.33500 20.74000
C  18.02300 53.83300 21.44100
C  18.97100 53.57200 20.25300
N  18.13800 51.80400 26.12200
C  19.00600 51.55900 25.11700
C  20.30800 51.14400 25.63500
C  20.15100 51.23600 27.02200
C  18.78700 51.60200 27.25200
C  21.54000 50.80200 24.90100
C  20.78700 51.14000 28.29100
O  21.92600 50.79800 28.56700
C  19.72300 51.45700 29.39600
C  19.60600 50.27500 30.19400
O  19.25100 49.13700 29.85400
O  20.08200 50.56800 31.42100
C  20.23900 49.55600 32.42500
H  12.99500 52.10300 29.37900
H  13.20500 53.05300 22.92600
H  19.54300 51.52700 23.11400
H  17.29000 51.41100 31.24700
H  14.90500 52.95400 31.05400
H  14.05600 51.00300 32.28500
H  15.66900 50.29900 31.95800
H  14.35600 50.09000 30.85300
H  16.77100 54.28300 30.93400
H  18.47600 53.81200 30.67500
H  17.82200 54.58200 32.94400
H  18.95800 53.10200 32.66400
H  10.04900 52.71100 27.66700
H  11.01300 51.47500 28.64900
H  10.07500 51.04200 27.23600
H  9.04200 52.61100 25.60000
H  9.30900 51.03900 24.82600
H  8.64100 52.43700 23.92300
H  15.40800 54.01800 21.90100
H  17.32100 51.64900 21.35600
H  15.43600 51.74800 20.11800
H  14.47200 53.17600 20.10800
H  13.95500 51.63400 20.95900
H  18.61300 53.93300 22.35200
H  17.45600 54.72200 21.16400
H  19.09200 54.46400 19.63800
H  18.49300 52.80900 19.63900
H  19.95500 53.38700 20.68100
H  22.33200 50.55600 25.60800
H  21.79300 51.61800 24.22400
H  21.33300 49.97800 24.21800
H  20.17200 52.23200 30.01600
H  20.87500 48.75900 32.03900
H  19.21200 49.21900 32.56300
H  20.70300 50.08400 33.25800

