158

Mg 46.26100 3.67400 48.22400
C  44.57500 6.62900 47.18000
C  43.37900 1.92000 47.62800
C  48.09200 0.94600 48.35300
C  49.22300 5.74100 48.31000
N  44.26400 4.23600 47.44100
C  43.78900 5.51500 47.05000
C  42.31200 5.47100 46.64700
C  41.95700 3.98800 46.99500
C  43.26500 3.32900 47.39500
C  40.73400 3.85700 47.94800
C  41.94900 5.99500 45.22500
C  40.59800 6.86500 45.21500
H  39.66100 6.77900 44.07800
N  45.79600 1.64700 48.05400
C  44.60200 1.14000 47.78800
C  44.67200 -0.27100 47.70100
C  46.05800 -0.64500 47.84000
C  46.76000 0.66800 48.13500
C  43.40400 -1.11800 47.27000
C  46.57900 -2.03000 47.54400
O  45.88300 -2.93100 47.12100
C  48.02300 -2.29200 47.88200
N  48.42200 3.47500 48.33300
C  48.83900 2.20000 48.38200
C  50.37800 2.19900 48.68600
C  50.78900 3.70800 48.44500
C  49.39900 4.37200 48.38700
C  50.67800 1.64500 50.10900
C  51.40500 4.05400 47.01300
C  52.92200 4.08600 46.96300
N  46.79200 5.73900 48.01800
C  48.04400 6.44700 48.03600
C  47.78300 7.90000 47.87600
C  46.43700 7.91800 47.47200
C  45.91900 6.64500 47.56800
C  48.88300 8.86500 47.75200
C  45.42300 8.86200 46.98400
O  45.52100 10.03800 46.71100
C  44.22900 8.02400 46.85000
C  43.16600 8.52800 47.73700
O  43.07600 8.35800 48.97500
O  42.20100 9.22000 47.02700
C  41.21500 10.02200 47.74000
H  42.45300 1.41800 47.34200
H  48.74600 0.07800 48.45300
H  50.08600 6.40300 48.40500
H  41.88300 6.01800 47.48700
H  41.73700 3.36000 46.13200
H  40.24800 4.83000 48.02100
H  40.99600 3.43400 48.91800
H  40.07800 3.18700 47.39200
H  41.65900 5.23200 44.50300
H  42.77800 6.53000 44.76300
H  40.89400 7.90900 45.31300
H  40.05900 6.64900 46.13800
H  43.82100 -1.90100 46.63600
H  42.66200 -0.59700 46.66400
H  42.94900 -1.63600 48.11300
H  48.66600 -1.66100 47.26800
H  48.27400 -3.34300 47.73600
H  48.20900 -2.10000 48.93900
H  50.90300 1.58200 47.95700
H  51.25000 4.24200 49.27500
H  49.79000 1.32900 50.65500
H  51.35100 2.28900 50.67600
H  51.34000 0.79400 49.94600
H  51.05200 4.97800 46.55600
H  51.10700 3.25000 46.33800
H  53.13200 3.49000 46.07500
H  53.32300 3.52800 47.81000
H  53.24900 5.12500 46.98800
H  49.47100 8.62800 46.86600
H  49.57300 8.61600 48.55900
H  48.49600 9.88000 47.84400
H  43.76100 8.15200 45.87400
H  40.43200 9.38200 48.14800
H  40.95000 10.69400 46.92400
H  41.72900 10.54600 48.54500
Mg 47.12600 16.31900 28.26800
C  44.95300 15.80400 30.89600
C  49.21500 18.02800 30.25000
C  48.98300 17.08200 25.56900
C  44.75200 14.74100 26.13400
N  47.02300 16.81300 30.41500
C  46.14600 16.44900 31.33800
C  46.55400 16.83800 32.68500
C  47.79500 17.79500 32.40100
C  48.07400 17.52900 30.89900
C  47.68700 19.24700 32.81700
C  46.71900 15.52900 33.51700
C  47.76500 15.73200 34.59700
H  47.86400 17.00600 35.47900
N  48.96900 17.28100 27.96500
C  49.63300 17.93300 28.94100
C  50.93500 18.39900 28.41200
C  50.86900 18.18200 26.99400
C  49.54600 17.54500 26.77800
C  52.02700 19.09800 29.34300
C  51.79000 18.62500 25.93100
O  51.52000 18.49500 24.73100
C  53.09300 19.17700 26.36100
N  46.77200 16.07900 26.18200
C  47.78800 16.40700 25.31700
C  47.41200 15.98400 23.86200
C  46.13200 15.13100 24.12100
C  45.92000 15.30700 25.53700
C  47.24800 17.17500 22.86100
C  46.04300 13.69900 23.56000
C  44.82800 13.34800 22.55100
N  45.17300 15.51300 28.40900
C  44.35300 14.89700 27.43100
C  43.25100 14.25000 28.17100
C  43.42900 14.67000 29.45200
C  44.64600 15.35700 29.56400
C  42.13600 13.41900 27.54300
C  42.83200 14.66000 30.74400
O  41.84700 14.08800 31.20300
C  43.84600 15.25200 31.72000
C  43.13000 16.29100 32.57300
O  42.71700 17.33000 32.14100
O  43.01500 15.86300 33.87800
C  42.42100 16.74800 34.90400
H  49.83800 18.41400 31.05900
H  49.64900 17.24200 24.71800
H  43.98600 14.26500 25.51700
H  45.71600 17.41800 33.07200
H  48.67300 17.48300 32.96700
H  47.61400 19.93300 31.97300
H  48.65500 19.50000 33.24900
H  46.80200 19.46000 33.41800
H  47.08100 14.79700 32.79600
H  45.83700 15.11300 34.00500
H  48.77800 15.59900 34.21800
H  47.59200 14.91600 35.29800
H  53.05700 18.77200 29.20700
H  51.74600 18.68900 30.31300
H  52.02100 20.18500 29.25600
H  53.05700 20.16800 26.81300
H  53.61200 19.44700 25.44100
H  53.66200 18.36700 26.81800
H  48.09300 15.25300 23.42600
H  45.29500 15.68400 23.69400
H  47.58800 18.05700 23.40400
H  46.26500 17.22800 22.39300
H  47.94100 16.94000 22.05300
H  46.10700 12.93000 24.33100
H  46.91600 13.51400 22.93400
H  44.25600 14.25700 22.36400
H  44.29300 12.49900 22.97400
H  45.33100 13.08600 21.62000
H  42.16900 13.32800 26.45700
H  41.24800 13.97500 27.84500
H  41.90800 12.48000 28.04700
H  44.29000 14.43800 32.29200
H  41.48400 17.08700 34.46300
H  43.19200 17.50300 35.05900
H  42.40900 16.13400 35.80500

