158

Mg 0.35800 7.45800 25.64400
C  1.07600 9.26400 28.49500
C  -0.48400 4.68900 27.66300
C  -0.07100 5.49200 22.83400
C  1.26400 10.11600 23.68800
N  0.57500 7.01800 27.78300
C  0.64100 7.92300 28.79000
C  0.35700 7.39700 30.13900
C  0.09500 5.80600 29.89300
C  0.13200 5.80000 28.29900
C  1.11200 4.80000 30.51900
C  -0.87700 8.00400 30.84500
C  -0.64700 8.55100 32.32200
H  0.46000 7.88300 33.19900
N  -0.16300 5.43300 25.29800
C  -0.62200 4.53100 26.28800
C  -1.21100 3.41300 25.67700
C  -0.99500 3.47000 24.29100
C  -0.42600 4.90600 24.03600
C  -2.09300 2.42100 26.39400
C  -1.23800 2.50100 23.19600
O  -0.94400 2.69100 22.05800
C  -1.82500 1.07800 23.48700
N  0.76800 7.73800 23.56500
C  0.44000 6.77300 22.62400
C  0.60900 7.23900 21.23900
C  0.82100 8.79900 21.48300
C  1.00100 8.93800 23.04900
C  1.79300 6.49200 20.51400
C  -0.32100 9.70000 20.81100
C  -1.73800 9.58000 21.47000
N  1.02000 9.28900 26.01600
C  1.25300 10.31100 25.14200
C  1.63400 11.52300 25.87300
C  1.53100 11.19600 27.16300
C  1.19600 9.81000 27.24400
C  1.97900 12.88300 25.27700
C  1.62100 11.71400 28.51600
O  1.94900 12.80400 28.93700
C  1.20800 10.50300 29.39400
C  2.23200 10.21100 30.48700
O  3.30700 9.60300 30.44300
O  1.75400 10.86200 31.60900
C  2.44800 10.90200 32.89500
H  -0.66800 3.77800 28.23600
H  -0.25500 4.91000 21.92900
H  1.55200 11.02700 23.15900
H  1.30500 7.54500 30.65700
H  -0.89900 5.55300 30.26200
H  1.34500 3.94000 29.89200
H  0.66000 4.31200 31.38200
H  1.94300 5.46500 30.75500
H  -1.72200 7.33100 30.98400
H  -1.19400 8.82300 30.20000
H  -1.62600 8.59300 32.79900
H  -0.30700 9.58600 32.32800
H  -1.67300 1.45600 26.68000
H  -3.00100 2.22400 25.82500
H  -2.49400 2.84100 27.31600
H  -1.17500 0.40900 24.05100
H  -2.00700 0.51700 22.57000
H  -2.77600 1.29100 23.97300
H  -0.33700 7.02200 20.74200
H  1.71100 9.03200 20.89800
H  2.31600 5.89700 21.26300
H  2.38800 7.26700 20.03000
H  1.30100 5.77300 19.85900
H  -0.43100 9.33500 19.78900
H  0.04100 10.70200 20.58400
H  -1.66500 9.12500 22.45800
H  -2.36800 8.99600 20.79800
H  -2.18000 10.57200 21.56900
H  2.49100 13.53900 25.98100
H  1.09300 13.44300 24.98000
H  2.57900 12.86500 24.36800
H  0.26900 10.74500 29.89300
H  1.75500 10.68600 33.70800
H  2.90600 11.88500 33.00200
H  3.22700 10.14300 32.82400
Mg 30.57400 58.09500 40.44200
C  27.69800 56.30100 39.56700
C  32.55600 55.70500 39.17300
C  33.24200 60.23800 40.53700
C  28.43300 60.84100 41.24600
N  30.11700 56.29400 39.37400
C  28.89300 55.66200 39.21800
C  29.02400 54.19400 38.71300
C  30.57800 54.08600 38.75300
C  31.17300 55.46300 39.16400
C  31.02800 52.98700 39.71000
C  28.27400 53.80300 37.39800
C  29.05900 53.90500 36.06700
H  28.21800 54.11600 34.84900
N  32.66200 58.00000 40.07200
C  33.23900 56.88100 39.50500
C  34.68800 57.04800 39.51800
C  34.92500 58.35200 40.01100
C  33.54900 58.94700 40.21200
C  35.69600 55.97800 39.13900
C  36.30500 59.02600 40.33900
O  37.39100 58.38600 40.21300
C  36.49800 60.49400 40.70600
N  30.82100 60.18900 40.87400
C  32.04000 60.80900 40.94400
C  31.86800 62.29600 41.11500
C  30.35300 62.44800 41.51200
C  29.81600 61.07600 41.18700
C  32.81800 63.09300 42.08700
C  29.49600 63.73600 40.92600
C  28.75700 64.58000 42.01700
N  28.47400 58.52100 40.52000
C  27.70600 59.68100 40.85000
C  26.26800 59.34400 40.56600
C  26.27700 57.99100 40.29600
C  27.57400 57.59600 40.13300
C  25.08600 60.20900 40.72600
C  25.35600 56.86400 40.09500
O  24.14700 56.85100 40.21600
C  26.30400 55.76800 39.48400
C  26.11200 54.60800 40.36100
O  26.64000 54.42300 41.43500
O  25.23800 53.64500 39.79800
C  24.89700 52.41200 40.69200
H  33.27500 54.93300 38.89300
H  33.89700 61.10100 40.40100
H  27.82600 61.68000 41.59400
H  28.61200 53.50300 39.44900
H  30.99300 53.84700 37.77400
H  31.47700 53.33600 40.64000
H  31.76800 52.40500 39.16100
H  30.23500 52.25700 39.86700
H  27.36600 54.40000 37.32000
H  27.99100 52.77500 37.62100
H  29.65100 52.99800 35.94400
H  29.88600 54.59900 36.21700
H  36.48600 56.44200 38.54900
H  35.20600 55.34800 38.39700
H  36.02000 55.36000 39.97700
H  35.87200 60.69500 41.57500
H  36.21100 61.08100 39.83400
H  37.55800 60.69100 40.86600
H  31.94600 62.83400 40.17100
H  30.36000 62.32100 42.59400
H  32.30600 63.54400 42.93600
H  33.28000 63.79100 41.38800
H  33.59800 62.50200 42.56600
H  28.82900 63.38900 40.13600
H  30.21000 64.43000 40.48200
H  29.40100 65.45500 42.09900
H  28.68600 64.04700 42.96600
H  27.74700 64.85600 41.71300
H  25.13700 60.95400 41.52000
H  24.10900 59.73900 40.83500
H  25.11600 60.76500 39.78900
H  26.03500 55.70900 38.43000
H  25.54300 51.56800 40.45000
H  23.85000 52.11400 40.64900
H  24.98200 52.53700 41.77200

