158

Mg 2.01700 -1.50600 44.49400
C  5.42400 -0.62600 43.75900
C  1.12400 1.11200 42.30900
C  -1.12700 -2.60500 44.72100
C  3.22400 -4.46400 45.78000
N  3.11900 -0.05000 43.05700
C  4.51600 0.12500 43.07300
C  4.89700 1.26800 42.13300
C  3.52500 1.96100 41.93800
C  2.50900 0.99600 42.44000
C  3.48100 3.36200 42.53200
C  5.55100 0.77100 40.88300
C  6.60000 1.85300 40.36300
H  6.55000 2.30300 38.94900
N  0.21100 -0.79600 43.75700
C  0.09000 0.25800 42.86300
C  -1.34900 0.45200 42.66600
C  -2.01700 -0.63800 43.32000
C  -0.93600 -1.43300 44.00400
C  -1.87800 1.42300 41.67900
C  -3.51200 -0.81600 43.34400
O  -4.13600 -0.01000 42.72700
C  -4.17700 -1.97300 44.07700
N  1.14500 -3.33500 45.10500
C  -0.17500 -3.52500 45.12200
C  -0.46700 -4.91300 45.73200
C  0.89200 -5.55300 45.93700
C  1.81400 -4.42200 45.60900
C  -1.32700 -4.84600 47.10100
C  1.19500 -6.80500 44.97100
C  0.62900 -8.25500 45.42400
N  3.88400 -2.33900 44.83800
C  4.23300 -3.55300 45.38800
C  5.64100 -3.71900 45.61000
C  6.17000 -2.58200 45.02300
C  5.05400 -1.77400 44.51200
C  6.29200 -4.88500 46.18400
C  7.37900 -1.83300 44.68400
O  8.50600 -2.09400 45.02000
C  6.96000 -0.57900 43.92200
C  7.54900 0.64200 44.51800
O  7.44100 0.93800 45.69500
O  8.22800 1.40400 43.55900
C  8.76800 2.69400 44.02400
H  0.99300 2.06400 41.79100
H  -2.11300 -3.07400 44.70100
H  3.45100 -5.45900 46.16800
H  5.65200 1.82300 42.69100
H  3.32400 2.12300 40.87900
H  3.68800 4.14500 41.80300
H  4.15100 3.36500 43.39200
H  2.52000 3.68200 42.93500
H  4.77300 0.75900 40.11900
H  5.95900 -0.23800 40.94000
H  7.53600 1.30600 40.47700
H  6.63100 2.75500 40.97500
H  -2.32400 0.85400 40.86200
H  -1.12700 2.04400 41.19100
H  -2.63300 2.03100 42.17800
H  -5.25400 -1.84800 43.96600
H  -3.93400 -1.81400 45.12800
H  -3.87900 -2.92000 43.62800
H  -1.10800 -5.34300 44.96300
H  1.07300 -5.87600 46.96200
H  -1.66000 -5.82800 47.43700
H  -2.17500 -4.26600 46.73800
H  -0.75700 -4.36900 47.89800
H  2.25300 -6.92900 44.74200
H  0.68200 -6.53800 44.04700
H  1.42000 -8.93700 45.73600
H  0.08300 -8.68200 44.58300
H  -0.15700 -8.08000 46.16000
H  5.82700 -5.28000 47.08600
H  7.30900 -4.68100 46.52200
H  6.22400 -5.74100 45.51300
H  7.31900 -0.62600 42.89400
H  9.34100 3.09900 43.18900
H  9.37000 2.51400 44.91500
H  7.97600 3.39700 44.28200
Mg 8.62200 4.45000 27.58600
C  10.12000 2.72000 30.24700
C  6.70500 6.20600 29.77000
C  7.18200 5.94400 24.92200
C  10.22000 2.32800 25.43700
N  8.41000 4.42300 29.73600
C  9.11500 3.67200 30.67800
C  8.69000 3.89600 32.14900
C  7.51400 4.90200 31.89200
C  7.53300 5.25000 30.40300
C  6.12400 4.33000 32.33400
C  9.86100 4.43200 32.94700
C  9.61800 5.08300 34.38700
H  10.09400 4.38200 35.66100
N  7.17900 5.99300 27.35300
C  6.57200 6.64100 28.41400
C  5.68600 7.61300 27.88300
C  5.81600 7.57900 26.44700
C  6.73500 6.48600 26.15800
C  4.80800 8.54800 28.81500
C  5.03300 8.38200 25.43600
O  5.16500 8.09300 24.26300
C  4.10800 9.49900 25.82400
N  8.52000 4.07100 25.47500
C  7.94700 4.88200 24.58200
C  8.24200 4.47300 23.12800
C  9.33100 3.38700 23.35100
C  9.37000 3.21500 24.84200
C  6.90000 4.01700 22.41500
C  10.63000 3.51000 22.52500
C  11.15300 2.25700 21.79600
N  9.88100 2.88500 27.78300
C  10.43600 2.09600 26.77900
C  11.31500 1.10900 27.36700
C  11.23900 1.30400 28.74600
C  10.38200 2.41500 28.90200
C  12.04900 0.07100 26.65400
C  11.66600 0.89200 30.00100
O  12.38600 -0.04200 30.31500
C  10.90000 1.74300 31.11400
C  10.21900 0.90600 31.99500
O  9.21300 0.29400 31.66800
O  10.77300 0.94300 33.26300
C  10.11500 0.07400 34.34100
H  6.15800 6.83800 30.47300
H  6.78000 6.55500 24.11100
H  10.72400 1.58700 24.81300
H  8.41700 2.91600 32.54000
H  7.60800 5.86400 32.39400
H  5.58600 4.98500 33.01800
H  6.26100 3.36200 32.81500
H  5.69000 4.06900 31.36900
H  10.36100 5.22300 32.38900
H  10.69400 3.73300 33.01100
H  8.53400 5.18700 34.44800
H  9.98200 6.10900 34.33300
H  5.08800 9.59800 28.73700
H  4.97500 8.29300 29.86200
H  3.75100 8.47000 28.56000
H  3.91300 10.06700 24.91400
H  4.59100 10.13300 26.56700
H  3.18500 9.02900 26.16600
H  8.54100 5.36600 22.58000
H  8.86800 2.45200 23.03400
H  7.05400 3.09000 21.86100
H  6.58900 4.74700 21.66800
H  6.10500 3.96100 23.15800
H  11.38800 3.86800 23.22100
H  10.45000 4.12300 21.64100
H  10.49700 2.30500 20.92600
H  10.89700 1.39700 22.41500
H  12.17700 2.39900 21.45200
H  11.43100 -0.78900 26.39700
H  12.75100 -0.35000 27.37300
H  12.69400 0.49700 25.88600
H  11.62200 2.32500 31.68700
H  9.25700 -0.47500 33.95300
H  9.85300 0.78000 35.12900
H  10.79600 -0.69300 34.71000

