158

Mg 54.35200 24.68900 44.50000
C  51.45800 26.55700 43.73700
C  52.81300 21.84500 43.50400
C  57.36800 23.15700 44.87900
C  55.84400 27.65300 45.49400
N  52.44700 24.32700 43.55300
C  51.39200 25.22900 43.30400
C  50.13500 24.42200 42.86900
C  50.64900 22.97400 42.97600
C  52.09200 23.05100 43.36400
C  49.81900 22.11200 43.98200
C  49.66200 24.82800 41.38700
C  48.34700 24.17100 40.94900
H  48.25300 23.39600 39.63200
N  55.08000 22.73700 44.10100
C  54.23700 21.67200 43.80000
C  55.07000 20.47600 43.89500
C  56.38400 20.79400 44.25600
C  56.35700 22.27200 44.37700
C  54.51500 19.13200 43.58000
C  57.45500 19.78400 44.50300
O  57.20700 18.61100 44.36200
C  58.80500 20.15100 44.99900
N  56.40200 25.35600 44.97600
C  57.43800 24.54200 45.09800
C  58.76500 25.25100 45.56500
C  58.21200 26.72800 45.54100
C  56.73600 26.60400 45.24800
C  59.28800 24.86300 47.00300
C  58.87000 27.68300 44.47600
C  59.37800 28.99500 45.06500
N  53.77600 26.68500 44.86100
C  54.44700 27.69900 45.34500
C  53.54500 28.87000 45.43100
C  52.36400 28.43400 44.78800
C  52.60000 27.15800 44.40600
C  53.82400 30.17700 46.11300
C  51.01100 28.86500 44.35100
O  50.41200 29.94300 44.37700
C  50.37900 27.66400 43.56900
C  50.07300 28.05200 42.12800
O  50.86500 28.35100 41.22800
O  48.71000 27.97800 42.03400
C  48.14400 28.43100 40.76100
H  52.34400 20.86900 43.35800
H  58.28200 22.68600 45.24600
H  56.40400 28.55500 45.75200
H  49.33100 24.79500 43.50300
H  50.62800 22.54200 41.97600
H  49.12000 22.78400 44.47800
H  50.54800 21.71100 44.68600
H  49.25000 21.31200 43.50900
H  50.40600 24.49800 40.66200
H  49.67600 25.91700 41.35700
H  47.70800 25.03500 40.76600
H  47.89300 23.64900 41.79100
H  55.10600 18.76400 42.74100
H  53.42500 19.13000 43.55200
H  54.76800 18.48300 44.41800
H  59.09200 21.09300 44.53200
H  59.39000 19.30300 44.64400
H  58.90900 20.09900 46.08300
H  59.56700 25.00700 44.86800
H  58.31800 27.27900 46.47600
H  59.54700 25.76800 47.55200
H  60.13100 24.19700 46.81900
H  58.54300 24.38500 47.63900
H  58.10900 27.81600 43.70700
H  59.63800 26.99400 44.12500
H  60.46800 28.98800 45.06100
H  59.06100 29.17400 46.09300
H  58.96400 29.84100 44.51700
H  54.21700 30.78900 45.30100
H  54.57500 30.04100 46.89100
H  52.95900 30.62000 46.60600
H  49.55000 27.31200 44.18300
H  47.84500 29.47800 40.81400
H  47.12500 28.06600 40.63900
H  48.85100 28.31800 39.94000
Mg -10.60900 17.38400 41.90600
C  -7.10400 17.37600 42.14500
C  -10.54600 20.67700 40.96400
C  -14.01700 17.25300 41.36100
C  -10.57100 13.95100 42.14300
N  -8.97600 18.88800 41.63300
C  -7.68600 18.62000 41.72800
C  -6.84300 19.84100 41.14400
C  -7.93100 20.99400 41.21400
C  -9.28800 20.15900 41.22600
C  -7.70600 21.91000 42.57400
C  -6.35600 19.50200 39.64800
C  -4.81800 19.50900 39.40600
H  -4.37500 18.32500 38.52300
N  -12.09000 18.84100 41.34200
C  -11.82400 20.12800 41.11100
C  -13.08800 20.92100 41.07800
C  -14.13200 19.95500 41.23000
C  -13.53900 18.60000 41.28300
C  -13.19900 22.40100 40.67200
C  -15.65000 20.22500 41.29100
O  -16.01800 21.39500 41.19900
C  -16.59500 19.17900 41.48300
N  -11.94400 15.76800 41.51200
C  -13.34200 16.01400 41.38800
C  -14.12000 14.71400 41.44900
C  -12.96400 13.62400 41.34600
C  -11.76500 14.50500 41.78100
C  -15.04100 14.64800 42.73400
C  -12.83300 12.96000 39.87000
C  -12.66300 11.42300 39.75200
N  -9.15300 15.96700 42.28000
C  -9.37200 14.57900 42.36800
C  -8.09500 13.95300 42.68200
C  -7.15400 15.02000 42.53100
C  -7.90500 16.22300 42.29200
C  -7.76400 12.51600 42.93000
C  -5.75000 15.43600 42.54900
O  -4.79500 14.70200 42.72700
C  -5.67500 16.91500 42.28000
C  -4.88500 17.60800 43.40800
O  -4.93600 17.30800 44.60800
O  -4.13700 18.65600 42.89400
C  -3.57300 19.55800 43.87900
H  -10.59500 21.73700 40.70600
H  -15.09100 17.07700 41.26500
H  -10.50400 12.86100 42.13700
H  -6.05500 20.00500 41.87800
H  -7.90700 21.65000 40.34400
H  -8.61800 21.68000 43.12400
H  -7.60700 22.94100 42.23400
H  -6.81300 21.63500 43.13700
H  -6.79100 20.28300 39.02500
H  -6.75500 18.57300 39.24100
H  -4.27500 19.51400 40.35100
H  -4.63600 20.37600 38.77100
H  -14.00500 22.93600 41.17600
H  -13.37700 22.42500 39.59700
H  -12.33300 23.00800 40.93600
H  -16.71300 18.61300 40.55900
H  -17.53600 19.72500 41.55000
H  -16.38700 18.49500 42.30600
H  -14.74200 14.70200 40.55400
H  -13.05200 12.91200 42.16700
H  -14.68300 13.93900 43.48000
H  -16.05900 14.40600 42.42800
H  -15.15400 15.64500 43.15800
H  -12.03500 13.39000 39.26500
H  -13.75300 13.17000 39.32500
H  -12.20800 11.14900 40.70400
H  -11.79700 11.23500 39.11700
H  -13.58200 10.87900 39.53600
H  -7.76600 12.33000 44.00400
H  -6.77000 12.37400 42.50500
H  -8.51100 11.87000 42.46800
H  -5.16000 17.08900 41.33600
H  -2.59900 19.19400 44.20700
H  -4.20900 19.58100 44.76400
H  -3.38700 20.48900 43.34500

