158

Mg 25.08200 1.49700 28.92400
C  27.05600 1.09600 31.82900
C  22.28500 1.70800 30.86100
C  23.41400 1.64300 26.10900
C  27.99000 0.63100 27.11100
N  24.74200 1.31500 31.12200
C  25.67600 1.32000 32.09100
C  24.99800 1.61400 33.46600
C  23.46800 1.59400 33.11600
C  23.43800 1.57100 31.60500
C  22.77600 0.33400 33.70700
C  25.43800 2.89800 34.18000
C  26.02100 2.70900 35.55300
H  25.84400 3.82800 36.58800
N  23.13800 1.55800 28.55300
C  22.10000 1.64000 29.44400
C  20.88200 1.63500 28.74000
C  21.15600 1.59200 27.38200
C  22.59300 1.54700 27.26400
C  19.57100 1.66100 29.46900
C  20.21100 1.47300 26.19900
O  20.59100 1.17400 25.11000
C  18.74300 1.68800 26.37400
N  25.67700 1.25500 26.93200
C  24.81600 1.51200 25.93600
C  25.53500 1.43800 24.58400
C  27.01900 1.34800 24.91600
C  26.89200 1.05400 26.41400
C  24.94500 0.33000 23.62600
C  27.86500 2.57600 24.62600
C  27.16700 3.95900 24.94500
N  27.16700 0.99200 29.32900
C  28.18800 0.67800 28.48500
C  29.37800 0.43200 29.26300
C  29.01600 0.67000 30.62700
C  27.65400 0.96800 30.56100
C  30.68200 -0.02800 28.66300
C  29.53400 0.76000 31.92500
O  30.65300 0.65100 32.41700
C  28.24100 1.10800 32.81200
C  28.13900 0.15600 33.94700
O  27.40700 -0.81300 34.00400
O  28.89500 0.51300 34.96200
C  28.77500 -0.10200 36.22700
H  21.42100 1.93400 31.49000
H  22.89000 1.78500 25.16200
H  28.80500 0.30000 26.46500
H  25.31100 0.76400 34.07200
H  22.94100 2.49700 33.42500
H  21.83800 0.51300 34.23300
H  23.51200 -0.24600 34.26200
H  22.53200 -0.44200 32.98100
H  24.59900 3.57200 34.35000
H  26.27000 3.36500 33.65200
H  27.09000 2.69800 35.33800
H  25.57400 1.79100 35.93400
H  18.84900 1.10400 28.87300
H  19.21700 2.68500 29.59200
H  19.62500 1.10900 30.40700
H  18.41100 1.58300 25.34100
H  18.52500 2.72600 26.62700
H  18.16100 1.10000 27.08300
H  25.33100 2.36700 24.05200
H  27.50300 0.51500 24.40600
H  24.75200 0.85000 22.68700
H  23.99600 -0.02300 24.02900
H  25.63300 -0.51400 23.62200
H  28.07100 2.57900 23.55500
H  28.89600 2.42300 24.94600
H  26.83900 4.33300 23.97500
H  27.84200 4.66800 25.42400
H  26.32200 3.81900 25.62000
H  30.92400 0.48000 27.72900
H  30.53700 -1.09100 28.47200
H  31.49900 0.13400 29.36600
H  28.42300 2.09900 33.22700
H  27.77300 0.09400 36.60800
H  29.43500 0.38600 36.94500
H  29.09100 -1.14500 36.26100
Mg 52.60400 25.10000 44.93300
C  50.07700 27.27100 43.90600
C  51.04600 22.46700 43.40800
C  55.58800 23.38800 44.58000
C  54.36900 27.87800 46.15700
N  50.69500 24.94000 43.87800
C  49.82400 25.92100 43.56100
C  48.69300 25.33300 42.63800
C  48.80600 23.82700 42.99200
C  50.29600 23.69500 43.47300
C  47.76700 23.22100 44.02400
C  49.05200 25.78900 41.22100
C  47.85700 25.89200 40.29900
H  48.27300 26.30100 38.88000
N  53.20700 23.10100 44.37800
C  52.39400 22.14300 43.79800
C  53.18800 20.91200 43.66100
C  54.51100 21.23500 43.98700
C  54.47200 22.62800 44.37800
C  52.61900 19.66600 43.08800
C  55.71800 20.21900 43.96800
O  55.49500 19.01100 43.82900
C  57.15000 20.57700 44.21800
N  54.73400 25.58000 45.29900
C  55.71100 24.68900 45.14500
C  57.00500 25.22800 45.75900
C  56.64800 26.72000 46.22300
C  55.15800 26.70800 45.98200
C  57.64900 24.38400 46.90300
C  57.37400 27.81500 45.36600
C  57.32400 29.17500 45.88700
N  52.33200 27.20000 44.95900
C  53.04200 28.14200 45.67100
C  52.31400 29.39400 45.69600
C  51.17500 29.10200 44.94400
C  51.22100 27.76100 44.52100
C  52.69700 30.66300 46.34800
C  49.97100 29.62100 44.52700
O  49.55900 30.75200 44.71100
C  49.17500 28.56700 43.74600
C  48.94800 29.07200 42.33700
O  49.73800 29.24300 41.39300
O  47.58200 29.29900 42.29200
C  47.12400 29.79000 41.02700
H  50.57700 21.54900 43.04800
H  56.60000 22.97800 44.59700
H  54.94300 28.69400 46.60000
H  47.66100 25.67000 42.73200
H  48.71200 23.24900 42.07200
H  47.27100 24.02600 44.56700
H  48.29800 22.57700 44.72500
H  47.03600 22.70800 43.39900
H  49.75400 25.04400 40.84700
H  49.47800 26.79100 41.27900
H  47.34700 26.76900 40.69600
H  47.19800 25.02500 40.33700
H  51.67800 19.94600 42.61400
H  52.48500 18.94200 43.89200
H  53.22400 19.27000 42.27300
H  57.85200 19.74300 44.24200
H  57.24900 21.03100 45.20400
H  57.38000 21.27600 43.41500
H  57.74200 25.42500 44.98000
H  56.63200 26.99400 47.27800
H  57.59800 24.91300 47.85500
H  58.68200 24.24400 46.58500
H  57.24600 23.38000 47.03400
H  56.91400 27.74500 44.38100
H  58.42200 27.51500 45.38500
H  58.30100 29.64200 46.01100
H  56.92200 29.09200 46.89700
H  56.62700 29.78400 45.31200
H  52.09800 30.80700 47.24800
H  52.46800 31.51100 45.70200
H  53.77800 30.80200 46.37500
H  48.16800 28.44400 44.14500
H  46.23000 30.41400 41.01500
H  46.86800 29.08100 40.23900
H  47.79700 30.60400 40.75700

