158

Mg 41.44200 8.90300 29.67300
C  43.41600 10.21300 32.39200
C  39.17300 7.71600 31.84700
C  39.78000 7.62000 27.03900
C  44.13200 9.68500 27.50900
N  41.41700 8.95000 31.92400
C  42.19700 9.61800 32.88200
C  41.57400 9.39500 34.32000
C  40.37000 8.48500 34.01800
C  40.30000 8.36800 32.51000
C  40.41400 7.08800 34.62300
C  41.40300 10.82800 35.00700
C  40.38700 10.86600 36.15200
H  40.78100 11.84500 37.28000
N  39.68600 7.82900 29.52300
C  38.88000 7.49100 30.50400
C  37.61000 6.94300 30.05200
C  37.74900 7.06800 28.64900
C  39.08700 7.50000 28.31600
C  36.61300 6.21500 30.97700
C  36.69900 6.84400 27.52300
O  36.97900 6.97700 26.29800
C  35.27800 6.52600 28.02900
N  42.00700 8.30500 27.62900
C  41.08000 7.97700 26.72500
C  41.50700 8.25200 25.30300
C  42.91400 8.91400 25.35600
C  43.07400 8.97200 26.93200
C  41.32800 6.95300 24.49200
C  43.05600 10.29600 24.79000
C  42.18200 11.39000 25.42400
N  43.40400 9.77600 29.85600
C  44.33600 10.02900 28.86900
C  45.38300 10.75100 29.46300
C  45.07800 10.87300 30.84400
C  43.83700 10.23400 31.03100
C  46.45000 11.34200 28.64000
C  45.45700 11.42700 32.20200
O  46.51600 11.92000 32.49000
C  44.39700 10.93000 33.24900
C  45.14500 10.05300 34.29700
O  45.78100 9.04000 33.95100
O  44.88100 10.56300 35.55600
C  45.38000 9.78600 36.73900
H  38.39500 7.48600 32.57800
H  39.17500 7.40700 26.15500
H  44.85400 10.05800 26.78000
H  42.28400 8.80800 34.90200
H  39.47100 8.89400 34.48000
H  39.52800 6.93400 35.23800
H  41.29900 6.82500 35.20400
H  40.33800 6.28900 33.88600
H  41.06100 11.46800 34.19400
H  42.33300 11.22900 35.41100
H  40.25800 9.89000 36.61900
H  39.39400 11.26000 35.93200
H  37.12300 6.10300 31.93400
H  36.25100 5.31800 30.47500
H  35.76400 6.87900 31.14400
H  35.37600 5.64500 28.66400
H  34.52400 6.35700 27.26000
H  34.99800 7.41000 28.60100
H  40.78200 8.96800 24.91400
H  43.79200 8.33200 25.07700
H  42.15200 6.87700 23.78100
H  40.41100 7.07600 23.91500
H  41.22000 6.10200 25.16400
H  43.02900 10.39700 23.70500
H  44.12800 10.48800 24.84100
H  42.84100 12.03500 26.00500
H  41.44200 10.99700 26.12200
H  41.70800 12.09900 24.74500
H  46.83600 12.17800 29.22300
H  46.02000 11.81700 27.75900
H  47.22900 10.60600 28.44200
H  43.94900 11.78000 33.76400
H  45.90500 8.87100 36.46600
H  44.52700 9.51700 37.36100
H  45.98500 10.43900 37.36800
Mg -0.30000 44.18500 26.31800
C  1.47900 43.88200 29.38800
C  -3.17500 43.61000 28.00800
C  -1.68000 43.77100 23.32600
C  2.93100 44.57900 24.77700
N  -0.78600 43.75700 28.39600
C  0.10500 43.71900 29.45800
C  -0.71500 43.44700 30.74800
C  -2.19900 43.37000 30.32900
C  -2.03000 43.54000 28.83800
C  -2.94000 42.01100 30.72400
C  -0.50700 44.47800 31.98100
C  -0.01900 44.01800 33.39900
H  -0.57400 42.68100 33.95500
N  -2.20000 43.83100 25.70700
C  -3.30900 43.65400 26.58600
C  -4.46600 43.53100 25.73400
C  -4.04800 43.47100 24.32400
C  -2.62900 43.71000 24.39000
C  -5.83600 43.31700 26.37200
C  -4.92600 43.17400 23.08700
O  -4.37200 43.04900 22.00400
C  -6.36300 42.81600 23.19300
N  0.49900 44.18000 24.39100
C  -0.28500 44.07200 23.30300
C  0.56400 43.96800 22.05600
C  1.93900 44.56700 22.45400
C  1.82600 44.43000 23.96500
C  0.75600 42.48400 21.62700
C  2.28200 45.99500 21.94500
C  1.14100 47.01600 21.89400
N  1.78800 44.27000 26.90700
C  2.94900 44.54400 26.22500
C  4.02200 44.51900 27.08300
C  3.51800 44.23200 28.34600
C  2.16900 44.13900 28.19600
C  5.55700 44.54000 26.77300
C  3.79400 43.98400 29.74100
O  4.87800 43.92800 30.28200
C  2.51200 43.74600 30.45500
C  2.53200 42.48500 31.21400
O  2.04400 41.42300 30.84400
O  3.05400 42.67000 32.46600
C  3.03900 41.45300 33.33300
H  -4.06900 43.80400 28.60400
H  -2.04600 43.51700 22.32900
H  3.87600 44.62500 24.23200
H  -0.38300 42.43000 30.95700
H  -2.80500 44.23800 30.58700
H  -3.88600 42.23100 31.21900
H  -2.33000 41.36200 31.35200
H  -3.21800 41.46400 29.82300
H  -1.46500 44.97800 32.12000
H  0.04800 45.37600 31.71100
H  -0.33600 44.72600 34.16400
H  1.06600 44.12100 33.41700
H  -6.19400 42.29000 26.29400
H  -6.61700 43.95400 25.95600
H  -5.84300 43.66000 27.40600
H  -6.39700 41.84900 23.69500
H  -6.84500 42.63300 22.23300
H  -6.95200 43.52300 23.77700
H  0.11500 44.52200 21.23200
H  2.80700 43.97400 22.16400
H  1.79200 42.15900 21.71800
H  0.34600 42.40700 20.62000
H  0.10100 41.89000 22.26500
H  2.79700 45.91300 20.98800
H  2.99100 46.33800 22.69800
H  0.25200 46.53800 22.30700
H  0.95800 47.51400 20.94200
H  1.31700 47.76600 22.66500
H  6.15900 44.55800 27.68200
H  5.69100 45.50800 26.29000
H  5.77600 43.70100 26.11400
H  2.42200 44.61400 31.10800
H  2.28600 41.40900 34.11900
H  3.99600 41.34100 33.84500
H  2.88800 40.49000 32.84500

