158

Mg 1.89700 -2.52100 45.17400
C  5.29300 -1.70700 44.49300
C  0.82700 0.10500 43.41900
C  -1.16400 -3.82100 45.50700
C  3.27800 -5.57700 46.52500
N  2.98700 -1.21900 43.89700
C  4.34900 -0.95300 43.82300
C  4.62000 0.22000 42.92500
C  3.25400 0.94600 42.93100
C  2.23600 -0.18100 43.39000
C  3.31300 2.19400 43.85800
C  5.26100 -0.08300 41.53900
C  6.25800 1.02400 40.99700
H  5.74400 1.77200 39.82300
N  0.01400 -1.85800 44.62400
C  -0.20000 -0.72500 43.92000
C  -1.65100 -0.58700 43.73300
C  -2.22400 -1.80700 44.25500
C  -1.15000 -2.54100 44.82600
C  -2.31400 0.60400 43.09600
C  -3.63500 -2.11300 44.21500
O  -4.41800 -1.36200 43.64800
C  -4.16300 -3.39400 44.62300
N  1.22300 -4.41300 45.85800
C  -0.12500 -4.65400 45.98600
C  -0.44300 -5.96200 46.79900
C  0.98700 -6.61500 46.78100
C  1.90800 -5.41600 46.45500
C  -0.93600 -5.66100 48.24500
C  1.13100 -7.81800 45.77700
C  2.15700 -8.84800 46.23000
N  3.95600 -3.43900 45.65600
C  4.28400 -4.66700 46.18500
C  5.74400 -4.77200 46.14900
C  6.18700 -3.54800 45.63500
C  5.07400 -2.80400 45.26800
C  6.61300 -5.87400 46.65800
C  7.34800 -2.76500 45.24000
O  8.52300 -2.95600 45.41600
C  6.78900 -1.49600 44.44000
C  7.31100 -0.34800 45.24300
O  8.39100 0.19700 45.10300
O  6.37600 0.09300 46.07500
C  6.52000 1.43500 46.70000
H  0.58400 0.94100 42.75900
H  -2.16400 -4.23000 45.67000
H  3.66300 -6.50000 46.96300
H  5.32500 0.84400 43.47500
H  2.88400 1.22200 41.94400
H  4.27200 2.70500 43.94400
H  3.09900 1.85300 44.87100
H  2.62400 2.97700 43.53900
H  4.46600 -0.11200 40.79300
H  5.63300 -1.10700 41.57300
H  7.17200 0.49200 40.73100
H  6.44400 1.76200 41.77700
H  -2.64400 0.31800 42.09800
H  -1.62900 1.45200 43.10500
H  -3.27500 0.83200 43.55900
H  -4.13200 -3.47100 45.71000
H  -3.53800 -4.14300 44.13700
H  -5.15000 -3.63600 44.22800
H  -1.20000 -6.55900 46.29100
H  1.35100 -6.90200 47.76700
H  -0.16100 -5.52100 48.99900
H  -1.72700 -6.34400 48.55400
H  -1.48000 -4.71900 48.18300
H  1.37700 -7.40600 44.79800
H  0.16400 -8.31900 45.73400
H  2.72500 -8.37800 47.03300
H  2.88700 -9.07200 45.45300
H  1.68200 -9.75100 46.61300
H  6.01500 -6.78500 46.63400
H  7.03500 -5.78800 47.65900
H  7.41500 -6.05700 45.94300
H  7.26900 -1.34900 43.47300
H  5.52200 1.83800 46.87000
H  6.97100 2.09000 45.95400
H  7.06400 1.37600 47.64200
Mg 9.82500 47.52500 25.67800
C  7.97900 47.91700 28.58700
C  12.63200 48.56800 27.21000
C  11.44400 47.48900 22.65900
C  6.87200 46.95000 23.93200
N  10.25600 48.12800 27.69800
C  9.33000 48.29500 28.73600
C  10.07900 48.76700 29.93300
C  11.41100 49.29200 29.37100
C  11.44900 48.68300 27.95900
C  11.46300 50.84300 29.33400
C  10.32900 47.64700 31.04400
C  9.72500 48.11500 32.43800
H  9.57500 47.09100 33.55500
N  11.74500 47.84800 25.09900
C  12.84800 48.20800 25.87200
C  14.14800 48.07600 25.13100
C  13.78400 47.67200 23.81900
C  12.21500 47.64800 23.81900
C  15.52600 48.16700 25.81700
C  14.69900 47.30300 22.65200
O  14.20100 46.93500 21.51500
C  16.18900 47.44900 22.68800
N  9.26300 47.26600 23.62600
C  10.09600 47.27100 22.53000
C  9.41400 46.90300 21.23800
C  7.96100 46.48900 21.71300
C  8.04500 46.87200 23.20900
C  9.44300 48.09400 20.24400
C  7.66700 44.93100 21.54100
C  8.59700 44.02000 22.32400
N  7.84800 47.42500 26.08800
C  6.77200 47.24400 25.30200
C  5.54200 47.15500 26.04500
C  6.00800 47.38200 27.41200
C  7.37500 47.58000 27.33800
C  4.20400 46.75300 25.59200
C  5.56600 47.44300 28.79600
O  4.45400 47.26200 29.29800
C  6.78500 47.81300 29.59000
C  6.99200 46.71200 30.57200
O  7.80700 45.77000 30.43600
O  6.20100 46.92000 31.70000
C  6.36900 45.87700 32.75700
H  13.47900 48.95400 27.78200
H  12.00200 47.49100 21.72100
H  5.98400 46.74300 23.33200
H  9.58800 49.61600 30.41000
H  12.20800 48.94500 30.02900
H  11.62000 51.17800 28.30900
H  12.34500 51.23900 29.83700
H  10.55800 51.34100 29.68100
H  11.40000 47.45500 31.10800
H  10.01800 46.67000 30.67500
H  8.79800 48.61000 32.14600
H  10.31800 48.93200 32.84800
H  15.65800 47.52000 26.68400
H  15.65200 49.17600 26.20900
H  16.37900 47.86000 25.21100
H  16.53800 47.46100 21.65500
H  16.55900 46.58000 23.23000
H  16.47900 48.41700 23.09600
H  9.85900 46.04000 20.74400
H  7.16600 47.09600 21.27900
H  10.12100 48.90800 20.50200
H  8.54700 48.66300 19.99500
H  9.69400 47.58400 19.31300
H  7.70500 44.69400 20.47800
H  6.65800 44.81600 21.93700
H  8.94000 44.56300 23.20500
H  9.42000 43.59400 21.75100
H  7.94900 43.26800 22.77200
H  3.53300 46.90600 26.43700
H  4.20900 45.75400 25.15600
H  4.00100 47.38700 24.72900
H  6.48400 48.71900 30.11600
H  5.67100 45.08400 32.49000
H  6.23700 46.44100 33.68100
H  7.40700 45.55000 32.71000

