158

Mg 26.78200 50.16700 26.03300
C  24.66000 51.21700 28.82900
C  29.05500 49.27400 28.34200
C  28.45200 49.23500 23.51900
C  24.32400 51.57600 24.00200
N  26.83500 50.24000 28.31700
C  25.85700 50.55500 29.20600
C  26.34800 50.27500 30.66600
C  27.86900 49.82800 30.49200
C  27.93000 49.77100 28.96000
C  28.86200 50.72100 31.31000
C  25.34600 49.08300 31.27600
C  25.57100 48.70300 32.75900
H  26.52100 49.42600 33.74800
N  28.56300 49.52400 25.93900
C  29.36700 49.14800 26.93100
C  30.58200 48.62600 26.39900
C  30.41000 48.59000 24.98300
C  29.11300 49.17500 24.74600
C  31.76200 48.12600 27.28900
C  31.41400 48.11000 23.93200
O  31.19000 48.22900 22.75800
C  32.68600 47.47800 24.37800
N  26.44200 50.41300 23.99600
C  27.24600 49.80500 23.13800
C  26.49600 49.56200 21.76500
C  25.17600 50.33000 21.92000
C  25.34700 50.87900 23.36200
C  27.35500 49.94200 20.51700
C  23.89700 49.53800 21.70100
C  22.80200 50.03500 20.71700
N  24.96800 51.27400 26.31200
C  24.12200 51.79100 25.34400
C  23.06100 52.45100 26.02900
C  23.24200 52.31500 27.39700
C  24.39800 51.48300 27.50900
C  21.81100 53.09000 25.43100
C  22.62700 52.60800 28.69400
O  21.55000 53.22800 29.01800
C  23.68500 51.90900 29.67400
C  24.19500 53.01200 30.46200
O  24.89600 53.95000 30.16200
O  23.73800 52.90800 31.74400
C  24.11900 53.89800 32.70800
H  29.65200 48.86900 29.16100
H  28.85800 48.75800 22.62500
H  23.44400 51.82800 23.40700
H  26.30300 51.26900 31.11100
H  27.95000 48.87800 31.02000
H  29.43700 49.98700 31.87500
H  28.47100 51.51600 31.94700
H  29.61800 51.16300 30.66200
H  25.62600 48.17200 30.74700
H  24.30400 49.33700 31.08000
H  25.83800 47.64700 32.78100
H  24.60500 48.84400 33.24400
H  32.01300 47.08300 27.09400
H  31.62600 48.39800 28.33500
H  32.63500 48.69100 26.96100
H  32.53100 46.56700 24.95700
H  33.38400 48.16200 24.86100
H  33.20000 47.25400 23.44300
H  26.28600 48.49300 21.75400
H  25.29700 51.20000 21.27500
H  28.01900 50.78100 20.72400
H  26.80200 50.16000 19.60300
H  27.96200 49.04500 20.40200
H  23.36800 49.60200 22.65200
H  24.13500 48.47600 21.63100
H  23.16100 50.99900 20.35800
H  21.81400 50.21300 21.14100
H  22.62400 49.32400 19.91000
H  22.19800 53.86200 24.76600
H  21.29500 53.45500 26.32000
H  21.30100 52.38300 24.77700
H  23.08900 51.27700 30.33200
H  23.83100 54.89800 32.38600
H  25.17700 53.74000 32.92000
H  23.54100 53.82500 33.63000
Mg -9.63400 38.69200 40.78100
C  -8.85900 35.40900 40.09000
C  -6.53600 39.69100 39.75200
C  -10.77700 41.84200 40.76400
C  -12.85400 37.57100 41.68400
N  -7.89300 37.66000 39.96900
C  -7.88000 36.29400 39.67600
C  -6.48300 35.95000 39.11500
C  -5.62500 37.29700 39.27300
C  -6.71300 38.29800 39.70900
C  -4.60100 37.19900 40.44700
C  -6.69500 35.49300 37.64000
C  -7.31900 36.42900 36.61000
H  -8.28600 35.87600 35.54500
N  -8.77500 40.55400 40.33900
C  -7.49100 40.76000 39.98300
C  -7.26900 42.16300 39.77300
C  -8.45400 42.85300 39.99900
C  -9.41000 41.75700 40.41600
C  -5.88500 42.77600 39.51200
C  -8.75500 44.33200 39.90900
O  -7.91300 45.13200 39.48700
C  -10.16900 44.90300 40.13000
N  -11.48700 39.55200 41.17400
C  -11.70100 40.92600 41.15200
C  -13.17700 41.29700 41.50800
C  -13.82300 39.90800 41.91900
C  -12.65000 38.93100 41.58500
C  -13.46300 42.48100 42.48300
C  -15.21200 39.57000 41.22600
C  -16.21600 38.83400 42.09200
N  -10.64100 36.87100 40.97800
C  -11.92000 36.52600 41.37900
C  -12.12400 35.21000 41.38700
C  -10.92600 34.65300 40.85200
C  -10.10500 35.73900 40.58700
C  -13.45900 34.57500 41.51100
C  -10.24400 33.40700 40.48500
O  -10.61000 32.25800 40.53400
C  -8.88000 33.88600 39.95600
C  -7.86500 33.10300 40.79000
O  -7.92900 32.78000 41.99000
O  -6.83300 32.69100 39.89600
C  -5.74900 31.81400 40.39100
H  -5.56400 39.94300 39.32300
H  -11.23400 42.82300 40.90400
H  -13.81800 37.12300 41.93200
H  -6.04200 35.12500 39.67500
H  -5.17500 37.68200 38.35800
H  -3.65100 37.54600 40.04100
H  -4.42000 36.19400 40.82800
H  -4.85300 37.79400 41.32500
H  -7.29500 34.58300 37.67000
H  -5.69500 35.22700 37.29800
H  -6.44500 36.88600 36.14700
H  -7.75700 37.21500 37.22600
H  -5.69600 43.37600 38.62100
H  -5.16300 41.96000 39.50400
H  -5.67700 43.44000 40.35100
H  -10.60600 44.68300 41.10400
H  -10.75900 44.74500 39.22700
H  -9.93200 45.96400 40.05300
H  -13.70600 41.45800 40.56900
H  -13.89900 39.79400 43.00100
H  -12.54600 43.02300 42.71300
H  -13.82600 42.02700 43.40500
H  -14.22700 43.20400 42.19700
H  -15.04700 38.88700 40.39300
H  -15.63500 40.44200 40.72700
H  -17.10900 39.45600 42.03200
H  -15.95900 38.79300 43.15000
H  -16.48800 37.83800 41.74200
H  -14.00500 34.71400 40.57800
H  -14.10200 34.94700 42.30800
H  -13.30700 33.51300 41.70100
H  -8.89900 33.50200 38.93600
H  -4.74100 32.17700 40.19100
H  -5.70500 30.84600 39.89200
H  -5.94200 31.62400 41.44600

