158

Mg 35.78300 2.32400 31.01800
C  33.00400 3.32300 33.00800
C  37.70900 2.66700 33.83100
C  38.34700 1.72800 29.07000
C  33.58600 2.33700 28.17800
N  35.34100 2.87100 33.13900
C  34.18000 3.11600 33.78100
C  34.24500 3.30500 35.34200
C  35.77700 3.39300 35.48800
C  36.32900 2.99900 34.02100
C  36.28200 4.80900 35.80300
C  33.66900 2.13600 36.15200
C  33.02000 2.59300 37.48300
H  33.58200 3.74200 38.29400
N  37.76500 2.15900 31.37700
C  38.37000 2.29700 32.58500
C  39.79000 2.04900 32.41600
C  39.98200 1.70900 31.05500
C  38.69200 1.91100 30.41900
C  40.80200 2.22700 33.57400
C  41.24700 1.28300 30.33700
O  41.35900 1.13100 29.08900
C  42.52000 1.00800 31.18600
N  35.91400 2.20300 28.87900
C  37.13100 1.77900 28.37600
C  36.95800 1.26800 26.94800
C  35.42800 1.41400 26.65300
C  34.93000 1.95700 27.95000
C  37.80200 2.02100 25.90200
C  34.68800 0.07100 26.20100
C  33.59300 0.37200 25.05400
N  33.69400 2.70000 30.60800
C  32.95600 2.75100 29.44200
C  31.62700 3.25300 29.70500
C  31.60700 3.58300 31.13600
C  32.86700 3.22600 31.57600
C  30.43800 3.41800 28.81800
C  30.84400 4.18200 32.20700
O  29.70100 4.62200 32.21200
C  31.68900 3.95000 33.54400
C  31.97700 5.33600 34.03600
O  32.63800 6.14200 33.43800
O  31.20600 5.58600 35.15900
C  31.15500 6.99500 35.59400
H  38.30600 2.72500 34.74400
H  39.16800 1.35200 28.45500
H  32.80500 2.22700 27.42300
H  33.78500 4.26300 35.58300
H  36.30200 2.66300 36.10300
H  36.13200 5.46600 34.94700
H  37.33500 4.61200 36.00300
H  35.74400 5.26200 36.63600
H  34.42400 1.37400 36.34700
H  32.87900 1.64300 35.58500
H  32.91500 1.67900 38.06700
H  31.97100 2.80300 37.27100
H  40.98700 1.28300 34.08700
H  40.35700 2.89200 34.31400
H  41.72200 2.73200 33.28100
H  43.29300 0.70600 30.48000
H  42.30200 0.29900 31.98400
H  42.92500 1.98400 31.45400
H  37.13300 0.19200 26.96400
H  35.34200 2.21800 25.92200
H  37.30300 2.29200 24.97100
H  38.77800 1.60800 25.64700
H  38.11500 2.94100 26.39500
H  34.19800 -0.29600 27.10200
H  35.47200 -0.61100 25.87200
H  33.96400 0.12900 24.05800
H  33.33200 1.42800 25.12900
H  32.71600 -0.24200 25.25800
H  30.57100 3.16200 27.76700
H  30.07500 4.44400 28.76900
H  29.66700 2.77600 29.24300
H  31.03100 3.37000 34.19200
H  30.11800 7.32400 35.51600
H  31.69700 7.67900 34.94200
H  31.58800 7.01200 36.59400
Mg -1.81800 35.12300 26.81100
C  -3.74600 33.21800 29.11100
C  -1.25500 37.30700 29.21300
C  -0.24700 36.67000 24.43400
C  -3.14600 32.98900 24.33200
N  -2.51200 35.26100 28.84600
C  -3.13400 34.34000 29.64100
C  -3.09700 34.69700 31.16800
C  -2.55400 36.11500 31.11200
C  -2.03600 36.26800 29.66100
C  -3.55700 37.30700 31.56400
C  -2.23200 33.64500 31.98300
C  -2.95400 32.96700 33.17300
H  -2.14600 32.65800 34.50800
N  -0.75800 36.74200 26.88300
C  -0.62000 37.54800 27.94300
C  0.23600 38.65600 27.55800
C  0.56500 38.50000 26.12300
C  -0.19400 37.27600 25.77300
C  0.53300 39.79600 28.47200
C  1.50700 39.28400 25.27500
O  1.67900 39.01600 24.10200
C  2.29300 40.43500 25.80900
N  -1.62100 34.79700 24.74400
C  -0.92500 35.58700 23.99100
C  -0.92600 35.17100 22.49100
C  -1.52300 33.82100 22.53500
C  -2.19500 33.88400 23.94500
C  -1.67800 36.20500 21.59300
C  -0.66900 32.53800 22.40900
C  0.68700 32.58900 23.14500
N  -3.18300 33.56300 26.70200
C  -3.63300 32.73700 25.59000
C  -4.58800 31.77600 26.02200
C  -4.52000 31.91500 27.41600
C  -3.72500 32.96900 27.75200
C  -5.42200 30.92700 25.14500
C  -5.11100 31.24500 28.60300
O  -5.92800 30.36800 28.71900
C  -4.52900 32.06900 29.72000
C  -5.61100 32.55300 30.54500
O  -6.41100 33.48200 30.26800
O  -5.59800 31.81900 31.71500
C  -6.39400 32.31800 32.83700
H  -0.87700 37.98200 29.98400
H  0.20200 37.27900 23.64600
H  -3.23200 32.27100 23.51400
H  -4.09500 34.66600 31.60300
H  -1.80500 36.18700 31.90000
H  -2.85900 37.92200 32.13200
H  -4.36500 37.05100 32.24900
H  -3.96500 37.92500 30.76400
H  -1.26800 34.07200 32.25900
H  -1.89200 32.78100 31.41300
H  -3.28300 31.96600 32.89400
H  -3.78200 33.60200 33.48800
H  -0.00200 39.79400 29.42100
H  0.02300 40.55100 27.87400
H  1.59800 40.02400 28.50600
H  2.94900 40.22600 26.65500
H  1.55200 41.15700 26.15200
H  2.93500 40.77600 24.99600
H  0.09800 35.11400 22.12300
H  -2.23200 33.66600 21.72200
H  -2.10000 36.97400 22.23900
H  -2.54000 35.68200 21.17900
H  -0.94900 36.62700 20.90100
H  -0.34200 32.45600 21.37200
H  -1.27600 31.63500 22.48400
H  0.53200 31.75200 23.82600
H  0.87000 33.56500 23.59500
H  1.51300 32.35300 22.47400
H  -5.30900 31.07500 24.07200
H  -6.48700 30.96000 25.37700
H  -5.07500 29.91400 25.34800
H  -3.81300 31.42900 30.23600
H  -6.18900 33.37700 32.99400
H  -6.00200 31.88000 33.75500
H  -7.45900 32.10500 32.74800

