158

Mg 53.85700 23.92900 43.73700
C  51.06600 26.07200 43.24100
C  51.93300 21.29700 42.71900
C  56.64500 21.91100 44.04600
C  55.69600 26.62900 44.82500
N  51.77000 23.78700 42.89800
C  50.81800 24.79800 42.65700
C  49.54900 24.18000 42.01200
C  49.78500 22.66300 42.26300
C  51.30100 22.55500 42.64700
C  48.95900 22.03600 43.41200
C  49.28600 24.61300 40.57200
C  50.48400 24.61600 39.63600
H  50.13600 24.93400 38.17300
N  54.26100 21.91400 43.34300
C  53.30700 21.00000 42.99100
C  53.95200 19.71700 42.83100
C  55.23900 19.85400 43.21500
C  55.43900 21.26900 43.48400
C  53.20300 18.43100 42.42400
C  56.23300 18.69000 43.16900
O  55.83400 17.54600 43.07400
C  57.67300 19.00400 42.97100
N  55.83300 24.25100 44.22100
C  56.79700 23.28000 44.26200
C  58.11800 23.76000 44.94200
C  57.83100 25.30100 45.07800
C  56.38300 25.43700 44.60000
C  58.54700 23.12100 46.29900
C  58.84300 26.30900 44.37200
C  59.80200 27.13300 45.28000
N  53.47800 25.87000 44.18000
C  54.31800 26.88500 44.64900
C  53.59900 28.06600 44.89700
C  52.34200 27.83600 44.29400
C  52.30700 26.46000 43.90100
C  54.12200 29.31300 45.43400
C  50.93900 28.34800 44.11200
O  50.34500 29.40200 44.38000
C  50.22300 27.30700 43.19400
C  50.00800 27.90400 41.87000
O  50.91300 28.21100 41.14700
O  48.68400 28.13300 41.61700
C  48.30500 28.68100 40.31800
H  51.39500 20.40400 42.39400
H  57.54300 21.37800 44.36500
H  56.43100 27.36900 45.14600
H  48.63500 24.51000 42.50700
H  49.71500 21.96200 41.43100
H  48.36900 22.78500 43.94100
H  49.60300 21.51800 44.12200
H  48.38300 21.25800 42.91000
H  48.81500 25.58500 40.42600
H  48.58900 23.89300 40.14200
H  50.84900 23.59000 39.66900
H  51.16000 25.35500 40.06500
H  53.23700 17.61600 43.14700
H  53.63500 18.15500 41.46200
H  52.14700 18.56900 42.18700
H  58.25900 18.99600 43.89000
H  57.89900 19.88300 42.36800
H  57.97400 18.24500 42.24900
H  58.89600 23.65000 44.18600
H  57.70900 25.59800 46.12000
H  57.83200 22.35300 46.59300
H  58.61500 23.84200 47.11400
H  59.52000 22.67600 46.09000
H  58.28700 26.92500 43.66500
H  59.39600 25.62000 43.73400
H  59.94600 28.17900 45.00800
H  60.73800 26.58300 45.18700
H  59.51200 27.01300 46.32300
H  53.49400 30.13800 45.09900
H  55.16300 29.49700 45.16900
H  54.10300 29.32500 46.52300
H  49.34100 27.24000 43.83200
H  49.12900 28.92400 39.64700
H  47.60300 29.50700 40.43400
H  47.69200 27.83300 40.01300
Mg -5.52700 24.83900 25.53400
C  -3.90000 26.20400 28.39100
C  -7.25700 22.68900 27.81300
C  -6.98600 23.48000 22.85800
C  -3.44000 26.80000 23.49400
N  -5.41900 24.34000 27.76900
C  -4.84700 25.21000 28.66300
C  -5.22700 24.79800 30.10300
C  -5.99700 23.41500 29.93100
C  -6.25800 23.47300 28.41500
C  -5.24600 22.05200 30.36600
C  -6.17900 25.91900 30.68400
C  -6.20000 26.14100 32.19100
H  -5.38900 25.11700 33.00000
N  -7.02400 23.37400 25.41700
C  -7.70800 22.71400 26.41600
C  -8.83900 21.93600 25.76600
C  -8.72900 22.18600 24.39100
C  -7.61000 23.03900 24.15400
C  -9.83400 21.15300 26.59300
C  -9.75200 21.57300 23.29100
O  -9.56100 21.83100 22.11200
C  -10.92000 20.76800 23.62200
N  -5.32500 25.06400 23.51000
C  -5.93200 24.27900 22.53600
C  -5.28000 24.39200 21.19200
C  -4.22200 25.54800 21.36700
C  -4.30800 25.85700 22.91300
C  -4.87700 23.03700 20.56500
C  -4.45700 26.80000 20.43200
C  -3.99800 26.62100 19.00200
N  -3.95000 26.19600 25.76300
C  -3.23700 26.96200 24.87200
C  -2.36900 27.88000 25.62400
C  -2.64500 27.63300 27.00100
C  -3.56700 26.63400 27.05800
C  -1.39300 28.90400 24.98700
C  -2.26300 28.10300 28.29300
O  -1.44400 28.99500 28.65500
C  -3.04200 27.09800 29.32800
C  -2.08300 26.36600 30.17800
O  -1.43400 25.41700 29.83800
O  -1.99800 26.89600 31.44100
C  -1.23900 26.10800 32.33700
H  -7.96600 22.14700 28.44200
H  -7.47900 23.09200 21.96400
H  -2.76100 27.35900 22.84700
H  -4.34900 24.54000 30.69500
H  -6.96700 23.42300 30.42900
H  -6.01600 21.39200 30.76400
H  -4.48000 22.25400 31.11400
H  -4.75500 21.57600 29.51600
H  -7.22600 25.74000 30.44000
H  -5.83400 26.89100 30.33200
H  -7.18000 26.22800 32.66000
H  -5.67900 27.08200 32.37300
H  -10.84100 21.10600 26.17800
H  -9.88100 21.72600 27.51900
H  -9.46300 20.15400 26.82300
H  -11.54000 20.54800 22.75300
H  -11.59900 21.39300 24.20100
H  -10.59600 19.84400 24.10200
H  -6.09300 24.72300 20.54700
H  -3.22200 25.17900 21.13600
H  -5.58400 22.26200 20.86300
H  -3.85500 22.73400 20.78900
H  -4.91700 23.03700 19.47600
H  -3.83200 27.58200 20.86300
H  -5.50500 27.09900 20.45600
H  -3.05300 27.16400 18.98300
H  -4.59100 27.10600 18.22700
H  -3.82500 25.56700 18.78500
H  -1.96800 29.46800 24.25300
H  -0.45000 28.59800 24.53300
H  -1.08700 29.67500 25.69500
H  -3.67600 27.68400 29.99300
H  -0.19300 26.03100 32.04100
H  -1.68800 25.12200 32.21600
H  -1.38600 26.21400 33.41200

