158

Mg 16.70500 -1.49700 28.18700
C  15.47700 0.22100 31.01100
C  18.99600 -2.95400 30.32200
C  18.23000 -2.73300 25.48200
C  15.01900 0.87300 26.08600
N  17.09700 -1.31100 30.39700
C  16.49000 -0.60400 31.34500
C  16.96800 -0.95000 32.69800
C  18.15500 -1.92700 32.48900
C  18.05100 -2.10800 30.93200
C  19.54300 -1.47500 33.04500
C  15.85100 -1.50300 33.59100
C  15.63200 -0.94100 34.99400
H  16.86700 -0.29000 35.64400
N  18.30100 -2.77900 27.92600
C  19.09300 -3.31700 28.98600
C  19.86600 -4.37400 28.37600
C  19.65800 -4.35000 26.93000
C  18.70400 -3.26800 26.68800
C  20.68600 -5.28000 29.24300
C  20.27100 -5.22500 25.84500
O  20.01400 -5.18200 24.61700
C  21.31500 -6.22100 26.19300
N  16.61600 -0.97600 25.99900
C  17.34200 -1.68600 25.10600
C  17.35100 -1.02200 23.68800
C  16.10400 -0.06400 23.82100
C  15.90200 0.02400 25.34600
C  18.60100 -0.16900 23.52700
C  14.82800 -0.66900 23.17900
C  13.93200 0.32900 22.43000
N  15.33000 -0.02400 28.40900
C  14.78300 0.85000 27.51300
C  13.83000 1.63900 28.20200
C  14.11500 1.55400 29.54400
C  15.04200 0.48600 29.65100
C  12.83500 2.60200 27.62200
C  13.82400 2.03500 30.85600
O  13.00100 2.92600 31.23700
C  14.73600 1.24200 31.80200
C  15.58400 2.17100 32.52500
O  16.63400 2.52900 32.06400
O  15.18700 2.33300 33.81100
C  16.06100 3.38300 34.45800
H  19.64000 -3.36600 31.10200
H  18.73500 -3.11300 24.59100
H  14.49700 1.70700 25.61100
H  17.47500 -0.05600 33.06100
H  17.87400 -2.92700 32.81700
H  19.44200 -0.79700 33.89200
H  20.14100 -1.07100 32.22800
H  19.89300 -2.42900 33.43900
H  15.97900 -2.58500 33.62400
H  14.87300 -1.40300 33.12000
H  15.30900 -1.75200 35.64700
H  14.81000 -0.23000 35.06900
H  20.14300 -6.20900 29.41500
H  20.94800 -4.89000 30.22600
H  21.65600 -5.44300 28.77300
H  20.87900 -6.93200 26.89500
H  21.98300 -5.49500 26.65600
H  21.50600 -6.78400 25.28000
H  17.30500 -1.82500 22.95200
H  16.29200 0.98600 23.59900
H  19.05300 0.22900 24.43500
H  18.30800 0.76100 23.03900
H  19.34900 -0.70100 22.93900
H  14.30800 -1.15000 24.00800
H  15.12400 -1.42100 22.44800
H  13.64400 -0.01100 21.43500
H  14.44800 1.28600 22.34700
H  13.01700 0.49700 22.99900
H  12.03000 2.11200 27.07400
H  13.31900 3.12900 26.80000
H  12.50800 3.25200 28.43400
H  14.07500 0.70900 32.48500
H  15.97600 3.36200 35.54500
H  15.69300 4.35500 34.12900
H  17.13200 3.30800 34.27300
Mg 47.05000 16.82400 27.59000
C  45.21300 16.75000 30.56600
C  49.51500 18.37300 29.50400
C  48.87700 17.07800 24.85800
C  44.31300 15.90100 25.84800
N  47.19800 17.74900 29.80600
C  46.37800 17.48100 30.77300
C  46.93800 17.87600 32.09800
C  48.20600 18.69300 31.67400
C  48.33300 18.20200 30.21800
C  47.97500 20.25600 31.80600
C  47.23700 16.66600 33.09100
C  47.29000 16.91200 34.60300
H  47.00500 18.33000 35.02700
N  48.94600 17.48000 27.29900
C  49.81200 18.00800 28.15400
C  51.12100 18.13900 27.56800
C  50.93800 17.70200 26.23200
C  49.50500 17.36300 26.06400
C  52.30000 18.82300 28.25600
C  51.96400 17.58600 25.20000
O  51.76900 17.03100 24.13900
C  53.30000 18.30400 25.38100
N  46.61900 16.62500 25.59500
C  47.53600 16.83300 24.61900
C  46.87000 16.66400 23.12800
C  45.46200 16.05500 23.50800
C  45.48000 16.15200 25.09900
C  46.82700 17.94600 22.31700
C  45.20300 14.54600 23.03800
C  45.34300 13.40500 24.10900
N  45.16900 16.40800 28.07800
C  44.13500 15.93400 27.25600
C  42.97900 15.54800 28.04000
C  43.35000 15.89300 29.33800
C  44.67700 16.41100 29.26700
C  41.74200 14.95700 27.46900
C  42.90300 15.82600 30.69100
O  41.87100 15.41100 31.25200
C  44.11400 16.22200 31.49100
C  43.74000 17.26200 32.52200
O  43.48500 18.44700 32.29700
O  43.69000 16.72900 33.77900
C  43.07300 17.55600 34.84600
H  50.26100 18.76800 30.19800
H  49.53700 16.87000 24.01400
H  43.42000 15.58100 25.30800
H  46.25200 18.53500 32.62900
H  49.14100 18.49700 32.19800
H  48.70900 20.77000 32.42500
H  47.01400 20.43800 32.28800
H  48.05600 20.75100 30.83900
H  48.21900 16.37400 32.72100
H  46.66100 15.75900 32.90300
H  48.29700 16.76800 34.99400
H  46.64900 16.18800 35.10700
H  53.23600 18.28200 28.11500
H  52.19000 18.88500 29.33800
H  52.30500 19.82600 27.83000
H  53.14400 19.34400 25.66800
H  53.77400 18.39200 24.40400
H  53.82500 17.77500 26.17700
H  47.61800 16.01800 22.66900
H  44.65100 16.70400 23.18000
H  47.68000 18.59800 22.50000
H  45.87400 18.46500 22.42100
H  46.94200 17.55700 21.30500
H  45.87200 14.26400 22.22400
H  44.24200 14.53600 22.52300
H  44.37300 13.12700 24.52000
H  46.03300 13.71500 24.89400
H  45.78600 12.57700 23.55500
H  41.77900 13.90400 27.18900
H  41.48500 15.48400 26.55000
H  40.94400 15.12700 28.19200
H  44.62100 15.36600 31.93700
H  43.17500 18.62300 34.65100
H  43.52400 17.45600 35.83300
H  42.04800 17.20700 34.97300

