158

Mg -2.41500 16.50200 26.87900
C  -2.87100 14.72200 29.84400
C  -2.37600 19.43900 28.80600
C  -2.37700 18.20900 24.02400
C  -2.80400 13.47600 25.15100
N  -2.60000 16.96300 29.09500
C  -2.82700 16.11900 30.11400
C  -2.86900 16.80600 31.47500
C  -2.77000 18.29600 31.11200
C  -2.52000 18.26800 29.58600
C  -3.91700 19.21200 31.49400
C  -1.77800 16.39000 32.54900
C  -1.61800 17.34900 33.76500
H  -0.84300 16.91300 35.05100
N  -2.36000 18.52900 26.47800
C  -2.32900 19.53400 27.40200
C  -2.26400 20.79300 26.66500
C  -2.21500 20.58500 25.25900
C  -2.27800 19.05900 25.14800
C  -2.30700 22.19200 27.45500
C  -2.08700 21.53900 24.09200
O  -1.94500 21.11900 22.93800
C  -1.99500 23.01700 24.33600
N  -2.76400 15.92900 24.85900
C  -2.44600 16.79900 23.87800
C  -2.46400 16.09000 22.52400
C  -2.28800 14.58100 22.90800
C  -2.62300 14.61200 24.40800
C  -3.72900 16.43400 21.66100
C  -0.79100 14.13400 22.68400
C  -0.48500 13.75700 21.18600
N  -2.79400 14.59500 27.28700
C  -2.86800 13.41700 26.52100
C  -2.98900 12.27300 27.33600
C  -2.96200 12.76400 28.60400
C  -2.85600 14.18000 28.60000
C  -3.08700 10.89500 26.78300
C  -3.00700 12.39900 29.94600
O  -3.25100 11.27400 30.39000
C  -2.92700 13.65500 30.80200
C  -1.72200 13.39400 31.56900
O  -0.58200 13.73600 31.25900
O  -2.13700 12.67700 32.64600
C  -1.05900 12.43400 33.55100
H  -2.29500 20.32800 29.43600
H  -2.31900 18.69600 23.04900
H  -2.67300 12.54100 24.60200
H  -3.89900 16.62700 31.78400
H  -1.93200 18.81300 31.58000
H  -3.56300 20.22300 31.69400
H  -4.42600 18.81600 32.37200
H  -4.67100 19.36000 30.72100
H  -0.79400 16.24700 32.10100
H  -1.94300 15.41500 33.00500
H  -2.55300 17.79800 34.09900
H  -0.99700 18.12500 33.31800
H  -1.24600 22.34300 27.65500
H  -2.91900 22.17800 28.35700
H  -2.59200 23.06300 26.86600
H  -2.09400 23.49600 23.36200
H  -1.00800 23.30100 24.70000
H  -2.87800 23.35400 24.88000
H  -1.65800 16.42400 21.87100
H  -2.97000 13.99000 22.29600
H  -4.13300 15.52400 21.21900
H  -3.45700 17.02200 20.78500
H  -4.47900 16.99700 22.21800
H  -0.53700 13.30000 23.34000
H  -0.08800 14.95400 22.83200
H  0.16500 12.88200 21.17700
H  0.10500 14.59800 20.82200
H  -1.39900 13.76300 20.59200
H  -2.30600 10.74700 26.03800
H  -4.01500 10.81600 26.21700
H  -2.94400 10.22100 27.62800
H  -3.83600 13.73200 31.39800
H  -0.02700 12.44300 33.20100
H  -1.28500 11.47100 34.00800
H  -1.24200 13.22400 34.28000
Mg 43.28800 42.81400 26.71500
C  42.10500 44.94700 29.29000
C  44.70900 40.64100 29.26100
C  44.73100 40.88800 24.36600
C  42.45500 45.17000 24.37900
N  43.31100 42.87500 29.02900
C  42.74300 43.76000 29.83500
C  43.05700 43.45500 31.27000
C  43.92800 42.11300 31.21800
C  43.91500 41.78600 29.70300
C  45.37000 42.27400 31.79200
C  41.71000 43.27300 31.98600
C  41.80300 43.04000 33.41600
H  40.82600 43.76400 34.37000
N  44.51800 40.99800 26.76800
C  44.95800 40.27000 27.93100
C  45.60500 39.09400 27.57600
C  45.53200 39.10900 26.16400
C  44.90500 40.32200 25.66700
C  46.12300 38.14500 28.62000
C  45.86800 38.04300 25.17000
O  45.73100 38.12200 23.96300
C  46.38400 36.71700 25.66900
N  43.67100 43.05400 24.63000
C  44.20200 42.07700 23.82500
C  44.37500 42.57800 22.39300
C  43.49400 43.88400 22.38600
C  43.12200 44.01600 23.83500
C  45.78300 42.79700 21.84800
C  42.25400 43.73800 21.47900
C  40.88500 43.31100 22.15900
N  42.34400 44.60400 26.79900
C  42.09600 45.50100 25.73100
C  41.52000 46.74300 26.22700
C  41.43800 46.53400 27.59900
C  41.99100 45.26300 27.88400
C  41.26200 47.95000 25.48400
C  41.04000 47.11700 28.88100
O  40.54700 48.20300 29.12200
C  41.42300 46.11400 29.96300
C  42.33800 46.74100 30.94400
O  43.31500 47.45700 30.61400
O  41.99100 46.42400 32.19700
C  42.88300 46.87500 33.24000
H  45.08500 40.08100 30.11900
H  45.12900 40.22000 23.59900
H  42.17300 45.90100 23.61900
H  43.64600 44.32500 31.55800
H  43.50400 41.37800 31.90300
H  45.26000 42.53100 32.84500
H  45.98500 42.97500 31.22600
H  45.87000 41.30700 31.74500
H  41.44000 42.38800 31.40900
H  40.93000 43.97000 31.67800
H  42.85100 43.24700 33.63100
H  41.49100 42.00000 33.52000
H  47.01900 38.46400 29.15300
H  46.49500 37.19200 28.24300
H  45.44100 37.83200 29.41000
H  45.72300 36.31500 26.43700
H  47.37900 36.79300 26.10800
H  46.37200 35.99200 24.85500
H  43.96800 41.75300 21.80900
H  44.16400 44.73300 22.24600
H  46.48200 42.53800 22.64300
H  46.07800 43.81300 21.58800
H  46.00600 42.20800 20.95800
H  42.46700 43.14200 20.59200
H  42.19800 44.70500 20.98000
H  40.41400 42.67600 21.40900
H  40.20200 44.11300 22.43800
H  41.10300 42.85500 23.12500
H  41.58500 47.78500 24.45600
H  41.80600 48.83100 25.82500
H  40.21700 48.25900 25.50400
H  40.53100 45.71100 30.44200
H  42.97600 47.95500 33.12900
H  43.87200 46.42600 33.14500
H  42.40700 46.61100 34.18500

