158

Mg -1.98900 18.15900 27.44800
C  -2.55900 16.02400 30.22000
C  -2.71500 20.88800 29.44300
C  -2.36900 20.02000 24.68100
C  -1.98100 15.32300 25.50300
N  -2.56900 18.40700 29.55600
C  -2.61400 17.37000 30.57100
C  -2.71900 17.91200 31.97800
C  -3.11200 19.43700 31.63700
C  -2.75900 19.62100 30.12200
C  -4.57500 19.79700 32.00200
C  -1.43000 17.87800 32.88600
C  -1.57300 17.10400 34.26000
H  -0.43200 17.15800 35.19000
N  -2.22200 20.22500 27.09900
C  -2.55600 21.16800 28.08100
C  -2.66300 22.49000 27.40800
C  -2.37800 22.23000 26.03600
C  -2.29100 20.76300 25.83000
C  -2.98600 23.74600 28.20300
C  -2.29000 23.27800 24.88900
O  -1.98000 22.94500 23.79500
C  -2.30200 24.74300 25.15900
N  -2.10100 17.69600 25.37200
C  -2.31200 18.68700 24.44700
C  -2.32600 18.08600 22.99000
C  -2.29400 16.59000 23.32600
C  -1.97600 16.49800 24.80800
C  -3.51100 18.46100 22.09600
C  -1.31400 15.71400 22.45000
C  0.15200 15.55200 22.88500
N  -2.11300 16.11800 27.72700
C  -2.06900 15.10400 26.87700
C  -2.06800 13.78800 27.50900
C  -2.30000 14.13700 28.83100
C  -2.27700 15.55700 28.92700
C  -1.92900 12.39400 26.99900
C  -2.53700 13.58000 30.09100
O  -2.65100 12.43900 30.35800
C  -2.70200 14.77700 31.16500
C  -1.73300 14.59000 32.23800
O  -0.62500 15.02600 32.27600
O  -2.26500 13.74000 33.14500
C  -1.28300 13.08000 34.08000
H  -2.90800 21.62900 30.22200
H  -2.54500 20.58500 23.76300
H  -2.19600 14.39000 24.97700
H  -3.55800 17.44100 32.49100
H  -2.48300 20.09500 32.23600
H  -4.63700 20.60300 32.73300
H  -5.11500 18.92000 32.35800
H  -5.01500 20.26700 31.12200
H  -1.11500 18.85300 33.25900
H  -0.59300 17.45900 32.32700
H  -1.99200 16.09900 34.21000
H  -2.29100 17.63600 34.88400
H  -4.00700 23.88600 27.84700
H  -2.33400 24.57400 27.92500
H  -2.97100 23.56900 29.27800
H  -2.48600 25.43600 24.33700
H  -1.35000 24.96500 25.64100
H  -3.11600 25.04200 25.82000
H  -1.33000 18.32400 22.61800
H  -3.26900 16.10800 23.25200
H  -4.27800 17.69100 22.01700
H  -3.20200 18.77000 21.09700
H  -4.11300 19.30600 22.43200
H  -1.24200 16.12200 21.44100
H  -1.79600 14.73800 22.39000
H  0.31100 14.48900 23.06700
H  0.23800 15.92400 23.90700
H  0.90200 15.99000 22.22600
H  -1.02600 12.15600 26.43700
H  -2.85100 12.19400 26.45200
H  -1.96900 11.73400 27.86600
H  -3.71100 14.94700 31.54200
H  -0.77000 12.30300 33.51400
H  -1.83600 12.65000 34.91500
H  -0.50800 13.66500 34.57600
Mg -0.70100 44.04500 26.33400
C  1.74400 43.74800 28.77400
C  -3.17900 43.83300 28.77000
C  -3.02700 43.87900 23.88100
C  1.75200 44.23400 23.90400
N  -0.67300 43.95900 28.53600
C  0.48400 43.78700 29.35100
C  0.05200 43.64800 30.79900
C  -1.47700 43.56600 30.67900
C  -1.79900 43.84200 29.20900
C  -2.15300 42.35100 31.37100
C  0.49000 44.96900 31.45400
C  0.13400 45.18700 32.87700
H  -0.12000 44.04700 33.84300
N  -2.80800 43.83900 26.35100
C  -3.62900 43.80700 27.43600
C  -4.95900 43.72000 27.00700
C  -4.98500 43.73100 25.58600
C  -3.58800 43.72500 25.17500
C  -6.11000 43.67200 27.98800
C  -6.15000 43.67300 24.61100
O  -6.03800 43.75300 23.36100
C  -7.64200 43.59600 25.12700
N  -0.64400 43.91000 24.20600
C  -1.72300 43.90400 23.43300
C  -1.41900 44.08000 21.98200
C  0.10400 44.48100 21.98400
C  0.48100 44.19600 23.46100
C  -1.59900 42.83900 21.08700
C  0.24300 45.96600 21.63900
C  1.62500 46.35800 21.05400
N  1.34700 44.05600 26.26600
C  2.23200 44.10800 25.23800
C  3.62000 44.00200 25.72500
C  3.42300 43.76200 27.10100
C  2.05300 43.83300 27.38800
C  4.84900 44.33900 25.01500
C  4.20100 43.56800 28.30700
O  5.39300 43.39600 28.51400
C  3.16200 43.63000 29.45700
C  3.24500 42.41300 30.30700
O  2.79900 41.30500 29.93100
O  3.80500 42.71200 31.52800
C  4.20800 41.56600 32.39600
H  -3.91900 43.59300 29.53700
H  -3.74200 43.77500 23.06200
H  2.50300 44.28900 23.11300
H  0.59400 42.86900 31.33500
H  -1.84500 44.46300 31.17700
H  -2.85100 41.79400 30.74600
H  -2.72600 42.69300 32.23300
H  -1.46000 41.57400 31.69200
H  -0.07900 45.72900 30.91900
H  1.55700 45.18700 31.40400
H  -0.72600 45.85600 32.86900
H  1.02600 45.72400 33.19900
H  -6.78600 44.45700 27.65000
H  -5.87200 43.89500 29.02800
H  -6.48700 42.65100 27.92700
H  -8.36600 43.32000 24.36000
H  -7.73600 44.62300 25.48000
H  -7.78300 42.82600 25.88600
H  -2.06800 44.88900 21.64700
H  0.60100 43.81400 21.28000
H  -1.28000 41.87800 21.49000
H  -1.07400 43.02700 20.15000
H  -2.65600 42.71100 20.85300
H  0.22900 46.60300 22.52300
H  -0.56800 46.30900 20.99600
H  2.39400 46.33000 21.82600
H  1.54700 47.31600 20.53900
H  1.89500 45.74000 20.19800
H  4.89200 43.63900 24.18000
H  5.74600 44.19700 25.61800
H  4.69000 45.37300 24.70700
H  3.37400 44.54200 30.01400
H  5.23500 41.62900 32.75400
H  4.11200 40.59000 31.91900
H  3.58900 41.59000 33.29300

