158

Mg 35.20600 1.82500 28.79500
C  33.43500 3.27100 31.45300
C  37.94100 1.63200 30.76000
C  36.85100 0.98800 26.00500
C  32.36700 2.57100 26.71900
N  35.56800 2.38700 30.80700
C  34.66800 2.78500 31.79700
C  35.37600 2.81600 33.18200
C  36.81800 2.67000 32.86900
C  36.82600 2.24200 31.40200
C  37.72900 3.92700 33.40200
C  34.80700 1.72000 34.10300
C  34.72000 1.98900 35.69200
H  35.24600 3.35300 36.24100
N  37.09200 1.28800 28.50700
C  38.08300 1.25100 29.39700
C  39.32000 0.84200 28.73000
C  38.94300 0.45500 27.39000
C  37.56800 0.83500 27.26900
C  40.65000 0.81100 29.48000
C  39.86000 -0.10000 26.26400
O  39.43600 -0.31400 25.09900
C  41.25800 -0.38100 26.58300
N  34.58600 1.78500 26.58900
C  35.52100 1.34300 25.75000
C  34.84600 1.17400 24.35300
C  33.31100 1.43600 24.64200
C  33.37800 1.89900 26.03100
C  35.48100 2.14500 23.31900
C  32.50900 0.08700 24.52900
C  32.07300 -0.34600 23.09800
N  33.27200 2.71600 29.02800
C  32.31300 2.94900 28.07200
C  31.13300 3.57900 28.78300
C  31.50000 3.62600 30.16200
C  32.81000 3.18000 30.19400
C  29.84300 4.01800 28.18000
C  31.01500 3.99500 31.44600
O  29.94600 4.41800 31.83900
C  32.32900 3.80900 32.35200
C  32.71700 4.95900 33.15900
O  33.42100 5.84200 32.78200
O  31.98500 4.98600 34.31500
C  32.18800 6.12500 35.33100
H  38.82300 1.53600 31.39700
H  37.29700 0.70600 25.04800
H  31.37500 2.60700 26.26300
H  35.17800 3.81400 33.57300
H  37.28200 1.85800 33.42900
H  37.20700 4.51900 34.15400
H  38.09000 4.55000 32.58300
H  38.69100 3.59000 33.78900
H  35.43200 0.83100 34.01400
H  33.78500 1.47900 33.81200
H  35.29600 1.30200 36.31200
H  33.68300 1.82500 35.98500
H  41.26900 -0.02200 29.14700
H  40.61300 0.63200 30.55400
H  41.09100 1.78100 29.24600
H  41.82100 -0.41300 25.65000
H  41.32700 -1.26100 27.22200
H  41.65800 0.43900 27.17900
H  35.13200 0.15400 24.09800
H  32.84800 2.09600 23.90900
H  36.31100 2.77100 23.64500
H  34.77400 2.85900 22.89800
H  35.70900 1.59500 22.40600
H  31.68500 0.18900 25.23400
H  33.11200 -0.68000 25.01500
H  30.98400 -0.34200 23.14900
H  32.40800 -1.36100 22.88600
H  32.44100 0.25700 22.26800
H  29.94600 4.42200 27.17300
H  29.40800 4.68100 28.92800
H  29.18700 3.16600 28.00100
H  31.98900 3.09500 33.10300
H  32.94000 6.86100 35.04800
H  32.62900 5.74400 36.25200
H  31.27300 6.67000 35.56600
Mg 55.32500 22.09500 44.39900
C  53.02500 24.88500 43.70900
C  53.09300 19.97700 43.09700
C  57.81300 19.79200 43.95700
C  57.72700 24.57300 45.18900
N  53.30700 22.47600 43.39400
C  52.50000 23.55700 43.29500
C  51.12100 23.17000 42.75700
C  51.14600 21.61600 42.90900
C  52.59400 21.31900 43.16100
C  50.22100 21.13400 44.06400
C  50.92100 23.65300 41.26200
C  52.10600 23.86400 40.34800
H  51.92400 24.85700 39.20700
N  55.46700 20.15900 43.63300
C  54.35600 19.43200 43.25000
C  54.74100 17.99900 43.14200
C  56.08700 17.94800 43.54100
C  56.57000 19.28100 43.67200
C  53.70800 16.89700 42.88000
C  56.85700 16.64100 43.62500
O  56.21900 15.62400 43.54900
C  58.33400 16.43700 43.84400
N  57.49300 22.20000 44.38500
C  58.24200 21.09000 44.20800
C  59.70700 21.42600 44.57400
C  59.68500 22.95200 44.89700
C  58.19400 23.29500 44.80800
C  60.31800 20.56700 45.70200
C  60.47200 23.91600 43.91400
C  61.82200 24.29400 44.39200
N  55.37900 24.25200 44.59300
C  56.45100 25.06300 45.03300
C  55.94100 26.43300 45.17200
C  54.62200 26.44600 44.55900
C  54.33000 25.08300 44.26600
C  56.81700 27.61600 45.49700
C  53.49900 27.27000 44.20100
O  53.29700 28.46000 44.39000
C  52.40900 26.28000 43.64600
C  51.84900 26.76900 42.28600
O  52.47600 27.03100 41.28700
O  50.51100 27.00900 42.39200
C  49.81900 27.68400 41.24000
H  52.35600 19.20400 42.86900
H  58.61500 19.05200 44.00300
H  58.50200 25.23700 45.57800
H  50.45200 23.71200 43.42600
H  50.69400 21.09300 42.06500
H  49.46200 20.48600 43.62700
H  49.67000 21.95900 44.51500
H  50.87400 20.70500 44.82400
H  50.24900 24.51100 41.29500
H  50.40900 22.80300 40.81100
H  52.36900 22.86300 40.00800
H  52.97200 24.20900 40.91500
H  53.53700 16.78300 41.81000
H  52.74300 17.28500 43.20800
H  53.75400 15.92300 43.36700
H  58.62800 16.85500 44.80700
H  58.82100 16.98700 43.03900
H  58.48900 15.36200 43.74400
H  60.36000 21.32100 43.70800
H  59.96200 23.09600 45.94100
H  61.38600 20.42000 45.54200
H  59.74000 19.66600 45.90900
H  60.37700 21.17900 46.60200
H  59.87600 24.75200 43.55000
H  60.52500 23.32900 42.99700
H  62.58700 23.87100 43.74100
H  62.04300 23.89300 45.38100
H  62.00400 25.36800 44.35300
H  57.51300 27.55300 46.33400
H  56.27800 28.56300 45.53600
H  57.42500 27.68700 44.59500
H  51.55000 26.24100 44.31700
H  49.96100 28.73400 41.49600
H  48.77700 27.36900 41.18800
H  50.30300 27.46800 40.28800

