158

Mg 2.63300 -2.31300 44.35800
C  6.00700 -1.26500 43.98200
C  1.76800 0.32100 42.29300
C  -0.32400 -3.79600 44.00200
C  3.98000 -5.16700 45.97700
N  3.74900 -0.66100 43.25000
C  5.12400 -0.51400 43.17100
C  5.60200 0.51200 42.12300
C  4.20400 1.27700 41.87800
C  3.15400 0.28800 42.53600
C  4.05600 2.67300 42.50500
C  6.27400 -0.11600 40.83800
C  7.71700 0.28800 40.50100
H  8.17200 0.44700 39.05900
N  0.92600 -1.73700 43.36000
C  0.74900 -0.64700 42.63400
C  -0.60000 -0.54400 42.17500
C  -1.30400 -1.71400 42.59600
C  -0.24400 -2.48600 43.35600
C  -1.20500 0.62100 41.47300
C  -2.75900 -1.99000 42.38000
O  -3.47500 -1.15000 41.88200
C  -3.37200 -3.28800 42.83000
N  1.93100 -4.16300 45.00400
C  0.61500 -4.50900 44.81000
C  0.27000 -5.89400 45.36600
C  1.68800 -6.46100 45.73700
C  2.61500 -5.20700 45.58100
C  -0.62000 -5.87500 46.57500
C  2.07500 -7.60700 44.74100
C  2.12100 -9.04200 45.34200
N  4.52700 -2.98400 45.09900
C  4.93700 -4.13900 45.77200
C  6.39300 -4.07300 46.00200
C  6.85500 -2.90800 45.39000
C  5.70400 -2.28100 44.89400
C  7.21600 -5.11700 46.80400
C  8.04100 -2.20300 45.09900
O  9.26000 -2.30100 45.41300
C  7.45800 -0.99900 44.20000
C  7.56600 0.23500 44.90900
O  6.96600 0.49000 45.94000
O  8.68600 0.98100 44.40100
C  9.01300 2.14400 45.23900
H  1.52600 1.11400 41.58200
H  -1.31500 -4.25500 43.96800
H  4.44400 -6.00500 46.50200
H  6.30100 1.18100 42.62600
H  3.89900 1.38000 40.83700
H  5.00100 3.14300 42.78100
H  3.46900 2.74100 43.42000
H  3.71000 3.41200 41.78200
H  5.66100 -0.17600 39.93900
H  6.35300 -1.18200 41.05300
H  8.43900 -0.28300 41.08500
H  7.64900 1.30000 40.90100
H  -1.79000 0.36300 40.59100
H  -0.36500 1.22700 41.13400
H  -1.86100 1.09600 42.20300
H  -2.85300 -4.17700 42.47100
H  -4.43400 -3.31000 42.58600
H  -3.29300 -3.38200 43.91300
H  -0.15100 -6.59300 44.64300
H  1.90500 -6.79100 46.75200
H  -0.23700 -6.41000 47.44400
H  -1.48500 -6.48300 46.31100
H  -0.94600 -4.85300 46.77000
H  3.07500 -7.47400 44.32800
H  1.34300 -7.58200 43.93400
H  1.92800 -9.13900 46.41000
H  3.09300 -9.48200 45.11800
H  1.33600 -9.68100 44.93700
H  6.98300 -6.12400 46.45700
H  7.08200 -5.09800 47.88600
H  8.25200 -4.88300 46.56100
H  8.07000 -0.95600 43.29900
H  9.52700 2.88700 44.62900
H  9.44100 1.92000 46.21600
H  8.04900 2.63500 45.37500
Mg 53.25600 24.20400 44.88700
C  50.75300 26.48800 44.26000
C  51.17700 21.74900 43.82600
C  55.96100 22.06100 44.82600
C  55.47200 26.86400 45.65500
N  51.26600 24.19400 43.83600
C  50.41700 25.23300 43.83200
C  49.01100 24.86000 43.39400
C  49.09600 23.23900 43.59300
C  50.59400 23.03100 43.79600
C  48.25100 22.63500 44.79900
C  48.54100 25.31900 42.02900
C  49.59600 25.30800 40.97100
H  50.43500 24.05200 40.63000
N  53.56900 22.14300 44.33500
C  52.55800 21.33500 43.97600
C  53.17200 19.99400 43.90700
C  54.55100 20.04300 44.17900
C  54.77500 21.46700 44.50900
C  52.44000 18.78800 43.44900
C  55.54000 18.84400 44.05500
O  55.08800 17.73000 43.86800
C  57.02200 19.00800 43.96900
N  55.45500 24.47300 44.92300
C  56.34800 23.40600 45.14400
C  57.78100 23.93800 45.58400
C  57.56700 25.43300 45.72200
C  56.05100 25.60300 45.46200
C  58.41800 23.28400 46.78100
C  58.44500 26.23700 44.85600
C  57.92300 26.53900 43.43600
N  53.17300 26.24100 45.13700
C  54.10000 27.18100 45.49300
C  53.45500 28.47500 45.52400
C  52.12300 28.22700 45.20900
C  52.01400 26.85300 44.84400
C  54.09200 29.81900 45.76800
C  50.88500 28.90400 44.98500
O  50.55700 30.04800 45.25700
C  50.00200 27.84800 44.23800
C  49.73400 28.31000 42.88800
O  50.57500 28.43800 42.04700
O  48.43200 28.58900 42.63700
C  48.02900 29.00600 41.32300
H  50.47800 20.94000 43.60300
H  56.81000 21.38400 44.93600
H  56.17700 27.58400 46.07500
H  48.33000 25.21000 44.17000
H  48.79900 22.61200 42.75200
H  47.45000 23.33800 45.03100
H  48.92100 22.52200 45.65200
H  47.70100 21.73300 44.53000
H  47.96300 26.24200 42.07700
H  47.76000 24.61100 41.74900
H  50.18500 26.21200 41.13000
H  49.12900 25.53300 40.01200
H  52.92900 18.10100 42.75800
H  51.55100 19.16200 42.94100
H  51.98500 18.23900 44.27400
H  57.44200 19.81000 43.36200
H  57.44300 18.10200 43.53200
H  57.42800 19.14900 44.97100
H  58.40300 23.70400 44.72100
H  57.71500 25.73100 46.76000
H  57.66000 22.59100 47.14800
H  58.58200 24.01200 47.57600
H  59.41700 22.98200 46.46700
H  59.38300 25.68800 44.93700
H  58.54700 27.18700 45.37900
H  58.63600 26.26000 42.66000
H  57.74700 27.60500 43.29000
H  57.00000 25.99300 43.24200
H  55.16500 29.79000 45.57700
H  53.79500 30.03200 46.79500
H  53.68500 30.61400 45.14300
H  49.02600 27.83800 44.72300
H  48.11600 28.13800 40.67000
H  48.67900 29.82000 41.00000
H  47.02000 29.41300 41.37900

