158

Mg -1.78600 17.39900 26.25400
C  -1.91100 15.17600 28.97100
C  -2.27900 20.04900 28.56700
C  -2.41300 19.62300 23.69300
C  -2.02100 14.71500 24.17500
N  -1.99200 17.59200 28.53100
C  -2.01400 16.49200 29.37800
C  -2.11300 16.98100 30.83900
C  -2.20700 18.58300 30.76600
C  -2.15500 18.78600 29.21800
C  -3.55500 19.19900 31.41800
C  -1.01400 16.40200 31.82300
C  -0.73200 17.24400 32.95700
H  -0.28700 16.63800 34.30600
N  -2.15900 19.51000 26.13300
C  -2.20900 20.41800 27.20300
C  -2.23100 21.78700 26.66800
C  -2.08100 21.64500 25.28000
C  -2.32800 20.20200 24.94000
C  -2.21500 23.06200 27.53100
C  -1.89100 22.71700 24.26200
O  -2.01300 22.56100 23.03500
C  -1.39200 24.02700 24.76600
N  -2.16300 17.13300 24.27600
C  -2.33900 18.18500 23.39800
C  -2.66400 17.68700 22.00800
C  -2.28500 16.20600 22.04300
C  -2.09500 15.98200 23.60600
C  -4.08000 18.02400 21.58700
C  -0.97100 15.83100 21.22600
C  0.47500 16.03300 21.69200
N  -1.86200 15.34300 26.49000
C  -1.89900 14.32800 25.54000
C  -1.88300 13.04400 26.14400
C  -2.03700 13.35900 27.51900
C  -1.89600 14.74900 27.66700
C  -1.91300 11.72600 25.56800
C  -2.19900 12.70400 28.78000
O  -2.38400 11.50700 29.08000
C  -2.07200 13.84000 29.80300
C  -0.86100 13.47600 30.77400
O  0.26500 13.75700 30.60600
O  -1.36700 12.77000 31.80300
C  -0.50300 12.46000 32.93400
H  -2.41200 20.90100 29.23700
H  -2.48200 20.26100 22.80900
H  -2.10000 13.87800 23.47900
H  -3.05500 16.62900 31.25900
H  -1.40300 19.19600 31.17400
H  -3.35000 20.18100 31.84400
H  -3.93600 18.67600 32.29600
H  -4.32800 19.29900 30.65700
H  -0.10700 16.12700 31.28600
H  -1.41700 15.54800 32.36800
H  -1.52200 17.96700 33.15900
H  0.14800 17.76800 32.58400
H  -2.77000 23.86500 27.04500
H  -1.21600 23.45200 27.72800
H  -2.84600 22.95600 28.41400
H  -1.22100 24.57600 23.84100
H  -0.47600 23.87500 25.33700
H  -2.19100 24.54900 25.29300
H  -2.02200 18.17400 21.27300
H  -3.04400 15.50500 21.69800
H  -4.54300 18.53300 22.43200
H  -4.55500 17.05900 21.41000
H  -3.92000 18.69800 20.74600
H  -1.01800 16.20300 20.20200
H  -0.99000 14.74800 21.10000
H  0.48200 16.32700 22.74200
H  1.16300 16.65600 21.12100
H  1.03800 15.10000 21.66800
H  -1.23100 11.20900 26.24200
H  -1.49700 11.87500 24.57100
H  -2.96800 11.45600 25.59800
H  -2.91200 14.02100 30.47300
H  -0.85200 11.48300 33.26900
H  -0.77800 13.30300 33.56800
H  0.58400 12.44800 32.84500
Mg -4.65000 25.23100 26.24200
C  -3.59000 26.75500 29.14600
C  -6.27700 22.87400 28.40900
C  -5.88000 23.65500 23.60000
C  -2.93200 27.46100 24.38900
N  -4.94000 24.89000 28.58700
C  -4.41900 25.72900 29.49900
C  -4.98000 25.42600 30.87100
C  -5.59800 23.98200 30.69800
C  -5.69500 23.93100 29.10700
C  -4.74700 22.89100 31.21200
C  -6.03800 26.49900 31.35200
C  -6.04800 26.86500 32.80700
H  -5.57400 25.80400 33.79300
N  -5.85400 23.45400 26.08900
C  -6.41700 22.66000 27.06500
C  -7.31300 21.64500 26.38900
C  -7.18100 21.87500 24.97200
C  -6.30300 23.01800 24.85400
C  -7.93600 20.46900 27.07000
C  -7.81300 21.11500 23.81000
O  -7.71600 21.42200 22.64300
C  -8.56000 19.81000 24.07800
N  -4.40500 25.45700 24.21100
C  -5.06700 24.75700 23.29200
C  -4.77700 25.32600 21.88700
C  -3.66300 26.38200 22.12600
C  -3.76700 26.50400 23.65500
C  -4.27900 24.33300 20.82800
C  -3.85400 27.63100 21.28000
C  -4.76600 28.63300 21.95700
N  -3.42700 26.72100 26.61300
C  -2.75100 27.60600 25.78700
C  -1.84800 28.47500 26.45900
C  -2.25600 28.15600 27.77300
C  -3.22100 27.14800 27.82100
C  -1.01300 29.62000 25.94200
C  -2.03500 28.63200 29.07800
O  -1.21600 29.49200 29.41100
C  -2.94300 27.73000 30.06400
C  -2.03900 27.11400 31.00900
O  -1.36100 26.07100 30.78800
O  -2.06800 27.89600 32.15900
C  -1.32700 27.21300 33.24900
H  -6.75700 22.20400 29.12600
H  -6.20600 23.14600 22.69000
H  -2.35800 28.01200 23.64100
H  -4.24000 25.34300 31.66600
H  -6.59200 23.89200 31.13600
H  -4.05700 23.22400 31.98700
H  -4.01900 22.42800 30.54600
H  -5.27000 22.12400 31.78400
H  -7.09300 26.28500 31.17900
H  -5.85200 27.47000 30.89400
H  -7.07800 27.03600 33.12200
H  -5.55700 27.83000 32.93500
H  -8.91300 20.26600 26.62900
H  -8.12500 20.69200 28.12000
H  -7.33600 19.56000 27.05700
H  -9.43600 20.05100 24.68000
H  -7.85500 19.10600 24.52100
H  -8.82000 19.18600 23.22300
H  -5.64000 25.88600 21.52800
H  -2.69100 25.93200 21.92600
H  -4.96500 24.25500 19.98500
H  -4.23600 23.31100 21.20600
H  -3.26700 24.56900 20.50000
H  -4.02300 27.32600 20.24700
H  -2.90900 28.17500 21.26600
H  -4.19600 29.27400 22.62900
H  -5.50700 27.99000 22.43200
H  -5.24800 29.26600 21.21200
H  0.03900 29.47400 26.18600
H  -1.30000 30.55900 26.41600
H  -1.01900 29.73200 24.85700
H  -3.82700 28.21000 30.48400
H  -0.28500 27.05600 32.97000
H  -1.63900 26.20800 33.53500
H  -1.29700 27.81400 34.15800

