158

Mg 47.19400 25.92000 27.62200
C  48.50500 27.84200 30.09300
C  46.50400 23.50000 29.87000
C  46.12100 23.97700 25.09500
C  48.31000 28.24700 25.17600
N  47.46400 25.70800 29.71800
C  47.96500 26.64100 30.56400
C  47.75200 26.24600 32.05000
C  47.11300 24.90900 31.98100
C  46.98800 24.65700 30.42500
C  47.85200 23.80200 32.66600
C  46.91300 27.30500 32.85600
C  47.32800 27.41200 34.41400
H  46.16000 27.62700 35.39200
N  46.26900 24.05100 27.53700
C  46.18700 23.17700 28.53900
C  45.59700 21.92700 28.09400
C  45.34900 22.11600 26.70700
C  45.93900 23.44600 26.35900
C  45.33200 20.72600 28.98400
C  44.63100 21.19000 25.71000
O  44.70700 21.25800 24.49800
C  43.91600 20.01800 26.17300
N  47.33400 26.07500 25.41800
C  46.70300 25.11100 24.56500
C  46.70400 25.54700 23.16200
C  47.24800 27.04900 23.25500
C  47.66000 27.17200 24.67100
C  47.52800 24.59800 22.30700
C  46.31600 28.20500 22.81700
C  46.90200 29.11800 21.69400
N  48.32100 27.59600 27.59100
C  48.60000 28.43700 26.50600
C  49.34700 29.54000 27.06700
C  49.27200 29.43500 28.47700
C  48.66600 28.22100 28.72500
C  49.91700 30.58700 26.22200
C  49.69300 30.02200 29.76800
O  50.19700 31.11700 30.04600
C  49.16400 28.91400 30.86300
C  50.23800 28.52300 31.78700
O  51.07800 27.64500 31.59000
O  49.99400 29.10300 33.05900
C  50.82700 28.54700 34.16400
H  46.26800 22.77100 30.64900
H  45.55700 23.35700 24.39500
H  48.59700 29.02700 24.46700
H  48.72600 26.25400 32.54000
H  46.12100 24.87100 32.43100
H  48.64000 24.31700 33.21400
H  48.18600 23.04000 31.96100
H  47.20600 23.23500 33.33700
H  45.83200 27.17400 32.81800
H  46.92100 28.32500 32.47200
H  47.74600 28.41400 34.32000
H  48.04800 26.70200 34.82100
H  44.28300 20.43000 28.98800
H  45.67900 20.84100 30.01000
H  45.89700 19.87900 28.59200
H  44.64700 19.23600 26.37800
H  43.27000 19.50400 25.46100
H  43.21700 20.32900 26.94900
H  45.66200 25.46900 22.85100
H  48.16500 27.02300 22.66600
H  47.79600 23.69300 22.85100
H  48.40000 25.00100 21.79100
H  46.81500 24.26900 21.55100
H  46.13700 28.80000 23.71300
H  45.34800 27.87200 22.44400
H  46.07700 29.18800 20.98500
H  47.67000 28.57100 21.14700
H  47.04800 30.17400 21.92100
H  49.28300 30.79800 25.36000
H  50.86600 30.17300 25.88200
H  50.17400 31.33700 26.97000
H  48.39400 29.36200 31.49100
H  50.24300 28.16000 34.99900
H  51.33300 29.42300 34.57000
H  51.58800 27.81300 33.89900
Mg 6.75300 54.55000 41.75100
C  4.60700 51.72200 41.68000
C  9.25300 52.47400 40.50000
C  8.73700 57.23900 41.54100
C  4.11500 56.42900 42.99900
N  6.78700 52.40800 40.99200
C  5.83700 51.48100 41.08700
C  6.41500 50.06700 40.53000
C  8.00900 50.38300 40.49600
C  8.02700 51.83900 40.81800
C  8.81300 49.60600 41.45900
C  5.85600 49.73400 39.08300
C  5.25100 48.27500 38.87700
H  5.44300 47.64400 37.52100
N  8.67100 54.91500 40.91400
C  9.53800 53.91600 40.49500
C  10.83500 54.51300 40.03300
C  10.70500 55.87900 40.32400
C  9.36100 56.06900 40.95700
C  11.97700 53.72100 39.52300
C  11.72000 56.92000 40.10500
O  12.82500 56.62600 39.63100
C  11.43600 58.31600 40.32300
N  6.37900 56.66700 42.02000
C  7.44300 57.47400 42.02400
C  6.98700 58.88300 42.40400
C  5.53000 58.64600 43.04400
C  5.25800 57.23300 42.60300
C  7.95200 59.82100 43.28300
C  4.46300 59.74400 42.71000
C  3.84100 60.41500 43.97800
N  4.76600 54.26400 42.18400
C  3.76400 55.11300 42.70400
C  2.54300 54.39600 42.92100
C  2.88200 53.08100 42.61400
C  4.13900 53.04800 42.09600
C  1.21000 54.97200 43.30400
C  2.37900 51.67300 42.66200
O  1.35400 51.16200 43.17900
C  3.50100 50.84800 42.01800
C  3.01700 50.13000 40.85200
O  2.64200 50.64700 39.83800
O  2.76700 48.80500 41.11000
C  1.63800 48.22300 40.41700
H  10.08900 51.79600 40.31800
H  9.42300 58.08900 41.57200
H  3.31000 57.02200 43.43800
H  6.16300 49.39200 41.34800
H  8.35000 50.29600 39.46400
H  9.47600 48.90300 40.95500
H  8.21100 49.03000 42.16200
H  9.47100 50.29700 41.98600
H  6.62600 49.82500 38.31700
H  4.98200 50.36900 38.94000
H  4.20900 48.21400 39.19000
H  5.85600 47.68600 39.56600
H  12.61800 54.37800 38.93500
H  11.71400 52.81500 38.97600
H  12.54200 53.46200 40.41800
H  12.30400 58.89000 39.99800
H  11.54400 58.35000 41.40700
H  10.61200 58.92100 39.94400
H  6.80600 59.37600 41.44900
H  5.59500 58.60700 44.13100
H  8.83200 59.19700 43.43800
H  7.63000 60.06000 44.29600
H  8.27400 60.74200 42.79800
H  3.66700 59.37200 42.06600
H  4.89300 60.54200 42.10400
H  4.04000 61.48600 44.00600
H  4.37600 60.03500 44.84900
H  2.75500 60.33900 44.03300
H  0.57200 54.38800 43.96600
H  0.58300 55.20400 42.44300
H  1.33800 55.90300 43.85500
H  3.94300 50.11100 42.68900
H  1.85100 47.97500 39.37700
H  0.71800 48.80400 40.35000
H  1.35300 47.26300 40.84700

