158

Mg -2.34800 16.60300 25.91700
C  -2.90400 14.60600 28.81800
C  -3.34900 19.38100 27.84500
C  -2.53300 18.50300 23.14700
C  -2.08400 13.77400 24.04900
N  -3.01800 16.92500 28.12800
C  -3.16400 15.97900 29.09200
C  -3.60000 16.62600 30.41200
C  -4.11800 18.04500 29.92000
C  -3.48900 18.13600 28.49100
C  -5.64600 18.10900 29.90600
C  -2.43700 16.74400 31.45400
C  -2.89800 17.17800 32.82600
H  -2.77300 16.00400 33.86700
N  -2.67100 18.64800 25.56300
C  -2.79100 19.66200 26.53600
C  -2.56000 20.93000 25.93400
C  -2.41400 20.69700 24.49800
C  -2.57000 19.22500 24.30400
C  -2.52800 22.24300 26.80000
C  -2.08400 21.66600 23.38500
O  -2.08400 21.44000 22.21400
C  -1.96100 23.10100 23.77700
N  -2.50200 16.17300 23.91300
C  -2.48800 17.12500 22.90000
C  -2.35500 16.50200 21.47800
C  -1.90800 14.98800 21.84500
C  -2.19900 14.93700 23.36100
C  -3.64300 16.65700 20.60400
C  -0.51300 14.55700 21.56000
C  0.57000 15.12200 22.45300
N  -2.38900 14.61600 26.34300
C  -2.24000 13.51200 25.43000
C  -2.35400 12.33900 26.06500
C  -2.54000 12.67000 27.43200
C  -2.55800 14.08600 27.51600
C  -2.14500 10.99400 25.45200
C  -2.69700 12.07500 28.74200
O  -2.53100 10.93200 29.14800
C  -3.05300 13.35800 29.68200
C  -2.11400 13.38600 30.82900
O  -0.96400 13.83700 30.87100
O  -2.61000 12.56900 31.83000
C  -1.91900 12.21400 33.08400
H  -3.74700 20.23200 28.40100
H  -2.34300 18.99500 22.19000
H  -1.98400 12.87400 23.44000
H  -4.38200 16.01600 30.86600
H  -3.69700 18.90300 30.44500
H  -5.90100 18.44800 28.90200
H  -6.04200 18.81800 30.63300
H  -6.12500 17.14100 30.05400
H  -1.71300 17.46000 31.06700
H  -1.96700 15.76200 31.50700
H  -3.94300 17.48200 32.77000
H  -2.31700 18.04900 33.13100
H  -2.59500 22.09700 27.87800
H  -3.43400 22.75700 26.47700
H  -1.66200 22.82200 26.47800
H  -1.90400 23.70300 22.87000
H  -0.99800 23.20700 24.27800
H  -2.75400 23.50600 24.40500
H  -1.55600 16.93300 20.87600
H  -2.61700 14.30700 21.37500
H  -4.27700 15.78500 20.76200
H  -3.39600 16.73800 19.54600
H  -4.14100 17.61500 20.75600
H  -0.41000 14.84600 20.51400
H  -0.54800 13.49500 21.31700
H  0.15600 15.63500 23.32100
H  1.12600 15.85600 21.87000
H  1.21500 14.32600 22.82700
H  -2.06600 10.21800 26.21300
H  -1.21700 10.96200 24.88100
H  -2.94700 10.72500 24.76400
H  -4.03000 13.37200 30.16300
H  -1.13500 12.97000 33.11000
H  -1.41900 11.24800 33.01100
H  -2.67800 12.36800 33.85200
Mg 24.36900 -7.05000 47.94900
C  26.49000 -4.54800 46.83300
C  22.06800 -6.07100 45.48200
C  22.49100 -9.72000 48.74800
C  26.91600 -8.23100 50.04500
N  24.40200 -5.65300 46.13700
C  25.31900 -4.64300 46.03500
C  24.96500 -3.69000 44.95200
C  23.39700 -4.00500 44.62100
C  23.32900 -5.32300 45.38700
C  22.49500 -2.89000 45.07600
C  25.89600 -3.94600 43.76500
C  26.47600 -2.70500 43.16200
H  25.57800 -2.05700 42.08800
N  22.51600 -7.79200 47.18600
C  21.71500 -7.25700 46.19700
C  20.63300 -8.13700 45.93400
C  20.75200 -9.29200 46.74500
C  21.89100 -8.98000 47.67400
C  19.50200 -7.87100 44.90200
C  19.88100 -10.51900 46.81300
O  18.78900 -10.53600 46.21300
C  20.32200 -11.68500 47.58200
N  24.73800 -8.75100 49.10700
C  23.75300 -9.61000 49.40400
C  24.27000 -10.64800 50.48600
C  25.71200 -10.19600 50.81000
C  25.82300 -9.03300 49.95400
C  23.39300 -10.65400 51.74200
C  26.82200 -11.22200 50.50700
C  27.74200 -11.51000 51.72300
N  26.26200 -6.44400 48.45300
C  27.17600 -7.04100 49.27600
C  28.37900 -6.26500 49.19100
C  28.08700 -5.23900 48.27300
C  26.82900 -5.43400 47.79100
C  29.63300 -6.60000 49.98900
C  28.70600 -4.15300 47.61200
O  29.84800 -3.64700 47.72300
C  27.63100 -3.52200 46.75600
C  27.15500 -2.23600 47.08600
O  26.52300 -1.91900 48.08300
O  27.70600 -1.29000 46.18000
C  27.00300 -0.00600 46.29500
H  21.41700 -5.81200 44.64400
H  21.81300 -10.44500 49.20300
H  27.78900 -8.50900 50.64000
H  25.08600 -2.70000 45.38900
H  23.34600 -4.10200 43.53600
H  21.84700 -2.50000 44.29100
H  22.96800 -2.01300 45.51700
H  21.81600 -3.30500 45.82100
H  25.51600 -4.54700 42.94000
H  26.71200 -4.55100 44.16100
H  27.40000 -3.06300 42.70900
H  26.64500 -1.93500 43.91500
H  19.47700 -8.70000 44.19500
H  19.50400 -6.91800 44.37200
H  18.54000 -7.91200 45.41300
H  21.41000 -11.73500 47.61400
H  19.94300 -12.59500 47.11700
H  19.95100 -11.71800 48.60600
H  24.24900 -11.63400 50.02100
H  25.93600 -9.74800 51.77800
H  23.60000 -9.83400 52.43000
H  23.73900 -11.57600 52.20800
H  22.31700 -10.62000 51.56800
H  27.46300 -10.85500 49.70500
H  26.31200 -12.16400 50.30800
H  27.69900 -12.59700 51.79200
H  27.21500 -11.13600 52.60100
H  28.71900 -11.04200 51.59900
H  30.03100 -7.60000 49.81800
H  29.49000 -6.43200 51.05700
H  30.44300 -5.96100 49.63500
H  28.15300 -3.53000 45.79900
H  27.26200 0.58400 47.17500
H  25.91600 -0.03800 46.37300
H  27.31700 0.64600 45.48000

