158

Mg 1.77800 -2.20400 43.12600
C  5.15100 -1.50000 42.35000
C  0.98000 0.69200 41.45000
C  -1.40100 -3.11600 43.23200
C  2.77500 -5.48900 43.90700
N  3.00700 -0.66800 41.95100
C  4.31300 -0.53700 41.88800
C  4.71900 0.84000 41.20500
C  3.35200 1.57100 41.11300
C  2.38000 0.46400 41.50800
C  3.19100 2.88900 42.00500
C  5.48700 0.68500 39.86300
C  6.49100 1.76400 39.59900
H  6.62300 2.41900 38.18400
N  -0.00200 -1.23900 42.53300
C  -0.11500 -0.01700 41.93800
C  -1.51100 0.33800 41.86700
C  -2.21400 -0.81800 42.31900
C  -1.23100 -1.79700 42.77200
C  -1.92100 1.63800 41.20800
C  -3.75800 -0.96000 42.36200
O  -4.55500 -0.08300 42.00800
C  -4.42800 -2.12200 43.08000
N  0.81000 -4.06200 43.45300
C  -0.49800 -4.15400 43.53100
C  -0.94600 -5.49700 44.17600
C  0.41100 -6.32300 44.18600
C  1.37100 -5.28200 43.69600
C  -1.73400 -5.48300 45.44400
C  0.33200 -7.63300 43.35900
C  1.28700 -8.78200 43.73200
N  3.56300 -3.29400 43.24600
C  3.84100 -4.57100 43.63700
C  5.28400 -4.75600 43.81200
C  5.79900 -3.62800 43.27700
C  4.72200 -2.76100 42.87800
C  5.90200 -6.04200 44.40700
C  7.04400 -2.89200 42.97800
O  8.21900 -3.11900 43.13000
C  6.59500 -1.49300 42.39600
C  7.02400 -0.39200 43.30500
O  6.67800 -0.16800 44.43800
O  7.97600 0.35000 42.71800
C  8.60100 1.40500 43.56700
H  0.73800 1.65700 40.99900
H  -2.41600 -3.50300 43.34600
H  3.11700 -6.46200 44.26600
H  5.39600 1.38900 41.86000
H  3.00700 1.87500 40.12500
H  3.86800 2.85000 42.85800
H  2.19900 2.99600 42.44300
H  3.44800 3.75300 41.39200
H  4.80300 0.74900 39.01600
H  5.99100 -0.28000 39.82100
H  7.44900 1.28400 39.79800
H  6.34100 2.67500 40.18000
H  -1.77100 1.53700 40.13300
H  -1.24900 2.44500 41.49900
H  -2.94600 1.95600 41.39900
H  -5.47900 -1.86900 43.21400
H  -3.91200 -2.24800 44.03200
H  -4.35400 -3.04900 42.51100
H  -1.55000 -6.00800 43.42600
H  0.60400 -6.49100 45.24500
H  -1.60800 -4.52600 45.95100
H  -1.47800 -6.26400 46.15900
H  -2.80000 -5.59200 45.24200
H  0.57700 -7.51400 42.30400
H  -0.67400 -8.05200 43.33600
H  1.83600 -8.65500 44.66500
H  1.96400 -9.05400 42.92200
H  0.59300 -9.62100 43.78800
H  6.95300 -5.96600 44.68600
H  5.78900 -6.93900 43.79800
H  5.36600 -6.18100 45.34600
H  7.05500 -1.41400 41.41100
H  9.59100 1.49100 43.12100
H  8.55000 1.43700 44.65500
H  8.06800 2.32300 43.31800
Mg 26.90000 50.75200 25.93200
C  25.09400 51.97400 28.84400
C  29.40900 49.80100 27.98700
C  28.55800 49.62400 23.24400
C  24.56400 52.28500 23.83400
N  27.11400 50.72900 28.21600
C  26.27700 51.22600 29.18100
C  26.90500 51.17900 30.54100
C  28.37600 50.70800 30.20800
C  28.36300 50.41700 28.66700
C  29.53400 51.59000 30.71500
C  26.06200 50.40400 31.64000
C  25.74700 51.16500 32.94900
H  26.72400 51.07800 34.13500
N  28.65200 49.69500 25.68800
C  29.57800 49.38700 26.67300
C  30.67100 48.62700 26.04300
C  30.28100 48.41700 24.70400
C  29.13200 49.33800 24.49100
C  31.83800 48.09200 26.79000
C  30.88400 47.50500 23.65300
O  30.41700 47.50100 22.49300
C  31.95000 46.48800 23.98200
N  26.64300 51.03400 23.81100
C  27.42400 50.37800 22.89300
C  27.01400 50.61000 21.41100
C  25.63700 51.27400 21.68200
C  25.58200 51.56900 23.22000
C  28.11100 51.41100 20.69400
C  24.40500 50.42100 21.50400
C  23.35400 50.89400 20.36000
N  25.18400 51.85400 26.19300
C  24.31300 52.38000 25.23600
C  23.20000 52.96900 25.95300
C  23.47900 52.84500 27.32300
C  24.70300 52.17600 27.43900
C  21.97000 53.58300 25.33400
C  22.94200 53.04900 28.66600
O  21.81200 53.44000 29.00500
C  24.02300 52.56300 29.67700
C  24.45300 53.68200 30.59200
O  25.36200 54.45100 30.40000
O  23.60600 53.79500 31.68000
C  23.97900 55.04600 32.41400
H  30.22900 49.52700 28.65500
H  29.11000 49.25000 22.38000
H  23.75200 52.74500 23.26700
H  26.98400 52.22400 30.83900
H  28.57800 49.74600 30.67800
H  30.22900 51.84300 29.91400
H  30.02200 51.11700 31.56800
H  29.08400 52.53300 31.02300
H  26.70600 49.54200 31.81400
H  25.14300 49.98100 31.23400
H  24.76500 50.85000 33.30100
H  25.50700 52.20100 32.71000
H  31.76100 48.29600 27.85800
H  32.62400 48.74600 26.41200
H  32.17800 47.08700 26.54200
H  31.68300 45.75100 24.73900
H  32.71900 47.17100 24.34000
H  32.17400 46.06100 23.00400
H  26.91800 49.80200 20.68600
H  25.51800 52.19100 21.10600
H  28.76400 51.95400 21.37800
H  27.51100 52.17600 20.20100
H  28.64800 50.78600 19.98000
H  23.70900 50.37000 22.34100
H  24.69200 49.38100 21.34700
H  23.73100 51.53700 19.56400
H  22.51500 51.35200 20.88400
H  22.90000 50.06900 19.81200
H  22.04600 54.66900 25.38900
H  21.08700 53.27200 25.89100
H  21.76600 53.25300 24.31500
H  23.45300 51.80900 30.22000
H  25.03600 55.14500 32.66100
H  23.55300 54.92300 33.41000
H  23.58200 55.89500 31.85800

