158

Mg 9.28400 3.37800 27.79100
C  10.37700 1.72300 30.66500
C  7.69000 5.66800 29.73900
C  7.86900 4.57600 24.91000
C  10.66700 0.70200 25.92800
N  9.01800 3.59400 29.97600
C  9.67300 2.94000 30.98700
C  9.47600 3.58900 32.32000
C  8.48700 4.75200 32.00300
C  8.42300 4.71600 30.49800
C  7.07600 4.47500 32.61100
C  10.80900 4.03100 32.94600
C  11.20200 3.37400 34.35000
H  11.50400 4.34600 35.45800
N  7.99700 4.93700 27.44800
C  7.40200 5.78300 28.32100
C  6.67100 6.83300 27.65700
C  6.66200 6.38100 26.27100
C  7.55500 5.27500 26.12500
C  5.92200 7.95800 28.37300
C  5.84300 6.89000 25.09500
O  6.02300 6.64300 23.90700
C  4.85000 8.02200 25.29600
N  9.30000 2.58500 25.69700
C  8.67400 3.36700 24.74000
C  8.65500 2.79000 23.35800
C  9.57500 1.48900 23.59000
C  9.92500 1.57900 25.12600
C  7.28000 2.26600 22.74700
C  10.81700 1.46100 22.76500
C  10.65400 1.07500 21.20000
N  10.27800 1.63000 28.14500
C  10.81100 0.68300 27.28400
C  11.59200 -0.36600 28.07200
C  11.44700 0.06000 29.36100
C  10.61600 1.20900 29.39000
C  12.43000 -1.43200 27.42100
C  11.85200 -0.25900 30.79700
O  12.56700 -1.08300 31.25600
C  11.13200 0.88600 31.59400
C  10.15300 0.11300 32.53900
O  9.01800 -0.33000 32.33500
O  10.82300 0.03400 33.76500
C  10.15600 -0.51500 34.89200
H  7.40800 6.54300 30.32800
H  7.57900 4.92800 23.91800
H  11.17500 -0.01400 25.27800
H  9.06900 2.80400 32.95800
H  8.86100 5.69000 32.41500
H  7.16800 4.91500 33.60500
H  6.99900 3.39000 32.68200
H  6.40100 4.84300 31.83800
H  10.79800 5.09500 33.18100
H  11.58400 3.87900 32.19500
H  12.12300 2.80200 34.23900
H  10.36500 2.73800 34.63600
H  6.25200 7.94000 29.41200
H  4.87000 7.83800 28.11500
H  6.21500 8.92300 27.95900
H  4.17700 8.17000 24.45100
H  5.36300 8.97200 25.44500
H  4.28900 7.69300 26.17100
H  9.08200 3.59300 22.75800
H  9.17200 0.50400 23.35800
H  6.88600 2.91800 21.96700
H  6.51200 2.34400 23.51700
H  7.28400 1.20100 22.51500
H  11.47600 0.68300 23.15100
H  11.29300 2.43700 22.85900
H  9.64100 0.83100 20.87800
H  11.09100 0.07700 21.19200
H  11.11200 1.79400 20.52100
H  11.75800 -2.00400 26.78200
H  12.88900 -2.11600 28.13500
H  13.15600 -0.96300 26.75700
H  11.80000 1.55900 32.13100
H  9.34600 -1.19300 34.62100
H  9.60900 0.20100 35.50600
H  10.89300 -1.00900 35.52400
Mg -2.19000 34.18100 27.67100
C  -3.50400 32.48500 30.47500
C  -0.72800 36.43200 29.77900
C  -1.62400 36.13400 25.06700
C  -3.83700 31.94500 25.63700
N  -2.09200 34.43600 29.84300
C  -2.70000 33.57300 30.78600
C  -2.35900 34.01300 32.18200
C  -1.44100 35.24100 31.96600
C  -1.39400 35.40600 30.46000
C  -1.75900 36.58900 32.70200
C  -1.80500 32.97100 33.19900
C  -2.46900 32.74600 34.56500
H  -1.52900 32.66500 35.72100
N  -1.29800 36.08800 27.43500
C  -0.65900 36.79700 28.38800
C  -0.12000 38.02900 27.86500
C  -0.52000 38.01800 26.48700
C  -1.11500 36.67400 26.25300
C  0.66800 38.95000 28.69100
C  -0.35300 39.16900 25.49800
O  -0.81200 38.98400 24.36600
C  0.30000 40.53200 25.78000
N  -2.84300 34.10900 25.54100
C  -2.32700 34.95800 24.72000
C  -2.43200 34.49800 23.30000
C  -3.06500 33.05800 23.42200
C  -3.28300 33.01100 24.95000
C  -3.30500 35.39700 22.38200
C  -2.12000 31.85000 22.80500
C  -0.82200 31.57100 23.53800
N  -3.39300 32.50800 27.93800
C  -3.97400 31.67500 27.01400
C  -4.65200 30.61300 27.65800
C  -4.44600 30.86100 29.00200
C  -3.78400 32.08000 29.15600
C  -5.47400 29.56600 27.07900
C  -4.88100 30.46000 30.34400
O  -5.68200 29.57300 30.74100
C  -4.26200 31.50700 31.31100
C  -5.45500 32.14500 31.99800
O  -6.46600 32.52400 31.46700
O  -5.27700 32.10100 33.34100
C  -6.43100 32.54500 34.16400
H  -0.23900 37.15300 30.43800
H  -1.36100 36.73700 24.19500
H  -4.23800 31.16800 24.98300
H  -3.24800 34.33900 32.72200
H  -0.39800 35.04500 32.21600
H  -0.84600 36.84400 33.24000
H  -2.49200 36.33400 33.46800
H  -1.94800 37.48400 32.10900
H  -0.73100 33.12300 33.30500
H  -1.84900 32.00500 32.69600
H  -3.03400 31.81900 34.47700
H  -3.06200 33.62400 34.82100
H  1.60000 38.97000 28.12700
H  0.95700 38.67800 29.70600
H  0.23700 39.94700 28.78000
H  1.33800 40.43800 26.10100
H  -0.28100 40.96400 26.59400
H  0.29800 41.24800 24.95700
H  -1.47000 34.30400 22.82700
H  -4.08600 33.00600 23.04500
H  -3.92800 34.82600 21.69400
H  -2.72100 36.07200 21.75500
H  -3.86600 36.16600 22.91400
H  -1.87600 32.10500 21.77400
H  -2.70400 30.93300 22.73300
H  -0.60300 32.29700 24.32100
H  0.05600 31.64400 22.89700
H  -0.85600 30.56800 23.96400
H  -5.60700 28.78000 27.82200
H  -4.99400 29.21200 26.16700
H  -6.46800 29.97100 26.88600
H  -3.61900 31.00800 32.03600
H  -7.19800 31.77900 34.27100
H  -6.85700 33.47300 33.78200
H  -6.11300 32.78600 35.17900

