158

Mg 9.17100 4.86800 27.73000
C  10.62900 3.28000 30.49100
C  7.11100 6.62000 29.88600
C  7.74600 6.13200 25.03500
C  10.89300 2.63400 25.68800
N  8.80600 4.85500 29.95100
C  9.58000 4.21000 30.85100
C  9.06900 4.50900 32.27900
C  7.86900 5.52000 32.03800
C  7.91500 5.70500 30.54000
C  6.50300 5.22200 32.48200
C  10.24100 5.04400 33.12000
C  10.02200 6.02800 34.28600
H  10.87600 5.76300 35.52000
N  7.62200 6.07300 27.47300
C  6.89800 6.70600 28.43500
C  5.94300 7.62000 27.84200
C  6.18600 7.56800 26.44500
C  7.26200 6.57100 26.29500
C  4.96600 8.45800 28.52800
C  5.56300 8.27000 25.28700
O  6.03400 8.24700 24.20100
C  4.29600 9.01900 25.46500
N  9.27100 4.46300 25.60000
C  8.54000 5.05500 24.72100
C  9.03500 4.75600 23.26800
C  10.00800 3.58700 23.44600
C  10.07000 3.49200 25.01300
C  7.79200 4.50200 22.34200
C  11.36300 3.74400 22.72600
C  11.95800 2.53900 22.11200
N  10.52600 3.24900 27.95100
C  11.10400 2.42900 27.07200
C  11.93000 1.41600 27.76200
C  11.74400 1.71600 29.13600
C  10.96700 2.86100 29.16700
C  12.68200 0.27400 27.08800
C  12.09700 1.39400 30.48100
O  12.92400 0.54400 30.81000
C  11.47400 2.42000 31.44100
C  10.67200 1.54200 32.29800
O  9.64500 0.96800 32.03400
O  11.19200 1.43700 33.56600
C  10.33200 1.01900 34.65700
H  6.50400 7.26100 30.53000
H  7.58800 6.80100 24.18600
H  11.30700 1.90500 24.98700
H  8.83200 3.52500 32.68200
H  8.06800 6.51700 32.43000
H  6.07100 4.66700 31.64900
H  5.98900 6.18200 32.54000
H  6.55100 4.66300 33.41600
H  10.92900 5.60200 32.48500
H  10.64000 4.11800 33.53400
H  8.97000 5.84500 34.50600
H  10.21700 7.03500 33.91800
H  3.95400 8.22100 28.20000
H  5.34500 9.46300 28.33700
H  4.87900 8.22500 29.59000
H  3.93000 9.42300 24.52200
H  4.46700 9.87800 26.11400
H  3.59300 8.30400 25.89300
H  9.53500 5.65900 22.91700
H  9.55200 2.64600 23.13700
H  6.82600 4.41700 22.84000
H  7.94800 3.46800 22.03600
H  7.72000 5.28200 21.58400
H  12.02000 4.05000 23.54100
H  11.25300 4.52200 21.97100
H  11.72300 2.63600 21.05200
H  11.42300 1.64000 22.41700
H  13.03300 2.43700 22.25900
H  11.98400 -0.55800 26.99700
H  13.50400 -0.15900 27.65900
H  12.93100 0.51700 26.05500
H  12.18200 3.02600 32.00600
H  10.14900 1.95100 35.19400
H  10.85700 0.33700 35.32600
H  9.40100 0.58800 34.29100
Mg 50.18100 46.39500 43.03800
C  46.75600 46.73700 42.31400
C  50.09100 43.44800 41.37900
C  53.60500 46.39900 43.29300
C  50.13700 49.80500 44.10500
N  48.64800 45.23900 41.93200
C  47.29400 45.55300 41.85600
C  46.54000 44.53000 41.07400
C  47.52100 43.32500 41.18900
C  48.85700 43.97100 41.52000
C  47.22900 42.17600 42.32100
C  46.08700 44.89100 39.62200
C  44.55900 44.81900 39.36900
H  44.01200 43.85400 38.28300
N  51.64400 44.90800 42.52400
C  51.37800 43.79300 41.83000
C  52.57300 43.08600 41.78600
C  53.60300 43.85800 42.43600
C  52.99900 45.16100 42.79600
C  52.61900 41.65400 41.26700
C  55.10900 43.47500 42.53500
O  55.41900 42.34300 42.24200
C  56.28800 44.41900 42.88900
N  51.65100 47.94700 43.51900
C  52.97000 47.60100 43.68100
C  53.73400 48.72300 44.33500
C  52.61500 49.84500 44.56000
C  51.35900 49.11400 44.06800
C  54.51400 48.35300 45.65700
C  52.88500 51.16400 43.74500
C  52.90700 52.55900 44.54400
N  48.70700 48.11400 43.17100
C  48.84400 49.39700 43.65600
C  47.49800 49.92300 43.77200
C  46.61800 48.93900 43.22400
C  47.43000 47.86600 42.87600
C  47.15100 51.24800 44.31500
C  45.17500 48.60200 42.92900
O  44.11000 49.21000 43.14300
C  45.27300 47.21400 42.17100
C  44.21200 46.25800 42.76400
O  43.14700 46.03000 42.25600
O  44.63600 45.78600 43.93700
C  43.80700 44.72200 44.48300
H  50.11500 42.46100 40.91400
H  54.66700 46.48400 43.53100
H  50.18100 50.80100 44.54900
H  45.63600 44.11100 41.51600
H  47.66100 42.78400 40.25300
H  46.32300 42.27600 42.91900
H  47.97300 42.09400 43.11300
H  47.13500 41.25700 41.74200
H  46.50000 44.07300 39.03300
H  46.56600 45.86200 39.49700
H  44.33800 45.84700 39.08200
H  43.98900 44.42400 40.20900
H  52.51100 41.65300 40.18300
H  51.76200 41.18600 41.75200
H  53.44400 40.99800 41.54700
H  56.24400 44.66500 43.95000
H  56.20100 45.29900 42.25200
H  57.20800 43.90100 42.61600
H  54.51400 49.14200 43.69900
H  52.38200 50.04100 45.60600
H  54.10600 47.36400 45.86800
H  54.35800 49.10500 46.43000
H  55.59100 48.23000 45.53700
H  52.24300 51.34600 42.88400
H  53.83100 50.97400 43.23800
H  53.91500 52.95100 44.40700
H  52.79700 52.41500 45.61900
H  52.22500 53.33000 44.18700
H  47.70200 51.99200 43.74100
H  47.50600 51.31000 45.34300
H  46.06400 51.33300 44.34300
H  45.02100 47.39300 41.12600
H  42.75100 44.98900 44.53300
H  44.14200 44.38300 45.46300
H  43.99500 43.84600 43.86200

