158

Mg 42.03300 40.83600 26.78900
C  41.19000 43.01900 29.44900
C  42.79900 38.51800 29.07500
C  42.79600 38.96700 24.19500
C  41.21100 43.54900 24.60300
N  41.95700 40.82800 29.01700
C  41.55700 41.77000 29.91100
C  41.55000 41.27200 31.39700
C  42.06400 39.78100 31.23200
C  42.29700 39.68200 29.71300
C  43.21800 39.30100 32.06600
C  40.06700 41.43200 31.97400
C  39.63600 40.65100 33.24300
H  39.33800 41.44000 34.44100
N  42.76300 39.01700 26.68500
C  42.95000 38.17800 27.72900
C  43.33400 36.86700 27.25500
C  43.51700 37.01400 25.77700
C  42.90500 38.37800 25.49400
C  43.63100 35.72700 28.11000
C  43.98400 35.95400 24.71400
O  43.97200 36.20800 23.50600
C  44.42500 34.60600 25.10200
N  42.03700 41.28600 24.71600
C  42.32400 40.26600 23.88400
C  42.21800 40.77600 22.36800
C  41.46700 42.09800 22.46500
C  41.63800 42.37800 24.00300
C  43.60800 40.77800 21.62500
C  39.99800 41.92200 22.07500
C  39.03100 40.97500 22.93600
N  41.41600 42.93000 26.91400
C  41.09000 43.88500 25.95100
C  40.69100 45.10400 26.60400
C  40.74600 44.81800 27.96700
C  41.18000 43.48500 28.10000
C  40.22600 46.29100 25.93000
C  40.54100 45.34600 29.23800
O  40.15500 46.44400 29.65400
C  40.70600 44.19200 30.24300
C  41.65300 44.67500 31.27500
O  42.86000 44.74500 31.15700
O  40.88000 45.03200 32.38200
C  41.58800 45.68800 33.47900
H  42.88100 37.62800 29.70200
H  43.16900 38.39700 23.34200
H  40.88600 44.31600 23.89600
H  42.25300 41.96500 31.85700
H  41.15000 39.20100 31.36200
H  43.34000 39.91600 32.95700
H  44.14200 39.10200 31.52500
H  42.93600 38.34400 32.50600
H  39.26800 41.38200 31.23400
H  39.96100 42.48500 32.23500
H  40.43600 39.92800 33.40400
H  38.75900 40.02500 33.08200
H  43.13000 34.91300 27.58600
H  43.20700 35.72200 29.11400
H  44.67900 35.43800 28.19300
H  45.16000 34.62200 25.90700
H  44.92800 34.10000 24.27800
H  43.65200 33.88200 25.35900
H  41.61700 40.14200 21.71500
H  41.90800 42.91300 21.89200
H  44.44900 40.92800 22.30100
H  43.82700 41.56200 20.90000
H  43.74400 39.82200 21.11900
H  40.01300 41.56700 21.04400
H  39.67900 42.96300 22.02000
H  39.40400 40.19400 23.59900
H  38.37500 40.50000 22.20600
H  38.39000 41.65400 23.49800
H  41.07000 46.74700 25.41400
H  40.08400 46.96300 26.77600
H  39.22900 46.24800 25.49200
H  39.72000 43.98600 30.65800
H  42.58000 46.01000 33.16300
H  41.62000 44.95200 34.28300
H  40.99100 46.54200 33.80000
Mg 0.00300 43.84200 25.88500
C  2.17300 44.10300 28.71100
C  -2.47600 43.06000 28.03400
C  -1.49100 42.90900 23.27600
C  2.96200 44.46300 23.92700
N  -0.22100 43.71400 28.13100
C  0.81200 43.93500 29.02100
C  0.20000 43.92500 30.49000
C  -1.26000 43.45500 30.27900
C  -1.34400 43.42400 28.76300
C  -1.59800 42.06600 30.96300
C  0.33500 45.29100 31.17000
C  0.43400 45.21200 32.67500
H  -0.12500 44.01500 33.44300
N  -1.75300 43.10300 25.73200
C  -2.72300 42.79400 26.64600
C  -3.79600 42.17600 26.06300
C  -3.58600 42.27400 24.65700
C  -2.23300 42.76900 24.46100
C  -4.95800 41.73200 26.86500
C  -4.61800 41.95100 23.44500
O  -4.37100 41.87200 22.24500
C  -6.06400 41.75300 23.88300
N  0.62300 43.89000 23.87000
C  -0.28800 43.43300 22.99200
C  0.29000 43.42600 21.55400
C  1.62300 44.13400 21.77100
C  1.74800 44.31400 23.25900
C  0.39200 42.01800 20.91000
C  1.71400 45.56100 21.14000
C  0.79200 46.62800 21.82200
N  2.17800 44.37900 26.21100
C  3.16000 44.48700 25.31000
C  4.45400 44.50800 26.02700
C  4.09900 44.42100 27.36300
C  2.71600 44.29000 27.41800
C  5.73800 44.63500 25.40900
C  4.60200 44.16300 28.75400
O  5.76700 44.01900 29.11800
C  3.34400 44.14600 29.62800
C  3.37600 43.01700 30.52100
O  2.97000 41.92700 30.20100
O  3.84000 43.36900 31.82500
C  3.99600 42.31400 32.79400
H  -3.30000 42.77100 28.69000
H  -2.08400 42.46700 22.47200
H  3.81200 44.50900 23.24200
H  0.78900 43.24300 31.10200
H  -2.01900 44.16700 30.60100
H  -0.78600 41.53900 31.46400
H  -1.92200 41.32100 30.23700
H  -2.42500 42.30300 31.63300
H  -0.48600 45.95500 30.90200
H  1.16700 45.85200 30.74500
H  -0.03800 46.09300 33.10900
H  1.51200 45.13900 32.82400
H  -5.78500 42.43200 26.74200
H  -4.70700 41.64300 27.92200
H  -5.37100 40.80900 26.45800
H  -6.85100 42.00800 23.17300
H  -6.32500 42.36200 24.74900
H  -6.21700 40.70200 24.12900
H  -0.24400 44.15200 20.94100
H  2.49000 43.54900 21.46400
H  0.11700 41.24400 21.62700
H  1.30900 41.72200 20.40000
H  -0.30900 41.92200 20.08200
H  1.42000 45.51300 20.09200
H  2.72200 45.97300 21.20000
H  -0.19500 46.28100 22.12900
H  0.47200 47.27500 21.00500
H  1.40800 47.21900 22.50000
H  6.02100 45.66900 25.60600
H  5.69300 44.32500 24.36500
H  6.45800 43.95700 25.86800
H  3.43400 45.07200 30.19600
H  5.08000 42.20800 32.83300
H  3.48700 41.43800 32.39300
H  3.63800 42.55800 33.79400

