158

Mg 16.59700 -1.35400 27.70800
C  15.90400 0.58400 30.58800
C  19.08900 -2.95800 29.43900
C  17.70900 -2.79600 24.75200
C  14.65000 0.89300 25.82100
N  17.40700 -1.28700 29.91700
C  16.95200 -0.41400 30.89500
C  17.69100 -0.77600 32.21400
C  18.83000 -1.86400 31.72800
C  18.39000 -2.10300 30.30000
C  20.26300 -1.34100 31.93400
C  16.78000 -1.17100 33.49900
C  16.82000 -0.23700 34.69800
H  18.15900 -0.14300 35.37400
N  17.99700 -2.88200 27.24700
C  18.87000 -3.38300 28.12400
C  19.59800 -4.54600 27.47400
C  19.20200 -4.52100 26.08500
C  18.25800 -3.37200 25.97100
C  20.39400 -5.57400 28.15900
C  19.46800 -5.47700 24.93900
O  18.93600 -5.40600 23.84700
C  20.34400 -6.68500 25.18700
N  16.29700 -0.93300 25.63600
C  16.83000 -1.68900 24.65900
C  16.21300 -1.36300 23.32300
C  15.01600 -0.42600 23.72000
C  15.26600 -0.15400 25.19100
C  17.29600 -0.71900 22.36500
C  13.57100 -0.98600 23.42700
C  12.75600 -0.34500 22.30700
N  15.45800 0.38400 28.05500
C  14.66700 1.12700 27.15800
C  13.93000 2.07200 27.94900
C  14.32700 1.84100 29.24800
C  15.27400 0.85600 29.28400
C  12.82800 3.07900 27.52200
C  14.07500 2.29200 30.56700
O  13.26300 3.08300 30.98800
C  15.10300 1.55100 31.58300
C  15.99400 2.60600 32.19900
O  17.07300 2.95100 31.74000
O  15.39600 3.07300 33.32500
C  16.15400 4.01000 34.17800
H  19.93500 -3.45200 29.92100
H  17.95500 -3.33800 23.83600
H  13.98100 1.55600 25.26900
H  18.14500 0.16100 32.53800
H  18.79500 -2.82300 32.24500
H  20.21800 -0.41100 32.50000
H  20.55900 -1.09500 30.91400
H  20.96100 -2.10900 32.27000
H  17.09100 -2.18700 33.74200
H  15.72000 -1.06600 33.26400
H  15.98100 -0.50500 35.34200
H  16.63600 0.77700 34.34300
H  21.37800 -5.68800 27.70400
H  20.02500 -6.57200 27.92400
H  20.42200 -5.60100 29.24800
H  20.44600 -7.37500 24.34900
H  19.86200 -7.23800 25.99300
H  21.36700 -6.47600 25.49800
H  15.91600 -2.30300 22.85800
H  15.06300 0.46400 23.09200
H  18.27900 -0.94100 22.78100
H  17.17800 0.35800 22.47700
H  17.23200 -1.15600 21.36800
H  12.96000 -0.93500 24.32800
H  13.50900 -2.05900 23.24500
H  11.97500 -0.96600 21.86800
H  13.49300 -0.05600 21.55800
H  12.37600 0.61700 22.65100
H  13.03800 3.59900 26.58800
H  12.61200 3.76400 28.34200
H  11.89900 2.53400 27.35500
H  14.54000 1.05600 32.37400
H  15.70900 3.91700 35.16900
H  16.08600 5.03700 33.82100
H  17.21300 3.78000 34.29300
Mg -11.54600 38.69400 42.39400
C  -9.59900 35.91600 41.20800
C  -9.12300 40.74900 40.72900
C  -13.59900 41.08000 42.74900
C  -13.88200 36.38600 43.60600
N  -9.58300 38.36900 40.98700
C  -8.97400 37.13200 40.72400
C  -7.63800 37.28000 40.06400
C  -7.42800 38.88700 40.11700
C  -8.78300 39.37700 40.62900
C  -6.22100 39.53500 40.76900
C  -7.67900 36.73600 38.55900
C  -6.53600 35.61900 38.23200
H  -5.78600 35.69800 36.82300
N  -11.38100 40.66900 41.86900
C  -10.29700 41.33100 41.28300
C  -10.58100 42.76800 41.36300
C  -11.96900 42.95400 41.84900
C  -12.38000 41.49000 42.19500
C  -9.58800 43.85000 40.85600
C  -12.76800 44.25100 42.00000
O  -12.20800 45.28800 41.68600
C  -14.22300 44.39200 42.46200
N  -13.61100 38.71100 42.89300
C  -14.20500 39.90000 43.07900
C  -15.70700 39.68200 43.36000
C  -15.85200 38.10200 43.69300
C  -14.36100 37.69500 43.39100
C  -16.24500 40.50400 44.51600
C  -16.82600 37.33300 42.76300
C  -18.20100 36.90100 43.39500
N  -11.74600 36.64500 42.46500
C  -12.71800 35.89200 43.14100
C  -12.35800 34.48400 42.99600
C  -11.13900 34.47500 42.26700
C  -10.88000 35.83700 41.88900
C  -13.04900 33.36100 43.52600
C  -10.15500 33.58900 41.73200
O  -10.16600 32.39800 41.82500
C  -9.16200 34.46200 40.88800
C  -7.84800 34.04700 41.33300
O  -7.11800 33.19700 40.75600
O  -7.61200 34.67100 42.52100
C  -6.41100 34.24500 43.25800
H  -8.25600 41.37300 40.50600
H  -14.19600 41.95800 43.00400
H  -14.62000 35.74500 44.09400
H  -6.82500 36.83000 40.63300
H  -7.39100 39.28700 39.10400
H  -5.53500 38.71000 40.96400
H  -6.54200 40.09800 41.64500
H  -5.67700 40.15900 40.06000
H  -7.68900 37.50200 37.78300
H  -8.65100 36.24500 38.50800
H  -7.02400 34.65800 38.39700
H  -5.77100 35.68800 39.00600
H  -9.96700 44.42900 40.01400
H  -8.59500 43.46800 40.61700
H  -9.55400 44.57100 41.67200
H  -14.81900 43.67100 41.90300
H  -14.52300 45.37400 42.09600
H  -14.31700 44.40500 43.54800
H  -16.17000 39.97500 42.41700
H  -16.10100 37.98800 44.74800
H  -16.90900 41.32300 44.24300
H  -15.48200 40.95500 45.15200
H  -16.81100 39.86800 45.19700
H  -16.32600 36.46700 42.33000
H  -16.98800 38.01100 41.92500
H  -18.97100 37.58800 43.04200
H  -18.14300 36.92700 44.48300
H  -18.48700 35.88500 43.12400
H  -12.90800 33.18200 44.59200
H  -12.64000 32.55200 42.92000
H  -14.13400 33.40000 43.43300
H  -9.26100 34.09900 39.86500
H  -6.37200 33.15600 43.25000
H  -6.65900 34.52700 44.28100
H  -5.49500 34.78000 43.00600

