158

Mg 47.08800 24.71100 28.63300
C  47.69700 27.08800 31.26000
C  45.87100 22.69500 30.93300
C  46.85500 22.53600 26.04900
C  48.36700 27.18700 26.38200
N  47.29900 24.74000 30.91800
C  47.28700 25.81300 31.73400
C  46.77500 25.50400 33.17100
C  46.36000 24.00800 33.08900
C  46.51100 23.78900 31.56600
C  47.11800 23.02000 33.87400
C  45.76300 26.47600 33.77500
C  46.07000 27.07400 35.22900
H  45.12900 26.75800 36.37100
N  46.50200 22.79600 28.54100
C  45.96300 22.12300 29.61300
C  45.36200 20.86500 29.08000
C  45.82200 20.74300 27.73200
C  46.47800 22.01600 27.34600
C  44.73500 19.78600 29.93600
C  45.72200 19.60700 26.75100
O  46.26400 19.60200 25.66500
C  44.92800 18.40400 27.15800
N  47.78000 24.80200 26.51300
C  47.42600 23.79500 25.70000
C  47.73900 24.17700 24.30000
C  47.75400 25.75300 24.34000
C  47.97800 25.98600 25.81700
C  49.09800 23.68300 23.80000
C  46.48400 26.45600 23.78800
C  45.43000 27.10200 24.78200
N  48.02000 26.64300 28.75200
C  48.44000 27.51500 27.75300
C  48.83000 28.81300 28.29800
C  48.54600 28.62500 29.63700
C  48.11300 27.33300 29.90100
C  49.22400 30.04400 27.60500
C  48.53000 29.35700 30.91800
O  48.97300 30.47800 31.23100
C  48.05700 28.29700 32.05700
C  49.07800 28.04300 33.09800
O  49.97500 27.23500 33.01900
O  48.99000 29.06000 34.07800
C  49.68300 28.89200 35.36500
H  45.30800 22.04200 31.60300
H  46.66000 21.83600 25.23400
H  48.54300 28.12100 25.84400
H  47.65700 25.53700 33.81000
H  45.27700 23.93200 33.19100
H  47.94600 23.46100 34.42900
H  47.49000 22.19100 33.27100
H  46.41700 22.55900 34.56900
H  44.77700 26.01100 33.78100
H  45.41900 27.18700 33.02400
H  46.15100 28.16100 35.23500
H  47.03400 26.73100 35.60300
H  43.78700 19.70400 29.40500
H  44.43900 20.13200 30.92600
H  45.03200 18.75000 29.77200
H  43.98000 18.65500 27.63300
H  45.54400 17.83100 27.85000
H  44.71800 17.71600 26.33900
H  46.86500 23.88500 23.71800
H  48.60600 26.17100 23.80300
H  49.72400 24.56200 23.64800
H  49.05600 23.05100 22.91200
H  49.67200 23.12500 24.53900
H  46.13100 25.63100 23.17000
H  46.92100 27.25600 23.18900
H  45.57000 26.87500 25.83900
H  44.50900 26.60400 24.47800
H  45.31400 28.16200 24.55800
H  50.11900 30.02600 26.98400
H  49.24100 30.93100 28.23900
H  48.42500 30.22300 26.88600
H  47.27700 28.71700 32.69100
H  50.70700 28.54700 35.22000
H  49.22800 28.15300 36.02400
H  49.54200 29.73700 36.03800
Mg 40.91200 41.56600 26.93500
C  40.19000 43.89700 29.44400
C  41.96000 39.28100 29.48200
C  42.09800 39.61500 24.57700
C  40.20300 43.92800 24.51700
N  40.95500 41.59100 29.12800
C  40.64300 42.67900 29.95300
C  40.70500 42.23600 31.39500
C  41.57700 40.92300 31.44500
C  41.43200 40.52300 29.91100
C  43.07900 41.14400 31.84200
C  39.25500 42.17400 31.98000
C  39.09800 43.09500 33.22300
H  38.05100 42.71600 34.35400
N  41.82300 39.66900 27.02800
C  42.10000 38.87600 28.12200
C  42.66500 37.62700 27.64900
C  42.67200 37.65500 26.23100
C  42.18000 39.02300 25.84700
C  43.06500 36.43800 28.57000
C  43.05400 36.65600 25.27400
O  42.99000 36.83000 24.04900
C  43.66100 35.25900 25.69800
N  40.86500 41.61300 24.89300
C  41.54200 40.79400 24.11100
C  41.74500 41.14300 22.69400
C  40.81700 42.43200 22.59400
C  40.63300 42.72400 24.05500
C  43.16000 41.23600 22.08400
C  39.52000 42.13200 21.78300
C  38.33400 41.19600 22.14900
N  40.35000 43.49400 26.87800
C  40.05200 44.34200 25.84200
C  39.59900 45.59800 26.33900
C  39.71100 45.46200 27.74300
C  40.13700 44.14500 28.04400
C  39.11700 46.82500 25.60700
C  39.52100 46.16700 28.95600
O  39.27200 47.33800 29.19700
C  39.78300 45.13300 30.14200
C  40.91600 45.67100 30.92300
O  42.14600 45.57500 30.74900
O  40.44100 46.48400 31.85600
C  41.46900 46.94200 32.78400
H  42.36800 38.76500 30.35400
H  42.59400 39.05800 23.78000
H  39.95100 44.62400 23.71400
H  41.33600 42.95500 31.91800
H  41.08900 40.21700 32.11700
H  43.26600 42.12900 32.26900
H  43.64300 41.12500 30.91000
H  43.48700 40.41800 32.54500
H  39.02600 41.14700 32.26500
H  38.52900 42.39900 31.19900
H  38.75800 44.07100 32.87700
H  39.96800 43.20400 33.87100
H  44.13800 36.46900 28.38100
H  42.51600 35.54900 28.26100
H  42.89600 36.67800 29.62000
H  43.92000 34.75700 24.76600
H  42.94000 34.69500 26.29100
H  44.56400 35.46100 26.27400
H  41.21500 40.35800 22.15500
H  41.29700 43.23900 22.03900
H  43.21300 40.96300 21.03000
H  43.80300 40.54800 22.63200
H  43.47500 42.27700 22.15500
H  39.88800 41.95600 20.77200
H  39.01800 43.08100 21.59900
H  38.62500 40.64100 23.04200
H  38.32400 40.43400 21.37000
H  37.41800 41.78000 22.23600
H  38.66700 46.55900 24.65000
H  39.93900 47.48700 25.33200
H  38.47100 47.50500 26.16200
H  38.86100 44.94800 30.69300
H  42.17100 46.15000 33.04400
H  41.03500 47.32900 33.70600
H  42.02700 47.73200 32.28200

