158

Mg 47.34200 44.37700 43.13000
C  43.92700 43.58000 43.09300
C  47.95700 41.12400 42.68000
C  50.48100 45.32400 42.65700
C  46.34000 47.86100 42.95200
N  46.12300 42.57800 42.70100
C  44.79500 42.46400 42.80000
C  44.24400 41.06300 42.65100
C  45.55200 40.29100 43.05600
C  46.63900 41.37100 42.72200
C  45.45400 39.64300 44.50000
C  43.62100 40.70200 41.32400
C  43.81400 41.55700 40.06200
H  43.65300 40.89800 38.69500
N  49.09400 43.30200 42.70500
C  49.09700 41.98200 42.56700
C  50.52100 41.63900 42.25900
C  51.27100 42.86700 42.18100
C  50.33600 43.93000 42.43400
C  50.98700 40.17800 41.96900
C  52.75000 42.99800 41.93600
O  53.45600 42.00700 41.96700
C  53.35900 44.35500 41.98100
N  48.25100 46.31700 42.69000
C  49.57700 46.43800 42.79900
C  49.99500 47.93500 42.84500
C  48.70600 48.67100 42.85900
C  47.68400 47.52400 42.89600
C  50.88700 48.40200 44.00500
C  48.49500 49.77500 41.74900
C  48.30200 51.14900 42.41000
N  45.54300 45.55500 43.11700
C  45.31700 46.92100 43.03300
C  43.89900 47.11700 42.81800
C  43.35400 45.83500 43.05500
C  44.37400 44.90800 43.05300
C  43.12200 48.42700 42.48600
C  42.09400 45.16400 43.13600
O  40.99300 45.72800 43.26700
C  42.39100 43.62400 43.04800
C  41.81400 43.10900 44.25200
O  42.19300 43.38300 45.35300
O  40.69200 42.36200 43.99200
C  39.78300 42.04200 45.11400
H  48.18100 40.07800 42.90200
H  51.48300 45.75800 42.63900
H  46.04500 48.90800 42.85500
H  43.43900 40.87800 43.36100
H  45.85000 39.49600 42.37200
H  44.45400 39.49200 44.90600
H  46.08100 40.09500 45.26900
H  45.78500 38.62100 44.31300
H  42.55800 40.52600 41.48500
H  44.08800 39.75700 41.04400
H  44.69900 42.19200 40.11700
H  43.00100 42.28200 40.10100
H  51.19400 40.24400 40.90100
H  50.10700 39.56500 42.16200
H  51.88100 39.88500 42.51800
H  52.82800 44.98000 41.26300
H  54.43500 44.34300 41.80200
H  53.36000 44.74400 43.00000
H  50.44700 48.07500 41.86300
H  48.46100 49.03200 43.85900
H  50.63500 49.27200 44.61100
H  51.92100 48.53700 43.68900
H  50.84400 47.55500 44.69000
H  47.65700 49.54600 41.09100
H  49.31600 49.81900 41.03400
H  48.59800 51.08200 43.45700
H  47.29100 51.52200 42.24700
H  48.93100 51.89400 41.92100
H  42.76900 48.42000 41.45500
H  43.77800 49.29500 42.54700
H  42.28200 48.48600 43.17700
H  41.93700 43.30200 42.11100
H  40.13400 41.09900 45.53400
H  38.74100 42.03100 44.79600
H  39.85000 42.79800 45.89700
Mg 6.46700 54.48600 40.32400
C  6.66100 50.97200 40.16400
C  9.80200 54.59700 39.55500
C  6.11700 57.81700 39.97600
C  2.94900 54.16300 40.53300
N  7.98700 52.95400 39.95400
C  7.85800 51.59500 39.92500
C  9.24200 50.95500 39.96900
C  10.22200 52.13500 40.14700
C  9.26900 53.30500 39.79700
C  11.00500 52.27200 41.49900
C  9.57900 50.11500 38.72500
C  9.39300 50.88500 37.45300
H  8.03800 50.86600 36.66000
N  7.72800 55.99200 39.86000
C  9.06200 55.79900 39.53900
C  9.62900 57.03700 39.27400
C  8.67800 58.03900 39.50300
C  7.42200 57.34300 39.84900
C  11.10300 57.23900 38.95900
C  8.89500 59.52900 39.29300
O  9.99100 60.03200 39.19400
C  7.70300 60.43000 39.31000
N  4.78200 55.73300 40.05800
C  4.93400 57.09000 40.02100
C  3.53900 57.76400 40.09300
C  2.55600 56.64700 40.39600
C  3.47800 55.40500 40.28200
C  3.40700 58.95500 41.08900
C  1.21800 56.62000 39.62900
C  -0.08200 56.78500 40.41000
N  5.02100 52.93900 40.39000
C  3.67500 52.98300 40.62400
C  3.19300 51.53200 40.81700
C  4.34800 50.73200 40.76200
C  5.37000 51.61300 40.35300
C  1.76300 51.06100 41.06300
C  4.93700 49.36300 41.02000
O  4.33800 48.37400 41.38700
C  6.43200 49.44600 40.48200
C  6.24900 48.71800 39.23500
O  5.72700 49.09500 38.20400
O  6.81500 47.46700 39.44300
C  6.58800 46.56100 38.26500
H  10.87900 54.56600 39.37800
H  5.92800 58.88800 40.08200
H  1.89000 53.97100 40.71500
H  9.20400 50.20800 40.76200
H  10.99300 51.95100 39.39800
H  10.64800 51.52700 42.21100
H  10.87800 53.26600 41.92700
H  12.06600 52.11000 41.30900
H  9.02300 49.17800 38.68600
H  10.61200 49.76900 38.71300
H  10.25100 50.72600 36.79900
H  9.39600 51.95600 37.65500
H  11.64500 56.39100 38.54000
H  11.73600 57.82600 39.62400
H  10.99900 57.86500 38.07200
H  6.79200 60.19100 38.76200
H  8.00500 61.34600 38.80100
H  7.38200 60.76700 40.29500
H  3.40000 58.26200 39.13300
H  2.19400 56.80700 41.41100
H  3.28500 59.85100 40.47900
H  4.32200 59.00900 41.67900
H  2.54800 58.88500 41.75700
H  1.17000 55.71500 39.02300
H  1.27700 57.44700 38.92200
H  -0.77500 55.97300 40.18600
H  -0.75100 57.58300 40.08600
H  0.01700 56.96400 41.48000
H  1.22400 51.77600 41.68500
H  1.75900 50.05000 41.46900
H  1.45700 50.99900 40.01800
H  7.17800 49.03500 41.16100
H  7.00500 47.01000 37.36300
H  5.49900 46.53700 38.31500
H  6.93900 45.53500 38.37600

