158

Mg 25.89800 0.82200 29.33800
C  28.01300 0.60100 32.23100
C  23.24500 1.12100 31.43700
C  24.02100 0.95300 26.61100
C  28.70600 -0.02000 27.45800
N  25.72200 0.87200 31.57800
C  26.64900 0.81100 32.55000
C  26.12500 1.05100 33.93200
C  24.56300 1.28700 33.67000
C  24.46600 1.01600 32.11300
C  23.66800 0.37800 34.53900
C  26.78900 2.26000 34.78000
C  27.38500 1.98400 36.15100
H  27.19800 2.97900 37.25300
N  23.93500 0.99900 29.06400
C  22.95300 1.26000 30.02700
C  21.68300 1.25400 29.44100
C  21.86100 1.22600 28.00700
C  23.32800 0.98800 27.85200
C  20.47400 1.45400 30.22900
C  20.84400 1.23700 26.89100
O  21.11400 1.03500 25.67600
C  19.45300 1.50400 27.27800
N  26.25800 0.37300 27.29700
C  25.36600 0.64700 26.31700
C  25.95800 0.38500 24.89100
C  27.48900 0.33800 25.19700
C  27.47000 0.11500 26.73300
C  25.39000 -0.92400 24.30700
C  28.27000 1.58500 24.74200
C  29.44400 1.22900 23.71200
N  27.93800 0.27700 29.68900
C  28.90300 -0.12000 28.82900
C  30.13800 -0.36100 29.59900
C  29.86300 -0.07200 30.95900
C  28.50300 0.36800 30.93300
C  31.51300 -0.74600 29.12300
C  30.41000 0.11800 32.28700
O  31.49800 0.12700 32.71000
C  29.23400 0.48600 33.22800
C  29.07800 -0.66200 34.15700
O  28.62500 -1.80000 33.92900
O  29.46700 -0.29800 35.39200
C  29.16500 -1.34100 36.46000
H  22.35300 1.21500 32.05900
H  23.42700 1.10900 25.70800
H  29.58500 -0.02500 26.81000
H  26.38400 0.19200 34.55100
H  24.30700 2.30700 33.95800
H  23.27400 -0.43000 33.92300
H  22.80700 1.04600 34.56100
H  24.20000 0.00600 35.41400
H  26.17000 3.15700 34.78500
H  27.58600 2.55700 34.09900
H  28.46800 2.01600 36.03300
H  27.22500 0.98600 36.56000
H  20.50000 1.00500 31.22100
H  19.77600 0.79400 29.71300
H  20.05000 2.45800 30.20500
H  19.08700 0.69300 27.90800
H  18.89300 1.48800 26.34300
H  19.40000 2.53900 27.61500
H  25.69500 1.25000 24.28300
H  27.94500 -0.58200 24.83100
H  24.65500 -0.59700 23.57100
H  24.96700 -1.60100 25.04900
H  26.09100 -1.51500 23.71800
H  28.85300 2.06300 25.53000
H  27.58100 2.34200 24.36800
H  30.18300 2.00900 23.89400
H  29.04600 1.42900 22.71700
H  29.85900 0.23700 23.88900
H  32.31000 -0.29000 29.71000
H  31.53500 -0.31900 28.12000
H  31.76200 -1.80500 29.18900
H  29.44500 1.41000 33.76600
H  28.14200 -1.09600 36.74600
H  29.90400 -1.24800 37.25600
H  29.15600 -2.38300 36.14000
Mg 9.39100 48.43200 25.86300
C  7.36300 48.98800 28.72700
C  12.07000 50.10800 27.63600
C  11.43200 48.23200 23.10100
C  6.68000 47.42800 24.16400
N  9.68600 49.40600 27.99000
C  8.73000 49.51300 28.97400
C  9.43400 49.86100 30.27600
C  10.82200 50.41600 29.82900
C  10.87200 50.01100 28.36700
C  11.10100 51.92900 30.09400
C  9.50600 48.68900 31.19800
C  9.11000 48.98100 32.67400
H  8.91500 47.80200 33.61400
N  11.46100 48.94300 25.47100
C  12.31700 49.69700 26.30000
C  13.60500 49.60800 25.72000
C  13.45400 49.06200 24.39600
C  12.08600 48.67600 24.27300
C  14.84300 50.28000 26.43000
C  14.63000 48.84900 23.38800
O  14.39900 48.32900 22.29800
C  16.09000 49.41000 23.58700
N  9.19200 47.89600 23.89600
C  10.10900 47.91200 22.92200
C  9.47700 47.48400 21.53300
C  8.09600 46.97000 22.01200
C  7.94600 47.42900 23.43500
C  9.46800 48.69800 20.57200
C  7.90900 45.40300 21.89100
C  8.57600 44.52500 22.96200
N  7.34100 48.22600 26.25000
C  6.32800 47.95200 25.40600
C  5.12200 47.91500 26.13600
C  5.44900 48.35800 27.40400
C  6.86400 48.57700 27.45800
C  3.83000 47.57900 25.56500
C  4.83500 48.69300 28.74400
O  3.69100 48.76200 29.10400
C  6.13000 48.89900 29.69100
C  6.15000 47.67300 30.53000
O  6.73200 46.60900 30.25000
O  5.21200 47.74800 31.54000
C  5.04100 46.46000 32.32100
H  12.86800 50.63300 28.16500
H  12.07900 48.07700 22.23600
H  5.85400 46.98900 23.60100
H  8.90900 50.70200 30.72800
H  11.66700 49.84000 30.20500
H  10.71300 52.41400 29.19800
H  12.16500 52.16100 30.13000
H  10.58300 52.25600 30.99500
H  10.50100 48.25500 31.09400
H  8.89800 47.84400 30.87600
H  8.12900 49.42800 32.51700
H  9.81100 49.66700 33.15000
H  14.68500 50.59900 27.46000
H  15.19900 51.16300 25.90000
H  15.64600 49.54300 26.43800
H  15.89800 50.45000 23.32500
H  16.74300 48.98800 22.82200
H  16.46600 49.15700 24.57800
H  10.15500 46.72500 21.14400
H  7.39900 47.39600 21.29100
H  9.70600 49.63300 21.08000
H  8.49300 48.85500 20.11000
H  10.27900 48.58900 19.85100
H  8.37200 45.16300 20.93300
H  6.85600 45.12300 21.89200
H  9.37600 45.01300 23.51900
H  8.95000 43.68500 22.37700
H  7.87200 44.25000 23.74700
H  3.64200 46.51500 25.42700
H  3.83600 48.10200 24.60800
H  3.03700 47.92700 26.22700
H  5.98600 49.84900 30.20600
H  5.39700 46.70900 33.32100
H  5.61200 45.60900 31.95100
H  4.00200 46.14900 32.43200

