158

Mg 41.97100 41.15000 26.63300
C  41.04000 43.46000 28.91300
C  42.92600 39.09100 29.07700
C  42.86700 38.81000 24.26400
C  41.74400 43.50700 24.10000
N  41.90400 41.23000 28.73800
C  41.48400 42.27400 29.47300
C  41.59700 42.02600 30.91900
C  42.39100 40.66500 30.97200
C  42.50400 40.32500 29.48100
C  43.71100 40.51000 31.69900
C  40.21100 42.13600 31.65800
C  40.24800 41.48700 33.09000
H  39.70900 42.36700 34.29300
N  42.56700 39.16600 26.65500
C  42.91900 38.51600 27.79700
C  43.39700 37.10300 27.50200
C  43.27900 36.99700 26.05900
C  42.87200 38.35800 25.61700
C  43.64500 36.03300 28.59500
C  43.49100 35.67500 25.23700
O  43.61100 35.71300 24.00100
C  43.52400 34.29700 25.83000
N  42.46800 41.17600 24.42300
C  42.66000 40.05000 23.68300
C  42.49200 40.34200 22.11100
C  42.02600 41.83800 22.14900
C  42.10100 42.22900 23.62200
C  43.76700 39.98700 21.32100
C  40.58000 41.95500 21.60200
C  39.55000 41.25900 22.46000
N  41.45200 43.12400 26.48600
C  41.39200 43.95500 25.38200
C  40.76400 45.19600 25.87400
C  40.66900 45.08500 27.25200
C  41.11000 43.75900 27.58100
C  40.53900 46.45100 25.11900
C  40.42800 45.78600 28.43900
O  40.07000 47.01800 28.46600
C  40.54500 44.81200 29.59800
C  41.59200 45.29600 30.62500
O  42.69200 45.76200 30.43800
O  40.93200 45.41700 31.87900
C  41.74400 45.85100 33.03600
H  43.42300 38.56300 29.89400
H  43.02200 38.07500 23.47100
H  41.47300 44.14800 23.25900
H  42.23600 42.83600 31.26900
H  41.79700 39.87800 31.43800
H  43.96700 39.47700 31.93500
H  43.55800 41.00100 32.66000
H  44.49000 40.98800 31.10500
H  39.42900 41.73400 31.01500
H  39.93600 43.17100 31.86500
H  41.28200 41.23700 33.32500
H  39.71700 40.53500 33.13300
H  43.62200 36.48100 29.58900
H  44.69300 35.74500 28.51100
H  43.13900 35.08300 28.42200
H  44.39500 34.15200 26.46900
H  43.62300 33.51800 25.07300
H  42.50300 34.27200 26.21200
H  41.65200 39.79000 21.68900
H  42.77600 42.52600 21.75900
H  44.47600 39.62300 22.06500
H  44.08600 40.90800 20.83300
H  43.57000 39.29100 20.50600
H  40.52700 41.44100 20.64200
H  40.33900 43.00100 21.41300
H  39.32200 41.93400 23.28600
H  39.86300 40.29800 22.86800
H  38.65800 40.97400 21.90300
H  41.41700 47.08400 24.99200
H  39.88700 46.96600 25.82500
H  40.08000 46.23800 24.15400
H  39.63100 44.72700 30.18600
H  42.79500 45.60400 32.88600
H  41.31400 45.39000 33.92500
H  41.70200 46.93800 33.10900
Mg 16.70800 52.13900 24.65100
C  18.15900 50.81300 27.60600
C  13.99000 53.02500 26.62900
C  15.22200 52.98400 21.82400
C  19.48400 50.96700 22.94900
N  16.08000 51.87300 26.91300
C  16.93800 51.47500 27.91100
C  16.49400 52.00600 29.27500
C  15.03100 52.49900 28.89800
C  15.04900 52.54500 27.38000
C  13.88100 51.70800 29.60300
C  17.40300 53.14800 29.82900
C  17.75100 53.04100 31.34500
H  16.79100 52.36700 32.29900
N  14.82800 52.96500 24.23000
C  13.85000 53.27800 25.15800
C  12.74500 53.83900 24.48000
C  13.08900 53.93800 23.06900
C  14.43700 53.30300 22.97100
C  11.45000 54.22500 25.18100
C  12.39300 54.60900 21.87900
O  12.86600 54.66700 20.73400
C  11.14100 55.37500 22.15100
N  17.30900 52.14200 22.69700
C  16.47700 52.47300 21.69100
C  17.04400 51.88100 20.35400
C  18.61600 51.73100 20.76100
C  18.50200 51.61000 22.23900
C  16.46300 50.61400 19.88100
C  19.50200 52.86500 20.29000
C  20.37600 52.38100 19.11900
N  18.49200 51.19400 25.13700
C  19.39500 50.60800 24.28200
C  20.41900 49.89500 25.08500
C  19.92200 49.95400 26.37400
C  18.72200 50.70200 26.34000
C  21.66700 49.20300 24.58100
C  20.24400 49.54000 27.68200
O  21.13900 48.88700 28.21500
C  19.12900 50.16600 28.60200
C  18.53000 49.19600 29.44000
O  17.71000 48.39300 29.05900
O  19.05400 49.29800 30.63500
C  18.79200 48.15500 31.55100
H  13.20400 53.27600 27.34400
H  14.61300 52.93100 20.91900
H  20.32400 50.70200 22.30300
H  16.41300 51.12900 29.91700
H  14.84100 53.52900 29.20000
H  13.37500 52.41300 30.26200
H  14.24000 50.82600 30.13400
H  13.31300 51.24400 28.79600
H  16.95600 54.11800 29.61000
H  18.29400 53.05200 29.20900
H  17.73400 54.06400 31.72200
H  18.77400 52.68200 31.45700
H  11.43300 53.89300 26.21900
H  10.52900 53.84300 24.74100
H  11.29300 55.29700 25.06100
H  11.41600 56.38700 22.45000
H  10.58500 54.93600 22.98000
H  10.55700 55.42300 21.23200
H  16.91900 52.67700 19.62100
H  18.95900 50.73700 20.47200
H  17.12100 50.00400 19.26200
H  15.52800 50.92400 19.41500
H  16.15600 49.89900 20.64400
H  20.09000 53.10800 21.17400
H  18.92300 53.74400 20.00600
H  19.85100 52.57700 18.18400
H  20.62000 51.32100 19.18300
H  21.29200 52.95600 19.25400
H  21.34100 48.29000 24.08100
H  22.33600 48.95500 25.40500
H  22.08800 49.89200 23.84900
H  19.65300 50.88600 29.23100
H  18.97700 47.18800 31.08300
H  17.74600 48.27800 31.83200
H  19.43400 48.30500 32.41900

