158

Mg 8.77800 3.11600 27.57700
C  10.28900 1.47500 30.37100
C  7.10800 5.24500 29.81300
C  7.57800 4.55600 24.93000
C  10.03500 0.50100 25.48100
N  8.74400 3.36500 29.89300
C  9.47000 2.56000 30.80100
C  9.22500 2.96000 32.25300
C  8.15100 4.14400 32.05000
C  7.88300 4.21400 30.49800
C  6.81500 3.86300 32.84100
C  10.57000 3.31000 33.04900
C  10.52200 4.37800 34.15100
H  11.22600 4.10600 35.48600
N  7.45100 4.62000 27.36900
C  6.90700 5.39300 28.39300
C  6.12800 6.46800 27.82200
C  6.31600 6.30100 26.37000
C  7.12700 5.08800 26.17700
C  5.45800 7.51600 28.59900
C  5.85100 7.24500 25.26900
O  6.27300 7.18100 24.13600
C  4.87300 8.29700 25.57800
N  8.89600 2.61200 25.49800
C  8.31100 3.45600 24.63200
C  8.65200 3.06500 23.15100
C  9.31100 1.66300 23.35400
C  9.48800 1.59200 24.83900
C  7.46200 2.98300 22.14400
C  10.77800 1.61100 22.69500
C  11.02600 0.59500 21.56400
N  9.95600 1.34000 27.77300
C  10.30600 0.40400 26.88100
C  11.16300 -0.58300 27.54400
C  11.27100 -0.15500 28.90500
C  10.47800 0.99600 28.96900
C  11.81300 -1.72000 26.82200
C  11.75300 -0.46900 30.23100
O  12.56100 -1.34800 30.58500
C  11.19300 0.64700 31.21600
C  10.48700 -0.11000 32.27000
O  9.41000 -0.59400 32.12300
O  11.17300 -0.10700 33.50800
C  10.41600 -0.49200 34.71800
H  6.56300 6.04900 30.31100
H  7.12500 4.93400 24.01100
H  10.35700 -0.32900 24.85000
H  8.72600 2.11700 32.73100
H  8.56400 5.12600 32.28000
H  6.84500 2.89200 33.33500
H  5.96600 3.83200 32.15900
H  6.51800 4.59000 33.59700
H  11.44900 3.52200 32.44100
H  10.75000 2.42900 33.66500
H  9.48200 4.63100 34.35700
H  10.97200 5.30000 33.78300
H  5.89700 8.49300 28.39600
H  5.38300 7.53900 29.68600
H  4.42200 7.55200 28.26200
H  4.30900 8.59700 24.69500
H  5.56700 9.07300 25.90300
H  4.14300 7.91000 26.28900
H  9.32200 3.83700 22.77100
H  8.77600 0.79400 22.96900
H  6.87700 3.88300 22.32900
H  6.81400 2.15100 22.42000
H  7.88400 2.98500 21.13900
H  11.43400 1.30300 23.51000
H  11.15100 2.59300 22.40800
H  11.46700 1.01700 20.66100
H  10.07200 0.19200 21.22300
H  11.60500 -0.23800 21.96400
H  11.95400 -1.64500 25.74300
H  11.30800 -2.67800 26.94600
H  12.80900 -1.73800 27.26300
H  11.99100 1.14400 31.76800
H  9.84800 -1.40800 34.55600
H  9.79500 0.36900 34.97000
H  11.05500 -0.82700 35.53500
Mg 9.37200 48.17900 26.72000
C  7.39400 48.13400 29.57700
C  11.99200 49.27900 28.63200
C  11.21300 48.29500 23.90600
C  6.60300 47.68600 24.78900
N  9.62000 48.69500 28.97100
C  8.65600 48.56000 29.91500
C  9.29400 48.84100 31.32900
C  10.84100 49.16800 30.96100
C  10.86700 49.07000 29.39400
C  11.49900 50.44800 31.57800
C  8.97000 47.71200 32.27700
C  10.02000 47.45200 33.23400
H  9.50900 46.94100 34.63400
N  11.36000 48.62400 26.35900
C  12.24800 49.07300 27.23800
C  13.56100 49.29600 26.61100
C  13.38600 48.92900 25.24100
C  11.92200 48.62100 25.09900
C  14.80100 49.80400 27.31100
C  14.36500 48.73500 24.09400
O  14.05400 48.42800 22.93300
C  15.79500 48.79800 24.39800
N  8.99900 47.88500 24.65800
C  9.90200 48.06300 23.70900
C  9.29400 47.90800 22.27400
C  7.80900 47.54000 22.56200
C  7.77300 47.63300 24.09800
C  9.47300 49.20700 21.41600
C  7.28800 46.18500 21.87600
C  6.76400 46.33000 20.51200
N  7.45300 47.85500 27.08700
C  6.43300 47.73100 26.14400
C  5.20200 47.50900 26.86600
C  5.56800 47.54400 28.22600
C  6.94200 47.79200 28.29800
C  3.88900 47.20000 26.23500
C  5.07400 47.58700 29.58600
O  3.89600 47.52900 29.99600
C  6.20300 47.85200 30.53500
C  6.29300 46.62400 31.26400
O  6.70100 45.57400 30.87400
O  5.58800 46.81200 32.48400
C  5.28600 45.55500 33.17100
H  12.87400 49.55600 29.21400
H  11.70100 48.31600 22.93000
H  5.77400 47.64000 24.08000
H  8.80800 49.77600 31.60900
H  11.39400 48.26900 31.23500
H  11.01800 50.78800 32.49500
H  11.46000 51.25500 30.84600
H  12.53900 50.21600 31.80700
H  8.86000 46.88100 31.58100
H  8.02900 47.96600 32.76500
H  10.58600 48.35900 33.44600
H  10.69800 46.68800 32.85100
H  15.16200 50.57500 26.63000
H  15.49900 49.04600 27.66500
H  14.54800 50.34800 28.22100
H  16.41000 48.57900 23.52500
H  15.98100 48.23200 25.31000
H  16.03700 49.84800 24.56000
H  9.83000 47.11600 21.75200
H  7.18600 48.34300 22.16800
H  9.80900 48.79400 20.46500
H  10.29700 49.79300 21.82400
H  8.58900 49.83800 21.33200
H  6.50900 45.73800 22.49400
H  8.22300 45.62800 21.80200
H  6.26000 47.29500 20.44900
H  6.09200 45.51400 20.24800
H  7.62200 46.28200 19.84100
H  3.74900 46.17900 25.87900
H  3.60800 47.85400 25.40900
H  3.15200 47.41700 27.00700
H  5.90900 48.64900 31.21800
H  4.97200 45.70600 34.20400
H  6.18700 44.94600 33.24700
H  4.45200 44.97600 32.77500

