158

Mg 1.97900 -2.07300 44.59300
C  5.35600 -1.02500 44.10000
C  1.02900 0.55000 42.62400
C  -1.19800 -3.27300 44.68100
C  3.25300 -5.10000 45.90400
N  3.18300 -0.37300 43.45700
C  4.50800 -0.14700 43.48000
C  4.78500 1.15800 42.80000
C  3.34900 1.63900 42.28500
C  2.44800 0.56300 42.81100
C  2.97900 2.99800 42.84200
C  5.93000 1.07700 41.68300
C  6.05700 -0.13900 40.80800
H  6.95500 0.02300 39.61600
N  0.20900 -1.46500 43.79100
C  0.04100 -0.36500 42.95200
C  -1.38500 -0.14900 42.70600
C  -2.11900 -1.20100 43.37000
C  -1.03000 -2.00600 44.02900
C  -1.84400 1.11700 41.90900
C  -3.63900 -1.34200 43.41000
O  -4.43600 -0.54400 42.86300
C  -4.29300 -2.59100 43.89700
N  1.21000 -4.02000 44.96300
C  -0.14600 -4.15300 45.12800
C  -0.38700 -5.43300 45.95200
C  0.95300 -6.20100 45.97800
C  1.86700 -5.06200 45.60400
C  -1.01200 -5.16800 47.37200
C  1.17400 -7.45300 45.13000
C  1.64800 -8.67500 45.81200
N  3.90100 -2.95800 44.91700
C  4.26100 -4.20400 45.42800
C  5.73400 -4.24900 45.53600
C  6.15800 -3.04500 44.99700
C  5.04100 -2.26000 44.60700
C  6.64600 -5.27800 46.18300
C  7.35200 -2.21300 44.81000
O  8.50500 -2.50100 45.06700
C  6.87100 -0.85500 44.27300
C  7.16700 0.20500 45.26400
O  6.81900 0.26200 46.45300
O  7.95800 1.19300 44.67700
C  8.34600 2.33400 45.44900
H  0.74600 1.47700 42.12200
H  -2.21200 -3.59100 44.93000
H  3.52400 -6.02900 46.41100
H  5.13500 1.88900 43.52900
H  3.30400 1.68900 41.19700
H  2.28000 2.82700 43.66200
H  2.45200 3.57800 42.08400
H  3.81300 3.59300 43.21500
H  6.87900 1.22100 42.19900
H  5.79100 1.92400 41.01200
H  5.01400 -0.27200 40.52100
H  6.37600 -1.03800 41.33400
H  -1.55300 1.10900 40.85800
H  -1.28200 1.97700 42.27400
H  -2.90700 1.35300 41.95500
H  -3.94900 -3.56000 43.53400
H  -5.37300 -2.66700 43.76600
H  -4.19900 -2.39200 44.96400
H  -1.07400 -5.99400 45.31800
H  1.09500 -6.41800 47.03700
H  -0.77700 -5.99300 48.04500
H  -2.09300 -5.08800 47.25800
H  -0.59400 -4.24300 47.76700
H  2.06000 -7.23400 44.53400
H  0.26800 -7.61300 44.54500
H  1.56600 -8.70800 46.89800
H  2.70400 -8.86300 45.61300
H  1.06200 -9.49700 45.40300
H  6.67500 -6.24700 45.68400
H  6.62300 -5.31300 47.27200
H  7.61400 -4.94100 45.81200
H  7.48900 -0.67100 43.39400
H  9.41700 2.33900 45.65500
H  7.82500 2.50300 46.39100
H  8.04400 3.21300 44.88000
Mg 47.25700 25.22300 29.41500
C  47.74500 27.73400 31.92000
C  46.51200 23.04000 31.83300
C  47.24900 22.84900 27.00400
C  48.80300 27.49000 27.23700
N  47.19800 25.45100 31.56700
C  47.26200 26.54400 32.41200
C  46.97000 26.20400 33.90700
C  46.89100 24.65900 33.79100
C  46.80600 24.33700 32.28200
C  47.98900 23.79800 34.46000
C  45.72300 26.91500 34.51500
C  46.08600 27.84800 35.61700
H  45.17300 28.05200 36.78000
N  46.85800 23.29100 29.41700
C  46.55000 22.53800 30.52400
C  46.06000 21.28700 30.09600
C  46.19100 21.20700 28.65500
C  46.78500 22.54400 28.28800
C  45.64000 20.21900 31.02000
C  45.98300 20.01900 27.69000
O  46.23500 20.07700 26.52900
C  45.50700 18.68300 28.20000
N  47.95100 25.18500 27.48500
C  47.82600 24.11900 26.68200
C  48.30500 24.35200 25.27000
C  48.73600 25.85900 25.28800
C  48.43700 26.22000 26.75800
C  49.62100 23.49900 25.06100
C  47.84700 26.61100 24.28100
C  48.07200 26.26000 22.79900
N  48.04700 27.23300 29.47900
C  48.67700 28.01300 28.52500
C  48.98700 29.32800 29.07000
C  48.58300 29.23500 30.41000
C  48.07900 27.95000 30.62100
C  49.77100 30.40100 28.28200
C  48.59700 29.97300 31.67400
O  48.92800 31.12800 31.94500
C  48.06200 28.96400 32.73400
C  49.21100 28.70700 33.66000
O  50.28100 28.20300 33.28500
O  48.90700 29.08300 34.93200
C  49.92000 28.75900 35.96800
H  46.02500 22.38200 32.55600
H  47.10300 22.10700 26.21700
H  49.20400 28.14000 26.45600
H  47.91300 26.33700 34.43700
H  45.99700 24.17500 34.18300
H  48.52100 23.16200 33.75300
H  47.48900 23.23100 35.24600
H  48.81200 24.35900 34.90200
H  44.94200 26.22500 34.83400
H  45.28700 27.57300 33.76300
H  46.33100 28.81800 35.18400
H  47.02700 27.56400 36.08800
H  44.55000 20.22600 31.01100
H  45.97800 20.33400 32.05000
H  46.01200 19.26400 30.65000
H  46.29700 18.18900 28.76500
H  45.13500 18.14100 27.33000
H  44.62900 18.78500 28.83800
H  47.52800 24.16300 24.52900
H  49.73400 26.19500 25.00600
H  50.02400 23.04500 25.96600
H  50.39500 24.02200 24.50100
H  49.34400 22.68100 24.39600
H  47.82700 27.68900 24.43800
H  46.81800 26.26100 24.36500
H  48.80700 25.45900 22.72000
H  48.44000 27.20200 22.39000
H  47.19900 25.98400 22.20700
H  49.41400 30.38200 27.25200
H  50.78700 30.02100 28.17300
H  49.71000 31.36100 28.79500
H  47.23800 29.46700 33.24100
H  50.49800 29.66400 36.15500
H  50.60600 27.95200 35.70800
H  49.46200 28.42900 36.90000

