158

Mg 30.46900 57.86500 40.56000
C  27.47100 56.30300 39.69600
C  32.18300 55.37800 38.95800
C  33.11600 59.89600 40.51900
C  28.43900 60.70000 41.47800
N  29.82300 56.08700 39.45300
C  28.57400 55.49400 39.35300
C  28.68300 54.15800 38.65400
C  30.18000 53.84200 38.68200
C  30.83000 55.18300 39.07000
C  30.54600 52.60600 39.54200
C  28.13600 53.99200 37.24600
C  28.15900 55.20100 36.34700
H  28.23600 54.88600 34.81500
N  32.43500 57.55400 39.98400
C  33.01300 56.49900 39.35000
C  34.41000 56.74900 39.17100
C  34.74500 58.05800 39.60800
C  33.41000 58.54900 40.07700
C  35.30400 55.70400 38.39600
C  36.15000 58.69100 39.54300
O  37.09000 58.01400 39.08200
C  36.41700 60.07500 40.10100
N  30.78800 59.98000 41.00600
C  32.00400 60.45200 41.03200
C  31.95500 61.96000 41.47000
C  30.46800 62.19900 41.88300
C  29.84900 60.86500 41.46100
C  33.04200 62.39100 42.56000
C  29.75500 63.41000 41.19900
C  30.50000 64.70300 40.81800
N  28.32500 58.48700 40.58000
C  27.68500 59.56000 41.06000
C  26.27400 59.34600 40.83800
C  26.19400 58.03900 40.37200
C  27.44300 57.57000 40.19700
C  25.24700 60.37300 41.03200
C  25.22500 57.10500 39.88600
O  24.02300 57.23100 39.73400
C  26.08800 55.90400 39.31100
C  25.52700 54.69300 39.97900
O  25.25400 54.55600 41.16700
O  25.28000 53.73100 39.02300
C  24.44800 52.58800 39.50500
H  32.74300 54.48500 38.67200
H  33.88000 60.66100 40.36100
H  27.84400 61.54500 41.83300
H  28.00000 53.56400 39.26100
H  30.41100 53.80800 37.61800
H  30.47800 51.80000 38.81100
H  29.68200 52.37200 40.16500
H  31.47400 52.70900 40.10400
H  27.09300 53.74000 37.43700
H  28.47200 53.06000 36.79300
H  28.86300 55.99600 36.59500
H  27.16600 55.64500 36.42100
H  36.19100 56.08600 37.89100
H  34.68500 55.09700 37.73600
H  35.76800 55.12100 39.19200
H  36.36200 59.95300 41.18200
H  35.76000 60.89000 39.79700
H  37.39500 60.48500 39.84600
H  32.08600 62.46400 40.51300
H  30.27700 62.25200 42.95500
H  32.62000 62.94800 43.39600
H  33.78400 63.08000 42.15600
H  33.53500 61.44900 42.80200
H  29.01400 63.76700 41.91500
H  29.30000 63.09500 40.26000
H  30.11800 64.83000 39.80500
H  31.57600 64.56900 40.92600
H  30.11700 65.53700 41.40600
H  24.92900 60.74400 40.05700
H  25.69700 61.14500 41.65600
H  24.42200 59.81200 41.47100
H  25.82300 55.82200 38.25700
H  24.94500 51.81500 40.09100
H  24.23600 52.02300 38.59800
H  23.55800 52.96900 40.00600
Mg 1.18400 41.91900 26.21200
C  3.21000 42.54500 28.98900
C  -1.26700 40.81400 28.54200
C  -0.59200 40.93300 23.69100
C  3.90400 42.61000 24.11700
N  1.09100 41.69300 28.52000
C  1.98300 42.10900 29.42100
C  1.39600 42.08300 30.89500
C  0.01500 41.41500 30.63500
C  -0.06600 41.28700 29.14400
C  -0.24900 40.07400 31.38800
C  1.17200 43.65700 31.25400
C  1.27800 44.03800 32.78400
H  1.19400 42.83600 33.70600
N  -0.70700 41.00700 26.09900
C  -1.54000 40.63800 27.17400
C  -2.73500 40.04000 26.64800
C  -2.53400 39.97400 25.24000
C  -1.27300 40.71200 24.91300
C  -3.79700 39.45400 27.59200
C  -3.32900 39.16200 24.21100
O  -3.06900 39.18200 23.00200
C  -4.49200 38.40100 24.64100
N  1.57300 41.89200 24.19800
C  0.60600 41.46500 23.32800
C  1.01800 41.59700 21.81100
C  2.34000 42.49100 22.07800
C  2.70100 42.35300 23.50100
C  1.31600 40.27900 21.00500
C  2.24300 43.97300 21.68500
C  3.37900 44.67100 20.91400
N  3.15800 42.42200 26.42700
C  4.14400 42.62500 25.49100
C  5.35400 42.94000 26.15700
C  5.07900 42.89200 27.53800
C  3.70500 42.55100 27.66900
C  6.54900 43.56600 25.50700
C  5.61300 43.02300 28.85400
O  6.79500 43.21800 29.19500
C  4.48700 42.73500 29.83100
C  4.88100 41.61300 30.69700
O  4.71800 40.44700 30.36300
O  5.34400 42.07400 31.88500
C  5.84100 41.07100 32.80100
H  -2.08700 40.69400 29.25200
H  -1.09700 40.52700 22.81300
H  4.66200 42.84700 23.36800
H  2.11000 41.55100 31.52400
H  -0.82400 42.09300 30.79100
H  0.56200 39.89600 32.09300
H  -0.36300 39.32500 30.60300
H  -1.17600 40.32500 31.90300
H  0.17200 44.00200 30.99300
H  1.92900 44.29900 30.80200
H  0.43500 44.70400 32.96600
H  2.22200 44.53700 33.00000
H  -4.81300 39.60100 27.22300
H  -3.90500 39.90600 28.57800
H  -3.59400 38.39200 27.72700
H  -4.92400 37.81000 23.83300
H  -5.21700 39.10800 25.04200
H  -4.18600 37.63800 25.35700
H  0.15400 42.02900 21.30600
H  3.17500 42.09800 21.49900
H  0.69700 39.54200 21.51700
H  2.34800 39.93300 21.07300
H  1.13300 40.55000 19.96500
H  2.10000 44.62000 22.55100
H  1.37800 44.11500 21.03700
H  2.98200 44.89600 19.92400
H  4.28800 44.06900 20.89000
H  3.69800 45.56700 21.44600
H  6.94000 44.13500 26.35100
H  6.20900 44.30800 24.78400
H  7.27200 42.85700 25.10600
H  4.38600 43.63600 30.43700
H  6.92000 41.11000 32.94500
H  5.56100 40.06200 32.49900
H  5.45700 41.24200 33.80600

