158

Mg 36.29000 50.01500 24.98600
C  36.51000 47.86200 27.76500
C  34.91500 52.46700 26.93100
C  35.45300 51.77900 22.20300
C  37.07800 47.16600 23.08600
N  35.73200 50.14900 27.07000
C  35.98900 49.16800 28.04600
C  35.64600 49.73600 29.44200
C  35.03200 51.12700 29.12300
C  35.29100 51.33000 27.64100
C  33.47500 51.51700 29.49100
C  36.99300 49.80000 30.24900
C  36.98800 49.61900 31.80200
H  35.59000 49.50900 32.50900
N  35.43300 51.87700 24.66100
C  34.97100 52.77100 25.55700
C  34.59500 54.02200 24.86800
C  34.71900 53.85500 23.44200
C  35.16000 52.43600 23.37500
C  34.12000 55.26400 25.63800
C  34.40100 54.86500 22.36100
O  34.51600 54.62800 21.14000
C  33.86500 56.25300 22.68600
N  36.08800 49.53000 22.86700
C  35.89300 50.51700 21.94200
C  36.33500 49.94900 20.58300
C  37.18100 48.64200 20.93900
C  36.68100 48.36700 22.39600
C  35.23200 49.82000 19.49300
C  38.68700 48.84000 20.87100
C  39.58500 47.77800 20.30900
N  36.77400 47.91600 25.25300
C  37.08100 46.88200 24.44900
C  37.42300 45.71600 25.17300
C  37.21800 46.07800 26.54000
C  36.77100 47.37600 26.47000
C  37.76100 44.43200 24.47000
C  37.10200 45.52000 27.91700
O  37.24400 44.36700 28.37000
C  36.76800 46.74300 28.74600
C  35.60300 46.41300 29.65900
O  34.39700 46.53000 29.38100
O  36.05000 45.78100 30.77300
C  34.95900 45.14800 31.54600
H  34.65000 53.35600 27.50800
H  35.37800 52.38300 21.29600
H  37.47700 46.42000 22.39600
H  34.88500 49.06700 29.84400
H  35.61100 51.95900 29.52300
H  33.23700 51.00200 30.42200
H  32.72900 51.27400 28.73400
H  33.56200 52.58500 29.69000
H  37.52500 50.72700 30.03300
H  37.70000 49.06100 29.87200
H  37.43000 50.54800 32.16300
H  37.75500 48.88300 32.04300
H  34.63900 56.19800 25.42200
H  34.03300 55.08300 26.70900
H  33.06500 55.43900 25.43000
H  32.95200 56.33400 23.27600
H  33.71000 56.77900 21.74400
H  34.72700 56.63800 23.23200
H  36.96700 50.71300 20.13000
H  36.77500 47.79500 20.38600
H  34.41000 50.23800 20.07400
H  35.08100 48.81000 19.11300
H  35.44100 50.51800 18.68200
H  39.12300 48.82600 21.87000
H  38.96600 49.80900 20.45700
H  39.73900 47.08400 21.13500
H  40.55400 48.19800 20.04000
H  39.05100 47.33500 19.46800
H  37.80300 44.53900 23.38600
H  36.97100 43.70900 24.67600
H  38.66400 43.97700 24.87700
H  37.61700 46.92400 29.40400
H  34.05300 45.73500 31.69700
H  35.32500 44.93500 32.55000
H  34.66400 44.19300 31.11100
Mg 16.81500 51.75500 26.79700
C  18.88200 50.48200 29.22400
C  14.58000 52.78500 29.17200
C  14.74800 52.61000 24.25600
C  19.01300 50.40800 24.38600
N  16.69500 51.49500 28.82800
C  17.72800 51.08800 29.74200
C  17.34500 51.31500 31.15900
C  15.84400 51.74600 31.14100
C  15.70100 52.00700 29.62700
C  14.86000 50.72600 31.79100
C  18.25300 52.45000 31.77900
C  18.40200 52.46200 33.31100
H  17.44400 51.51600 34.18200
N  15.00000 52.73200 26.67000
C  14.25200 53.04500 27.84200
C  13.13800 53.85200 27.38500
C  13.17600 53.85400 25.90200
C  14.37300 53.03100 25.55000
C  12.11100 54.44400 28.38600
C  12.19300 54.54700 24.92300
O  12.36700 54.50300 23.70900
C  11.01300 55.29800 25.42500
N  16.89600 51.43700 24.62400
C  15.90000 51.93800 23.86100
C  16.17800 51.65000 22.35900
C  17.62900 50.99700 22.37000
C  17.88800 50.92700 23.87400
C  15.15900 50.67600 21.84400
C  18.73900 51.85200 21.58400
C  19.04600 53.21300 22.07800
N  18.54900 50.65900 26.78700
C  19.33000 50.25400 25.74600
C  20.47700 49.52100 26.25500
C  20.34600 49.66100 27.60600
C  19.16200 50.34700 27.89500
C  21.59200 48.81700 25.49700
C  21.01000 49.32500 28.89400
O  22.05800 48.76500 29.07400
C  20.01800 49.80900 30.04600
C  19.47500 48.67300 30.83000
O  18.77300 47.83500 30.34400
O  19.96800 48.65000 32.11100
C  19.54700 47.53200 32.86900
H  13.95600 53.08000 30.01800
H  14.11000 52.84200 23.40100
H  19.64200 49.89300 23.65600
H  17.54600 50.39700 31.71000
H  15.67400 52.71500 31.61000
H  15.46700 49.97700 32.29900
H  14.29600 50.21600 31.00900
H  14.17900 51.22500 32.48100
H  17.80900 53.40400 31.49500
H  19.28400 52.34400 31.44000
H  18.04800 53.45400 33.59100
H  19.43000 52.25100 33.60400
H  12.58800 55.26000 28.92900
H  11.96900 53.69000 29.15900
H  11.14200 54.71700 27.96800
H  10.22400 54.57300 25.62700
H  10.72300 55.97400 24.62100
H  11.40500 55.99900 26.16100
H  16.18900 52.54800 21.74100
H  17.55700 49.95300 22.06500
H  14.58500 51.32200 21.17900
H  14.48700 50.11500 22.49300
H  15.72000 49.99200 21.20700
H  18.52100 52.01200 20.52800
H  19.63300 51.23500 21.67700
H  18.20300 53.67800 22.59100
H  19.28800 53.85200 21.22900
H  19.94900 53.21900 22.68900
H  22.60900 49.14300 25.72100
H  21.45100 48.97800 24.42900
H  21.64400 47.78100 25.83100
H  20.52400 50.54300 30.67300
H  18.46300 47.54400 32.98200
H  19.98600 47.49600 33.86600
H  19.70300 46.52100 32.49300

