158

Mg 8.23900 2.52100 28.43300
C  9.96700 1.32700 31.38800
C  6.16500 4.16500 30.54000
C  6.77000 3.63700 25.78000
C  9.91000 -0.00000 26.68600
N  8.05300 2.62900 30.66200
C  8.93100 2.19200 31.57700
C  8.63600 2.77700 32.92800
C  7.22200 3.37400 32.76300
C  7.07600 3.39300 31.19700
C  6.13200 2.55400 33.46000
C  9.72400 3.82300 33.33400
C  9.63900 4.49700 34.64500
H  10.53200 3.94100 35.77800
N  6.63900 3.79600 28.18200
C  5.90700 4.43800 29.18800
C  5.02300 5.42600 28.62100
C  5.21100 5.26500 27.22000
C  6.17900 4.22200 26.94800
C  4.11600 6.26200 29.38200
C  4.43500 6.08100 26.09800
O  4.62200 5.88300 24.90500
C  3.42200 7.08000 26.44100
N  8.28000 1.89300 26.48100
C  7.62400 2.56800 25.51300
C  7.87800 1.99400 24.12400
C  8.81000 0.72200 24.51400
C  9.11000 0.94400 25.94600
C  6.53500 1.69500 23.26100
C  9.99600 0.53100 23.41700
C  10.94900 1.70500 23.41300
N  9.63000 1.00200 28.88500
C  10.29200 0.10000 28.05200
C  11.34900 -0.65100 28.71500
C  11.25000 -0.16400 30.00000
C  10.14500 0.77100 30.09800
C  12.33800 -1.61400 28.00900
C  11.77600 -0.33800 31.37800
O  12.64000 -1.11400 31.80300
C  11.03600 0.67900 32.29600
C  10.32000 -0.04600 33.38600
O  9.31100 -0.67800 33.28200
O  11.02500 0.07100 34.53200
C  10.51300 -0.37700 35.80000
H  5.54100 4.71700 31.24600
H  6.35800 4.00600 24.83900
H  10.38000 -0.70400 25.99500
H  8.70100 1.91000 33.58500
H  7.19800 4.37700 33.19100
H  5.99400 1.54300 33.07800
H  5.17500 3.06700 33.36100
H  6.30100 2.42700 34.52900
H  9.64600 4.56600 32.54000
H  10.73900 3.42800 33.34800
H  8.63700 4.31000 35.03200
H  9.85600 5.56300 34.57500
H  4.32700 6.09800 30.43900
H  3.06800 5.96800 29.33300
H  4.22900 7.33700 29.23800
H  2.95600 7.36600 25.49800
H  4.03900 7.84200 26.91500
H  2.68800 6.68900 27.14600
H  8.44400 2.73000 23.55200
H  8.28000 -0.23100 24.52200
H  5.64800 1.84700 23.87500
H  6.43400 0.64600 22.98400
H  6.51200 2.27100 22.33500
H  9.51900 0.63500 22.44200
H  10.52900 -0.42000 23.40300
H  11.96300 1.33300 23.55900
H  10.60300 2.47100 24.10600
H  10.91500 2.36400 22.54500
H  13.22200 -1.72900 28.63700
H  12.62900 -1.40500 26.98000
H  11.88700 -2.60700 28.02500
H  11.81500 1.31600 32.71400
H  9.84000 0.35600 36.24400
H  11.39700 -0.48500 36.42800
H  9.91600 -1.27800 35.65900
Mg 16.47000 -1.95000 28.30100
C  15.72000 0.14900 30.99900
C  18.54000 -3.79400 30.23400
C  17.86500 -3.55700 25.43300
C  14.99300 0.30900 26.15100
N  17.16900 -1.66700 30.35400
C  16.60700 -0.84800 31.28400
C  17.12200 -1.27500 32.68900
C  18.13300 -2.42600 32.42800
C  17.94800 -2.70900 30.92000
C  19.60900 -2.43300 32.87800
C  16.00700 -1.63600 33.68500
C  16.05400 -1.02800 35.12100
H  17.33200 -0.47900 35.64800
N  17.93900 -3.55300 27.87200
C  18.63900 -4.15500 28.90500
C  19.32800 -5.32500 28.35300
C  19.01100 -5.39500 26.94400
C  18.20300 -4.17000 26.68100
C  20.12200 -6.30700 29.23300
C  19.36200 -6.51600 26.02900
O  18.98500 -6.50800 24.86400
C  20.22700 -7.68000 26.51000
N  16.36000 -1.76000 26.11600
C  17.06900 -2.40700 25.20700
C  16.87500 -1.82400 23.77100
C  15.93100 -0.71100 23.99300
C  15.71100 -0.72400 25.49700
C  18.17900 -1.57700 22.89300
C  14.60100 -0.71000 23.12200
C  13.43000 -1.31700 23.78900
N  15.44100 -0.20800 28.50000
C  14.81100 0.58100 27.53700
C  14.01700 1.58100 28.16900
C  14.37900 1.48100 29.53600
C  15.26400 0.39100 29.68000
C  13.17300 2.65700 27.50400
C  14.15300 1.99100 30.91900
O  13.42200 2.89500 31.30600
C  15.06200 1.17500 31.88000
C  15.99700 2.13400 32.61600
O  16.93900 2.76400 32.20200
O  15.58000 2.15300 33.90900
C  16.16300 3.23700 34.75400
H  19.06700 -4.44400 30.93700
H  18.41100 -3.96900 24.58200
H  14.63000 1.16400 25.57600
H  17.76400 -0.47500 33.05900
H  17.71200 -3.33000 32.86700
H  20.25900 -2.12500 32.05900
H  19.94100 -3.37000 33.32500
H  19.63600 -1.66100 33.64700
H  15.88700 -2.71600 33.76300
H  15.02300 -1.30000 33.35700
H  15.73000 -1.83300 35.78200
H  15.28200 -0.27700 35.28500
H  21.14200 -6.27900 28.85100
H  19.76200 -7.33000 29.12600
H  20.22300 -6.03000 30.28200
H  20.31600 -8.39500 25.69200
H  19.95900 -8.21300 27.42200
H  21.21900 -7.33200 26.80100
H  16.37800 -2.70900 23.37400
H  16.44800 0.23500 23.83200
H  18.30300 -0.52700 22.62800
H  18.12500 -2.16200 21.97400
H  19.11900 -1.81100 23.39300
H  14.84500 -1.19900 22.17900
H  14.41400 0.32400 22.83200
H  13.62500 -2.19600 24.40200
H  12.74400 -1.63400 23.00400
H  12.97600 -0.56800 24.43800
H  12.13500 2.32300 27.47500
H  13.62200 2.82500 26.52500
H  13.22900 3.52400 28.16200
H  14.34700 0.67000 32.52900
H  15.92200 4.16900 34.24300
H  17.22400 3.10800 34.96800
H  15.68200 3.28100 35.73200

