158

Mg 41.05900 7.80700 29.81800
C  42.96300 9.42300 32.29200
C  39.06500 6.30700 32.16700
C  39.44300 6.20700 27.30900
C  43.62200 8.77200 27.49300
N  41.20500 7.69600 32.02400
C  41.87800 8.64500 32.82100
C  41.35600 8.51900 34.29000
C  40.19800 7.48900 34.25500
C  40.15800 7.05700 32.72100
C  40.45100 6.32100 35.17900
C  40.95200 9.93100 34.70400
C  40.63200 9.99400 36.24400
H  41.34100 11.10300 37.06000
N  39.48600 6.55200 29.73900
C  38.71000 6.09000 30.82100
C  37.66700 5.28200 30.29600
C  37.61700 5.41200 28.89700
C  38.87200 6.12600 28.60700
C  36.71900 4.35200 31.11200
C  36.63300 4.81600 27.91400
O  36.78600 4.94100 26.71700
C  35.40200 4.21600 28.37300
N  41.47800 7.40900 27.73500
C  40.65400 6.74900 26.95000
C  41.29000 6.60400 25.54900
C  42.61700 7.33200 25.62200
C  42.54100 7.94200 27.00600
C  41.39900 5.13600 25.06300
C  42.96800 8.26400 24.40300
C  42.29900 9.60500 24.46100
N  42.99200 8.95700 29.81400
C  43.88600 9.22000 28.81700
C  44.96500 9.93600 29.34900
C  44.64800 10.13900 30.69600
C  43.46100 9.44300 30.96000
C  46.28000 10.35800 28.69400
C  45.03000 10.67100 32.02500
O  46.05300 11.27500 32.28100
C  43.83800 10.38700 33.03400
C  44.35000 9.81100 34.30500
O  44.57900 8.64500 34.52300
O  44.60900 10.83200 35.20800
C  45.12700 10.34100 36.48500
H  38.35500 5.98200 32.92900
H  38.97100 5.74500 26.44000
H  44.35600 9.11000 26.75900
H  42.18800 8.22000 34.92800
H  39.28300 8.02900 34.50000
H  39.95400 5.36400 35.02100
H  40.08400 6.58900 36.17000
H  41.50800 6.17400 35.40500
H  40.10800 10.30500 34.12400
H  41.75600 10.64400 34.51900
H  40.76200 9.04800 36.77000
H  39.54800 10.10200 36.27100
H  36.88100 3.32500 30.78400
H  35.66000 4.61100 31.11200
H  37.07400 4.39200 32.14200
H  34.66800 4.37500 27.58300
H  35.06400 4.92900 29.12500
H  35.58700 3.19200 28.69700
H  40.60000 7.10500 24.87000
H  43.40000 6.57500 25.65500
H  40.77900 5.01200 24.17500
H  40.98200 4.46900 25.81800
H  42.41200 4.82700 24.80400
H  42.59600 7.84500 23.46900
H  44.05000 8.32100 24.27800
H  41.51000 9.71500 23.71800
H  43.07200 10.37300 24.42500
H  41.77200 9.80100 25.39400
H  46.10100 10.29200 27.62000
H  47.17900 9.82100 28.99800
H  46.41600 11.41300 28.93100
H  43.21800 11.25700 33.25200
H  46.16200 10.00100 36.51600
H  44.54100 9.56100 36.97100
H  45.18800 11.22000 37.12700
Mg 46.61500 44.86400 43.00900
C  43.38000 43.83800 43.13500
C  47.62500 41.66200 42.66300
C  49.71700 46.02000 42.77200
C  45.47700 48.30200 42.91400
N  45.58300 43.00300 42.79100
C  44.27200 42.73100 42.91700
C  43.96300 41.21600 42.92500
C  45.35500 40.56200 43.04200
C  46.25400 41.79300 42.85200
C  45.58600 39.69100 44.30500
C  43.19200 40.73700 41.73000
C  43.53600 41.34600 40.40500
H  44.00800 40.45900 39.20800
N  48.37900 43.95800 42.66800
C  48.58800 42.62000 42.59500
C  49.96700 42.31900 42.46400
C  50.67800 43.61100 42.50900
C  49.61700 44.59800 42.68100
C  50.61600 40.89500 42.31300
C  52.19600 43.78800 42.39200
O  52.91400 42.81600 42.28600
C  52.85200 45.16300 42.29000
N  47.46500 46.91100 42.77600
C  48.77600 47.00200 42.93900
C  49.17400 48.47500 43.10300
C  47.87300 49.28300 43.10900
C  46.83100 48.09800 42.89500
C  50.07600 48.95300 44.30500
C  47.80000 50.50000 42.10900
C  47.38800 51.86500 42.76100
N  44.87300 45.90300 42.92000
C  44.54400 47.25400 42.86100
C  43.09800 47.37000 42.71900
C  42.61200 46.08000 42.98000
C  43.70800 45.20900 43.04600
C  42.25800 48.60000 42.61200
C  41.38500 45.27600 43.13800
O  40.21200 45.59100 43.29800
C  41.84600 43.79100 43.31600
C  41.41100 43.28800 44.66900
O  41.40800 43.96600 45.70400
O  41.00000 41.95300 44.64500
C  40.37600 41.54400 45.86400
H  47.80900 40.60000 42.49100
H  50.73600 46.39500 42.89100
H  45.02600 49.23800 43.25000
H  43.43000 41.05600 43.86200
H  45.63100 39.92900 42.19900
H  44.59400 39.32000 44.56200
H  46.03800 40.28400 45.10100
H  46.26500 38.84200 44.23500
H  42.11600 40.83700 41.86800
H  43.43300 39.67700 41.65200
H  44.32800 42.09400 40.45200
H  42.76700 42.08800 40.19300
H  51.02200 40.71500 41.31700
H  49.89400 40.09900 42.49700
H  51.46300 40.81400 42.99400
H  52.30200 45.79300 41.59100
H  53.89500 45.01700 42.01200
H  52.85500 45.54800 43.31000
H  49.64200 48.81200 42.17800
H  47.65000 49.53900 44.14400
H  51.11800 48.79900 44.02400
H  49.81400 48.38700 45.19900
H  49.79900 49.97600 44.56000
H  47.10900 50.38600 41.27300
H  48.74300 50.73300 41.61400
H  48.10400 52.67000 42.59300
H  47.40800 51.83700 43.85100
H  46.43600 52.20400 42.35300
H  41.96000 48.57000 41.56400
H  42.71300 49.58000 42.75300
H  41.41300 48.49200 43.29200
H  41.40400 43.10400 42.59400
H  39.55900 42.19500 46.17600
H  41.08700 41.33100 46.66200
H  39.82700 40.61800 45.69300

