158

Mg 43.97400 5.76000 46.38000
C  41.98200 8.81900 46.08500
C  41.12000 4.05700 45.53300
C  45.93100 3.25800 46.00700
C  46.79000 7.98400 46.53700
N  41.78000 6.39900 46.01300
C  41.17200 7.68400 45.86400
C  39.69100 7.59000 45.54200
C  39.40100 6.05300 45.55200
C  40.86100 5.42300 45.75500
C  38.34400 5.62000 46.62800
C  39.39200 8.29300 44.18800
C  40.46300 8.03700 43.05800
H  40.09800 8.17000 41.57300
N  43.61700 3.87200 46.00900
C  42.35600 3.30300 45.64000
C  42.49100 1.87800 45.53100
C  43.88800 1.57300 45.73800
C  44.60900 2.91700 45.95700
C  41.38700 0.95100 45.02000
C  44.56800 0.18100 45.58900
O  43.95200 -0.78300 45.21500
C  45.90000 -0.08800 46.03100
N  46.14300 5.67800 46.32200
C  46.64000 4.45700 46.24100
C  48.14900 4.50800 46.35300
C  48.43600 6.07300 46.55300
C  47.04600 6.65600 46.53300
C  48.82800 3.70900 47.45500
C  49.56400 6.57400 45.61500
C  50.92300 6.91300 46.26200
N  44.35500 7.85500 46.24100
C  45.56400 8.60000 46.45900
C  45.36600 10.02200 46.47100
C  43.91400 10.16700 46.33200
C  43.37000 8.79900 46.24300
C  46.40100 11.13000 46.73800
C  42.82100 11.12300 46.36500
O  42.89400 12.34100 46.48900
C  41.51000 10.25100 46.11200
C  40.58400 10.46100 47.28400
O  40.82000 10.04000 48.39900
O  39.38300 11.10700 46.95900
C  38.34500 11.24600 47.95500
H  40.23800 3.52700 45.16800
H  46.67200 2.46300 45.90100
H  47.71200 8.56900 46.49400
H  39.06500 8.04400 46.31000
H  38.94300 5.65800 44.64500
H  38.02500 6.47400 47.22600
H  38.72800 4.82700 47.27000
H  37.43400 5.18100 46.21900
H  39.38400 9.35600 44.43200
H  38.55600 7.92200 43.59500
H  40.97100 7.09100 43.24100
H  41.12400 8.88400 43.24600
H  41.61800 0.69500 43.98600
H  40.39600 1.37300 45.18800
H  41.51600 0.03400 45.59400
H  45.98600 -1.17100 46.12100
H  46.21700 0.29800 47.00000
H  46.56100 0.24600 45.23100
H  48.47100 4.14800 45.37500
H  48.84600 6.22200 47.55200
H  48.14300 3.67600 48.30200
H  49.70900 4.26700 47.77400
H  49.13500 2.74900 47.03900
H  49.16800 7.46400 45.12700
H  49.72500 5.75100 44.91900
H  51.20800 7.96000 46.15400
H  51.73300 6.29200 45.88100
H  50.90000 6.66200 47.32200
H  46.06500 12.06800 46.29800
H  47.29100 10.84200 46.17800
H  46.63700 11.24000 47.79600
H  40.97200 10.56600 45.21800
H  38.06200 12.23700 48.31200
H  38.64800 10.75300 48.87800
H  37.36900 10.87700 47.63900
Mg 40.48200 9.47900 29.55200
C  42.32400 11.06500 32.12000
C  38.12700 8.41400 31.71000
C  39.06300 7.93200 26.90300
C  43.34800 10.16100 27.53700
N  40.33100 9.64300 31.61500
C  41.14500 10.41200 32.53900
C  40.41600 10.49200 33.81800
C  39.35000 9.38200 33.72200
C  39.27400 9.09200 32.24900
C  39.39400 8.07800 34.56100
C  39.88800 11.92900 34.12000
C  39.44400 12.10700 35.60000
H  40.39600 12.89000 36.53600
N  38.65200 8.52700 29.24900
C  37.83400 8.11800 30.34200
C  36.70300 7.45700 29.76100
C  36.94900 7.40200 28.38200
C  38.21900 7.93700 28.07500
C  35.59300 6.90700 30.66400
C  36.11800 6.71300 27.31100
O  36.51300 6.71100 26.14900
C  34.74800 6.10900 27.71500
N  41.19400 9.07600 27.53200
C  40.36900 8.46200 26.60500
C  40.93400 8.39000 25.17700
C  42.29600 9.24700 25.42800
C  42.29600 9.59100 26.92700
C  41.11600 6.99200 24.64500
C  42.56700 10.46900 24.42500
C  42.00700 11.92000 24.66000
N  42.54200 10.43800 29.70300
C  43.52000 10.60300 28.85600
C  44.51200 11.47000 29.31100
C  44.13900 11.63900 30.69500
C  42.91000 10.93900 30.83800
C  45.60300 12.07100 28.57100
C  44.48700 12.28400 31.94800
O  45.38000 13.06900 32.13500
C  43.28300 11.88800 32.96400
C  43.94300 11.05200 34.05700
O  44.78200 10.18300 33.82300
O  43.64100 11.59400 35.31900
C  44.04000 10.73000 36.46200
H  37.41600 8.10000 32.47700
H  38.64300 7.56600 25.96400
H  44.15800 10.47000 26.87300
H  41.06600 10.21400 34.64800
H  38.42900 9.86900 34.04100
H  40.26800 7.51200 34.24000
H  38.52800 7.44900 34.35700
H  39.36400 8.34600 35.61700
H  38.99200 12.12700 33.53100
H  40.63000 12.68900 33.87600
H  39.32900 11.13500 36.08100
H  38.45000 12.55400 35.60300
H  34.58000 7.03200 30.28100
H  35.54700 7.25700 31.69500
H  35.82100 5.84200 30.62200
H  34.09900 6.94100 27.99100
H  34.85400 5.36300 28.50200
H  34.37400 5.67300 26.78900
H  40.23500 8.99000 24.59500
H  43.15100 8.61200 25.19900
H  42.06800 6.83700 24.13500
H  40.30100 6.78000 23.95300
H  41.06000 6.23200 25.42400
H  42.29000 10.13400 23.42600
H  43.65600 10.42900 24.38500
H  41.12900 11.80800 25.29600
H  41.61400 12.36200 23.74500
H  42.77900 12.57000 25.07100
H  45.35500 12.40700 27.56500
H  46.31700 11.26100 28.42100
H  46.02700 12.97100 29.01700
H  42.78400 12.76900 33.36800
H  44.01200 9.70900 36.08300
H  43.25200 10.77000 37.21400
H  45.06200 10.93300 36.78000

