158

Mg -2.02800 17.50300 27.68300
C  -2.43000 15.25500 30.37600
C  -2.96200 20.04100 29.78400
C  -1.49000 19.56400 25.13400
C  -1.58700 14.76100 25.58900
N  -2.69600 17.58700 29.85800
C  -2.63400 16.57600 30.79700
C  -2.83300 17.15100 32.24800
C  -3.42000 18.60200 31.92200
C  -2.98400 18.81400 30.44300
C  -4.84500 18.81800 32.33000
C  -1.47600 17.12500 33.10800
C  -1.78100 16.35500 34.50100
H  -0.70000 16.35400 35.47600
N  -2.08500 19.55600 27.52600
C  -2.54000 20.42300 28.48200
C  -2.36600 21.76100 27.99300
C  -1.94000 21.64900 26.67400
C  -1.90100 20.18700 26.33300
C  -2.59100 22.95700 28.88200
C  -1.55300 22.71100 25.69100
O  -1.25300 22.57100 24.48700
C  -1.42700 24.11800 26.10300
N  -1.90600 17.22300 25.54600
C  -1.48700 18.20100 24.76600
C  -1.18500 17.63000 23.27900
C  -1.07400 16.11600 23.59800
C  -1.56700 16.02300 25.00800
C  -2.31400 17.93300 22.21200
C  0.30400 15.41700 23.15300
C  1.41300 15.62600 24.16500
N  -2.10900 15.44600 27.80500
C  -1.98800 14.43800 26.90900
C  -2.13500 13.13400 27.56800
C  -2.26200 13.38000 28.94000
C  -2.30800 14.81400 29.05000
C  -1.93500 11.79500 26.93500
C  -2.31500 12.79200 30.20400
O  -2.25900 11.58400 30.53800
C  -2.40400 14.00900 31.15000
C  -1.02000 13.91900 31.79100
O  -0.02700 14.52200 31.50000
O  -1.09400 13.05000 32.88600
C  0.08300 12.64700 33.60100
H  -3.21500 20.89500 30.41500
H  -1.26300 20.26200 24.32500
H  -1.15400 13.93300 25.02300
H  -3.68600 16.66400 32.72100
H  -2.82500 19.37200 32.41300
H  -5.25300 18.10900 33.05100
H  -5.29800 18.76200 31.34100
H  -4.86900 19.82700 32.74100
H  -1.11600 18.13900 33.28100
H  -0.71600 16.58700 32.54000
H  -1.99900 15.29900 34.34100
H  -2.68600 16.74600 34.96700
H  -2.95300 23.83300 28.34300
H  -1.57700 23.12800 29.24100
H  -3.21200 22.80000 29.76400
H  -2.37800 24.64500 26.17200
H  -0.70000 24.60600 25.45400
H  -1.08900 24.00900 27.13400
H  -0.24600 18.04000 22.90600
H  -1.84800 15.66400 22.97800
H  -3.02900 18.63100 22.64700
H  -2.86000 17.04000 21.91100
H  -1.87100 18.40200 21.33300
H  0.53400 15.66300 22.11600
H  0.08000 14.36100 23.00100
H  1.92300 16.54300 23.86900
H  2.12800 14.80600 24.09900
H  1.11700 15.81600 25.19600
H  -2.21200 11.95800 25.89300
H  -2.61600 11.09300 27.41600
H  -0.90400 11.52200 27.16100
H  -3.28600 13.85900 31.77300
H  0.28700 13.29400 34.45400
H  1.00300 12.77000 33.03000
H  0.07800 11.61300 33.94600
Mg 30.89900 58.55200 40.31100
C  28.26800 56.44300 38.87900
C  33.18400 56.35000 38.96900
C  33.28600 60.94600 40.47700
C  28.38300 61.13500 40.67000
N  30.70700 56.61800 38.85900
C  29.53900 55.89500 38.61400
C  29.92900 54.42000 38.15700
C  31.52800 54.33100 38.28100
C  31.87300 55.81600 38.69500
C  32.05000 53.21800 39.22700
C  29.39500 53.93100 36.76500
C  29.73000 54.78000 35.54400
H  28.63300 55.30700 34.64800
N  32.96400 58.61400 39.93100
C  33.74500 57.58000 39.50000
C  35.14200 57.99700 39.39900
C  35.20600 59.34500 39.84700
C  33.76200 59.70800 40.10900
C  36.25600 57.13400 38.84100
C  36.40700 60.27800 39.99500
O  37.47000 59.61700 39.94000
C  36.39400 61.77200 40.15400
N  30.80400 60.73200 40.53600
C  31.93400 61.47800 40.67600
C  31.67300 62.91100 41.02200
C  30.16100 62.89900 41.09900
C  29.70500 61.54300 40.68400
C  32.42100 63.40800 42.37800
C  29.32800 64.05100 40.49600
C  28.28500 64.81100 41.38100
N  28.70500 58.66200 40.17400
C  27.84600 59.78100 40.26800
C  26.49800 59.38100 39.90900
C  26.62200 58.10400 39.34600
C  27.95300 57.71100 39.53700
C  25.24400 60.25500 39.94000
C  25.91300 57.00000 38.69400
O  24.73700 56.99000 38.22900
C  26.93300 55.73700 38.62000
C  26.52900 54.69900 39.63500
O  27.22600 54.27500 40.54500
O  25.27500 54.31900 39.33400
C  24.79100 53.06600 40.00400
H  33.92000 55.58700 38.70700
H  34.08700 61.62800 40.76800
H  27.65000 61.92100 40.86500
H  29.49500 53.73700 38.88800
H  32.07200 54.28100 37.33800
H  32.92200 52.73800 38.78300
H  31.28200 52.48500 39.47300
H  32.43800 53.57400 40.18100
H  28.32900 53.71500 36.69900
H  29.78900 52.94000 36.53800
H  30.56800 54.32200 35.01900
H  30.20900 55.66300 35.96700
H  37.23900 57.53700 38.59800
H  35.93400 56.59800 37.94900
H  36.41200 56.43600 39.66400
H  36.09500 62.03100 41.16900
H  35.78800 62.24800 39.38200
H  37.39300 62.16900 39.97500
H  31.93100 63.57800 40.19900
H  29.98300 62.94900 42.17300
H  33.22300 64.09600 42.11000
H  32.82100 62.59100 42.97800
H  31.74800 64.01500 42.98300
H  28.86700 63.75800 39.55300
H  30.06300 64.80000 40.20100
H  28.53000 65.83900 41.64900
H  28.21900 64.21100 42.28900
H  27.37300 64.77900 40.78500
H  25.53000 61.20300 40.39400
H  24.42300 59.84200 40.52600
H  24.96100 60.48700 38.91400
H  26.84900 55.37100 37.59600
H  25.49900 52.26700 40.22400
H  23.89600 52.72200 39.48600
H  24.59600 53.42700 41.01400

