158

Mg 46.70700 25.73800 28.75000
C  47.60900 27.86900 31.54800
C  46.13100 23.30000 31.08900
C  46.35500 23.80100 26.25400
C  47.91000 28.35200 26.62300
N  46.94400 25.63700 31.10000
C  47.23000 26.64400 31.96000
C  46.98100 26.21700 33.40300
C  46.75200 24.67000 33.28300
C  46.64800 24.49300 31.69100
C  47.84600 23.81500 33.95200
C  45.72300 26.84400 34.15300
C  46.01700 27.56300 35.51900
H  46.70800 26.73700 36.63700
N  46.15900 23.88800 28.65900
C  45.90100 23.04400 29.74300
C  45.54800 21.72900 29.21900
C  45.67800 21.83000 27.81000
C  46.04700 23.23000 27.51600
C  45.11000 20.52000 30.11500
C  45.48300 20.79000 26.77200
O  45.60100 20.94400 25.56900
C  45.32200 19.45500 27.28400
N  46.99100 26.07200 26.64000
C  46.83400 25.04000 25.81000
C  47.16900 25.41600 24.35600
C  47.44500 26.95000 24.51600
C  47.45400 27.15400 26.02000
C  48.32200 24.67300 23.65800
C  46.42000 27.90200 23.81900
C  46.64600 27.98000 22.32800
N  47.56200 27.73300 28.96600
C  47.99700 28.62100 28.00800
C  48.58100 29.70100 28.69200
C  48.39700 29.53700 30.09000
C  47.76200 28.29100 30.20000
C  49.20400 30.94200 28.12800
C  48.61000 30.11700 31.45900
O  48.99100 31.23600 31.74300
C  48.09300 29.00700 32.43600
C  49.19800 28.74900 33.37200
O  50.31500 28.32600 33.03500
O  48.90800 29.07600 34.67100
C  49.77800 28.85400 35.81800
H  46.11900 22.41400 31.72800
H  46.43100 23.11400 25.40900
H  48.06300 29.11600 25.85800
H  47.92800 26.53500 33.84000
H  45.86500 24.31100 33.80500
H  47.59400 23.38800 34.92300
H  48.73600 24.44500 33.92700
H  48.16300 23.11300 33.18100
H  44.92600 26.15300 34.43000
H  45.16900 27.52700 33.50900
H  44.97000 27.76400 35.74300
H  46.43200 28.54500 35.29500
H  44.12400 20.17000 29.81000
H  45.13000 20.79900 31.16800
H  45.83000 19.71600 29.96300
H  46.24600 19.34700 27.85200
H  45.32000 18.73000 26.47100
H  44.35700 19.49700 27.78900
H  46.29800 25.34000 23.70500
H  48.44400 27.20500 24.16200
H  48.68100 23.99800 24.43500
H  49.14300 25.32600 23.36300
H  47.93000 24.09300 22.82300
H  46.48100 28.90700 24.23700
H  45.40300 27.53600 23.96100
H  47.53000 27.46500 21.95200
H  46.68500 29.04100 22.08200
H  45.77700 27.60500 21.78700
H  50.28200 30.82900 28.01200
H  48.95400 31.74700 28.81900
H  48.70600 31.11900 27.17500
H  47.32000 29.42300 33.08200
H  49.40700 29.54300 36.57800
H  50.80500 28.96900 35.47000
H  49.72500 27.79600 36.07400
Mg -6.07600 24.89400 25.08500
C  -4.53700 26.15000 28.11700
C  -7.53500 22.48100 27.10600
C  -6.83600 23.31600 22.33900
C  -3.83900 27.10100 23.35600
N  -5.95400 24.37800 27.30900
C  -5.33900 25.05600 28.32300
C  -5.83900 24.62400 29.64000
C  -6.55800 23.20100 29.32800
C  -6.57600 23.26100 27.77900
C  -5.83700 21.95600 29.89900
C  -6.82000 25.69000 30.26300
C  -6.62500 25.96800 31.73600
H  -5.86900 24.92100 32.58500
N  -7.24700 23.30000 24.78600
C  -7.81500 22.49600 25.70600
C  -8.69500 21.56400 25.01400
C  -8.45400 21.73100 23.63400
C  -7.46000 22.83600 23.51900
C  -9.48100 20.57200 25.79300
C  -8.97100 20.87500 22.41100
O  -8.68700 21.10600 21.24500
C  -10.00600 19.77800 22.59700
N  -5.43700 25.16900 23.14100
C  -5.96200 24.39600 22.10700
C  -5.50700 24.80400 20.74200
C  -4.58500 26.04200 21.02100
C  -4.59100 26.14800 22.61300
C  -4.73100 23.66500 19.99700
C  -5.02300 27.37000 20.28200
C  -4.01400 27.97400 19.37200
N  -4.50300 26.37000 25.52000
C  -3.76700 27.19500 24.70500
C  -2.89100 28.01900 25.47200
C  -3.16300 27.64500 26.81200
C  -4.19900 26.69500 26.78400
C  -1.82200 28.96500 24.83900
C  -2.79400 27.89900 28.22100
O  -1.97200 28.62300 28.69000
C  -3.75600 26.97900 29.06700
C  -2.91200 26.32800 30.09800
O  -2.27200 25.31700 29.88000
O  -2.84800 27.13300 31.23100
C  -1.87500 26.75900 32.28100
H  -8.12900 21.81900 27.74000
H  -7.13400 22.66100 21.51700
H  -3.35300 27.85200 22.73000
H  -4.92800 24.44600 30.21200
H  -7.60500 23.19600 29.62800
H  -4.99900 22.17700 30.56000
H  -5.51100 21.41900 29.00800
H  -6.59400 21.35300 30.40200
H  -7.83200 25.30200 30.14800
H  -6.97900 26.60300 29.69000
H  -7.49100 26.16400 32.36800
H  -6.03800 26.87600 31.87000
H  -8.87100 19.68500 25.96500
H  -10.37100 20.22200 25.27000
H  -9.88300 21.05600 26.68300
H  -9.70600 19.00200 23.30200
H  -10.21700 19.37900 21.60500
H  -10.91600 20.27900 22.92600
H  -6.42400 25.06500 20.21400
H  -3.54900 25.81900 20.76500
H  -3.95700 23.98800 19.30000
H  -5.49100 23.03100 19.53900
H  -4.17100 22.96900 20.62000
H  -5.21300 28.08400 21.08400
H  -5.92700 27.21800 19.69100
H  -3.93500 29.04300 19.56800
H  -4.36500 27.87100 18.34500
H  -3.03500 27.50100 19.44400
H  -2.07200 30.02300 24.92100
H  -1.61800 28.67700 23.80800
H  -0.83400 28.76200 25.25200
H  -4.50400 27.60700 29.55100
H  -0.85300 27.01400 32.00000
H  -1.85200 25.67100 32.35500
H  -2.25400 27.14800 33.22500

