158

Mg 9.12400 3.16300 27.23700
C  10.50500 1.55800 30.07900
C  7.36000 5.31900 29.37400
C  7.59700 4.39700 24.57300
C  10.53600 0.53800 25.19400
N  8.95000 3.34800 29.48600
C  9.62100 2.62400 30.41700
C  9.35800 3.19900 31.79400
C  8.30200 4.32500 31.55600
C  8.21500 4.36500 30.02300
C  6.89500 4.21100 32.29500
C  10.62400 3.66700 32.61200
C  10.34200 4.55600 33.83200
H  10.97500 4.18300 35.15900
N  7.86000 4.82000 26.97800
C  7.21700 5.57100 27.98300
C  6.35300 6.55200 27.33700
C  6.39400 6.27300 25.92000
C  7.32500 5.14900 25.80000
C  5.48000 7.56300 28.10500
C  5.67700 6.86000 24.72500
O  5.69600 6.40700 23.56500
C  4.66800 7.95100 24.98100
N  9.17300 2.55600 25.17400
C  8.30500 3.19200 24.33900
C  8.30000 2.48900 22.94400
C  9.34900 1.39800 23.07300
C  9.73100 1.50400 24.57900
C  6.91900 2.05500 22.34300
C  10.67000 1.72000 22.24100
C  10.95200 0.82400 20.97800
N  10.30100 1.36600 27.50800
C  10.88000 0.49300 26.59700
C  11.70800 -0.46600 27.32300
C  11.67100 0.00700 28.66400
C  10.73800 1.09400 28.73700
C  12.42400 -1.67900 26.81400
C  12.19500 -0.24000 30.00400
O  13.00400 -1.08600 30.46100
C  11.43300 0.74600 30.94900
C  10.73400 0.05800 32.09700
O  9.62100 -0.41800 32.06500
O  11.46500 0.05500 33.38200
C  10.74900 -0.39100 34.49400
H  7.08900 6.19200 29.97200
H  7.18300 4.77300 23.63500
H  10.87200 -0.29300 24.57100
H  8.87900 2.33600 32.25700
H  8.74500 5.29100 31.79600
H  6.85500 3.69400 33.25400
H  6.28400 3.63900 31.59700
H  6.57600 5.22700 32.52900
H  11.24800 4.18800 31.88600
H  11.23000 2.82300 32.94000
H  9.28100 4.48300 34.06900
H  10.57400 5.60600 33.65000
H  5.80500 8.59300 27.96000
H  5.59000 7.44200 29.18300
H  4.47800 7.32800 27.74600
H  4.03600 7.49000 25.74000
H  4.06500 8.18900 24.10500
H  5.13900 8.83700 25.40800
H  8.54300 3.22100 22.17400
H  9.01300 0.37300 22.91600
H  6.97700 0.99200 22.11200
H  6.56000 2.55400 21.44300
H  6.15500 2.19800 23.10800
H  11.51100 1.71400 22.93400
H  10.62500 2.73400 21.84400
H  11.99100 0.49800 21.02100
H  10.81000 1.41600 20.07300
H  10.37300 -0.09900 21.00200
H  12.67400 -2.28000 27.68800
H  13.32500 -1.31100 26.32300
H  11.70400 -2.21400 26.19400
H  12.22000 1.38300 31.35100
H  9.98700 0.37300 34.64500
H  11.24500 -0.38400 35.46500
H  10.23600 -1.33000 34.28500
Mg 36.16600 49.48200 25.98500
C  35.67600 47.61300 28.97700
C  35.84200 52.34500 27.65200
C  35.90900 51.00600 23.06700
C  36.54700 46.47200 24.26100
N  35.76500 49.93300 28.06300
C  35.64300 49.04000 29.14300
C  35.38800 49.82700 30.44100
C  35.70300 51.37800 30.01600
C  35.89200 51.17400 28.48800
C  34.53900 52.35600 30.47500
C  36.33100 49.37600 31.64000
C  35.70200 48.82000 32.86900
H  34.23700 49.17700 33.17900
N  35.85500 51.42200 25.42000
C  35.79400 52.45200 26.28900
C  35.64400 53.66800 25.55400
C  35.60100 53.34900 24.15000
C  35.83500 51.86200 24.16400
C  35.47500 55.01500 26.13700
C  35.41300 54.17600 22.90600
O  35.53800 53.78100 21.77900
C  35.33100 55.71300 23.05400
N  36.00800 48.78500 23.94700
C  35.89000 49.65500 22.94700
C  36.09000 48.97000 21.57300
C  36.50900 47.51200 21.96300
C  36.26700 47.58700 23.46500
C  34.92500 49.01800 20.50900
C  38.00400 47.15800 21.61200
C  38.12300 45.97700 20.60000
N  36.16400 47.38500 26.48200
C  36.39600 46.30900 25.65500
C  36.42600 45.10800 26.45800
C  36.13500 45.56500 27.83000
C  36.01000 46.97900 27.75000
C  36.67100 43.68300 26.08300
C  36.06200 45.12000 29.21100
O  36.27400 44.01600 29.75600
C  35.62500 46.53000 30.01600
C  34.33400 46.28700 30.66700
O  33.29300 46.69200 30.17000
O  34.49700 45.48600 31.78100
C  33.32600 45.18000 32.50000
H  35.92600 53.26500 28.23400
H  35.94400 51.52600 22.10700
H  36.75300 45.63400 23.59100
H  34.34200 49.77500 30.74500
H  36.61600 51.83500 30.39700
H  34.98900 53.16900 31.04600
H  33.93400 51.81200 31.20100
H  33.88500 52.70600 29.67700
H  36.94800 50.19900 31.99900
H  36.86700 48.52700 31.21500
H  36.23800 49.22300 33.72900
H  35.76400 47.73200 32.90100
H  36.29700 55.68100 25.87600
H  35.37700 55.02500 27.22200
H  34.59200 55.45500 25.67400
H  36.26500 56.04600 23.50500
H  34.43600 56.10500 23.53600
H  35.33900 56.05000 22.01700
H  36.94600 49.50600 21.16300
H  35.79700 46.83500 21.49000
H  34.96200 49.86600 19.82400
H  33.92200 49.07000 20.93200
H  35.00900 48.11400 19.90500
H  38.58500 46.90700 22.50000
H  38.42800 48.06600 21.18200
H  38.80700 46.36000 19.84200
H  37.20200 45.81400 20.04000
H  38.39700 45.03500 21.07700
H  37.70300 43.53200 26.40000
H  36.52900 43.48700 25.02100
H  36.04400 43.06200 26.72400
H  36.35700 46.56300 30.82300
H  32.82900 46.12100 32.73500
H  33.54300 44.59300 33.39300
H  32.60800 44.57500 31.94700

