158

Mg 2.35900 -2.08600 44.84700
C  5.68100 -1.33300 44.06200
C  1.59000 0.69600 42.57000
C  -0.81600 -3.00100 44.72200
C  3.38700 -5.12800 46.17200
N  3.58700 -0.52500 43.36100
C  4.88300 -0.48600 43.28300
C  5.33500 0.64700 42.34100
C  4.00900 1.36600 41.90300
C  2.96300 0.48400 42.67900
C  3.89500 2.87000 42.30300
C  6.36700 0.07600 41.24800
C  7.66000 0.86400 41.05000
H  8.03600 1.23700 39.68000
N  0.65100 -1.19200 44.00000
C  0.55000 -0.05600 43.14800
C  -0.77500 0.20100 42.90800
C  -1.57300 -0.81300 43.48200
C  -0.61700 -1.75300 44.09700
C  -1.21000 1.42300 42.21900
C  -3.12600 -0.93600 43.49500
O  -3.88600 -0.14900 42.89700
C  -3.78600 -2.01200 44.19100
N  1.38400 -3.80800 45.42000
C  0.04100 -3.91800 45.40400
C  -0.39800 -5.35500 45.96900
C  0.97300 -5.93600 46.31000
C  2.01200 -4.93400 45.95700
C  -1.30300 -5.19400 47.21700
C  1.19700 -7.42800 45.83900
C  1.57000 -8.53500 46.84900
N  4.13500 -3.00500 45.18500
C  4.45300 -4.25200 45.91900
C  5.86900 -4.27500 46.15300
C  6.36500 -3.15500 45.48600
C  5.32200 -2.44000 44.90800
C  6.68500 -5.30500 46.94000
C  7.58600 -2.46400 45.25500
O  8.69900 -2.75900 45.58100
C  7.20600 -1.16500 44.33000
C  7.62200 0.00200 44.97300
O  7.45100 0.27100 46.14600
O  8.08600 0.86400 43.99500
C  8.15700 2.34100 44.35400
H  1.39600 1.53200 41.89400
H  -1.79300 -3.48100 44.64000
H  3.69200 -6.08600 46.59800
H  5.77800 1.31500 43.08000
H  3.88300 1.37700 40.82100
H  3.37500 3.42100 41.52000
H  4.92900 3.21500 42.30700
H  3.43400 2.91600 43.28900
H  5.80200 0.03600 40.31700
H  6.60200 -0.95700 41.50400
H  8.38200 0.10800 41.36000
H  7.72500 1.74200 41.69300
H  -0.57300 1.65600 41.36600
H  -1.36800 2.24000 42.92200
H  -2.17500 1.09600 41.83300
H  -3.71700 -2.91000 43.57600
H  -4.82000 -1.67100 44.22600
H  -3.40100 -2.08400 45.20800
H  -0.88500 -5.83400 45.12000
H  1.01600 -5.90800 47.39900
H  -1.26800 -4.18500 47.62600
H  -1.07200 -5.89100 48.02200
H  -2.30100 -5.32700 46.80100
H  1.90300 -7.33200 45.01400
H  0.25200 -7.73300 45.39000
H  0.82000 -9.32600 46.86000
H  1.82800 -8.03300 47.78200
H  2.51200 -8.97500 46.52200
H  7.44700 -4.80400 47.53700
H  7.15900 -6.00800 46.25400
H  6.00200 -5.81300 47.62000
H  7.71900 -1.31600 43.38000
H  7.19100 2.81500 44.17800
H  8.84000 2.81800 43.65100
H  8.62600 2.60200 45.30300
Mg 35.91400 48.95400 25.24300
C  36.28900 47.14700 28.07300
C  34.48000 51.53000 26.92400
C  35.26900 50.52500 22.23900
C  37.08800 46.30700 23.31200
N  35.46700 49.23300 27.29400
C  35.76000 48.38900 28.36500
C  35.28600 48.94300 29.68500
C  34.56900 50.27100 29.22300
C  34.81900 50.38000 27.70800
C  33.11900 50.43800 29.76400
C  36.48600 49.11600 30.66400
C  36.25000 48.55600 32.08100
H  34.79600 48.43600 32.59100
N  34.96300 50.76900 24.68900
C  34.52500 51.71600 25.54100
C  34.03000 52.85800 24.82300
C  34.21600 52.56100 23.44600
C  34.84300 51.25800 23.41400
C  33.44700 54.17600 25.45000
C  34.02400 53.41800 22.23600
O  34.32000 53.13500 21.07700
C  33.27400 54.74900 22.41900
N  36.10400 48.50600 23.00200
C  35.84900 49.32100 22.06000
C  36.09300 48.73700 20.63400
C  36.67900 47.42700 20.97600
C  36.58300 47.32500 22.50600
C  34.92700 48.63000 19.60100
C  38.19200 47.25800 20.52100
C  39.33000 47.71200 21.36000
N  36.51600 47.09000 25.58600
C  37.05600 46.14500 24.72500
C  37.35200 44.94200 25.53300
C  37.11300 45.32500 26.81600
C  36.59600 46.59200 26.80300
C  37.94500 43.68600 25.14400
C  37.08100 44.84500 28.22300
O  37.31200 43.75800 28.74500
C  36.63700 46.07600 29.07100
C  35.40400 45.65300 29.86700
O  34.19200 45.76800 29.56400
O  35.84100 44.98600 30.94400
C  34.87400 44.34500 31.76600
H  34.08900 52.40300 27.45200
H  35.10300 50.99200 21.26600
H  37.63900 45.53700 22.76800
H  34.51900 48.34500 30.17700
H  35.14000 51.13200 29.57100
H  32.80600 49.46600 30.14700
H  32.48400 50.61300 28.89500
H  33.08900 51.19300 30.55000
H  36.85700 50.14100 30.67400
H  37.27900 48.49800 30.24300
H  36.78500 49.22300 32.75800
H  36.74100 47.58500 32.02200
H  32.40300 53.95500 25.22500
H  33.86700 55.05600 24.96400
H  33.60200 54.33000 26.51800
H  33.93200 55.45000 22.93300
H  32.38100 54.38000 22.92400
H  32.94500 55.28500 21.52900
H  36.96900 49.23300 20.21600
H  36.13600 46.58500 20.54700
H  35.40000 48.66500 18.62000
H  34.21200 49.45300 19.61600
H  34.41300 47.67300 19.68500
H  38.36400 47.76700 19.57300
H  38.28700 46.18300 20.37200
H  39.02600 48.04300 22.35300
H  39.69500 48.54100 20.75400
H  40.14200 46.99000 21.45200
H  37.32700 42.83500 25.43000
H  38.97300 43.51500 25.46300
H  37.98200 43.74000 24.05600
H  37.43500 46.33300 29.76700
H  35.26600 44.30600 32.78200
H  34.77900 43.27400 31.58800
H  33.87700 44.78600 31.79000

