158

Mg 0.50500 7.74500 25.81400
C  1.51100 9.82000 28.56300
C  0.67700 5.01200 27.91400
C  0.55300 5.64600 23.21300
C  1.30800 10.34100 23.60400
N  1.05600 7.52000 27.90600
C  1.38300 8.43000 28.85300
C  1.24000 7.81900 30.26600
C  1.32100 6.29500 29.97200
C  0.97300 6.26700 28.53300
C  2.65700 5.49500 30.23100
C  -0.06000 8.30000 30.95400
C  0.09400 8.56500 32.47900
H  1.30500 7.94600 33.21200
N  0.35300 5.63300 25.62000
C  0.39200 4.67900 26.58700
C  0.13200 3.40000 25.97900
C  0.06800 3.62100 24.60000
C  0.37200 4.98000 24.39100
C  -0.05300 2.10200 26.75500
C  -0.26800 2.73200 23.35200
O  -0.62500 3.13900 22.21300
C  -0.24100 1.33500 23.62600
N  0.70100 7.97200 23.65200
C  0.70300 6.92100 22.82500
C  0.89200 7.34200 21.33600
C  1.07000 8.86300 21.45900
C  0.99700 9.09800 23.00900
C  2.01300 6.56100 20.58900
C  0.32000 9.80500 20.45700
C  -1.16000 10.06700 20.64900
N  1.10300 9.74500 26.00500
C  1.35400 10.66600 24.99200
C  1.75300 11.87100 25.66100
C  1.75400 11.57900 27.05100
C  1.42800 10.28500 27.20300
C  2.17800 13.18900 25.11800
C  2.09200 12.14500 28.40700
O  2.59600 13.20100 28.69400
C  1.74200 11.03100 29.42300
C  2.85800 10.95500 30.41000
O  3.95000 10.46100 30.31600
O  2.49900 11.51900 31.52700
C  3.31800 11.51700 32.75400
H  0.69400 4.10800 28.52600
H  0.78700 4.96300 22.39400
H  1.77900 11.03700 22.90600
H  2.19400 8.13100 30.69200
H  0.55100 5.74800 30.51600
H  3.34200 6.08400 30.84100
H  3.00200 5.20000 29.24000
H  2.31900 4.56500 30.68900
H  -0.82800 7.52700 30.98300
H  -0.51700 9.18800 30.51500
H  -0.75800 8.12400 32.99600
H  -0.08000 9.63100 32.62900
H  0.82000 1.52200 26.45300
H  -0.92600 1.55500 26.40000
H  -0.00700 2.27600 27.83000
H  0.72000 1.04800 24.05300
H  -0.37100 0.85800 22.65500
H  -1.08300 0.95900 24.20600
H  -0.00700 7.21600 20.73300
H  2.12900 9.06900 21.30500
H  2.45700 7.23400 19.85500
H  1.67500 5.77000 19.91900
H  2.67600 6.11600 21.33100
H  0.56100 9.59000 19.41600
H  0.80400 10.74800 20.71000
H  -1.74100 9.71300 19.79800
H  -1.37800 11.08200 20.98300
H  -1.46500 9.41500 21.46700
H  1.70800 13.45500 24.17100
H  3.25800 13.30900 25.02800
H  1.77700 13.89000 25.85100
H  0.81800 11.36100 29.89800
H  3.75000 12.51800 32.73500
H  4.11100 10.77000 32.78300
H  2.67900 11.50200 33.63700
Mg 7.81200 53.56400 40.38000
C  7.07000 50.14400 39.96000
C  11.02800 52.99400 39.68800
C  8.06200 56.89100 39.93700
C  4.36900 54.09300 41.07700
N  8.86900 51.72800 39.86000
C  8.43500 50.46300 39.70700
C  9.63000 49.52100 39.41300
C  10.89100 50.45100 39.87100
C  10.24300 51.82800 39.78200
C  11.25000 50.08800 41.35900
C  9.87300 48.92000 38.01400
C  9.79600 50.03100 36.87000
H  8.42300 50.21100 36.15500
N  9.30900 54.74700 39.86000
C  10.65200 54.35400 39.72500
C  11.48000 55.52700 39.58300
C  10.58900 56.68700 39.69600
C  9.23300 56.16000 39.85300
C  13.02300 55.37700 39.37700
C  10.99800 58.11500 39.61400
O  12.19600 58.32700 39.42800
C  10.08500 59.32900 39.74100
N  6.33300 55.28800 40.32600
C  6.70200 56.57600 40.13400
C  5.53000 57.54100 40.34800
C  4.39200 56.54700 40.80200
C  5.08200 55.24700 40.73300
C  5.82300 58.72800 41.35400
C  3.09800 56.61500 39.86400
C  1.85100 57.33400 40.37300
N  6.11100 52.41000 40.60200
C  4.82800 52.78000 40.86400
C  4.04000 51.66000 40.90800
C  4.85500 50.54100 40.55000
C  6.14300 51.09700 40.38900
C  2.59400 51.61800 41.14900
C  4.84700 49.09300 40.30100
O  3.95100 48.26800 40.37600
C  6.40500 48.84700 39.90400
C  6.34500 48.15800 38.60400
O  5.78800 48.45700 37.56600
O  6.85400 46.86100 38.82100
C  6.94400 45.97600 37.68400
H  12.09100 52.81800 39.51200
H  8.18800 57.97100 39.83500
H  3.33800 54.34800 41.33000
H  9.57900 48.64500 40.05900
H  11.70400 50.35700 39.15200
H  10.90500 50.87100 42.03400
H  12.33600 50.17700 41.33200
H  10.91300 49.10200 41.67700
H  8.98400 48.29000 37.96200
H  10.87800 48.50100 37.96900
H  10.44000 49.59300 36.10800
H  10.15700 51.02800 37.12400
H  13.54900 56.28600 39.66900
H  13.20700 55.19700 38.31800
H  13.41300 54.61000 40.04600
H  9.39800 59.33000 38.89400
H  10.71700 60.20900 39.62700
H  9.61100 59.37800 40.72200
H  5.26800 57.88400 39.34700
H  4.26300 56.77500 41.86000
H  6.80800 58.64000 41.81200
H  5.11200 58.85800 42.17000
H  5.99500 59.66500 40.82500
H  2.77200 55.59500 39.66300
H  3.40400 56.91100 38.86000
H  1.53000 57.10000 41.38800
H  1.03800 57.17900 39.66300
H  2.11000 58.39300 40.40700
H  2.19900 52.34400 41.86000
H  2.30000 50.68900 41.63700
H  2.10200 51.73800 40.18400
H  6.77900 48.09700 40.60100
H  7.59900 45.14000 37.93000
H  7.39100 46.58900 36.90200
H  5.93000 45.64900 37.45300

