158

Mg 0.99800 7.30000 25.59100
C  1.78500 9.13200 28.45600
C  1.20400 4.40700 27.40900
C  0.92000 5.72800 22.71500
C  1.35600 10.34700 23.79200
N  1.32800 6.86900 27.76500
C  1.57200 7.78900 28.80100
C  1.56400 6.97900 30.19500
C  1.58000 5.48400 29.71900
C  1.38100 5.58300 28.20100
C  2.97400 4.74700 30.11900
C  0.43300 7.39600 31.03300
C  0.81500 7.87300 32.42900
H  2.11000 7.47100 33.17900
N  0.88000 5.31700 25.11300
C  0.93500 4.26200 25.97500
C  0.78500 3.06800 25.22300
C  0.78400 3.38500 23.84500
C  0.88100 4.84600 23.85800
C  0.59300 1.70200 25.89500
C  0.64800 2.46600 22.68000
O  0.49900 2.91200 21.54200
C  0.52900 0.91200 22.79300
N  1.06200 7.94200 23.46900
C  1.01600 7.14000 22.45900
C  0.92000 7.78900 21.12800
C  0.66400 9.32400 21.52600
C  1.05300 9.24400 23.02200
C  2.22300 7.54200 20.17900
C  -0.77800 9.95300 21.27700
C  -0.86300 11.39300 20.73600
N  1.45500 9.31600 25.94700
C  1.53300 10.45800 25.14000
C  1.89800 11.66900 25.91600
C  2.00000 11.10300 27.19600
C  1.73300 9.71700 27.19100
C  1.87700 13.21300 25.51900
C  2.19000 11.53200 28.58800
O  2.40100 12.63300 29.10100
C  1.99300 10.22800 29.45000
C  3.08600 10.08600 30.37900
O  4.16400 9.58100 30.14600
O  2.78500 10.55400 31.63900
C  4.05000 10.80200 32.45900
H  1.23900 3.51300 28.03500
H  0.78000 5.19400 21.77300
H  1.55600 11.28100 23.26100
H  2.50700 7.17000 30.70700
H  0.83300 4.84600 30.19000
H  3.64000 5.36300 30.72200
H  3.48700 4.53900 29.18000
H  2.85400 3.88400 30.77400
H  -0.30300 6.59300 30.99900
H  0.07200 8.35000 30.64700
H  -0.01300 7.93900 33.13500
H  1.00200 8.94600 32.41600
H  -0.29500 1.30800 25.40000
H  0.41400 1.78100 26.96700
H  1.41900 1.03300 25.65200
H  1.44300 0.59500 23.29500
H  0.57300 0.44000 21.81100
H  -0.39600 0.63400 23.29900
H  0.08200 7.38700 20.55800
H  1.40400 9.89600 20.96700
H  2.23600 7.93300 19.16200
H  2.49300 6.48600 20.14900
H  2.98100 8.14200 20.68300
H  -1.46100 9.71400 22.09300
H  -1.30100 9.32700 20.55500
H  -1.22300 11.48800 19.71100
H  0.14200 11.81400 20.70800
H  -1.61200 11.85800 21.37700
H  2.88300 13.60400 25.36900
H  1.35900 13.73200 26.32500
H  1.32400 13.43100 24.60500
H  1.07000 10.33900 30.01900
H  4.77200 11.28600 31.80200
H  4.54600 9.88100 32.76400
H  3.91500 11.45500 33.32200
Mg 48.16000 15.11000 28.32900
C  46.08400 15.26000 31.34500
C  50.30500 17.28200 29.80100
C  49.91400 15.09100 25.50300
C  45.51800 13.48800 26.86900
N  48.09200 16.07500 30.38700
C  47.29500 16.00400 31.44000
C  47.88900 16.65200 32.67700
C  49.19100 17.50900 32.12400
C  49.19300 16.89300 30.63000
C  49.05400 19.05500 32.16600
C  48.33200 15.60800 33.70900
C  47.85100 15.90600 35.19900
H  47.74100 17.25200 35.82600
N  50.00300 15.99200 27.73700
C  50.75300 16.83700 28.49400
C  52.03800 17.14900 27.73300
C  51.92200 16.42700 26.49000
C  50.56500 15.79200 26.52500
C  53.09000 18.04000 28.27300
C  52.95300 16.43700 25.35900
O  52.69100 15.84500 24.32100
C  54.21800 17.19900 25.44400
N  47.72400 14.56100 26.37700
C  48.64100 14.60700 25.37200
C  48.15600 13.92400 24.06600
C  46.78400 13.33100 24.54100
C  46.67100 13.78000 26.06800
C  48.09700 14.76800 22.77200
C  46.56800 11.82900 24.24800
C  47.02800 10.84600 25.33500
N  46.18000 14.42200 28.91300
C  45.27400 13.80400 28.18800
C  44.12200 13.37700 28.95000
C  44.36800 14.00000 30.23900
C  45.58000 14.65700 30.13700
C  43.05600 12.47500 28.51200
C  43.94200 14.09500 31.55600
O  42.95600 13.55000 32.12200
C  45.00200 14.95100 32.34000
C  44.30000 16.15000 32.99400
O  43.35900 16.82700 32.49400
O  44.75900 16.34700 34.24000
C  43.98500 17.24700 35.18900
H  51.07900 17.82300 30.34900
H  50.48100 15.06900 24.57000
H  44.75400 12.82700 26.45300
H  47.05700 17.24600 33.05500
H  50.05600 17.25600 32.73700
H  49.32000 19.45400 31.18700
H  49.61500 19.38700 33.03900
H  48.02600 19.34900 32.37900
H  49.40600 15.42100 33.72400
H  47.88400 14.67400 33.37000
H  48.36400 15.23100 35.88300
H  46.82000 15.56500 35.29100
H  52.57100 18.55400 29.08200
H  53.41200 18.84300 27.60900
H  53.94900 17.46800 28.62300
H  53.94600 18.25300 25.38400
H  54.81300 16.92300 24.57400
H  54.72100 17.07800 26.40400
H  48.73100 13.02900 23.82800
H  45.95400 13.91400 24.14200
H  48.65200 15.69800 22.90000
H  47.13200 15.13200 22.42000
H  48.69800 14.20100 22.06100
H  46.88400 11.54600 23.24400
H  45.50500 11.61500 24.36300
H  46.19100 10.71400 26.02000
H  47.88800 11.16800 25.92300
H  47.32800 9.90800 24.86600
H  43.35500 11.42700 28.48300
H  42.79300 12.67400 27.47300
H  42.11200 12.56400 29.05000
H  45.51200 14.37900 33.11400
H  43.03600 16.80200 35.48600
H  43.88800 18.26700 34.81800
H  44.53600 17.28100 36.12900

