158

Mg 1.36600 8.47500 26.90400
C  2.01000 10.20400 29.98700
C  1.37400 5.49400 28.72600
C  1.16600 6.88600 24.00300
C  2.07300 11.47600 25.27300
N  1.75800 7.94600 29.11500
C  1.74300 8.82000 30.18200
C  1.35700 8.20400 31.48900
C  1.35500 6.64400 31.10600
C  1.48600 6.66500 29.57700
C  2.41100 5.84400 31.92400
C  -0.06700 8.73000 31.96900
C  -0.38800 8.52100 33.45100
H  0.77000 8.02700 34.28900
N  1.37600 6.47600 26.42200
C  1.36600 5.37300 27.29500
C  1.20500 4.22200 26.61400
C  0.90600 4.56600 25.27900
C  1.13400 6.02900 25.16300
C  1.16100 2.90100 27.27000
C  0.48000 3.65600 24.09400
O  0.16600 4.09200 22.97000
C  0.51800 2.16400 24.24300
N  1.82300 9.04300 24.96300
C  1.55000 8.22800 23.92600
C  1.50900 8.99000 22.59600
C  1.70200 10.45600 23.03100
C  1.83600 10.32900 24.53600
C  2.63100 8.52200 21.58800
C  0.48100 11.37300 22.63000
C  -0.89200 10.95900 23.17100
N  1.85500 10.47300 27.48400
C  2.06200 11.60400 26.71200
C  2.32900 12.80300 27.56200
C  2.29300 12.31600 28.86700
C  2.01900 10.88100 28.73100
C  2.44300 14.24000 27.17200
C  2.33800 12.62600 30.26700
O  2.71300 13.68300 30.79300
C  2.16500 11.31400 31.02400
C  3.31100 11.12200 32.01400
O  4.45800 10.99200 31.71300
O  2.83100 11.39600 33.27900
C  3.87900 11.31300 34.31900
H  1.29200 4.59700 29.34200
H  0.89600 6.31500 23.11200
H  2.34500 12.42800 24.81100
H  2.15400 8.33900 32.22000
H  0.38600 6.25700 31.42200
H  3.27600 6.48500 32.09600
H  2.77600 4.98200 31.36600
H  1.89600 5.49200 32.81800
H  -0.80400 8.03400 31.56600
H  -0.27300 9.78700 31.80300
H  -1.24400 7.85600 33.57200
H  -0.71300 9.42500 33.96700
H  0.24300 2.33200 27.12600
H  1.43500 2.79700 28.32000
H  1.80300 2.28100 26.64500
H  1.49800 1.87300 24.62200
H  0.33300 1.63300 23.31000
H  -0.26500 1.88600 24.94900
H  0.53100 8.78700 22.16100
H  2.56200 10.93200 22.56200
H  3.19900 9.31400 21.09900
H  2.29100 7.94500 20.72800
H  3.25100 7.78700 22.10100
H  0.39900 11.37200 21.54400
H  0.59200 12.41500 22.93000
H  -0.62600 10.35300 24.03800
H  -1.39100 10.41800 22.36700
H  -1.48100 11.76700 23.60400
H  1.73100 14.89500 27.67600
H  2.34400 14.28900 26.08800
H  3.43900 14.61700 27.40200
H  1.30600 11.31200 31.69500
H  4.20700 12.31800 34.58400
H  4.72100 10.70000 33.99600
H  3.46200 10.84800 35.21200
Mg 41.34500 41.28500 26.55400
C  40.76600 43.43800 29.38300
C  43.03500 39.11600 28.74500
C  42.31700 39.52700 23.94500
C  40.41800 44.07000 24.49200
N  41.90300 41.31000 28.78200
C  41.39900 42.22100 29.68100
C  41.94400 41.83900 31.07700
C  42.98000 40.66800 30.75700
C  42.52500 40.25000 29.36200
C  44.44500 41.02600 30.82600
C  40.91400 41.46000 32.18100
C  41.09200 42.05500 33.62000
H  39.78900 42.27400 34.35300
N  42.37900 39.48000 26.36900
C  42.96700 38.77300 27.40600
C  43.26900 37.47600 26.82400
C  43.19600 37.61500 25.40500
C  42.67200 38.96500 25.17100
C  43.62100 36.30000 27.65200
C  43.54400 36.61300 24.30100
O  43.29100 36.83800 23.12900
C  44.10700 35.23900 24.63900
N  41.41100 41.78500 24.57900
C  41.70200 40.79400 23.65500
C  41.48400 41.21800 22.21600
C  40.67600 42.50300 22.42500
C  40.87600 42.80700 23.93400
C  42.73800 41.48800 21.33000
C  39.14300 42.39600 22.07100
C  38.40500 41.05700 22.36100
N  40.81600 43.30300 26.80000
C  40.45700 44.30700 25.84300
C  39.91800 45.42200 26.52100
C  40.05500 45.15700 27.92300
C  40.51100 43.81100 28.00700
C  39.29400 46.72900 25.87000
C  39.85200 45.71300 29.27900
O  39.49600 46.82500 29.58200
C  40.26100 44.58000 30.27500
C  41.20800 45.20000 31.24800
O  42.40300 45.41500 30.98600
O  40.58400 45.61700 32.35900
C  41.45700 46.33400 33.25600
H  43.54200 38.39100 29.38400
H  42.62300 38.99800 23.04000
H  39.89200 44.80600 23.88000
H  42.42200 42.75900 31.41600
H  42.78700 39.84100 31.44100
H  44.54800 42.10800 30.90200
H  45.00100 40.91300 29.89500
H  44.91000 40.44900 31.62600
H  40.79800 40.37900 32.11200
H  39.99200 41.91900 31.82200
H  41.73700 42.93100 33.54900
H  41.66600 41.33500 34.20300
H  43.45700 36.34200 28.72900
H  44.69100 36.16000 27.50300
H  42.93200 35.49000 27.41200
H  43.23900 34.72600 25.05500
H  44.87500 35.34700 25.40400
H  44.56600 34.85100 23.73000
H  40.92500 40.43500 21.70400
H  41.16000 43.33600 21.91600
H  43.16300 42.49200 21.36600
H  42.46100 41.35400 20.28500
H  43.55800 40.78400 21.47300
H  39.20700 42.50200 20.98800
H  38.57900 43.25300 22.43800
H  38.07400 40.57500 21.44100
H  37.51100 41.28900 22.94000
H  39.03500 40.36100 22.91500
H  38.75500 46.42900 24.97200
H  40.05100 47.49300 25.69400
H  38.53300 47.06800 26.57300
H  39.36400 44.21100 30.77200
H  41.93400 47.16500 32.73500
H  42.27100 45.71500 33.63300
H  40.89500 46.70900 34.11100

