158

Mg 36.01200 0.76600 29.56200
C  33.76700 1.57900 32.17900
C  38.57300 0.74600 32.02300
C  38.20800 0.65600 27.09200
C  33.44800 1.25500 27.33400
N  36.18100 1.35700 31.90300
C  35.05500 1.46000 32.70200
C  35.53700 1.21400 34.20500
C  37.06100 1.18100 34.10400
C  37.30700 1.02900 32.65900
C  37.82500 2.44900 34.71300
C  34.99400 0.03200 35.07500
C  35.28300 0.02100 36.61600
H  35.80600 1.32800 37.26300
N  38.05000 0.50500 29.56200
C  38.95700 0.55700 30.66000
C  40.27300 0.17700 30.14400
C  40.15700 0.17800 28.74300
C  38.75000 0.52400 28.37200
C  41.48100 0.00800 30.99900
C  41.27000 -0.12600 27.69100
O  41.04700 -0.21000 26.49300
C  42.62900 -0.52900 28.07600
N  35.89500 1.01000 27.62600
C  36.87600 0.88800 26.75800
C  36.52500 0.83900 25.22800
C  34.97200 0.90500 25.30100
C  34.73400 1.06000 26.85700
C  37.17400 1.91000 24.37200
C  34.18700 -0.32200 24.70300
C  34.03500 -1.67300 25.41200
N  33.99700 1.23900 29.68000
C  33.06400 1.49800 28.69800
C  31.78500 1.74500 29.26500
C  32.01300 1.76200 30.60900
C  33.41200 1.52300 30.86900
C  30.52400 1.86900 28.54300
C  31.31200 1.73800 31.89300
O  30.13500 1.75700 32.14100
C  32.46900 1.60300 33.03100
C  32.38000 2.88900 33.78500
O  32.52700 4.05100 33.39500
O  32.17900 2.52100 35.11700
C  32.39600 3.66000 36.03800
H  39.43900 0.50600 32.64400
H  38.80300 0.56500 26.18100
H  32.69100 1.22700 26.54800
H  35.27200 2.14000 34.71500
H  37.43600 0.24400 34.51800
H  37.22200 3.35000 34.59600
H  38.78300 2.50300 34.19600
H  38.18000 2.33800 35.73800
H  35.36700 -0.87000 34.59100
H  33.92500 0.15500 34.89900
H  36.05100 -0.75300 36.61400
H  34.38000 -0.27900 37.14700
H  42.27300 -0.66200 30.66500
H  41.16000 -0.29400 31.99600
H  42.00800 0.93900 31.21000
H  43.03300 0.00600 28.93600
H  43.28500 -0.27300 27.24500
H  42.61700 -1.55700 28.43800
H  36.83300 -0.15900 24.91700
H  34.63900 1.81500 24.80100
H  37.82300 2.48700 25.03100
H  36.47000 2.64000 23.97100
H  37.82200 1.41800 23.64700
H  34.65300 -0.58400 23.75400
H  33.17700 -0.01400 24.43000
H  34.54900 -2.26200 24.65200
H  33.01100 -2.00400 25.58300
H  34.66200 -1.76800 26.29800
H  30.75300 1.54500 27.52800
H  30.00200 2.82500 28.57600
H  29.78600 1.10700 28.79600
H  32.21400 0.72400 33.62300
H  32.32300 3.28700 37.06000
H  31.60200 4.39600 35.91200
H  33.36000 4.16600 35.98000
Mg 7.96100 49.10200 24.95100
C  6.04600 48.90800 28.07800
C  10.62800 50.30500 26.76900
C  9.70700 48.84800 22.25300
C  4.98800 48.32400 23.16900
N  8.24800 49.48500 27.15500
C  7.42000 49.31300 28.24600
C  8.15000 49.78600 29.53100
C  9.50300 50.42400 28.98700
C  9.47200 50.02600 27.51700
C  9.39700 51.98200 29.13600
C  8.38500 48.64500 30.61700
C  8.03800 49.11500 32.10500
H  8.37200 48.23600 33.24900
N  9.92400 49.59500 24.51600
C  10.88200 50.01100 25.40300
C  12.13300 50.18800 24.72000
C  11.95300 49.60300 23.38800
C  10.49200 49.33800 23.32100
C  13.44900 50.59500 25.46300
C  12.94100 49.28100 22.31200
O  12.70800 48.75900 21.24300
C  14.44500 49.59400 22.55300
N  7.49200 48.42400 23.03500
C  8.36600 48.56100 22.05600
C  7.78900 48.04000 20.69000
C  6.22900 48.16600 20.99400
C  6.19200 48.37900 22.49600
C  8.21300 48.73400 19.39800
C  5.50300 46.85800 20.55500
C  4.48800 47.09700 19.52600
N  5.98500 48.64400 25.45300
C  4.90900 48.32800 24.60100
C  3.67800 48.08900 25.45000
C  4.16400 48.27300 26.82300
C  5.49200 48.66800 26.78700
C  2.35200 47.86000 25.05600
C  3.70300 48.15200 28.16600
O  2.58800 47.84400 28.60200
C  4.93900 48.66700 29.07800
C  5.18700 47.50000 30.04200
O  5.59100 46.39300 29.73900
O  4.73900 47.80400 31.26300
C  4.82000 46.79700 32.36200
H  11.42000 50.64600 27.44000
H  10.25500 48.57800 21.34700
H  4.11900 48.13900 22.53500
H  7.57600 50.57600 30.01600
H  10.35900 49.96700 29.48200
H  9.60900 52.43400 28.16700
H  10.19700 52.23100 29.83300
H  8.46300 52.37400 29.53900
H  9.40900 48.27400 30.57900
H  7.73600 47.79100 30.42800
H  6.95100 49.04200 32.09700
H  8.31500 50.15900 32.24900
H  13.94600 49.63200 25.35100
H  13.25700 50.70600 26.53000
H  14.09700 51.38500 25.08400
H  14.66800 50.64500 22.73800
H  14.98600 49.38900 21.63000
H  14.72400 48.92900 23.37000
H  8.10200 46.99800 20.75800
H  5.80100 49.02500 20.47600
H  8.97300 49.50600 19.51700
H  7.33200 49.22100 18.97800
H  8.50000 47.90100 18.75600
H  5.02800 46.31900 21.37500
H  6.17400 46.15500 20.06200
H  3.52700 47.44500 19.90400
H  4.33300 46.14000 19.02800
H  4.72500 47.90600 18.83500
H  2.48700 47.49700 24.03700
H  1.83700 48.82000 25.08200
H  1.91200 47.13700 25.74400
H  4.72300 49.59400 29.60900
H  5.01000 47.37400 33.26700
H  5.71200 46.17400 32.30500
H  3.86600 46.29800 32.53200

