158

Mg 44.32000 3.18200 48.20200
C  42.11300 5.79900 47.37600
C  41.58500 1.05000 47.58400
C  46.42200 0.56700 48.14600
C  47.08400 5.44400 47.67700
N  42.06700 3.45800 47.41300
C  41.37700 4.59500 47.37700
C  39.87800 4.29100 46.99700
C  39.72600 2.81900 47.38500
C  41.22900 2.37900 47.41000
C  38.98500 2.55600 48.78000
C  39.61300 4.63800 45.50900
C  38.68600 5.80600 45.20900
H  39.03100 6.79400 44.01600
N  44.03400 1.04700 48.11600
C  42.84800 0.38100 47.88500
C  43.16200 -1.00700 47.88900
C  44.51500 -1.20100 47.97700
C  45.08600 0.15600 48.09600
C  42.10900 -2.02500 47.70500
C  45.34100 -2.49800 47.94100
O  44.80500 -3.60700 47.80600
C  46.81900 -2.55400 48.16100
N  46.39400 3.09900 48.07300
C  47.03800 1.89000 48.11600
C  48.59600 2.01600 47.87700
C  48.82800 3.54400 47.99300
C  47.37100 4.06100 47.89700
C  49.43000 1.27900 48.94300
C  49.86900 4.17400 47.06300
C  51.05100 3.24300 46.53900
N  44.57400 5.23100 47.70200
C  45.76400 6.06300 47.61000
C  45.27700 7.39400 47.38000
C  43.89200 7.31600 47.26500
C  43.54000 5.96200 47.43600
C  46.33400 8.51400 47.08800
C  42.82000 8.17600 47.04400
O  42.76500 9.42900 46.98100
C  41.57400 7.18900 47.07700
C  40.70000 7.74700 48.16000
O  40.70500 7.29000 49.29400
O  39.88400 8.75200 47.64500
C  38.66800 9.01900 48.47200
H  40.72600 0.40200 47.39900
H  47.28200 -0.10500 48.09400
H  47.89600 6.16100 47.53600
H  39.34100 4.98200 47.64600
H  39.24500 2.10800 46.71400
H  38.67900 3.46000 49.30800
H  39.72500 2.04000 49.39200
H  38.22900 1.77300 48.71800
H  39.20700 3.77300 44.98500
H  40.61300 4.69900 45.08100
H  38.55000 6.41400 46.10300
H  37.75100 5.36400 44.86200
H  41.17400 -1.64300 47.29600
H  41.99500 -2.61400 48.61500
H  42.32100 -2.83400 47.00500
H  47.42900 -2.05300 47.41000
H  47.10100 -3.60700 48.17400
H  47.03500 -2.16000 49.15400
H  48.93100 1.81700 46.85900
H  49.16000 3.75700 49.00900
H  48.81800 1.02800 49.80900
H  50.21500 1.91500 49.35200
H  49.93200 0.45800 48.43200
H  50.32200 4.97800 47.64300
H  49.39100 4.68200 46.22600
H  51.33900 2.59500 47.36700
H  51.95900 3.78700 46.27800
H  50.72000 2.75400 45.62300
H  47.22900 8.19500 46.55400
H  46.59200 9.00300 48.02700
H  45.82300 9.26300 46.48300
H  41.10600 7.33100 46.10200
H  38.53100 8.66800 49.49500
H  37.81500 8.54700 47.98600
H  38.36800 10.06600 48.42400
Mg 40.21600 8.12300 29.18900
C  41.92000 9.24200 31.93500
C  37.80700 6.75900 31.20500
C  38.97300 6.24300 26.52900
C  42.93100 8.94200 27.19500
N  39.93100 8.03800 31.30300
C  40.69600 8.69500 32.23700
C  40.02300 8.75400 33.59000
C  38.73000 7.82700 33.41900
C  38.78000 7.52700 31.86400
C  38.70700 6.59500 34.30900
C  39.72100 10.20700 34.10900
C  38.87800 10.25400 35.37400
H  39.29500 11.16500 36.56600
N  38.48900 6.76700 28.86900
C  37.62900 6.43600 29.86600
C  36.55700 5.65500 29.29100
C  36.86600 5.49000 27.88900
C  38.16600 6.17700 27.71100
C  35.36800 5.16500 30.15700
C  36.22000 4.61700 26.84800
O  36.61100 4.44300 25.70300
C  34.91200 3.89100 27.21400
N  40.81000 7.64700 27.14800
C  40.12400 6.96700 26.23800
C  40.74300 6.96400 24.80600
C  41.89700 7.92700 25.09000
C  41.84100 8.30400 26.54300
C  41.16400 5.53800 24.25500
C  41.87200 9.16000 24.07800
C  40.91000 10.33200 24.40300
N  42.04900 8.93200 29.46200
C  43.02700 9.23200 28.59400
C  44.16100 9.78400 29.26300
C  43.78100 9.88300 30.56200
C  42.52800 9.28800 30.63400
C  45.46000 10.26500 28.64100
C  44.15600 10.32200 31.84600
O  45.14600 10.88700 32.31400
C  42.90300 10.07900 32.79100
C  43.45200 9.19500 33.86800
O  44.18100 8.20800 33.69100
O  42.75500 9.47800 35.09600
C  43.12300 8.76800 36.26500
H  37.00700 6.40800 31.86000
H  38.54200 5.72100 25.67200
H  43.79300 9.25500 26.60300
H  40.71600 8.25500 34.26800
H  37.75600 8.29200 33.56600
H  39.38800 6.77100 35.14200
H  39.06400 5.74700 33.72500
H  37.73300 6.41800 34.76500
H  39.01600 10.59900 33.37500
H  40.62800 10.77900 34.30600
H  38.77200 9.21200 35.67700
H  37.87300 10.61100 35.14800
H  34.46200 5.38200 29.59100
H  35.18800 5.68300 31.09800
H  35.35800 4.10300 30.40400
H  34.57800 3.11100 26.52900
H  34.10100 4.55700 27.50800
H  35.16600 3.31100 28.10100
H  40.04400 7.32600 24.05200
H  42.81100 7.35700 24.92200
H  40.34100 5.12600 23.67100
H  41.21900 4.78100 25.03700
H  42.12100 5.56200 23.73300
H  41.68500 9.00700 23.01500
H  42.87800 9.56100 24.20200
H  41.42700 11.28800 24.49000
H  40.37200 10.21700 25.34400
H  40.15100 10.40800 23.62500
H  45.34000 10.74200 27.66800
H  46.14200 9.47100 28.33600
H  45.93900 10.83800 29.43400
H  42.58400 11.08500 33.06400
H  42.44200 7.93700 36.44900
H  42.83500 9.49300 37.02600
H  44.17400 8.48500 36.31900

