158

Mg -1.98700 17.35500 26.47400
C  -2.50800 15.01500 29.11300
C  -2.78000 19.84400 28.72500
C  -1.67000 19.41500 23.99000
C  -1.54600 14.53300 24.33500
N  -2.45500 17.36200 28.72600
C  -2.63400 16.33100 29.55200
C  -3.09900 16.85300 30.95500
C  -3.45000 18.37800 30.65700
C  -2.87900 18.59400 29.28900
C  -4.99600 18.67400 30.77800
C  -2.03000 16.59300 32.02700
C  -2.61100 16.10500 33.34200
H  -1.66800 15.89900 34.45500
N  -2.06000 19.39300 26.43000
C  -2.26900 20.24900 27.46800
C  -1.96500 21.61200 27.01200
C  -1.70100 21.43000 25.60800
C  -1.83700 20.03600 25.26900
C  -2.01200 22.77400 27.88800
C  -1.28800 22.47100 24.61900
O  -0.96300 22.27300 23.41400
C  -1.09200 23.79500 25.08900
N  -1.82500 16.97900 24.43200
C  -1.64600 18.03100 23.56500
C  -1.39500 17.57300 22.15600
C  -1.13400 16.07800 22.38100
C  -1.63700 15.84800 23.80200
C  -2.50800 17.91900 21.12900
C  0.36400 15.63200 22.14100
C  1.33500 15.52900 23.40300
N  -2.12800 15.20400 26.58200
C  -1.93500 14.19800 25.61900
C  -2.25500 12.91600 26.22700
C  -2.45300 13.15900 27.54400
C  -2.30800 14.57600 27.76500
C  -2.17300 11.62900 25.57900
C  -2.70600 12.53900 28.82600
O  -2.82000 11.38800 29.20800
C  -2.77400 13.70600 29.89400
C  -1.63000 13.49000 30.90400
O  -0.45500 13.75700 30.68300
O  -2.05100 12.87400 32.03500
C  -1.21800 12.63000 33.20100
H  -2.89500 20.65400 29.44700
H  -1.43700 20.06000 23.14000
H  -1.32000 13.70700 23.65800
H  -4.03100 16.29600 31.05400
H  -2.93500 19.00600 31.38300
H  -5.38100 19.30500 29.97800
H  -5.24000 19.17200 31.71700
H  -5.62300 17.79000 30.65700
H  -1.58600 17.56400 32.24600
H  -1.11000 16.06900 31.76600
H  -3.02900 15.15000 33.02500
H  -3.32500 16.87200 33.64000
H  -2.29300 22.50300 28.90500
H  -2.83300 23.44200 27.62700
H  -1.10100 23.36800 27.96100
H  -1.96200 24.20800 25.59900
H  -0.99800 24.41200 24.19500
H  -0.13400 23.92000 25.59300
H  -0.48800 18.06900 21.80800
H  -1.81200 15.45800 21.79400
H  -3.13500 18.73200 21.49500
H  -3.17400 17.06500 21.00200
H  -2.03300 18.15900 20.17800
H  0.87800 16.38600 21.54600
H  0.31400 14.73400 21.52600
H  0.87900 16.03800 24.25200
H  2.31600 16.00000 23.34400
H  1.50200 14.45900 23.53000
H  -1.17800 11.33700 25.24300
H  -2.79800 11.53300 24.69100
H  -2.51700 10.89300 26.30500
H  -3.70700 13.70600 30.45700
H  -1.60400 13.33200 33.94100
H  -0.14200 12.68200 33.04000
H  -1.41700 11.61500 33.54400
Mg 0.93300 43.54200 25.76700
C  3.08900 43.36500 28.43200
C  -1.68300 43.52700 28.02800
C  -1.04600 42.73900 23.32200
C  3.57600 43.96300 23.65700
N  0.73200 43.41900 27.97200
C  1.75700 43.31000 28.85000
C  1.29300 43.39200 30.29700
C  -0.30400 43.23700 30.16600
C  -0.38100 43.45300 28.64200
C  -0.94600 41.79900 30.50700
C  1.67900 44.66700 31.08300
C  1.76000 44.68200 32.65900
H  1.27100 43.46700 33.39200
N  -1.07000 43.31500 25.64300
C  -1.99600 43.38600 26.64100
C  -3.29700 43.16000 26.11400
C  -3.23700 42.77600 24.71400
C  -1.76600 42.92400 24.48300
C  -4.50100 43.12200 27.05800
C  -4.32800 42.22900 23.82400
O  -4.06700 41.79700 22.71700
C  -5.75000 42.06300 24.29500
N  1.22900 43.16300 23.67500
C  0.22400 42.89800 22.85900
C  0.81000 42.76800 21.40000
C  2.13000 43.66800 21.59900
C  2.35000 43.60700 23.07300
C  1.12100 41.24100 20.96800
C  2.02900 45.12000 21.23100
C  3.31000 45.72800 20.48100
N  2.92200 43.59000 25.95700
C  3.94300 43.85300 25.05100
C  5.26700 43.78900 25.65000
C  4.91400 43.49900 26.97500
C  3.57000 43.45500 27.11800
C  6.59800 43.89600 24.92900
C  5.49700 43.29800 28.26800
O  6.65000 43.10600 28.64900
C  4.25300 43.39200 29.31500
C  4.39000 42.17600 30.19500
O  4.06700 41.04700 29.82200
O  5.01000 42.43900 31.38400
C  5.07300 41.26900 32.24400
H  -2.43900 43.70200 28.79600
H  -1.67800 42.44000 22.48300
H  4.42800 44.19800 23.01600
H  1.83500 42.57400 30.77300
H  -0.86400 44.02000 30.67800
H  -1.56400 41.42900 29.68900
H  -1.63500 41.89200 31.34700
H  -0.08800 41.15600 30.70300
H  0.95100 45.45700 30.90000
H  2.68600 44.95600 30.78100
H  1.36300 45.60600 33.07800
H  2.79600 44.76100 32.98800
H  -5.24400 43.74000 26.55400
H  -4.36100 43.60100 28.02700
H  -4.89100 42.11100 27.17400
H  -5.79200 41.31000 25.08200
H  -6.27500 41.67800 23.42100
H  -6.10600 43.00900 24.70500
H  0.15400 43.23200 20.66400
H  2.91000 43.18400 21.01100
H  2.18700 41.11000 20.78300
H  0.48500 41.02600 20.10900
H  0.88700 40.52500 21.75600
H  1.65800 45.69900 22.07700
H  1.29100 45.21900 20.43600
H  3.24500 46.78900 20.72100
H  3.41500 45.49600 19.42100
H  4.19000 45.30200 20.96300
H  7.42100 43.56900 25.56500
H  6.69100 44.90700 24.53400
H  6.53900 43.27800 24.03300
H  4.50300 44.24000 29.95200
H  5.65600 40.54000 31.68200
H  4.04500 40.96100 32.43200
H  5.62500 41.61800 33.11700

