158

Mg 48.10500 15.66200 27.87900
C  46.21100 15.55400 30.86800
C  50.47400 17.55000 29.31100
C  49.65700 16.05600 24.69700
C  45.34800 14.52200 26.18900
N  48.32300 16.51900 29.84900
C  47.48700 16.26400 30.95200
C  48.15500 16.75700 32.25900
C  49.32600 17.61900 31.65300
C  49.42500 17.19400 30.18300
C  49.19200 19.16800 31.80300
C  48.56500 15.56800 33.27500
C  48.47700 15.94400 34.76100
H  48.44100 17.44100 35.20800
N  49.90200 16.51300 27.16600
C  50.80000 17.12800 27.98300
C  52.05900 17.25800 27.25800
C  51.81100 16.93000 25.86400
C  50.37400 16.50800 25.84400
C  53.18500 17.89300 27.99200
C  52.76600 16.99900 24.73700
O  52.47600 16.71700 23.60500
C  54.24000 17.40400 24.95400
N  47.66300 15.25600 25.73600
C  48.41200 15.55300 24.63900
C  47.63600 15.37100 23.29600
C  46.28500 14.73600 23.85000
C  46.44400 14.79500 25.35100
C  47.44300 16.74700 22.56100
C  45.98400 13.34800 23.31200
C  44.71600 13.26600 22.42300
N  46.22500 14.98200 28.42000
C  45.23300 14.54600 27.63500
C  44.05300 14.16000 28.40400
C  44.39600 14.56500 29.75400
C  45.69200 15.07900 29.62300
C  42.84500 13.54900 27.85500
C  43.98800 14.66400 31.12800
O  42.90400 14.37100 31.56600
C  45.24200 15.22400 31.91000
C  44.86000 16.45300 32.59700
O  44.75100 17.57200 32.06800
O  44.84600 16.26300 33.94900
C  44.40600 17.50700 34.61200
H  51.20200 18.16000 29.84900
H  50.03900 16.21100 23.68600
H  44.47400 14.09100 25.69700
H  47.37500 17.40100 32.66600
H  50.23300 17.22700 32.11300
H  49.08300 19.56600 30.79400
H  50.06200 19.60100 32.29600
H  48.29800 19.41700 32.37400
H  49.55500 15.20800 32.99400
H  47.93200 14.69100 33.13700
H  49.29000 15.49900 35.33600
H  47.61800 15.40300 35.15900
H  53.49500 18.88000 27.64700
H  54.05100 17.24300 27.86700
H  53.03500 17.96700 29.06900
H  54.79200 16.78100 25.65800
H  54.33300 18.44400 25.26800
H  54.72300 17.36500 23.97800
H  48.13300 14.68200 22.61300
H  45.42600 15.35900 23.60000
H  47.85800 17.49600 23.23600
H  46.36600 16.87600 22.45100
H  48.00100 16.74700 21.62500
H  45.80100 12.60400 24.08700
H  46.83100 13.06600 22.68700
H  43.83600 13.06400 23.03400
H  44.88200 12.43700 21.73500
H  44.50900 14.21100 21.92100
H  42.12100 13.48600 28.66700
H  43.03500 12.49100 27.67800
H  42.43700 14.07400 26.99100
H  45.55500 14.55500 32.71100
H  44.21700 17.21800 35.64500
H  43.51000 17.88700 34.12000
H  45.15100 18.29900 34.68900
Mg 0.56000 43.70400 26.40200
C  2.46500 43.08800 29.46800
C  -2.23900 43.36100 28.29400
C  -1.03400 43.24700 23.54500
C  3.64800 43.50100 24.75700
N  0.24600 43.14000 28.62100
C  1.09000 43.10700 29.66700
C  0.30300 42.91300 30.99100
C  -1.17500 42.74800 30.42100
C  -1.03200 43.20300 29.03700
C  -1.65100 41.27300 30.45500
C  0.47300 44.02700 31.98500
C  0.54700 43.79500 33.50000
H  0.24600 42.39200 34.04600
N  -1.40700 43.46000 25.98300
C  -2.42200 43.39200 26.89400
C  -3.72300 43.40900 26.13300
C  -3.40600 43.41500 24.80300
C  -1.87000 43.26600 24.68400
C  -5.05000 43.46900 26.91300
C  -4.34000 43.43700 23.58800
O  -3.85500 43.31700 22.45500
C  -5.78200 43.50700 23.74700
N  1.19800 43.44700 24.45300
C  0.34700 43.26600 23.38500
C  1.13500 43.20900 21.99400
C  2.56000 43.45000 22.42500
C  2.50200 43.48700 23.99200
C  0.83800 41.95500 21.04100
C  3.32800 44.82000 22.04500
C  4.19900 44.77600 20.78800
N  2.62600 43.49400 26.94000
C  3.77000 43.42700 26.12800
C  4.93100 43.33500 26.95100
C  4.43900 43.15000 28.26100
C  3.06400 43.19500 28.18700
C  6.39000 43.27800 26.59200
C  4.86600 42.93800 29.64600
O  5.98500 42.86300 30.06200
C  3.58300 42.98500 30.51400
C  3.58300 41.68700 31.20300
O  3.53600 40.49400 30.81400
O  3.78300 42.01400 32.55700
C  4.21000 40.96100 33.49700
H  -3.14800 43.26700 28.89100
H  -1.59400 43.10700 22.61800
H  4.50400 43.38300 24.08900
H  0.45700 41.95200 31.48100
H  -1.90300 43.31200 31.00400
H  -0.86500 40.64100 30.86800
H  -2.03300 40.89400 29.50700
H  -2.45800 41.04900 31.15300
H  -0.29800 44.78200 31.82900
H  1.42400 44.52300 31.79400
H  -0.02800 44.57300 34.00200
H  1.55300 44.01200 33.85700
H  -5.81500 44.12500 26.49800
H  -4.91200 43.69100 27.97100
H  -5.31800 42.41700 26.81400
H  -6.28400 43.84700 22.84200
H  -5.99400 44.25500 24.51200
H  -6.10000 42.50900 24.04800
H  0.89300 44.06300 21.36200
H  3.22900 42.61400 22.22000
H  0.49600 42.30500 20.06700
H  0.03800 41.32000 21.42100
H  1.73000 41.34700 20.89000
H  3.78000 45.29400 22.91600
H  2.53500 45.55700 21.91200
H  5.14600 45.30200 20.91200
H  3.54200 45.36800 20.15100
H  4.40000 43.79100 20.36700
H  6.54500 43.89100 25.70500
H  6.62400 42.24000 26.35700
H  6.94800 43.75200 27.40000
H  3.53500 43.86500 31.15500
H  3.53000 40.12600 33.33300
H  4.02100 41.32300 34.50800
H  5.26700 40.70000 33.54200

