158

Mg 47.92100 25.28600 27.81200
C  48.74600 27.76800 30.14500
C  46.92200 23.22500 30.14800
C  47.47500 22.93700 25.32600
C  49.17000 27.54100 25.32800
N  47.97100 25.43900 29.97600
C  48.17200 26.56000 30.73600
C  47.81600 26.29300 32.21100
C  47.44300 24.71100 32.19800
C  47.39600 24.42700 30.67800
C  48.44700 23.75200 32.91000
C  46.80700 27.23900 32.80600
C  46.12700 26.87600 34.17600
H  45.93500 27.90100 35.33400
N  47.24500 23.32900 27.74600
C  46.76500 22.63600 28.82600
C  46.01500 21.40200 28.47500
C  46.16400 21.39700 27.04700
C  46.96500 22.55100 26.57400
C  45.42300 20.50300 29.43000
C  45.46400 20.42800 26.03300
O  45.46300 20.66800 24.82600
C  44.57700 19.40600 26.57400
N  48.37400 25.20200 25.58200
C  48.00100 24.14200 24.86300
C  48.30500 24.47900 23.42900
C  48.57500 26.01000 23.36200
C  48.72800 26.31400 24.77000
C  49.33100 23.57800 22.60500
C  47.45600 26.84900 22.80600
C  47.84700 27.93400 21.78700
N  48.83300 27.19400 27.67100
C  49.34900 27.92300 26.65000
C  50.00500 29.08400 27.11300
C  49.84300 29.09400 28.46200
C  49.08700 27.92700 28.80200
C  50.70000 30.14100 26.37300
C  50.13700 29.81500 29.69600
O  50.77600 30.84500 29.85300
C  49.35800 29.04900 30.86700
C  50.26900 28.59100 31.94500
O  51.08200 27.67100 31.89600
O  50.20500 29.45100 33.05000
C  51.10600 29.24900 34.18000
H  46.46100 22.71000 30.99300
H  47.24700 22.19900 24.55500
H  49.49900 28.22700 24.54400
H  48.75500 26.33400 32.76200
H  46.47400 24.45600 32.62600
H  48.90400 23.07900 32.18400
H  47.88700 23.03900 33.51500
H  49.20800 24.29000 33.47500
H  45.91500 27.13300 32.18700
H  47.21600 28.24400 32.90900
H  46.80100 26.16200 34.65000
H  45.11400 26.53000 33.97400
H  46.05700 19.67300 29.74500
H  44.47200 20.21500 28.98300
H  45.17200 21.03900 30.34500
H  44.38700 18.85000 25.65600
H  43.69200 20.01700 26.75100
H  44.96700 18.84100 27.42000
H  47.32900 24.33000 22.96700
H  49.54800 26.21800 22.91500
H  48.78500 23.23900 21.72400
H  49.60300 22.67900 23.15700
H  50.23200 24.11100 22.30200
H  46.85200 27.39900 23.52700
H  46.71600 26.27300 22.25000
H  47.39700 27.71900 20.81700
H  48.92400 28.02800 21.64900
H  47.50000 28.89500 22.16700
H  51.02900 29.76500 25.40400
H  51.49400 30.62100 26.94400
H  49.97900 30.88300 26.02800
H  48.55500 29.71000 31.19300
H  50.87300 28.38000 34.79600
H  51.05100 30.14400 34.79900
H  52.14100 29.07000 33.89200
Mg 17.83100 52.82200 26.48200
C  19.53900 51.03200 28.85500
C  15.36000 53.47700 28.73700
C  16.06500 54.21400 23.93300
C  20.18300 51.71600 24.03400
N  17.47800 52.28400 28.57300
C  18.36500 51.62000 29.36100
C  17.94700 51.69900 30.79400
C  16.46800 52.15000 30.68400
C  16.36000 52.69800 29.25000
C  15.39900 51.05100 31.17200
C  18.92400 52.66500 31.57700
C  18.77200 52.70800 33.09200
H  17.58400 51.97800 33.81600
N  16.06100 53.86300 26.36600
C  15.18500 54.01400 27.43400
C  14.05500 54.74400 26.96300
C  14.30300 55.05800 25.61200
C  15.50000 54.37800 25.20500
C  12.84100 55.05400 27.86600
C  13.41700 56.01000 24.69200
O  13.66300 56.26400 23.51300
C  12.24100 56.67700 25.38900
N  18.14500 53.14900 24.41200
C  17.20500 53.67300 23.53200
C  17.60100 53.41400 22.09400
C  18.95800 52.65700 22.14600
C  19.13100 52.51000 23.60500
C  16.44500 52.77100 21.23700
C  20.03000 53.54600 21.43400
C  20.33400 54.83200 22.21600
N  19.54000 51.59200 26.34300
C  20.44900 51.26700 25.37300
C  21.60400 50.59400 25.95100
C  21.23900 50.46400 27.32800
C  19.98800 51.05800 27.49900
C  22.79600 50.00900 25.29300
C  21.60200 49.81400 28.52400
O  22.51700 49.00600 28.72100
C  20.57600 50.21400 29.62100
C  19.98300 48.99200 30.31600
O  19.24600 48.12000 29.82800
O  20.43600 49.04300 31.64300
C  19.77600 48.14900 32.56300
H  14.64700 53.89500 29.45100
H  15.40600 54.67400 23.19300
H  21.04800 51.51000 23.40000
H  18.03500 50.67100 31.14700
H  16.34300 52.99500 31.36100
H  15.87100 50.13000 31.51400
H  14.69700 50.62100 30.45700
H  14.80500 51.46400 31.98600
H  18.64800 53.66200 31.23600
H  19.98900 52.48500 31.43000
H  18.87200 53.73800 33.43400
H  19.69700 52.22000 33.39900
H  12.83100 56.11200 28.12500
H  12.84000 54.63500 28.87300
H  11.90000 54.78800 27.38400
H  12.64800 57.10300 26.30600
H  11.46300 55.94400 25.60100
H  11.84200 57.52700 24.83600
H  17.68900 54.38800 21.61300
H  18.85400 51.66800 21.69800
H  15.71800 52.52900 22.01300
H  16.80800 51.81300 20.86600
H  16.08800 53.42500 20.44200
H  19.69300 53.80700 20.43100
H  20.87800 52.92700 21.14300
H  19.61100 55.59700 21.93500
H  21.36800 55.12800 22.04200
H  20.21700 54.62600 23.28000
H  23.13000 50.68700 24.50700
H  22.48100 49.12000 24.74600
H  23.59000 49.76900 25.99900
H  20.99900 50.78500 30.44600
H  20.18600 47.14000 32.60000
H  18.70800 47.99900 32.40300
H  19.88700 48.58400 33.55600

