158

Mg -2.50000 17.93600 26.78700
C  -2.64800 15.54000 29.52900
C  -2.52300 20.38900 29.13900
C  -2.56700 20.00000 24.27400
C  -2.90700 15.14600 24.59700
N  -2.45800 17.91300 29.13800
C  -2.49000 16.87500 30.00400
C  -2.36800 17.43100 31.45100
C  -2.28800 19.00000 31.18700
C  -2.51600 19.13700 29.73700
C  -3.32100 19.80800 32.12600
C  -1.15500 16.76100 32.24300
C  -0.17300 17.68400 33.02000
H  0.15400 17.13200 34.40200
N  -2.58600 19.93800 26.71300
C  -2.61700 20.80500 27.80700
C  -2.57900 22.16300 27.31000
C  -2.56700 22.08300 25.87600
C  -2.60900 20.63700 25.57300
C  -2.47200 23.36300 28.18000
C  -2.38600 23.16300 24.82100
O  -2.35200 22.91500 23.60400
C  -2.21900 24.54300 25.23900
N  -2.84900 17.60800 24.78700
C  -2.80300 18.65300 23.83600
C  -2.74700 18.11100 22.37400
C  -2.67000 16.54800 22.63500
C  -2.86000 16.42900 24.10000
C  -3.93600 18.48900 21.47500
C  -1.47200 15.86400 21.92300
C  -0.21300 15.67500 22.81000
N  -2.68800 15.84200 26.97000
C  -2.81400 14.89200 25.95300
C  -2.75900 13.62000 26.54400
C  -2.67300 13.76800 27.92300
C  -2.72000 15.19400 28.14000
C  -2.91400 12.28700 25.90100
C  -2.68900 13.04900 29.28400
O  -2.77600 11.86000 29.61400
C  -2.74200 14.20500 30.27400
C  -1.56000 13.81400 31.14200
O  -0.40800 13.74400 30.80500
O  -2.09000 13.35900 32.35200
C  -0.95500 12.96600 33.27700
H  -2.48800 21.21000 29.85800
H  -2.67200 20.73300 23.47200
H  -2.85200 14.24900 23.97700
H  -3.29600 17.02800 31.85600
H  -1.28900 19.41300 31.32400
H  -3.08200 19.49000 33.14000
H  -4.30900 19.56200 31.73600
H  -3.20700 20.88800 32.21900
H  -0.59900 16.39900 31.37800
H  -1.51000 15.95800 32.88900
H  -0.58900 18.68200 33.16000
H  0.78200 17.84600 32.52000
H  -1.70900 24.06000 27.83000
H  -2.40600 23.20600 29.25600
H  -3.43300 23.87300 28.10900
H  -3.12900 24.70900 25.81600
H  -2.09500 25.19400 24.37300
H  -1.26700 24.51100 25.77000
H  -1.89700 18.46800 21.79300
H  -3.60000 16.16200 22.21800
H  -4.74500 17.75900 21.50800
H  -3.59600 18.49400 20.44000
H  -4.25500 19.50800 21.69600
H  -1.04200 16.38400 21.06700
H  -1.72800 14.84200 21.64700
H  -0.32600 16.09700 23.80900
H  0.66000 16.12000 22.33300
H  0.19000 14.68200 23.00800
H  -2.51800 12.08600 24.90500
H  -3.96600 12.01000 25.82900
H  -2.39900 11.58900 26.56200
H  -3.60900 14.18300 30.93400
H  -1.35100 12.93500 34.29200
H  -0.10600 13.64700 33.22900
H  -0.65600 11.96700 32.96200
Mg -1.98400 35.09900 26.97700
C  -3.41200 33.09000 29.34700
C  -0.29600 36.94300 29.26300
C  -0.69900 37.00800 24.38700
C  -3.98900 33.45900 24.52600
N  -1.83200 34.97500 29.07100
C  -2.53300 34.08100 29.86100
C  -2.26600 34.43300 31.35000
C  -1.33800 35.71500 31.31400
C  -1.20300 35.91800 29.77000
C  -1.83700 37.01000 32.07400
C  -1.63800 33.20100 32.03100
C  -2.28400 32.73900 33.33600
H  -1.37500 32.37900 34.54700
N  -0.66100 36.67100 26.86600
C  0.02700 37.21600 27.88500
C  0.91300 38.20500 27.44400
C  0.78000 38.27800 26.01300
C  -0.23900 37.32600 25.69500
C  1.73600 39.02400 28.45200
C  1.39700 39.29800 25.01100
O  1.21000 39.15000 23.84000
C  2.20900 40.33700 25.52500
N  -2.48900 35.34300 24.83700
C  -1.74500 36.19000 23.94800
C  -2.04800 35.90400 22.38100
C  -3.06900 34.73200 22.55900
C  -3.19700 34.52300 24.05700
C  -2.56900 37.07600 21.55400
C  -2.65100 33.36600 21.83900
C  -2.09200 32.19900 22.69300
N  -3.36200 33.55800 26.84300
C  -4.18700 33.08900 25.86300
C  -5.01500 32.05500 26.41400
C  -4.76800 32.04800 27.76100
C  -3.77200 33.00600 27.95400
C  -5.88500 31.23100 25.63800
C  -5.16500 31.31600 28.98500
O  -6.02400 30.43700 29.15200
C  -4.27400 31.98300 30.13100
C  -5.21300 32.68400 30.99600
O  -5.79800 33.73400 30.74100
O  -5.18800 31.99200 32.23000
C  -6.06900 32.53500 33.30600
H  0.11000 37.51900 30.09700
H  -0.32800 37.54400 23.51200
H  -4.52600 32.89900 23.75700
H  -3.16900 34.75700 31.86600
H  -0.40200 35.41400 31.78600
H  -2.82400 36.89700 32.52100
H  -1.82900 37.83000 31.35600
H  -1.16300 37.14600 32.92000
H  -0.60400 33.37600 32.32900
H  -1.74200 32.27800 31.46100
H  -2.73700 31.76900 33.12700
H  -2.98900 33.46800 33.73600
H  2.77000 39.09600 28.11400
H  1.75200 38.60300 29.45800
H  1.29000 40.01600 28.38800
H  2.40000 41.10800 24.77900
H  3.09000 39.99700 26.07000
H  1.70800 40.86500 26.33600
H  -1.11100 35.53400 21.96500
H  -3.99800 34.99400 22.05300
H  -2.20900 36.98100 20.52900
H  -2.31500 38.02200 22.03200
H  -3.65700 37.02400 21.50300
H  -1.96900 33.58700 21.01800
H  -3.46200 32.95900 21.23600
H  -1.73900 32.54900 23.66300
H  -1.24400 31.67300 22.25400
H  -2.90700 31.48200 22.78400
H  -5.62400 31.35500 24.58700
H  -6.91300 31.53600 25.83200
H  -5.71400 30.19200 25.91900
H  -3.60400 31.23700 30.55800
H  -5.72100 33.50300 33.66600
H  -5.96800 31.92600 34.20500
H  -7.12000 32.57300 33.02200

