158

Mg 48.76400 44.59200 43.24600
C  45.59600 44.93600 42.23000
C  48.83200 41.30700 42.03100
C  52.14600 44.82000 42.91700
C  48.80500 48.16500 43.76800
N  47.41600 43.27300 42.27700
C  46.13600 43.63000 41.99500
C  45.35900 42.50600 41.25200
C  46.26000 41.30000 41.66400
C  47.60900 41.98800 41.96100
C  45.77400 40.30300 42.79400
C  45.29900 42.70000 39.74000
C  43.88300 42.34600 39.11000
H  43.86700 41.47700 37.73000
N  50.23600 43.20300 42.72200
C  50.05800 41.88400 42.29700
C  51.32600 41.28300 42.13500
C  52.34100 42.26700 42.47400
C  51.59800 43.51400 42.70300
C  51.53900 39.71500 41.84500
C  53.86300 41.97000 42.47600
O  54.27700 40.86400 42.17400
C  54.74800 43.07100 42.97000
N  50.28000 46.30900 43.26400
C  51.61200 46.08100 43.25500
C  52.38300 47.37400 43.43000
C  51.31600 48.38500 43.73800
C  50.04200 47.58600 43.63800
C  53.42900 47.17100 44.51300
C  51.28100 49.50000 42.67000
C  51.09800 50.98200 43.17000
N  47.49300 46.17100 43.34300
C  47.56700 47.50500 43.58100
C  46.26200 48.14200 43.33500
C  45.45400 47.16000 42.78500
C  46.27900 45.99300 42.86800
C  46.05800 49.64200 43.53400
C  44.16100 46.97500 42.14200
O  43.24200 47.76200 41.87200
C  44.20100 45.40200 41.92200
C  43.15400 44.74900 42.77500
O  42.35600 43.93000 42.34400
O  43.08300 45.32300 44.05000
C  41.91500 44.90600 44.78800
H  48.85300 40.28700 41.64200
H  53.23100 44.86500 42.80500
H  48.87800 49.21800 44.04600
H  44.34500 42.43900 41.64600
H  46.57000 40.73900 40.78200
H  46.38700 40.36300 43.69400
H  46.00300 39.27600 42.50700
H  44.73200 40.44200 43.08200
H  46.11800 42.16400 39.26200
H  45.39900 43.76500 39.52900
H  43.45400 43.32400 38.89300
H  43.20900 42.00100 39.89400
H  52.40600 39.59000 41.19600
H  50.70400 39.18800 41.38500
H  51.71200 39.20000 42.79000
H  55.66400 42.61600 43.34600
H  54.21500 43.45700 43.83900
H  54.99500 43.74400 42.14900
H  52.82100 47.43700 42.43500
H  51.35600 48.83000 44.73200
H  53.56100 46.14200 44.84500
H  53.22300 47.84100 45.34800
H  54.36500 47.38900 43.99900
H  50.38200 49.26900 42.09900
H  52.21100 49.37200 42.11600
H  51.18700 51.05500 44.25400
H  50.12800 51.43300 42.96100
H  51.88300 51.57700 42.70300
H  45.88400 49.85100 44.59000
H  45.16000 49.93700 42.99200
H  46.87900 50.23700 43.13600
H  44.01700 45.25400 40.85800
H  40.96200 45.36600 44.52600
H  41.92700 44.98400 45.87500
H  41.72400 43.83900 44.66900
Mg -5.29600 25.60100 24.83400
C  -3.93300 27.19100 27.72300
C  -6.84600 23.47300 26.96800
C  -6.46600 23.91200 22.12800
C  -3.56500 27.81000 22.82800
N  -5.23200 25.30200 27.10600
C  -4.71900 26.16000 28.05300
C  -5.02400 25.63500 29.47400
C  -5.71500 24.23000 29.21000
C  -6.02100 24.34000 27.64800
C  -4.97000 22.92400 29.61700
C  -5.94800 26.76400 30.22500
C  -6.13500 26.62100 31.72600
H  -5.21500 25.59000 32.44600
N  -6.52500 24.00500 24.59100
C  -7.11400 23.24700 25.61900
C  -7.97300 22.23400 25.01900
C  -7.80100 22.24200 23.56400
C  -6.85000 23.35500 23.36500
C  -8.83200 21.37500 25.88100
C  -8.51200 21.37100 22.52200
O  -8.41200 21.56200 21.35900
C  -9.35600 20.25100 22.97000
N  -4.94700 25.73500 22.71000
C  -5.61500 24.96800 21.75900
C  -5.11000 25.32700 20.32600
C  -4.44800 26.75100 20.60800
C  -4.31400 26.79700 22.13700
C  -4.21900 24.29200 19.61800
C  -5.09400 28.01800 20.04000
C  -6.41500 28.48300 20.62000
N  -3.96400 27.18500 25.13600
C  -3.44500 28.01800 24.23000
C  -2.70700 29.06500 24.99600
C  -2.87700 28.73500 26.28800
C  -3.65400 27.58900 26.39300
C  -1.94100 30.23500 24.44500
C  -2.54600 29.14100 27.58200
O  -1.88400 30.07100 27.94900
C  -3.24300 28.12900 28.59900
C  -2.19100 27.47400 29.42900
O  -1.16400 26.89800 28.97800
O  -2.39200 27.58700 30.79600
C  -1.36000 27.35100 31.79600
H  -7.35400 22.76500 27.62600
H  -7.04700 23.60600 21.25500
H  -3.17200 28.63600 22.23200
H  -4.08800 25.44400 29.99900
H  -6.65200 24.25800 29.76700
H  -4.18700 23.08400 30.35900
H  -4.49800 22.54300 28.71200
H  -5.51900 22.06500 30.00300
H  -6.94300 26.48900 29.87400
H  -5.68300 27.81000 30.06800
H  -7.10700 26.18500 31.96000
H  -6.09600 27.59200 32.22000
H  -9.83700 21.08800 25.57200
H  -9.04800 21.85900 26.83400
H  -8.41700 20.38400 26.06700
H  -8.83400 19.49600 23.55800
H  -9.63000 19.84400 21.99600
H  -10.25200 20.70800 23.38800
H  -6.02400 25.40400 19.73800
H  -3.37800 26.81200 20.40500
H  -3.81300 23.65000 20.39900
H  -3.35300 24.86600 19.28900
H  -4.61300 23.69400 18.79500
H  -5.20800 27.78400 18.98100
H  -4.36300 28.82500 20.09800
H  -6.84200 27.78900 21.34400
H  -7.11300 28.58000 19.78800
H  -6.05200 29.45500 20.95500
H  -1.04400 30.02700 23.86200
H  -1.72500 30.91600 25.26800
H  -2.47300 30.79700 23.67800
H  -3.86800 28.74100 29.24900
H  -1.40200 28.09700 32.59000
H  -0.35200 27.15900 31.42800
H  -1.50900 26.31100 32.08600

