158

Mg -2.32800 17.57900 25.50100
C  -2.62500 15.57600 28.42200
C  -3.36700 20.25900 27.66000
C  -2.06400 19.60400 22.89700
C  -2.06100 14.74800 23.65200
N  -2.85800 17.87200 27.85200
C  -2.94400 16.88100 28.79500
C  -3.48800 17.45100 30.11900
C  -4.12800 18.87300 29.65300
C  -3.38800 19.03800 28.33000
C  -5.63600 18.90800 29.50700
C  -2.44100 17.67800 31.25800
C  -2.94200 17.54100 32.69200
H  -2.20600 16.60200 33.61600
N  -2.47600 19.58500 25.33400
C  -2.93900 20.52500 26.29500
C  -2.97700 21.80600 25.70000
C  -2.41700 21.68200 24.35100
C  -2.27000 20.24700 24.18100
C  -3.31300 23.09200 26.39900
C  -2.04500 22.82900 23.31700
O  -1.67700 22.55000 22.23000
C  -2.12400 24.20000 23.72300
N  -2.33100 17.24700 23.50100
C  -2.09000 18.23500 22.61400
C  -1.92400 17.65000 21.18100
C  -1.62300 16.09300 21.49000
C  -2.06700 16.03500 22.98000
C  -3.17200 18.02700 20.25200
C  -0.09500 15.72700 21.30500
C  0.89400 16.51100 22.26300
N  -2.25100 15.62400 25.89500
C  -2.14600 14.58000 25.05200
C  -2.01200 13.33800 25.80100
C  -2.08400 13.75000 27.15500
C  -2.34700 15.16300 27.09400
C  -1.86800 11.93200 25.29400
C  -2.14400 13.28200 28.51200
O  -2.08500 12.12800 28.91500
C  -2.32700 14.48900 29.37500
C  -1.06100 14.71200 30.20500
O  -0.10100 15.43700 29.92000
O  -1.00000 13.88200 31.29600
C  0.26700 13.90100 31.98000
H  -3.50700 21.15200 28.27300
H  -1.78100 20.13400 21.98500
H  -1.79600 13.93600 22.97200
H  -4.28200 16.75500 30.39200
H  -3.92400 19.67100 30.36700
H  -6.08800 18.08500 30.06100
H  -5.92200 19.00800 28.46000
H  -5.91100 19.83400 30.01200
H  -2.04600 18.69200 31.20900
H  -1.56100 17.04500 31.15100
H  -3.91900 17.11100 32.46800
H  -3.15200 18.55800 33.02300
H  -2.46400 23.77600 26.38600
H  -3.54000 22.93300 27.45300
H  -4.23900 23.59400 26.11800
H  -1.80000 24.86800 22.92600
H  -1.36100 24.42100 24.47000
H  -3.12800 24.45800 24.06100
H  -1.01000 18.13900 20.84400
H  -2.27900 15.37700 20.99600
H  -2.83600 18.80700 19.56900
H  -3.99300 18.47900 20.81000
H  -3.57800 17.19000 19.68300
H  0.28800 16.01200 20.32600
H  0.13000 14.66500 21.40500
H  1.42000 17.28300 21.70200
H  1.64100 15.82600 22.66500
H  0.36400 16.88000 23.14100
H  -1.69000 12.01900 24.22200
H  -2.80400 11.42200 25.52500
H  -1.02200 11.45400 25.78700
H  -3.20700 14.27300 29.98000
H  0.32700 14.82000 32.56200
H  1.06900 13.90100 31.24200
H  0.40300 13.02900 32.62000
Mg 46.90600 24.80300 28.79700
C  47.62400 26.88800 31.47500
C  45.98200 22.39200 30.97700
C  46.98000 22.67300 26.27900
C  48.07100 27.24700 26.67700
N  46.60600 24.79100 30.85400
C  47.04900 25.67200 31.83900
C  46.67300 25.27100 33.24700
C  46.41100 23.80100 33.00500
C  46.23100 23.69700 31.52600
C  47.54400 22.85000 33.59000
C  45.57100 26.08500 33.94000
C  45.79900 26.60500 35.39100
H  44.62600 26.41300 36.35100
N  46.49400 22.80900 28.68100
C  46.05300 21.96300 29.63000
C  45.78900 20.67600 29.11500
C  46.31900 20.66100 27.76400
C  46.66100 22.09000 27.50500
C  45.01900 19.55300 29.87100
C  46.33100 19.57600 26.67100
O  46.69900 19.86900 25.52400
C  45.95900 18.16000 26.94400
N  47.21900 25.00600 26.73500
C  47.28700 23.94600 25.91600
C  47.41500 24.36600 24.42100
C  47.47800 25.92500 24.52500
C  47.52300 26.09700 26.01600
C  48.45900 23.70900 23.51900
C  46.27600 26.67900 23.86200
C  44.81600 26.38500 24.37300
N  47.60300 26.77300 28.96700
C  48.04700 27.61800 28.04400
C  48.39800 28.91400 28.58400
C  48.28400 28.64700 29.95500
C  47.77600 27.36900 30.13800
C  49.00100 30.05800 27.88200
C  48.58000 29.15900 31.27200
O  49.11300 30.26800 31.56400
C  48.21600 28.01200 32.40300
C  49.44500 27.61500 33.09500
O  50.57100 27.62700 32.55400
O  49.25800 27.51700 34.49100
C  50.45100 27.34600 35.28100
H  45.85900 21.61400 31.73400
H  47.04300 22.06500 25.37400
H  48.37400 28.00500 25.95100
H  47.51200 25.40000 33.93000
H  45.49100 23.47900 33.49200
H  48.21200 23.35000 34.29200
H  48.16700 22.50000 32.76600
H  47.02000 22.04000 34.09900
H  44.74200 25.39400 34.09200
H  45.32000 26.92300 33.28900
H  46.07100 27.65900 35.33000
H  46.58600 26.06700 35.92100
H  45.51100 18.58300 29.94300
H  44.15300 19.28400 29.26600
H  44.65400 19.81200 30.86500
H  44.93500 18.24600 27.30800
H  46.60200 17.84000 27.76500
H  46.14800 17.60300 26.02600
H  46.47100 24.18700 23.90500
H  48.46300 26.27700 24.21900
H  47.96600 23.63900 22.54900
H  48.76200 22.75500 23.95100
H  49.37100 24.30500 23.56700
H  46.26800 26.38300 22.81300
H  46.49300 27.73800 24.00500
H  44.29900 25.97900 23.50400
H  44.32100 27.28900 24.72600
H  44.87700 25.64700 25.17300
H  49.50200 30.67800 28.62500
H  48.14000 30.65000 27.57100
H  49.60200 29.69800 27.04700
H  47.48600 28.33000 33.14800
H  51.41900 27.40900 34.78500
H  50.33400 26.35400 35.71800
H  50.48100 28.16100 36.00300

