158

Mg -0.33600 7.99100 26.53800
C  0.46500 9.80100 29.35700
C  -0.33000 5.19700 28.51600
C  -0.80100 6.13700 23.72100
C  0.22000 10.80100 24.54600
N  0.33200 7.55500 28.69300
C  0.30600 8.47000 29.69400
C  0.17400 7.88100 31.08500
C  0.33600 6.38500 30.72600
C  0.12700 6.33200 29.20800
C  1.70200 5.70000 31.14600
C  -1.15000 8.34900 31.73800
C  -1.25900 8.80700 33.19600
H  0.04400 8.71200 34.01900
N  -0.51900 5.96600 26.17100
C  -0.63000 4.95300 27.12900
C  -1.07100 3.78500 26.58300
C  -1.25500 3.96900 25.19100
C  -0.83000 5.40400 24.95300
C  -1.21900 2.48600 27.45900
C  -1.77400 2.87900 24.12500
O  -1.81500 3.11800 22.95200
C  -2.20600 1.52200 24.62600
N  -0.16600 8.39600 24.36900
C  -0.50200 7.50000 23.42200
C  -0.42700 8.16200 21.99600
C  -0.28200 9.65100 22.30200
C  -0.04900 9.66700 23.85200
C  0.73700 7.59400 21.21800
C  -1.39200 10.44100 21.73800
C  -2.67600 10.69300 22.50500
N  0.28200 9.92300 26.82400
C  0.48200 10.95300 25.93900
C  0.85400 12.13200 26.68100
C  0.77700 11.75000 27.99200
C  0.48300 10.35200 28.10700
C  1.19300 13.45000 26.08000
C  1.02400 12.27300 29.26700
O  1.45900 13.36000 29.57200
C  0.76800 11.07400 30.23700
C  1.95100 10.90900 31.24500
O  2.80200 10.00100 31.32200
O  1.89700 11.92500 32.18700
C  3.08600 11.97200 33.08600
H  -0.27100 4.33500 29.18400
H  -0.96400 5.71200 22.72900
H  0.25500 11.60700 23.81100
H  1.01300 8.11500 31.74000
H  -0.42100 5.71500 31.13300
H  2.47400 6.36300 31.53600
H  2.11700 5.22700 30.25600
H  1.59200 4.93400 31.91400
H  -1.84500 7.52000 31.61000
H  -1.44900 9.20200 31.12800
H  -2.00600 8.10500 33.56600
H  -1.59500 9.83700 33.31000
H  -0.55400 2.49800 28.32300
H  -0.89800 1.63200 26.86200
H  -2.25000 2.31600 27.76700
H  -2.99900 1.50100 25.37300
H  -1.37000 0.91800 24.97900
H  -2.67500 1.07300 23.75000
H  -1.34900 7.90000 21.47800
H  0.57600 10.17400 21.88100
H  0.70600 6.56300 21.57000
H  1.67500 8.10400 21.43700
H  0.39900 7.74900 20.19300
H  -1.65700 10.10600 20.73500
H  -0.99100 11.44800 21.62600
H  -3.58300 10.59700 21.90900
H  -2.70500 11.69700 22.92800
H  -2.71500 9.98600 23.33300
H  1.62000 13.96700 26.94000
H  0.25700 13.93700 25.80800
H  1.92300 13.34600 25.27700
H  -0.01500 11.27300 30.97000
H  4.00300 12.00400 32.49700
H  3.12500 11.11800 33.76200
H  3.08700 12.92200 33.62100
Mg 49.41400 35.95600 27.37800
C  46.93500 34.37600 29.61700
C  49.33400 38.54800 29.55700
C  50.97600 37.65700 25.12300
C  48.56200 33.41000 25.05600
N  48.26600 36.34000 29.29800
C  47.60300 35.45500 30.12100
C  47.55400 36.02200 31.54300
C  47.78700 37.54300 31.38800
C  48.51000 37.53200 29.98800
C  46.47700 38.43700 31.54600
C  48.78800 35.42500 32.31900
C  48.72900 35.65400 33.86100
H  47.56000 36.44700 34.59300
N  50.15200 37.78700 27.39400
C  50.03800 38.74100 28.36400
C  50.81400 39.90400 27.98000
C  51.43900 39.60600 26.69100
C  50.86600 38.30300 26.34800
C  50.88500 41.12100 28.90500
C  52.29500 40.44500 25.73600
O  52.59100 40.16900 24.54700
C  52.81300 41.76400 26.23400
N  49.72200 35.58100 25.39200
C  50.50500 36.41800 24.68600
C  51.01400 35.81200 23.38400
C  50.12100 34.46900 23.27100
C  49.40700 34.42600 24.68600
C  51.14600 36.62700 22.10700
C  51.03500 33.14800 23.11700
C  50.40500 32.08400 22.19100
N  48.12400 34.19200 27.28500
C  47.89000 33.24500 26.28800
C  47.00500 32.21100 26.75000
C  46.62900 32.59700 28.06000
C  47.21900 33.85300 28.27000
C  46.50900 31.00600 25.99300
C  45.85800 32.23900 29.19300
O  45.19900 31.20100 29.41000
C  45.90300 33.42300 30.17800
C  46.32100 32.86900 31.51600
O  47.35600 32.37500 31.87400
O  45.27300 33.04500 32.36000
C  45.14100 32.31800 33.63300
H  49.40900 39.32200 30.32500
H  51.64100 38.05600 24.35400
H  48.32800 32.66900 24.28900
H  46.62600 35.83500 32.08200
H  48.55500 37.78400 32.12300
H  46.27100 38.97800 30.62200
H  46.43900 39.05200 32.44500
H  45.56600 37.84100 31.60400
H  49.74500 35.75700 31.91700
H  48.86500 34.34600 32.18800
H  49.62900 36.18200 34.17500
H  48.81600 34.68800 34.35800
H  49.96100 41.28600 29.45900
H  51.07800 41.96300 28.24000
H  51.60700 40.86100 29.68000
H  52.00400 42.47000 26.41900
H  53.56000 42.12800 25.52800
H  53.25800 41.49000 27.19000
H  52.06600 35.69000 23.64200
H  49.27900 34.68400 22.61400
H  50.37900 36.41000 21.36300
H  52.09600 36.47900 21.59300
H  51.06500 37.70800 22.21500
H  51.13200 32.67800 24.09600
H  52.00500 33.40200 22.69100
H  49.89300 32.48900 21.31800
H  49.86300 31.43500 22.87900
H  51.24900 31.47500 21.86900
H  46.10100 31.40900 25.06600
H  45.96000 30.32900 26.64800
H  47.34300 30.36700 25.70300
H  45.00200 34.03500 30.13400
H  46.09900 32.09200 34.10200
H  44.45200 31.47600 33.70200
H  44.61000 32.96100 34.33500

