158

Mg 48.96900 13.94000 27.96500
C  47.21500 14.44400 30.94100
C  51.57300 15.66100 29.19300
C  50.64200 13.47000 25.00900
C  46.24500 12.03800 26.71200
N  49.33300 14.99900 29.82100
C  48.48500 15.07800 30.90300
C  49.17700 15.52000 32.17700
C  50.40500 16.27600 31.43400
C  50.45800 15.63500 30.03500
C  50.28800 17.82800 31.34000
C  49.56200 14.34400 33.11700
C  49.13600 14.60900 34.62100
H  49.10100 16.09200 35.19000
N  50.84200 14.47600 27.18500
C  51.79200 15.14100 27.86000
C  52.90900 15.42500 27.04500
C  52.74800 14.55000 25.94600
C  51.39600 14.08200 26.02300
C  54.06100 16.40000 27.35300
C  53.81100 14.09600 24.89900
O  53.51900 13.33800 23.95700
C  55.27300 14.44800 24.98500
N  48.52400 12.97800 26.03300
C  49.35600 12.93500 24.92100
C  48.77300 12.09200 23.78800
C  47.43100 11.59500 24.42400
C  47.38000 12.28700 25.83700
C  48.66400 12.63900 22.40600
C  47.32300 10.02300 24.52900
C  48.27400 9.32300 25.55400
N  47.07500 13.45500 28.63100
C  46.07900 12.69100 28.03800
C  44.95900 12.54800 28.95300
C  45.33000 13.24600 30.09000
C  46.68200 13.74800 29.82500
C  43.77900 11.68900 28.77400
C  44.82800 13.53000 31.43000
O  43.76700 13.31500 31.99000
C  46.06600 14.38300 31.99700
C  45.38500 15.62900 32.33000
O  44.44900 16.14700 31.70900
O  45.94800 16.19200 33.44200
C  45.60400 17.52900 33.75400
H  52.44200 16.22300 29.54000
H  51.22900 13.37200 24.09400
H  45.41100 11.51700 26.23800
H  48.43700 16.23100 32.54400
H  51.32800 15.97200 31.92700
H  51.20000 18.18700 31.81700
H  49.43900 18.13200 31.95100
H  50.22700 18.23800 30.33100
H  50.62600 14.13000 33.21500
H  49.05300 13.41500 32.86200
H  49.80300 13.97800 35.20900
H  48.12200 14.28300 34.85600
H  54.90100 15.94600 27.87900
H  53.68300 17.33900 27.75700
H  54.55900 16.79300 26.46600
H  55.32300 15.53700 24.97000
H  55.69100 13.89900 24.14100
H  55.45300 13.97700 25.95100
H  49.41000 11.20800 23.75100
H  46.49900 11.92200 23.96200
H  49.23500 11.94400 21.79000
H  49.12300 13.62400 22.48900
H  47.64300 12.63600 22.02500
H  47.71200 9.65800 23.57900
H  46.28400 9.76700 24.73800
H  47.65100 8.80500 26.28300
H  48.87200 10.06300 26.08700
H  48.88200 8.69400 24.90300
H  43.13100 11.72400 29.65000
H  44.21600 10.70900 28.58500
H  43.20700 12.04600 27.91800
H  46.47100 13.92300 32.89800
H  44.52600 17.68200 33.71100
H  46.01700 18.21500 33.01400
H  46.00600 17.70900 34.75100
Mg -6.11300 25.26500 25.68100
C  -4.59200 26.66600 28.60200
C  -7.79200 22.95000 27.74500
C  -7.32200 23.81200 22.85000
C  -4.20500 27.52000 23.71400
N  -6.05100 24.83200 27.96300
C  -5.51000 25.67000 28.91200
C  -6.08500 25.26000 30.21100
C  -6.93100 23.93100 29.94500
C  -6.92800 23.86600 28.44600
C  -6.30600 22.66000 30.73000
C  -6.87400 26.43000 30.88700
C  -6.63900 26.56200 32.37600
H  -6.12400 25.35400 33.19700
N  -7.41800 23.70200 25.36300
C  -8.00200 22.87000 26.30100
C  -8.75800 21.85500 25.66200
C  -8.61800 22.06500 24.22200
C  -7.78900 23.29900 24.09500
C  -9.50400 20.85300 26.44800
C  -9.26400 21.30400 23.07800
O  -9.09300 21.65500 21.90900
C  -10.11400 20.06200 23.30000
N  -5.96600 25.71300 23.54300
C  -6.37000 24.87200 22.61700
C  -5.84300 25.22500 21.24400
C  -5.13200 26.58800 21.48500
C  -5.01700 26.62300 23.00600
C  -4.93800 24.18300 20.56300
C  -5.82000 27.86300 20.94000
C  -5.27900 28.22200 19.50600
N  -4.65500 26.72000 25.98100
C  -4.08900 27.63200 25.07900
C  -3.28600 28.60200 25.84100
C  -3.45400 28.28600 27.22500
C  -4.26800 27.08900 27.25300
C  -2.42100 29.63800 25.22500
C  -3.07400 28.67900 28.53500
O  -2.33100 29.56700 28.91100
C  -3.85800 27.64800 29.53500
C  -2.76700 27.12900 30.48300
O  -1.85900 26.41200 30.10200
O  -2.91100 27.54000 31.73700
C  -2.02200 26.99100 32.72300
H  -8.42600 22.33300 28.38500
H  -7.76400 23.42700 21.92900
H  -3.54800 28.06400 23.03200
H  -5.21700 25.00100 30.81800
H  -7.98800 23.94400 30.21200
H  -6.05600 21.81900 30.08300
H  -7.08500 22.22900 31.35900
H  -5.41300 22.95100 31.28300
H  -7.94700 26.25700 30.80700
H  -6.66200 27.33400 30.31600
H  -7.58100 26.77100 32.88300
H  -5.91400 27.36400 32.51600
H  -8.80900 20.33600 27.11000
H  -10.05300 20.13900 25.83500
H  -10.22900 21.30200 27.12700
H  -10.34800 19.71800 22.29300
H  -10.82500 20.44900 24.03000
H  -9.42300 19.37200 23.78500
H  -6.73700 25.27300 20.62200
H  -4.15100 26.39300 21.05200
H  -3.88700 24.45900 20.64700
H  -5.16800 24.07800 19.50200
H  -5.14700 23.29900 21.16400
H  -5.76300 28.67400 21.66500
H  -6.87700 27.72000 20.71600
H  -4.64000 27.41300 19.14900
H  -4.88400 29.23600 19.45500
H  -6.16000 28.22000 18.86500
H  -1.63900 30.03300 25.87300
H  -3.04400 30.50300 24.99400
H  -1.94700 29.19000 24.35100
H  -4.60900 28.22300 30.07700
H  -1.10100 27.55000 32.89300
H  -1.76800 25.93500 32.62600
H  -2.53700 27.04900 33.68200

