158

Mg 40.30900 9.77800 29.99000
C  42.24100 11.20500 32.43600
C  38.15300 8.52700 32.30500
C  38.45400 8.49500 27.47700
C  42.99700 10.31600 27.75100
N  40.26100 9.82300 32.09200
C  41.04700 10.57500 32.82900
C  40.54200 10.64500 34.30000
C  39.39800 9.48900 34.31000
C  39.22100 9.26200 32.83500
C  39.77700 8.20100 35.09000
C  40.07600 12.04300 34.85800
C  39.63900 12.08400 36.33900
H  40.27200 13.04500 37.35700
N  38.59800 8.62600 29.88300
C  37.78800 8.24000 30.93500
C  36.59100 7.48000 30.46500
C  36.59100 7.58400 29.00200
C  37.91100 8.32800 28.73000
C  35.50300 6.86300 31.36200
C  35.55000 7.03900 28.04000
O  35.67200 7.14700 26.80400
C  34.18400 6.53000 28.46600
N  40.59100 9.45800 27.88800
C  39.61900 8.95900 27.07300
C  40.14000 8.91000 25.55000
C  41.59300 9.44800 25.72000
C  41.78600 9.79200 27.17000
C  40.00600 7.66000 24.68800
C  41.87900 10.69900 24.76600
C  41.70600 12.10900 25.17900
N  42.22800 10.56500 29.98100
C  43.20200 10.73100 28.99400
C  44.37400 11.36000 29.61000
C  43.99400 11.67100 30.95100
C  42.71100 11.06500 31.14500
C  45.77800 11.58700 29.05100
C  44.44600 12.34000 32.21000
O  45.41500 13.07200 32.45500
C  43.29100 12.02500 33.20800
C  43.88700 11.44500 34.43800
O  44.34200 10.31700 34.48300
O  43.90900 12.36900 35.47200
C  44.44800 12.00400 36.77600
H  37.40300 8.17400 33.01500
H  37.87500 8.14200 26.62100
H  43.82200 10.41400 27.04200
H  41.38800 10.40500 34.94300
H  38.43500 9.83800 34.68400
H  40.86400 8.14200 35.03500
H  39.42100 7.32600 34.54800
H  39.38800 8.25300 36.10700
H  39.26300 12.46000 34.26400
H  40.90300 12.74100 34.72800
H  39.58400 11.06300 36.71800
H  38.61000 12.43400 36.26800
H  35.89000 6.93200 32.37800
H  35.31800 5.89300 30.90000
H  34.60500 7.47800 31.31800
H  34.38700 5.57700 28.95500
H  33.67800 6.28100 27.53300
H  33.63300 7.22000 29.10600
H  39.60900 9.76400 25.12700
H  42.31500 8.68700 25.42500
H  39.91500 6.81600 25.37200
H  40.91900 7.50500 24.11200
H  39.21200 7.66400 23.94100
H  41.22400 10.68200 23.89500
H  42.77700 10.59600 24.15700
H  41.39300 12.75300 24.35800
H  42.65400 12.51700 25.53100
H  40.94900 12.11400 25.96400
H  46.18500 10.58100 29.14900
H  46.40000 12.21500 29.68900
H  45.69400 12.00700 28.04800
H  42.81500 12.95800 33.50900
H  43.66400 11.86100 37.52000
H  45.23000 12.65700 37.16400
H  45.01700 11.07400 36.77300
Mg -1.49600 33.91800 27.27000
C  -3.43300 32.47200 29.88100
C  0.05300 35.91400 29.63000
C  -0.51100 35.93100 24.78300
C  -3.66100 32.27100 24.98500
N  -1.85900 34.33500 29.48100
C  -2.51100 33.45800 30.40100
C  -2.20400 33.85900 31.83700
C  -1.14300 35.03500 31.73100
C  -0.95700 35.06700 30.24800
C  -1.65500 36.37500 32.38900
C  -1.68800 32.72200 32.76100
C  -0.90200 33.01400 34.05700
H  -1.28300 32.25600 35.30700
N  -0.22600 35.54400 27.19100
C  0.39900 36.13400 28.27900
C  1.27700 37.13000 27.79800
C  1.05600 37.26700 26.38900
C  0.06200 36.23100 26.04600
C  2.04500 37.97800 28.70900
C  1.64600 38.21800 25.36600
O  1.41900 38.19000 24.16200
C  2.72700 39.22600 25.86000
N  -2.03200 34.11500 25.24000
C  -1.38300 34.98400 24.37100
C  -1.84800 34.81300 22.91200
C  -2.58000 33.40800 22.98200
C  -2.81300 33.30000 24.50500
C  -2.73700 35.93100 22.38800
C  -1.80600 32.14600 22.52200
C  -0.30000 32.18900 22.76300
N  -3.17300 32.61800 27.32800
C  -3.82600 31.94900 26.32700
C  -4.70200 30.98600 27.00400
C  -4.52900 31.12000 28.36600
C  -3.67000 32.19600 28.53500
C  -5.56300 30.06100 26.27400
C  -4.98100 30.58600 29.62200
O  -5.77400 29.67600 29.89300
C  -4.20800 31.38700 30.66100
C  -5.21200 31.98900 31.62500
O  -6.09000 32.75700 31.34800
O  -5.04500 31.40000 32.85800
C  -6.03100 31.65200 33.90800
H  0.64500 36.41400 30.40000
H  -0.24700 36.51900 23.90100
H  -4.14100 31.65600 24.22000
H  -3.06600 34.26700 32.36400
H  -0.15500 34.73500 32.08100
H  -1.84200 36.94900 31.48200
H  -0.90400 36.92500 32.95600
H  -2.57700 36.22800 32.95200
H  -0.89700 32.18600 32.23700
H  -2.44800 32.03900 33.14000
H  -1.20100 34.03500 34.29400
H  0.18300 32.91400 34.02000
H  2.20900 37.65400 29.73700
H  1.66100 38.99400 28.79800
H  3.00100 38.09600 28.19900
H  3.02500 39.94900 25.10100
H  3.54300 38.51300 25.97800
H  2.46400 39.70000 26.80500
H  -1.09100 34.74500 22.13100
H  -3.51000 33.40800 22.41300
H  -3.69700 35.60900 21.98500
H  -2.23000 36.59900 21.69200
H  -2.90400 36.69200 23.15000
H  -1.98100 32.30300 21.45800
H  -2.31300 31.22500 22.81000
H  0.14900 32.50500 21.82200
H  0.14800 31.20300 22.88800
H  0.08800 32.77700 23.59500
H  -5.99100 30.68800 25.49200
H  -6.22500 29.53300 26.96000
H  -4.96600 29.31100 25.75500
H  -3.56600 30.78400 31.30200
H  -5.56100 32.24500 34.69200
H  -6.55900 30.80200 34.33900
H  -6.90000 32.16600 33.49600

