158

Mg 25.13600 1.36700 29.38200
C  27.24200 1.22300 32.12500
C  22.44300 1.64900 31.61100
C  23.08500 0.69100 26.78800
C  27.95000 0.63500 27.30400
N  24.86900 1.58400 31.63000
C  25.92500 1.52500 32.51700
C  25.39000 1.69000 33.93000
C  23.87000 1.69400 33.83000
C  23.69600 1.60400 32.26700
C  23.14500 0.47200 34.55700
C  26.00600 2.87100 34.67900
C  26.59800 2.54300 36.11300
H  26.06400 3.51000 37.23000
N  23.08700 1.31100 29.23400
C  22.14000 1.42300 30.29600
C  20.81300 1.36600 29.66300
C  20.94600 1.08100 28.22500
C  22.42600 0.98100 28.01500
C  19.58900 1.63700 30.46400
C  19.85700 1.04600 27.11000
O  20.12400 0.75600 25.95100
C  18.43000 1.23700 27.38400
N  25.48700 0.67800 27.36100
C  24.43300 0.52200 26.52400
C  24.87400 0.39800 25.04800
C  26.45100 0.42200 25.18400
C  26.66900 0.66800 26.68800
C  24.39700 -0.98200 24.40300
C  27.12300 1.53700 24.37100
C  26.84800 3.05700 24.77700
N  27.15800 1.10100 29.61300
C  28.18000 0.81300 28.73400
C  29.42100 0.65500 29.38800
C  29.11400 0.80600 30.74200
C  27.73100 1.13300 30.84900
C  30.73200 0.20600 28.83700
C  29.68700 0.84300 32.08000
O  30.86400 0.78400 32.45200
C  28.41200 0.91200 33.00000
C  28.21900 -0.23700 33.85200
O  27.53600 -1.21100 33.62300
O  28.90800 0.00900 35.04800
C  28.81000 -1.02600 36.08500
H  21.63000 1.84700 32.31300
H  22.49900 0.46100 25.89500
H  28.80000 0.28600 26.71400
H  25.74400 0.79700 34.44400
H  23.49800 2.63400 34.23700
H  22.64500 0.85100 35.44800
H  23.88100 -0.23700 34.93600
H  22.43100 -0.03900 33.91100
H  25.37600 3.76100 34.68600
H  26.87500 3.11300 34.06700
H  27.65800 2.74200 35.96000
H  26.45700 1.47400 36.27500
H  19.69500 1.51100 31.54100
H  18.74900 0.97500 30.25300
H  19.24200 2.64800 30.24800
H  18.31300 2.23700 27.80000
H  18.26900 0.49800 28.16900
H  17.82400 1.00300 26.50800
H  24.45400 1.27700 24.56000
H  26.95400 -0.50600 24.91200
H  23.83800 -0.75600 23.49600
H  23.92200 -1.43700 25.27200
H  25.23400 -1.56400 24.01600
H  26.89500 1.35200 23.32200
H  28.19500 1.42200 24.53400
H  26.68400 3.65000 23.87800
H  27.71100 3.42000 25.33500
H  25.90300 3.18200 25.30600
H  30.57400 -0.22300 27.84700
H  31.14600 -0.53700 29.51800
H  31.38500 1.07200 28.73500
H  28.67700 1.70300 33.70100
H  28.97600 -1.97300 35.57200
H  27.82700 -0.85500 36.52300
H  29.64200 -0.80700 36.75400
Mg 26.98600 49.62500 25.71200
C  25.22200 50.87300 28.61700
C  29.52900 48.45900 27.91100
C  28.90400 48.99200 23.06800
C  24.73700 51.30500 23.70300
N  27.42100 49.87400 27.97700
C  26.44100 50.20600 28.95700
C  26.93600 49.81300 30.38400
C  28.47800 49.39000 30.15600
C  28.53200 49.23300 28.55800
C  29.51900 50.57200 30.54900
C  25.94800 48.83000 31.06400
C  25.48300 49.11000 32.52100
H  26.46900 49.51500 33.54700
N  28.78100 48.56900 25.53000
C  29.66300 48.15100 26.54700
C  30.85300 47.56700 25.91700
C  30.73200 47.83100 24.49400
C  29.44700 48.49800 24.31500
C  31.88200 46.78900 26.65300
C  31.69700 47.46200 23.40700
O  31.53500 47.77200 22.22700
C  32.96100 46.80500 23.67600
N  26.89000 50.20000 23.63700
C  27.76300 49.76000 22.75800
C  27.34700 50.03600 21.30400
C  25.91800 50.75100 21.59200
C  25.82100 50.72900 23.09200
C  28.29500 50.95300 20.56100
C  24.71600 50.10400 20.86800
C  24.23300 48.66200 21.18100
N  25.30000 50.83600 26.07500
C  24.50700 51.41600 25.10300
C  23.48400 52.09600 25.75400
C  23.65900 51.86800 27.08800
C  24.85100 51.18500 27.26400
C  22.26800 52.84000 25.17300
C  23.13400 52.08200 28.50200
O  22.07600 52.65100 28.77900
C  24.14300 51.38700 29.46700
C  24.49700 52.32500 30.57900
O  25.38200 53.10200 30.62800
O  23.67200 52.12100 31.61800
C  23.87200 53.07500 32.74700
H  30.23300 48.11600 28.67100
H  29.55200 48.80500 22.20900
H  24.06500 51.81900 23.01300
H  26.97900 50.74500 30.94700
H  28.80900 48.51500 30.71400
H  29.97400 51.02700 29.66800
H  30.34400 50.12900 31.10600
H  29.02200 51.35800 31.11800
H  26.27900 47.79100 31.03800
H  25.08800 48.90700 30.39800
H  25.10600 48.15100 32.87600
H  24.66700 49.82700 32.43400
H  32.11200 45.80200 26.25200
H  31.44800 46.64000 27.64200
H  32.82600 47.32700 26.74600
H  33.44500 47.38000 24.46500
H  33.55500 46.63800 22.77700
H  32.77100 45.86000 24.18600
H  27.19100 49.01800 20.94700
H  25.96600 51.82400 21.40600
H  28.50200 50.53400 19.57600
H  29.18900 51.20400 21.13300
H  27.92700 51.95100 20.32300
H  24.92800 50.04200 19.80100
H  23.95100 50.88100 20.85100
H  24.78100 47.92600 20.59300
H  23.21000 48.43400 20.88000
H  24.34300 48.39700 22.23300
H  22.56400 53.76500 24.68000
H  21.48900 52.99600 25.92000
H  21.74600 52.27700 24.39900
H  23.68900 50.52700 29.95900
H  24.58400 52.59300 33.41800
H  22.91700 53.07000 33.27200
H  24.27500 54.03500 32.42500

