158

Mg 48.25800 15.67100 28.55900
C  46.06200 15.47900 31.21400
C  50.62400 16.93300 30.78100
C  50.30300 16.04500 25.90700
C  45.75000 14.49500 26.49800
N  48.29400 16.31000 30.79000
C  47.29600 16.00800 31.63900
C  47.73100 16.36000 33.05700
C  49.08700 17.13100 32.85800
C  49.37000 16.86000 31.37400
C  49.03700 18.65700 33.18100
C  47.94100 15.08600 33.94700
C  47.48300 15.12400 35.40400
H  47.33700 16.45300 36.14600
N  50.18900 16.39600 28.37900
C  50.97100 16.86900 29.35800
C  52.27200 17.22900 28.78500
C  52.35400 16.80500 27.40600
C  50.90100 16.35300 27.16400
C  53.43500 17.78200 29.72500
C  53.46100 16.87200 26.42800
O  53.32000 16.46800 25.27100
C  54.82400 17.46300 26.81700
N  48.02900 15.37400 26.50300
C  48.99000 15.66300 25.59200
C  48.46400 15.43400 24.17800
C  47.14100 14.68100 24.38500
C  46.95000 14.79800 25.89000
C  48.33800 16.71500 23.37300
C  47.16200 13.23400 23.68300
C  47.53300 11.99500 24.57100
N  46.32000 14.95600 28.75000
C  45.40500 14.49300 27.84700
C  44.21800 14.09400 28.55700
C  44.46000 14.36100 29.90200
C  45.78100 14.91300 29.93500
C  43.06300 13.48100 27.95400
C  43.90500 14.33200 31.26400
O  42.86400 13.83400 31.66700
C  45.02700 15.00100 32.13700
C  44.51600 16.08100 33.12600
O  44.47800 17.31600 32.90400
O  44.09100 15.39500 34.28100
C  43.49200 16.24500 35.30100
H  51.43500 17.38300 31.35800
H  50.99200 16.15900 25.06700
H  45.00200 14.17900 25.76700
H  47.08100 17.07900 33.55600
H  49.82200 16.69600 33.53500
H  49.23400 19.18400 32.24700
H  49.78700 18.91900 33.92800
H  48.01000 18.91400 33.44100
H  48.97200 14.73500 33.91300
H  47.55800 14.19100 33.45800
H  48.28300 14.67000 35.98900
H  46.52800 14.62800 35.57500
H  53.47900 17.40300 30.74600
H  53.37500 18.87000 29.69100
H  54.45800 17.54300 29.43600
H  54.78300 18.45400 27.26800
H  55.27600 17.74600 25.86600
H  55.50000 16.84100 27.40400
H  49.15800 14.78100 23.64900
H  46.31300 15.18800 23.89100
H  47.42300 16.83500 22.79300
H  49.17200 16.80300 22.67800
H  48.41900 17.54700 24.07200
H  47.82600 13.14900 22.82300
H  46.17300 13.05400 23.26100
H  48.12900 11.29300 23.98800
H  46.68000 11.44600 24.97100
H  48.05300 12.36500 25.45500
H  43.35700 12.55800 27.45400
H  42.68600 14.28300 27.31900
H  42.36300 13.23700 28.75300
H  45.51000 14.30400 32.82100
H  44.11000 17.12200 35.49500
H  43.28200 15.70700 36.22500
H  42.57300 16.71900 34.95500
Mg 16.33600 52.87100 26.84800
C  18.23700 51.57200 29.54900
C  13.94800 53.96000 29.29100
C  14.68800 54.39800 24.42200
C  18.46600 51.18300 24.64800
N  16.16400 52.79200 29.13200
C  17.16100 52.33500 30.03600
C  16.75200 52.66100 31.47400
C  15.24800 53.18600 31.32800
C  15.12100 53.32000 29.80400
C  14.11000 52.32400 31.90000
C  17.70800 53.66300 32.11200
C  17.65800 53.69700 33.61300
H  16.48400 53.04000 34.29900
N  14.56500 54.04100 26.82800
C  13.70900 54.29200 27.88200
C  12.47900 54.99300 27.41700
C  12.64200 55.02000 26.03300
C  14.01200 54.49000 25.70300
C  11.36200 55.52100 28.29100
C  11.80500 55.64000 24.97800
O  12.12700 55.69300 23.80000
C  10.34700 56.23100 25.30700
N  16.61300 52.83600 24.89200
C  15.91400 53.67000 24.07300
C  16.31900 53.37400 22.60800
C  17.66100 52.66500 22.71000
C  17.53300 52.14200 24.17100
C  15.27300 52.48200 21.92000
C  18.93100 53.68000 22.67500
C  20.23700 53.02300 22.20700
N  17.93200 51.53300 26.99100
C  18.70000 50.89000 26.01700
C  19.74400 50.08600 26.70300
C  19.67000 50.41700 28.06900
C  18.50400 51.19300 28.20600
C  20.72000 49.22100 25.89900
C  20.18900 50.16000 29.37200
O  21.17700 49.53600 29.75600
C  19.33300 50.95300 30.38000
C  18.65400 50.06700 31.32300
O  17.81800 49.17300 31.08800
O  19.06500 50.40600 32.54100
C  18.56100 49.63900 33.67300
H  13.29400 54.27900 30.10500
H  14.15000 54.87000 23.59700
H  19.28400 50.78600 24.04300
H  16.80200 51.74000 32.05500
H  15.23000 54.12800 31.87600
H  13.58900 52.85400 32.69800
H  14.52600 51.37700 32.24500
H  13.41000 52.08800 31.09800
H  17.39600 54.64300 31.75000
H  18.71700 53.30500 31.90800
H  17.52400 54.77100 33.74100
H  18.62400 53.46200 34.06100
H  10.52700 54.88000 28.00800
H  11.13000 56.54600 28.00200
H  11.48600 55.49000 29.37400
H  9.78300 55.84300 24.45900
H  10.42400 57.31700 25.36700
H  10.14400 55.62500 26.19000
H  16.43400 54.34500 22.12700
H  17.81300 51.76700 22.11200
H  15.79400 51.81500 21.23300
H  14.62600 53.20300 21.42000
H  14.72200 51.91600 22.67100
H  19.08300 54.22200 23.60800
H  18.74600 54.42200 21.89700
H  20.46600 53.54000 21.27500
H  20.09600 51.97300 21.95100
H  21.01400 53.29600 22.92200
H  21.53000 49.82300 25.48900
H  20.14200 48.79400 25.07900
H  21.09400 48.40500 26.51800
H  19.79000 51.78800 30.91000
H  17.48800 49.49300 33.54600
H  18.76200 50.14600 34.61700
H  18.97100 48.63700 33.79600

