158

Mg 1.12600 7.78400 26.10500
C  1.78500 9.76700 28.79500
C  1.41800 4.99400 28.18500
C  0.49500 5.91300 23.36700
C  1.56800 10.68100 23.92500
N  1.52400 7.46500 28.25200
C  1.76800 8.45100 29.18200
C  1.90600 7.87400 30.60200
C  1.97000 6.31900 30.32900
C  1.59200 6.23400 28.82500
C  3.24200 5.52500 30.69500
C  0.76300 8.27300 31.50400
C  1.06000 8.25400 32.99900
H  2.20200 7.41200 33.59100
N  0.90600 5.71600 25.80200
C  1.23200 4.76500 26.77500
C  0.87500 3.47700 26.16800
C  0.53400 3.71700 24.78900
C  0.68100 5.16000 24.58800
C  1.08400 2.13900 26.87700
C  -0.03900 2.85800 23.76800
O  -0.42800 3.19200 22.63900
C  -0.08900 1.37800 24.12500
N  0.99700 8.26600 23.96500
C  0.61800 7.25600 23.07400
C  0.27300 7.87200 21.65400
C  0.89700 9.35700 21.82000
C  1.19200 9.43700 23.29100
C  0.94900 7.14300 20.49600
C  0.00100 10.46200 21.18300
C  -1.19200 10.80900 22.02900
N  1.62600 9.79500 26.24700
C  1.73200 10.77600 25.26100
C  2.17500 11.98400 25.92900
C  2.15700 11.74600 27.34000
C  1.75100 10.35100 27.46000
C  2.64100 13.22900 25.21600
C  2.34500 12.22100 28.72000
O  2.70700 13.30800 29.06800
C  2.05800 10.98900 29.70800
C  3.18600 10.86900 30.64300
O  4.37400 10.68600 30.26900
O  2.75300 10.91200 31.96600
C  3.78600 10.82200 32.98600
H  1.54300 4.11400 28.82000
H  0.14700 5.39700 22.47000
H  1.67400 11.62000 23.37800
H  2.83700 8.25400 31.02400
H  1.16900 5.78700 30.84300
H  3.05600 4.62900 31.28700
H  3.92900 6.00900 31.38900
H  3.72900 5.18400 29.78100
H  -0.08300 7.64000 31.23500
H  0.31100 9.24900 31.32400
H  0.12500 7.95000 33.46900
H  1.26100 9.25100 33.39000
H  1.71100 2.23200 27.76500
H  1.54800 1.36200 26.27000
H  0.19300 1.75000 27.37100
H  -0.55800 1.17300 25.08700
H  0.95200 1.06600 24.05300
H  -0.77900 0.81100 23.49900
H  -0.80900 7.93500 21.53900
H  1.87600 9.23300 21.35700
H  0.81300 7.76300 19.60900
H  0.53600 6.14000 20.39000
H  1.99900 6.91800 20.68300
H  -0.26800 10.13500 20.17800
H  0.67200 11.31200 21.06100
H  -2.15000 10.85300 21.51100
H  -1.00600 11.82800 22.36700
H  -1.28600 10.31600 22.99700
H  3.61100 12.97400 24.78900
H  2.58900 14.06100 25.91800
H  2.10300 13.43400 24.29100
H  1.13100 11.01500 30.28000
H  4.00300 11.85100 33.27300
H  4.66500 10.23700 32.71500
H  3.29500 10.42000 33.87200
Mg 47.27300 15.60500 28.00800
C  45.07000 15.32000 30.79700
C  49.42400 17.36100 30.08600
C  49.02200 16.48300 25.25800
C  44.65200 14.57300 25.96100
N  47.32200 16.10600 30.22800
C  46.30100 15.87700 31.13000
C  46.77700 16.29500 32.49900
C  48.06600 17.15100 32.30500
C  48.29500 16.93300 30.77200
C  47.93200 18.68000 32.68600
C  47.02700 15.06800 33.41500
C  47.18200 15.29300 34.92700
H  46.78300 16.65900 35.47000
N  49.05500 16.45300 27.76800
C  49.77900 17.14400 28.71800
C  51.09700 17.61000 28.13600
C  50.97800 17.29300 26.76500
C  49.67400 16.67200 26.51100
C  52.16300 18.29100 28.98300
C  52.05100 17.63800 25.75200
O  51.95200 17.19300 24.57800
C  53.32800 18.42300 26.09500
N  46.83500 15.53300 25.87800
C  47.75400 15.92000 25.03700
C  47.16700 15.72600 23.59000
C  45.86200 14.88500 23.80300
C  45.81400 14.96400 25.27000
C  46.80900 17.10800 22.90400
C  45.85600 13.41000 23.42400
C  46.33000 13.04400 22.01800
N  45.29900 15.02400 28.27800
C  44.36300 14.61500 27.34300
C  43.16800 14.26800 28.00200
C  43.35400 14.46100 29.38300
C  44.72300 14.93700 29.50200
C  41.82300 13.77700 27.30900
C  42.65400 14.43900 30.74600
O  41.56700 13.95000 31.16100
C  43.85000 15.05400 31.70700
C  43.31300 16.25700 32.41900
O  43.65400 17.38700 32.18400
O  42.57400 15.83700 33.52100
C  41.94800 16.89000 34.33300
H  50.12900 17.78300 30.80500
H  49.64500 16.64300 24.37500
H  43.83300 14.27300 25.30400
H  46.03800 16.99600 32.88800
H  48.90600 16.63400 32.76800
H  48.69900 18.89800 33.42800
H  47.02000 18.93000 33.22800
H  47.99300 19.37100 31.84500
H  47.89300 14.56900 32.97800
H  46.20200 14.39800 33.17500
H  48.17500 14.92800 35.18800
H  46.46300 14.58800 35.34500
H  53.09900 17.75500 29.14200
H  51.72400 18.56700 29.94200
H  52.36300 19.26400 28.53400
H  53.82100 17.82700 26.86200
H  53.03600 19.45300 26.30300
H  53.99100 18.42200 25.23000
H  47.88700 15.27600 22.90600
H  44.99300 15.37000 23.36000
H  45.83400 17.05000 22.41900
H  47.56400 17.52100 22.23600
H  46.79900 17.84800 23.70500
H  44.81200 13.10100 23.37600
H  46.42100 12.89500 24.20100
H  47.34500 12.65000 21.95100
H  46.37700 13.94000 21.39900
H  45.64900 12.32700 21.56000
H  41.47500 12.86500 27.79500
H  42.00600 13.59800 26.24900
H  41.10600 14.59500 27.37600
H  44.10700 14.30000 32.45100
H  41.12900 17.30400 33.74600
H  42.59700 17.64300 34.78000
H  41.49200 16.43900 35.21400

