158

Mg 16.99400 -2.86500 27.99500
C  15.79500 -0.85600 30.64700
C  18.84200 -4.71000 30.32900
C  18.31200 -4.54300 25.44100
C  15.19400 -0.95600 25.79300
N  17.32700 -2.62000 30.27100
C  16.71200 -1.82500 31.12200
C  17.05100 -2.17300 32.58300
C  18.14000 -3.33100 32.37900
C  18.15400 -3.57600 30.86000
C  19.53900 -3.03700 32.88100
C  15.80800 -2.51600 33.51500
C  15.86300 -1.94400 34.95900
H  17.11700 -1.22700 35.53300
N  18.42100 -4.43700 27.93600
C  19.00700 -5.08500 28.98100
C  19.78900 -6.19000 28.44200
C  19.67600 -6.11700 27.02100
C  18.74800 -5.05000 26.74800
C  20.57800 -7.10400 29.30800
C  20.42100 -7.01000 25.93600
O  20.27800 -6.72700 24.72900
C  21.34800 -8.07900 26.35100
N  16.87300 -2.67400 25.87800
C  17.56800 -3.43400 24.99000
C  17.38100 -2.84800 23.53800
C  16.27400 -1.76100 23.66400
C  16.02600 -1.86100 25.22900
C  18.77800 -2.37900 22.82200
C  15.01400 -2.09200 22.76100
C  14.62800 -0.88600 21.83700
N  15.63000 -1.35400 28.18400
C  14.97100 -0.68300 27.15000
C  14.17800 0.36200 27.69900
C  14.44500 0.35300 29.12500
C  15.30100 -0.74000 29.36000
C  13.37200 1.39200 26.91900
C  14.20400 1.06300 30.32400
O  13.59300 2.10900 30.53800
C  15.02600 0.21600 31.45600
C  15.88500 1.16100 32.24900
O  17.07500 1.23100 32.22500
O  15.20800 1.91200 33.16000
C  15.81500 2.83100 34.12700
H  19.32400 -5.32900 31.08800
H  18.66000 -5.08600 24.56000
H  14.60500 -0.47900 25.00800
H  17.52300 -1.25500 32.93400
H  17.85500 -4.28700 32.81700
H  19.54600 -2.08300 33.40900
H  20.23300 -2.84700 32.06200
H  19.99800 -3.87800 33.40000
H  15.76700 -3.59400 33.66700
H  14.93600 -2.10600 33.00500
H  15.62900 -2.71800 35.69000
H  15.05400 -1.21300 34.95800
H  20.46700 -6.83300 30.35800
H  21.64500 -6.99000 29.11600
H  20.44300 -8.17900 29.19000
H  20.74100 -8.74300 26.96600
H  22.14100 -7.67600 26.98200
H  21.76800 -8.56900 25.47200
H  17.01100 -3.71700 22.99400
H  16.62600 -0.75600 23.43200
H  18.81800 -1.31400 22.58900
H  19.20500 -2.96300 22.00800
H  19.51000 -2.36400 23.63000
H  14.23500 -2.56600 23.35800
H  15.33800 -2.90300 22.10900
H  14.02800 -1.10300 20.95300
H  15.49700 -0.29600 21.54500
H  14.08400 -0.14900 22.42900
H  12.93400 0.90400 26.04900
H  14.01600 2.23300 26.66000
H  12.46700 1.64900 27.47000
H  14.35800 -0.29800 32.14800
H  16.03900 3.76500 33.61200
H  16.79700 2.53600 34.49600
H  15.03100 2.92400 34.87900
Mg 9.51300 47.03500 26.24900
C  7.21800 46.82800 28.83700
C  11.78400 48.02800 28.34300
C  11.53600 47.62400 23.61100
C  6.80600 46.73200 24.01500
N  9.48700 47.45000 28.44100
C  8.49200 47.17000 29.31500
C  8.94300 47.39500 30.77500
C  10.37000 47.97400 30.60000
C  10.60600 47.88400 29.04300
C  10.52700 49.41600 31.20300
C  8.75700 46.12300 31.75300
C  9.76100 45.97500 32.91100
H  9.16200 45.46500 34.24900
N  11.43900 47.47700 26.05400
C  12.27700 47.86500 27.04200
C  13.60200 47.94700 26.51700
C  13.54900 47.73600 25.08000
C  12.11200 47.64500 24.86700
C  14.79200 47.96700 27.43800
C  14.64300 47.65600 24.03100
O  14.40600 47.49000 22.82600
C  16.07200 47.45900 24.53200
N  9.20300 47.13000 24.10600
C  10.22500 47.44700 23.23800
C  9.77300 47.36700 21.75900
C  8.24200 47.15100 21.88200
C  8.06300 47.02600 23.41700
C  10.11900 48.71700 21.07300
C  7.68400 45.89900 21.04600
C  6.44500 46.27000 20.21200
N  7.43000 46.93200 26.35200
C  6.47500 46.67300 25.39000
C  5.22900 46.47900 25.95300
C  5.44400 46.50200 27.30900
C  6.83500 46.78200 27.53900
C  3.90700 46.37900 25.32200
C  4.78900 46.32100 28.61200
O  3.69600 45.98600 29.00300
C  6.00500 46.56700 29.68300
C  6.01100 45.37100 30.46800
O  6.76200 44.40900 30.37100
O  5.27700 45.51800 31.58400
C  5.16900 44.44900 32.63900
H  12.61300 47.95900 29.05100
H  12.15700 47.75300 22.72300
H  5.92200 46.52800 23.40800
H  8.19300 48.11700 31.09700
H  11.11400 47.31500 31.04900
H  10.99700 49.29300 32.17900
H  9.55100 49.79300 31.50800
H  10.98100 50.19500 30.59100
H  8.85400 45.23000 31.13600
H  7.77600 46.13300 32.22900
H  10.39500 46.82600 33.16000
H  10.42700 45.17300 32.59200
H  15.30800 48.91300 27.26900
H  15.61000 47.30500 27.15500
H  14.56600 47.92900 28.50400
H  16.78000 47.29500 23.72000
H  16.11800 46.61700 25.22200
H  16.38500 48.36500 25.05200
H  10.26300 46.63300 21.11900
H  7.65700 48.04200 21.65400
H  9.19500 49.23600 20.82000
H  10.67800 48.57000 20.14900
H  10.71200 49.30400 21.77500
H  7.29600 45.16800 21.75600
H  8.40200 45.53000 20.31400
H  6.41100 45.64400 19.32000
H  6.41500 47.34200 20.02000
H  5.49200 46.04800 20.69200
H  4.06900 45.78000 24.42600
H  3.62100 47.38400 25.01100
H  3.11000 45.96300 25.93700
H  5.71300 47.38500 30.34100
H  5.23700 43.48700 32.12900
H  4.16400 44.48700 33.05800
H  5.97700 44.50500 33.36800

