158

Mg 25.85700 0.37000 28.75300
C  27.76800 0.06600 31.66200
C  23.07500 0.47100 30.70100
C  24.07200 0.64000 25.88700
C  28.66700 -0.54400 26.80200
N  25.50900 0.45700 30.94500
C  26.41100 0.36000 31.94600
C  25.80200 0.46500 33.36700
C  24.29700 0.65100 33.06700
C  24.25300 0.54700 31.51400
C  23.48900 -0.50600 33.72600
C  26.42900 1.53000 34.20000
C  26.91700 1.13200 35.58400
H  26.65500 2.06900 36.82000
N  23.85000 0.53500 28.33600
C  22.83900 0.51100 29.27200
C  21.53900 0.55500 28.56300
C  21.83500 0.77300 27.16700
C  23.25600 0.75900 27.04900
C  20.13200 0.52100 29.25900
C  20.80300 1.07500 25.96500
O  21.14600 1.29800 24.79100
C  19.36800 1.25700 26.33300
N  26.37100 0.04600 26.60900
C  25.45300 0.34000 25.68100
C  26.00700 0.33100 24.23900
C  27.56400 -0.03500 24.58900
C  27.54500 -0.23500 26.07700
C  25.47100 -0.68000 23.18300
C  28.48500 1.10900 24.26600
C  29.88200 0.68700 23.69000
N  27.86200 0.00500 29.12800
C  28.93500 -0.45400 28.25000
C  30.05300 -0.84000 29.06700
C  29.67600 -0.59900 30.40400
C  28.31200 -0.05800 30.37000
C  31.35500 -1.52900 28.70300
C  30.15500 -0.67400 31.76100
O  31.19800 -1.07800 32.29200
C  28.97100 -0.24200 32.63400
C  28.65400 -1.33400 33.58800
O  28.17000 -2.40500 33.33600
O  28.96100 -0.96700 34.86000
C  28.83500 -2.08600 35.79700
H  22.15700 0.49200 31.29100
H  23.56600 0.84700 24.94200
H  29.52900 -0.76900 26.17000
H  26.12200 -0.48500 33.79400
H  23.95500 1.64600 33.35300
H  23.80800 -1.47300 33.33700
H  22.42900 -0.44200 33.47700
H  23.59800 -0.50200 34.81000
H  25.70300 2.31500 34.41500
H  27.20500 2.08400 33.67100
H  28.00400 1.14800 35.50300
H  26.55600 0.12800 35.80800
H  19.63600 1.48300 29.38600
H  20.19600 0.19500 30.29700
H  19.44300 -0.14200 28.73500
H  18.79900 0.33200 26.42200
H  19.10700 1.55700 25.31800
H  19.25400 2.06200 27.06000
H  25.95200 1.37100 23.91600
H  27.79200 -0.94000 24.02500
H  26.25500 -1.19500 22.62800
H  24.79700 -0.13600 22.52100
H  24.82100 -1.43100 23.63200
H  28.75100 1.73100 25.12000
H  28.03500 1.83600 23.59000
H  30.02600 0.70900 22.61000
H  30.10600 -0.32700 24.02200
H  30.52700 1.45300 24.12100
H  31.08600 -2.18300 27.87300
H  31.77100 -2.08700 29.54100
H  32.12800 -0.79100 28.48300
H  29.32400 0.62200 33.19800
H  29.38500 -2.96700 35.46600
H  27.79200 -2.37300 35.93700
H  29.35200 -1.80200 36.71300
Mg 6.47600 57.00700 41.62800
C  6.03400 53.36500 41.83800
C  9.58600 56.22300 40.28100
C  6.83400 60.14800 40.98000
C  3.28000 57.18300 42.80000
N  7.60400 54.95100 40.97600
C  7.22000 53.66300 41.11100
C  8.32300 52.68600 40.65700
C  9.59700 53.62200 40.52700
C  8.93800 55.04800 40.64000
C  10.77100 53.46300 41.61200
C  7.82500 52.02900 39.27900
C  8.04300 50.51600 39.04300
H  7.70700 49.89900 37.64500
N  7.96000 58.00100 40.65100
C  9.18500 57.59100 40.25700
C  9.92100 58.73200 39.60100
C  9.10100 59.92400 39.70600
C  7.89100 59.42100 40.48400
C  11.30100 58.56400 39.11000
C  9.36900 61.29200 39.16600
O  10.31500 61.49200 38.39400
C  8.47700 62.48600 39.48600
N  5.19000 58.43500 41.61000
C  5.63200 59.73900 41.58900
C  4.59500 60.69500 42.22500
C  3.36700 59.75900 42.64800
C  3.95600 58.34200 42.34000
C  5.35300 61.56400 43.30900
C  1.99500 60.05700 41.89900
C  1.79900 61.47600 41.18900
N  5.01000 55.60000 42.36100
C  3.72400 55.88200 42.79100
C  3.12700 54.70500 43.34900
C  3.99100 53.67800 43.00300
C  5.13500 54.29700 42.38200
C  1.84400 54.65700 44.12900
C  4.14000 52.23500 43.05200
O  3.41200 51.36200 43.47900
C  5.44500 51.92500 42.14800
C  5.01300 51.09500 40.99500
O  4.23400 51.48200 40.12100
O  5.43900 49.79300 41.16100
C  4.88100 48.81300 40.22000
H  10.64200 56.16400 40.01000
H  6.75900 61.22500 40.81500
H  2.35600 57.25000 43.37800
H  8.46700 51.88900 41.38700
H  10.04500 53.61200 39.53300
H  10.67200 52.59400 42.26300
H  10.87600 54.37700 42.19700
H  11.75500 53.43200 41.14300
H  8.48400 52.45100 38.52000
H  6.80700 52.38900 39.12900
H  7.50400 50.03800 39.86000
H  9.08700 50.23900 39.18800
H  11.97100 58.04000 39.79100
H  11.62900 59.58300 38.90300
H  11.40700 58.09200 38.13300
H  8.35100 62.46900 40.56800
H  7.53600 62.55800 38.94100
H  8.98600 63.41200 39.22000
H  4.25400 61.42800 41.49400
H  3.24200 59.85200 43.72600
H  6.41100 61.30700 43.26500
H  5.02400 61.26400 44.30400
H  5.17500 62.62800 43.14800
H  1.17100 59.92200 42.60000
H  1.93400 59.28600 41.13100
H  2.43700 61.69500 40.33300
H  1.80000 62.33300 41.86200
H  0.77400 61.30900 40.85800
H  1.18000 55.50800 43.97200
H  2.12900 54.68000 45.18000
H  1.35600 53.69100 43.99400
H  6.22700 51.36900 42.66400
H  4.04000 49.10900 39.59300
H  4.60500 48.00900 40.90100
H  5.60500 48.46900 39.48100

