158

Mg 0.47600 7.38600 26.00200
C  0.99600 9.63200 28.67900
C  0.60200 4.79000 28.04800
C  0.22200 5.58700 23.28600
C  0.69500 10.26900 23.76300
N  0.72100 7.27100 28.18300
C  0.89800 8.27300 29.07100
C  1.00900 7.76300 30.53400
C  0.94900 6.12400 30.29700
C  0.71500 6.00700 28.73100
C  2.20600 5.32800 30.81600
C  -0.12200 8.34300 31.39100
C  0.26800 9.29100 32.50100
H  -0.20600 9.04300 33.92400
N  0.31900 5.49100 25.72500
C  0.35900 4.52000 26.73100
C  0.19600 3.21400 26.16500
C  0.10900 3.41500 24.74900
C  0.17800 4.89700 24.48200
C  0.32200 1.94300 26.96300
C  0.11200 2.44300 23.51900
O  0.13900 2.81600 22.33500
C  0.06000 1.00500 23.83100
N  0.49600 7.89900 23.76800
C  0.32000 6.93200 22.89200
C  0.20600 7.53700 21.44100
C  -0.04800 9.00400 21.69800
C  0.35000 9.13100 23.11500
C  1.48900 7.17900 20.65600
C  -1.51300 9.43100 21.59100
C  -1.81800 10.25300 20.31800
N  0.80600 9.57800 26.18800
C  0.95300 10.56200 25.18600
C  1.24200 11.86100 25.89100
C  1.22200 11.53500 27.26700
C  1.00600 10.14800 27.40500
C  1.24400 13.17800 25.19600
C  1.37000 12.08400 28.59600
O  1.56600 13.23400 28.95800
C  1.14000 10.79900 29.59200
C  2.31300 10.82800 30.45600
O  3.30400 10.16500 30.24100
O  2.19000 11.78300 31.47400
C  3.28900 11.87200 32.38400
H  0.58800 3.91200 28.69800
H  0.23000 5.01900 22.35300
H  0.68300 11.14600 23.11300
H  1.97500 8.03000 30.96400
H  0.14900 5.64600 30.86300
H  2.64200 4.81900 29.95700
H  1.77800 4.61700 31.52400
H  2.93600 5.95600 31.32600
H  -0.56900 7.52000 31.94900
H  -0.85900 8.78600 30.72200
H  -0.24800 10.20700 32.21300
H  1.33600 9.50900 32.49200
H  0.87400 2.04500 27.89700
H  0.87100 1.12500 26.49700
H  -0.64200 1.49000 27.19500
H  -0.84100 0.90100 24.43500
H  0.85500 0.62700 24.47400
H  -0.11400 0.27700 23.03800
H  -0.69700 7.04600 21.07800
H  0.66800 9.54100 21.07500
H  1.86400 8.03100 20.09000
H  1.34200 6.30000 20.02700
H  2.27900 6.94200 21.36900
H  -1.75500 9.98400 22.49900
H  -2.13400 8.55500 21.77800
H  -0.88800 10.26400 19.75000
H  -2.24200 11.21200 20.61500
H  -2.60200 9.75900 19.74400
H  1.21000 14.04100 25.86100
H  0.38300 13.12800 24.53100
H  2.12200 13.16400 24.55000
H  0.25300 11.04600 30.17500
H  3.40600 12.93700 32.58200
H  4.23200 11.46800 32.01500
H  2.96100 11.25100 33.21800
Mg 36.40000 48.97700 24.25400
C  36.42000 47.32000 27.45700
C  35.14000 51.70300 25.93600
C  35.62500 50.29400 21.21100
C  37.25000 45.96800 22.71500
N  35.77900 49.40700 26.47100
C  35.92500 48.63200 27.59200
C  35.72900 49.44100 28.88700
C  35.36500 50.82600 28.32700
C  35.38500 50.64300 26.82900
C  34.06400 51.47700 28.93600
C  36.99300 49.40600 29.86900
C  36.84200 48.96700 31.31600
H  35.48400 49.07100 31.96500
N  35.48300 50.75300 23.65400
C  35.11200 51.75500 24.51500
C  34.61800 52.90600 23.71400
C  34.80000 52.57100 22.36600
C  35.30400 51.17000 22.33200
C  34.08800 54.15800 24.32500
C  34.47100 53.41200 21.13200
O  34.73200 53.05200 20.03400
C  33.96900 54.82300 21.28700
N  36.40300 48.24400 22.27000
C  36.10200 48.98000 21.14200
C  36.34900 48.17900 19.81600
C  36.91100 46.83100 20.35300
C  36.92800 47.01500 21.89000
C  35.05100 47.99300 18.94600
C  38.21900 46.35800 19.53900
C  39.55700 46.95200 20.00100
N  36.88500 47.05000 24.88000
C  37.22800 45.90100 24.16700
C  37.42000 44.76800 25.05500
C  37.21400 45.31500 26.35300
C  36.76800 46.66400 26.20400
C  37.88600 43.36900 24.59000
C  37.20500 44.91900 27.82100
O  37.45100 43.82700 28.46900
C  36.64200 46.24900 28.53600
C  35.38300 45.94900 29.29700
O  34.26200 46.04800 28.92100
O  35.70300 45.37400 30.48800
C  34.59600 44.89200 31.31800
H  34.94300 52.58700 26.54500
H  35.35400 50.76900 20.26600
H  37.50900 45.02600 22.22900
H  34.85100 49.01000 29.36800
H  36.07700 51.62500 28.53700
H  33.55800 52.07200 28.17600
H  34.31600 52.14300 29.76100
H  33.37900 50.70500 29.28700
H  37.43600 50.39600 29.98000
H  37.83200 48.79700 29.53300
H  37.56700 49.54200 31.89100
H  37.04900 47.89800 31.27800
H  34.75300 55.02100 24.30200
H  33.76900 53.96600 25.34900
H  33.16100 54.38600 23.79800
H  34.57200 55.34100 22.03300
H  32.90600 54.94500 21.49900
H  34.18500 55.43100 20.40900
H  36.98600 48.73400 19.12700
H  36.17900 46.10300 20.00300
H  34.94600 48.74200 18.16000
H  34.23400 48.03300 19.66700
H  34.95100 47.01000 18.48600
H  38.05700 46.47100 18.46700
H  38.31800 45.29500 19.75500
H  40.05800 46.23100 20.64700
H  39.35800 47.93200 20.43600
H  40.09100 47.07800 19.05900
H  37.81600 42.75000 25.48500
H  38.86200 43.46700 24.11500
H  37.16900 43.05300 23.83200
H  37.36800 46.45900 29.32200
H  34.01000 44.12600 30.81000
H  33.94500 45.70300 31.64400
H  34.97000 44.56300 32.28800

