158

Mg 40.85700 7.44100 28.79700
C  42.64500 9.18400 31.48200
C  38.75300 6.47500 31.35300
C  39.16600 5.87400 26.42900
C  43.30500 8.36200 26.61300
N  40.77800 7.74200 31.15300
C  41.52800 8.54800 31.94600
C  41.00400 8.56500 33.38300
C  39.96200 7.41900 33.34300
C  39.87400 7.09200 31.88800
C  40.20900 6.24400 34.21300
C  40.37400 9.95800 33.89300
C  39.84600 9.84200 35.32700
H  40.39600 10.77100 36.41600
N  39.18100 6.35800 28.83500
C  38.40600 6.11200 29.95000
C  37.21300 5.45000 29.56400
C  37.26600 5.35300 28.11600
C  38.59300 5.80300 27.76300
C  36.17700 4.91800 30.55300
C  36.19000 4.97000 27.11800
O  36.27600 4.88800 25.91100
C  34.85300 4.57400 27.67500
N  41.29600 7.01500 26.84000
C  40.38800 6.41700 25.99300
C  40.95300 6.40900 24.56200
C  42.17500 7.30600 24.69400
C  42.23300 7.58100 26.11900
C  41.31200 5.06600 23.93300
C  41.97700 8.57500 23.82800
C  41.08800 9.76200 24.25200
N  42.62300 8.43200 29.01500
C  43.52200 8.70700 28.03100
C  44.66900 9.44000 28.52000
C  44.35200 9.68500 29.88000
C  43.09900 9.07600 30.15600
C  45.78000 9.95000 27.70600
C  44.74400 10.42500 31.13100
O  45.70500 11.15900 31.34300
C  43.65000 10.05800 32.25700
C  44.37100 9.47100 33.37300
O  45.28600 8.65100 33.26800
O  43.86100 10.09300 34.48600
C  44.28200 9.38800 35.70900
H  38.00800 6.28600 32.12900
H  38.63500 5.35600 25.62800
H  44.04200 8.77200 25.92000
H  41.83500 8.39100 34.06700
H  39.00200 7.90300 33.52300
H  39.25700 5.76100 34.43100
H  40.73900 6.51800 35.12500
H  40.79500 5.45100 33.74700
H  39.55700 10.35100 33.28800
H  41.21700 10.64100 34.00400
H  39.94500 8.82500 35.70600
H  38.77200 10.02400 35.32200
H  35.95300 3.89900 30.23800
H  35.26800 5.51100 30.45200
H  36.46600 4.94400 31.60400
H  34.07400 4.25500 26.98200
H  34.47300 5.46800 28.16900
H  34.90900 3.79500 28.43500
H  40.25000 6.89900 23.88800
H  43.12100 6.93900 24.29500
H  41.00700 4.27300 24.61500
H  42.36600 4.83100 23.79000
H  40.82800 4.93000 22.96600
H  41.67100 8.32300 22.81300
H  42.93700 9.07100 23.68500
H  40.38200 9.94500 23.44200
H  41.81500 10.54100 24.48100
H  40.36600 9.61700 25.05500
H  45.36000 10.81200 27.18800
H  46.04800 9.23000 26.93200
H  46.52300 10.29600 28.42400
H  43.15500 10.99000 32.52900
H  44.31700 8.31200 35.53700
H  43.58500 9.50900 36.53900
H  45.25200 9.73200 36.06900
Mg 40.78200 40.88600 26.65200
C  40.31500 43.26300 29.17000
C  41.50000 38.59800 29.12700
C  41.64100 38.75100 24.23200
C  40.55300 43.44000 24.26300
N  41.04100 40.95300 28.96900
C  40.56900 42.00600 29.75300
C  40.62300 41.62900 31.23000
C  41.12400 40.13600 31.15400
C  41.23400 39.87000 29.68700
C  42.45800 39.81000 31.94400
C  39.29400 41.81600 31.97800
C  39.16100 42.84700 33.04700
H  38.52400 42.51300 34.37900
N  41.54500 38.97100 26.70200
C  41.82400 38.20300 27.79800
C  42.32200 36.86600 27.41700
C  42.31700 36.92000 25.99700
C  41.82600 38.19600 25.55600
C  42.74800 35.75500 28.38800
C  42.83400 35.82400 25.00300
O  42.90200 35.99600 23.77600
C  43.45900 34.54600 25.52400
N  41.00900 41.05300 24.53100
C  41.29100 40.02400 23.74300
C  41.18100 40.27800 22.20300
C  40.55400 41.74900 22.32200
C  40.69000 42.11500 23.77800
C  42.61400 40.14300 21.55100
C  39.05800 41.83300 21.88200
C  38.14500 40.60800 22.14800
N  40.39300 42.98500 26.64300
C  40.39400 43.88400 25.59800
C  40.19900 45.14100 26.11000
C  40.17900 45.02300 27.50600
C  40.28600 43.61200 27.76300
C  40.22200 46.41500 25.28000
C  39.96300 45.68200 28.77700
O  39.65500 46.82900 29.06500
C  40.06500 44.58900 29.87100
C  41.07700 44.98000 30.89600
O  42.23800 44.73200 30.78300
O  40.43700 45.79900 31.83500
C  41.39000 46.39100 32.80700
H  41.64300 37.76500 29.81700
H  41.86500 38.04400 23.43000
H  40.48300 44.21000 23.49100
H  41.23800 42.33200 31.79100
H  40.40300 39.41600 31.54000
H  42.23600 39.01900 32.66100
H  42.67400 40.65200 32.60200
H  43.33400 39.59100 31.33300
H  38.72600 40.93900 32.28900
H  38.68200 42.23700 31.18100
H  38.53700 43.69100 32.75100
H  40.13400 43.31000 33.21200
H  43.62200 35.25900 27.96500
H  42.01900 34.94600 28.42700
H  43.15600 36.06000 29.35100
H  42.91300 33.89800 26.21000
H  44.34700 34.90500 26.04500
H  43.54300 33.94500 24.61900
H  40.50600 39.63000 21.64400
H  41.09700 42.36700 21.60800
H  43.39700 40.14600 22.30900
H  42.73600 40.96800 20.84900
H  42.69000 39.34400 20.81400
H  39.03300 42.06900 20.81800
H  38.51500 42.70400 22.24800
H  37.84800 40.00500 21.29000
H  37.15800 40.82000 22.55900
H  38.64300 39.95900 22.86900
H  40.44500 46.24900 24.22500
H  41.03000 47.09900 25.53900
H  39.27200 46.92500 25.43400
H  39.13800 44.53900 30.44200
H  41.90000 45.60300 33.36200
H  40.78800 46.89400 33.56300
H  42.01900 47.16700 32.37000

