158

Mg 47.09000 16.31800 28.48500
C  45.22700 15.47500 31.26200
C  48.74500 18.61600 30.27700
C  48.86300 17.19500 25.69000
C  45.05700 14.31900 26.53700
N  46.91700 16.96600 30.52700
C  46.22900 16.39000 31.52800
C  46.68900 16.90300 32.92400
C  47.63200 18.08000 32.55300
C  47.81300 17.82100 31.04100
C  47.13100 19.51900 32.92500
C  47.37800 15.83100 33.77600
C  47.12600 15.80100 35.31900
H  48.38200 15.81900 36.26400
N  48.67400 17.59700 28.07200
C  49.28200 18.39900 28.99400
C  50.44500 19.02800 28.41100
C  50.49700 18.66100 27.09700
C  49.34100 17.73600 26.87600
C  51.53100 19.64700 29.35000
C  51.47300 19.09300 25.93600
O  51.43200 18.69600 24.77300
C  52.63900 19.88400 26.36400
N  47.06300 15.69400 26.41600
C  47.90500 16.15400 25.45700
C  47.41600 15.71300 24.03400
C  46.42100 14.58900 24.44200
C  46.14500 14.84800 25.86300
C  46.67400 16.80000 23.26300
C  47.01800 13.19100 24.40700
C  47.03700 12.39600 23.07000
N  45.38700 15.24000 28.74400
C  44.68000 14.44900 27.88400
C  43.57500 13.73700 28.49600
C  43.79700 14.09600 29.86800
C  44.87700 14.99900 29.92900
C  42.46300 12.88100 27.93900
C  43.33500 13.95000 31.30500
O  42.40200 13.27800 31.72500
C  44.28200 14.74900 32.27700
C  43.46600 15.82900 32.97600
O  42.79100 16.69900 32.46400
O  43.41600 15.57300 34.36500
C  42.50300 16.27600 35.19300
H  49.39200 19.29000 30.84200
H  49.44800 17.51600 24.82600
H  44.31500 13.80900 25.92000
H  45.79300 17.28800 33.41300
H  48.63800 17.90400 32.93400
H  46.27700 19.80300 32.31000
H  47.96600 20.21000 32.81500
H  46.74100 19.47900 33.94200
H  48.46100 15.94800 33.74500
H  47.12300 14.83000 33.42700
H  46.46000 14.99400 35.62400
H  46.58400 16.74300 35.40100
H  51.35800 20.72300 29.36000
H  52.55400 19.42600 29.04600
H  51.41400 19.34400 30.39100
H  52.28800 20.78100 26.87400
H  53.23700 20.18700 25.50500
H  53.25400 19.26700 27.02000
H  48.25500 15.38500 23.42000
H  45.47200 14.55300 23.90900
H  45.65800 16.59300 22.92900
H  47.34400 16.91500 22.41100
H  46.59400 17.78200 23.72800
H  46.38800 12.57000 25.04300
H  47.99700 13.25100 24.88300
H  46.61700 11.43500 23.36900
H  48.09300 12.30100 22.81700
H  46.56400 12.86200 22.20600
H  41.86200 13.47300 27.25000
H  41.73600 12.64900 28.71700
H  42.86400 12.00000 27.43600
H  44.65300 14.03700 33.01500
H  41.67400 16.65400 34.59500
H  43.05300 17.13300 35.58200
H  42.19900 15.59600 35.98800
Mg 29.31600 58.16100 40.94200
C  26.31500 56.77200 39.75000
C  31.06200 55.45100 39.58500
C  32.10600 59.93200 41.27900
C  27.42700 61.26200 41.39000
N  28.73900 56.37700 39.75700
C  27.43700 55.99100 39.36500
C  27.39100 54.65200 38.66600
C  28.92400 54.16600 38.88100
C  29.61500 55.38000 39.50700
C  29.05200 53.02100 39.93600
C  26.99700 54.79100 37.19800
C  26.03800 53.79500 36.67700
H  26.25400 53.48100 35.18800
N  31.32000 57.74100 40.48900
C  31.84100 56.53300 39.99700
C  33.33200 56.65000 40.07900
C  33.66500 57.94200 40.57900
C  32.34900 58.59300 40.87500
C  34.25700 55.45100 39.74600
C  35.08900 58.51000 40.77200
O  36.05200 57.78900 40.50300
C  35.35100 59.90900 41.32000
N  29.74000 60.31400 41.29800
C  31.02000 60.73600 41.44200
C  31.04100 62.25900 41.85200
C  29.56700 62.69600 41.76200
C  28.83800 61.35400 41.56800
C  31.70500 62.69300 43.25800
C  29.22600 63.80100 40.73400
C  28.71700 65.11400 41.37100
N  27.33100 58.84200 40.87900
C  26.71800 60.08500 41.02200
C  25.32200 60.00300 40.83500
C  25.08500 58.66500 40.43700
C  26.39700 58.04700 40.37800
C  24.34200 61.14300 41.04900
C  24.08900 57.68400 40.09600
O  22.87400 57.70400 40.09700
C  24.86600 56.44200 39.57100
C  24.56100 55.24800 40.39700
O  24.78300 55.19100 41.61100
O  24.01200 54.25200 39.63800
C  23.52100 52.99600 40.32000
H  31.64600 54.56400 39.33200
H  32.95100 60.60400 41.44600
H  26.87600 62.20500 41.35200
H  26.61200 54.02200 39.09500
H  29.51600 53.95600 37.99000
H  28.26900 52.28300 39.76100
H  28.99100 53.49600 40.91500
H  29.95100 52.44200 39.72500
H  27.94400 54.83200 36.66000
H  26.55200 55.74800 36.92500
H  24.99200 54.07700 36.79700
H  26.22700 52.81200 37.10800
H  34.86800 55.64100 38.86400
H  33.69900 54.51800 39.66500
H  34.90200 55.29900 40.61100
H  35.09800 60.74500 40.66700
H  36.42600 59.98600 41.48000
H  34.92100 59.98400 42.31900
H  31.59400 62.80900 41.09100
H  29.22000 63.07700 42.72300
H  32.72200 62.31400 43.35900
H  31.15100 62.35000 44.13200
H  31.79400 63.77800 43.30600
H  28.64200 63.42100 39.89600
H  30.11400 64.16900 40.22000
H  29.42500 65.27400 42.18500
H  27.70300 64.99800 41.75400
H  28.71700 65.97900 40.70800
H  23.31200 60.79000 40.99300
H  24.48200 61.88600 40.26300
H  24.44400 61.48500 42.07900
H  24.54600 56.19900 38.55800
H  22.54200 53.23800 40.73300
H  24.12900 52.82600 41.20900
H  23.44400 52.14500 39.64300

