158

Mg 54.39400 24.80000 44.25100
C  51.61500 26.92600 43.47900
C  52.46800 22.10500 42.95800
C  57.03400 23.03500 44.15100
C  56.30300 27.69000 45.00800
N  52.24200 24.50600 43.27200
C  51.41200 25.58300 43.06800
C  50.16000 24.99200 42.33100
C  50.27700 23.43900 42.49100
C  51.75400 23.33200 42.95800
C  49.18000 22.77700 43.46700
C  49.91300 25.50400 40.81900
C  48.40800 25.48500 40.42900
H  48.03900 25.15600 38.96000
N  54.70200 22.82300 43.70100
C  53.79700 21.88000 43.27200
C  54.49800 20.58500 43.19200
C  55.89800 20.76500 43.57300
C  55.89500 22.22900 43.81500
C  53.71900 19.31500 42.71400
C  57.05100 19.77700 43.66400
O  56.84000 18.58300 43.39600
C  58.46800 20.14200 43.99100
N  56.43700 25.37500 44.36700
C  57.32000 24.33800 44.46100
C  58.74300 24.91100 44.59100
C  58.54200 26.43600 44.95400
C  57.04400 26.57600 44.79600
C  59.58100 24.12700 45.66300
C  59.31100 27.44800 44.09600
C  60.18400 28.51400 44.89000
N  54.06900 26.83400 44.42200
C  54.91700 27.84800 44.79900
C  54.05800 29.02200 45.08600
C  52.75400 28.69400 44.56900
C  52.86400 27.39100 44.13700
C  54.43100 30.29100 45.84200
C  51.38500 29.17600 44.31800
O  50.92700 30.20700 44.61400
C  50.62000 28.09500 43.45400
C  50.39500 28.73800 42.11100
O  51.12600 29.04000 41.20100
O  49.07400 28.75900 41.96200
C  48.57900 29.31400 40.66900
H  51.83200 21.32400 42.53700
H  58.00900 22.54400 44.15400
H  56.76100 28.47500 45.61400
H  49.34500 25.38200 42.94000
H  50.09500 22.94900 41.53500
H  49.64400 22.46700 44.40300
H  48.80400 21.87400 42.98700
H  48.39000 23.50100 43.67000
H  50.57300 24.92300 40.17400
H  50.29300 26.50800 40.63100
H  48.04100 26.51100 40.47400
H  47.89900 24.71100 41.00400
H  54.32200 18.86200 41.92700
H  52.65100 19.48200 42.58000
H  53.62800 18.54300 43.47800
H  58.78300 20.89000 43.26300
H  59.16300 19.30800 43.90100
H  58.62600 20.55300 44.98800
H  59.30000 24.83700 43.65700
H  58.90900 26.61300 45.96500
H  58.89300 23.48900 46.21800
H  60.08300 24.72300 46.42500
H  60.29100 23.44100 45.20100
H  58.58100 28.09900 43.61600
H  59.94600 26.91200 43.39100
H  59.81800 29.47900 44.53800
H  61.23100 28.37600 44.62000
H  59.95200 28.34100 45.94000
H  53.74800 31.12300 45.67300
H  55.45300 30.55900 45.57500
H  54.33700 29.98500 46.88400
H  49.69900 27.67800 43.86200
H  48.89200 28.72200 39.81000
H  48.72600 30.39300 40.63200
H  47.50000 29.25100 40.81100
Mg -1.76100 33.84900 27.46700
C  -3.68000 32.31000 29.91000
C  -0.40800 35.82400 29.86300
C  -0.29200 35.75400 25.04300
C  -3.52600 32.21900 24.88000
N  -2.06700 34.00700 29.61800
C  -2.76700 33.18900 30.50400
C  -2.61900 33.63500 31.98300
C  -1.65900 34.83900 31.86100
C  -1.38500 34.94900 30.36700
C  -2.15700 36.21600 32.35900
C  -2.16300 32.46700 32.96000
C  -1.43300 32.95500 34.30100
H  -1.59700 32.19000 35.64700
N  -0.43300 35.50900 27.46600
C  0.06800 36.04500 28.54500
C  1.09200 37.00000 28.18200
C  1.06000 37.12400 26.80700
C  0.07200 36.16400 26.34800
C  1.98800 37.58100 29.21500
C  1.96800 37.85300 25.84600
O  1.82100 37.71400 24.65900
C  3.00300 38.80400 26.30100
N  -1.92100 34.04400 25.29200
C  -1.19000 34.85100 24.55200
C  -1.66100 34.77900 23.12500
C  -2.28300 33.37600 22.94900
C  -2.59200 33.13100 24.47000
C  -2.49700 36.06100 22.73100
C  -1.28200 32.18100 22.46400
C  0.18400 32.05900 22.96100
N  -3.34500 32.54800 27.38300
C  -3.95500 31.92800 26.28200
C  -4.89700 31.05600 26.77300
C  -4.87000 31.13700 28.16900
C  -3.86100 32.05100 28.49400
C  -5.75800 30.24400 25.92900
C  -5.42500 30.60700 29.42400
O  -6.24700 29.74000 29.64600
C  -4.72500 31.38400 30.50800
C  -5.82400 32.18700 31.19600
O  -6.69000 32.91300 30.69400
O  -5.74100 31.80700 32.49100
C  -6.84300 32.27300 33.35100
H  0.06200 36.32600 30.71100
H  0.08700 36.35500 24.21400
H  -4.08300 31.67700 24.11300
H  -3.64200 33.90500 32.24300
H  -0.66900 34.66900 32.28200
H  -1.34300 36.76800 32.83000
H  -2.83100 35.97400 33.18100
H  -2.64500 36.79600 31.57600
H  -1.46500 31.80500 32.44700
H  -3.02000 31.82300 33.15600
H  -1.75700 33.94300 34.62900
H  -0.36700 33.00300 34.08100
H  2.82000 36.94800 29.52300
H  1.36700 37.75400 30.09400
H  2.34200 38.56900 28.92100
H  3.77800 38.38900 26.94500
H  2.53100 39.68600 26.73300
H  3.41800 39.20300 25.37500
H  -0.86700 34.82500 22.37900
H  -3.18800 33.36300 22.34200
H  -2.39000 36.85800 23.46500
H  -3.53500 35.80600 22.51700
H  -2.12900 36.45600 21.78400
H  -1.37700 32.30100 21.38500
H  -1.89000 31.31700 22.73100
H  0.91200 32.27000 22.17800
H  0.38800 31.06400 23.35800
H  0.41400 32.72800 23.79100
H  -6.51000 30.89200 25.48000
H  -6.32700 29.61600 26.61500
H  -5.21000 29.68100 25.17400
H  -4.36900 30.66100 31.24200
H  -7.55500 32.91500 32.83100
H  -6.42300 32.78800 34.21500
H  -7.43000 31.40300 33.64500

