158

Mg 55.87700 25.16100 45.31200
C  52.84400 26.55000 44.14100
C  54.50700 22.02000 44.62900
C  58.88300 23.88000 45.82600
C  57.00000 28.31400 46.18600
N  53.96500 24.49800 44.35500
C  52.86700 25.15500 44.06400
C  51.73700 24.25800 43.63900
C  52.13500 22.88700 44.29600
C  53.61800 23.12400 44.51900
C  51.30500 22.56200 45.66900
C  51.37100 24.26400 42.18700
C  49.84700 24.11400 42.00500
H  49.45100 22.95600 41.07400
N  56.63900 23.16100 45.15200
C  55.91300 22.03300 44.91300
C  56.71400 20.88100 45.06800
C  58.00600 21.40200 45.37500
C  57.89500 22.89900 45.53300
C  56.25000 19.53100 45.00600
C  59.24000 20.54800 45.58200
O  59.16700 19.34200 45.44800
C  60.61800 21.06200 45.88900
N  57.74000 26.03700 45.61500
C  58.80100 25.26000 45.84500
C  59.91000 26.07300 46.60800
C  59.30000 27.46600 46.55200
C  57.92400 27.29400 46.09500
C  60.24000 25.52300 48.04400
C  60.16300 28.52600 45.76800
C  59.65300 29.14900 44.39000
N  55.16100 27.17500 45.12000
C  55.68300 28.28900 45.71800
C  54.64700 29.36000 45.65100
C  53.53200 28.75200 44.95900
C  53.87200 27.41200 44.63300
C  54.85100 30.67100 46.34800
C  52.13300 28.86100 44.47700
O  51.43700 29.85500 44.50700
C  51.66700 27.49000 43.77100
C  51.40600 27.82800 42.32900
O  52.26400 27.89500 41.45500
O  50.03600 27.93400 42.09900
C  49.71000 28.11000 40.73300
H  54.05200 21.03600 44.49400
H  59.90100 23.50900 45.96700
H  57.32700 29.25600 46.63100
H  50.90300 24.63100 44.23300
H  51.96300 22.03100 43.64300
H  50.88000 23.48300 46.06800
H  52.12300 22.41400 46.37500
H  50.62900 21.71100 45.59200
H  51.74800 23.37300 41.68700
H  51.73000 25.13700 41.64100
H  49.30800 25.03900 41.80200
H  49.42300 23.72900 42.93300
H  55.17500 19.35300 44.96200
H  56.53800 19.08200 45.95700
H  56.83200 19.16000 44.16200
H  60.73700 21.86000 45.15600
H  61.33100 20.24400 45.78500
H  60.62000 21.43400 46.91300
H  60.80700 25.94200 46.00500
H  59.23200 27.80400 47.58600
H  61.21700 25.06300 48.19100
H  59.47800 24.77300 48.25600
H  60.23200 26.24200 48.86400
H  61.16500 28.16700 45.53100
H  60.31900 29.34700 46.46800
H  60.50600 28.82000 43.79700
H  59.41800 30.21400 44.38800
H  58.79400 28.61400 43.98600
H  54.89300 30.41600 47.40700
H  54.00200 31.34800 46.25200
H  55.70000 31.16000 45.87200
H  50.74900 27.29200 44.32400
H  50.43500 28.52900 40.03500
H  48.77500 28.67100 40.71200
H  49.35400 27.19800 40.25400
Mg 29.29900 58.30300 40.20600
C  27.59700 55.30900 39.44800
C  32.24800 56.69600 39.51300
C  30.76700 61.17400 40.60900
C  26.07500 59.90300 40.22200
N  29.81600 56.30400 39.41800
C  28.94000 55.20100 39.24300
C  29.72300 54.00000 38.58400
C  31.18700 54.47900 38.77900
C  31.10100 55.92400 39.29400
C  32.14300 53.53500 39.55400
C  29.19700 53.72400 37.08900
C  29.14300 54.94000 36.11100
H  27.82100 55.50800 35.64500
N  31.27100 58.90700 40.18700
C  32.31700 58.09100 39.92700
C  33.50000 58.92700 39.93600
C  33.14900 60.25600 40.19000
C  31.66700 60.17200 40.34800
C  34.90000 58.42600 39.58400
C  34.10600 61.49800 40.21200
O  35.27400 61.34700 40.06500
C  33.63400 62.91200 40.39200
N  28.55500 60.21000 40.18800
C  29.40000 61.17300 40.55900
C  28.66100 62.46300 40.91800
C  27.24700 62.18600 40.30400
C  27.27500 60.63300 40.28300
C  28.73000 62.90200 42.46300
C  26.92900 62.76800 38.86600
C  25.48700 63.25600 38.61000
N  27.14800 57.74200 39.85700
C  25.99700 58.48700 40.03500
C  24.85100 57.57900 40.00500
C  25.39100 56.28500 39.86300
C  26.80300 56.45400 39.71400
C  23.41600 57.88100 40.34500
C  25.12900 54.89600 39.74400
O  24.11100 54.24200 39.81400
C  26.54100 54.16000 39.47700
C  26.89200 53.24600 40.59600
O  27.09000 52.07900 40.48100
O  27.05900 53.96500 41.72500
C  27.66700 53.27000 42.85300
H  33.22200 56.20500 39.44400
H  31.21600 62.13100 40.88100
H  25.15700 60.49500 40.21900
H  29.56000 53.11400 39.19800
H  31.58800 54.46300 37.76500
H  31.73400 52.52500 39.58600
H  32.17400 53.99600 40.54100
H  33.19300 53.55500 39.26100
H  28.25400 53.18000 37.03600
H  29.88900 52.93500 36.79400
H  29.77300 54.73700 35.24500
H  29.59300 55.83700 36.53900
H  35.27600 59.03000 38.75800
H  34.97900 57.34600 39.46000
H  35.50400 58.78000 40.42000
H  33.37600 62.99100 41.44800
H  32.90600 63.05200 39.59300
H  34.44500 63.61800 40.21100
H  29.14000 63.23500 40.31600
H  26.45200 62.44600 41.00200
H  27.72000 63.15500 42.78400
H  29.28800 63.82700 42.60400
H  28.94500 62.04300 43.10000
H  27.31800 62.00500 38.19200
H  27.56000 63.65000 38.75800
H  25.06400 62.62800 37.82600
H  25.51200 64.25500 38.17400
H  24.85000 63.30500 39.49300
H  22.76900 57.67500 39.49200
H  23.18500 58.86700 40.74800
H  23.15300 57.23300 41.18100
H  26.38300 53.55900 38.58200
H  27.41000 52.23700 43.08900
H  27.46100 53.70500 43.83100
H  28.74600 53.25800 42.69800

