158

Mg 39.95400 8.20500 29.25200
C  41.74800 9.85300 31.86300
C  37.48400 7.35300 31.52600
C  38.38200 6.80700 26.71300
C  42.75300 8.84400 27.17000
N  39.78600 8.52900 31.51800
C  40.59000 9.23800 32.33400
C  39.92700 9.34300 33.73200
C  38.67300 8.36000 33.63900
C  38.59500 8.13100 32.07500
C  38.89900 7.08200 34.49200
C  39.69300 10.76800 34.30800
C  38.68400 10.83600 35.48300
H  39.07200 11.64600 36.73600
N  38.15600 7.22800 29.16400
C  37.30300 6.97100 30.18400
C  36.17300 6.29900 29.56700
C  36.37400 6.16300 28.16800
C  37.66600 6.77900 27.93900
C  34.88200 6.06600 30.28600
C  35.53700 5.43900 27.16600
O  35.89200 5.33200 25.99000
C  34.38300 4.57600 27.62900
N  40.50400 7.82200 27.23300
C  39.60800 7.27000 26.38200
C  40.12700 7.33200 24.87200
C  41.60300 7.96600 25.15400
C  41.69600 8.17700 26.63100
C  40.31500 5.94100 24.28600
C  41.66800 9.34900 24.32900
C  40.55300 10.39600 24.69500
N  41.85000 9.03400 29.49100
C  42.78200 9.25600 28.49500
C  43.89200 10.00200 29.11100
C  43.48100 10.35600 30.39800
C  42.22900 9.71000 30.58000
C  45.19800 10.28100 28.41600
C  43.84900 11.11300 31.58600
O  44.86300 11.72500 31.85000
C  42.70500 10.82400 32.62900
C  43.44200 10.23300 33.79700
O  44.19600 9.30000 33.78700
O  43.26200 11.19700 34.77300
C  44.06600 10.93800 36.01300
H  36.70700 7.12000 32.25800
H  37.93300 6.47800 25.77300
H  43.49900 9.16200 26.43900
H  40.77200 8.91600 34.27200
H  37.76000 8.87500 33.93600
H  39.68300 7.28500 35.22200
H  39.26500 6.25300 33.88600
H  37.92700 6.95500 34.96700
H  39.28100 11.39700 33.51900
H  40.63700 11.14300 34.70500
H  38.44700 9.81900 35.79400
H  37.71000 11.15400 35.10900
H  34.72300 6.57400 31.23700
H  34.76300 5.00200 30.48900
H  34.05000 6.36500 29.64900
H  34.77700 4.01700 28.47900
H  34.16300 3.95500 26.76100
H  33.52900 5.18800 27.91800
H  39.55200 7.89000 24.13300
H  42.43200 7.36800 24.77700
H  39.92000 5.21500 24.99600
H  41.39000 5.77900 24.20500
H  39.74400 5.80400 23.36700
H  41.78500 9.08600 23.27800
H  42.60500 9.78900 24.66900
H  39.85200 10.04900 25.45500
H  39.95900 10.63000 23.81200
H  41.13200 11.27700 24.97300
H  46.03200 10.14100 29.10400
H  45.10900 11.25900 27.94400
H  45.25700 9.51600 27.64200
H  42.13700 11.73800 32.80000
H  43.59000 11.36100 36.89700
H  45.08500 11.32400 35.96500
H  44.11100 9.87000 36.22200
Mg 16.17500 52.27200 26.16100
C  18.47100 51.71300 28.66800
C  13.74100 52.06900 28.58200
C  13.84800 52.73300 23.74800
C  18.66700 51.69500 23.74400
N  16.16100 52.11700 28.42800
C  17.24500 52.00500 29.20600
C  16.87900 52.22300 30.64800
C  15.32400 52.02600 30.66600
C  14.99300 52.05600 29.15800
C  14.81400 50.81700 31.52400
C  17.54500 53.55600 31.18100
C  17.96300 53.54700 32.63300
H  17.21400 52.67900 33.69600
N  14.02800 52.29500 26.13100
C  13.22400 52.17700 27.22300
C  11.84800 52.14200 26.75500
C  11.88800 52.36800 25.33000
C  13.32200 52.47600 25.02800
C  10.69100 51.83000 27.67000
C  10.75900 52.43000 24.28000
O  11.01600 52.79300 23.18500
C  9.35700 52.11800 24.68000
N  16.18000 52.24300 24.06300
C  15.16500 52.65600 23.33300
C  15.63600 52.95300 21.86500
C  17.16700 52.61700 21.83200
C  17.33700 52.12000 23.26500
C  14.76000 52.33500 20.74000
C  18.02300 53.83300 21.44100
C  18.97100 53.57200 20.25300
N  18.13800 51.80400 26.12200
C  19.00600 51.55900 25.11700
C  20.30800 51.14400 25.63500
C  20.15100 51.23600 27.02200
C  18.78700 51.60200 27.25200
C  21.54000 50.80200 24.90100
C  20.78700 51.14000 28.29100
O  21.92600 50.79800 28.56700
C  19.72300 51.45700 29.39600
C  19.60600 50.27500 30.19400
O  19.25100 49.13700 29.85400
O  20.08200 50.56800 31.42100
C  20.23900 49.55600 32.42500
H  12.99500 52.10300 29.37900
H  13.20500 53.05300 22.92600
H  19.54300 51.52700 23.11400
H  17.29000 51.41100 31.24700
H  14.90500 52.95400 31.05400
H  14.05600 51.00300 32.28500
H  15.66900 50.29900 31.95800
H  14.35600 50.09000 30.85300
H  16.77100 54.28300 30.93400
H  18.47600 53.81200 30.67500
H  17.82200 54.58200 32.94400
H  18.95800 53.10200 32.66400
H  10.04900 52.71100 27.66700
H  11.01300 51.47500 28.64900
H  10.07500 51.04200 27.23600
H  9.04200 52.61100 25.60000
H  9.30900 51.03900 24.82600
H  8.64100 52.43700 23.92300
H  15.40800 54.01800 21.90100
H  17.32100 51.64900 21.35600
H  15.43600 51.74800 20.11800
H  14.47200 53.17600 20.10800
H  13.95500 51.63400 20.95900
H  18.61300 53.93300 22.35200
H  17.45600 54.72200 21.16400
H  19.09200 54.46400 19.63800
H  18.49300 52.80900 19.63900
H  19.95500 53.38700 20.68100
H  22.33200 50.55600 25.60800
H  21.79300 51.61800 24.22400
H  21.33300 49.97800 24.21800
H  20.17200 52.23200 30.01600
H  20.87500 48.75900 32.03900
H  19.21200 49.21900 32.56300
H  20.70300 50.08400 33.25800

