158

Mg 25.08200 -4.81400 46.07900
C  26.87100 -2.07500 44.52200
C  22.44300 -3.88600 44.03700
C  23.54500 -7.45000 47.09500
C  28.00900 -5.83100 47.57800
N  24.63500 -2.96100 44.65200
C  25.56100 -2.09700 44.02500
C  24.94500 -1.32500 42.88000
C  23.40600 -1.73500 42.99600
C  23.43100 -2.89600 43.96500
C  22.41400 -0.59800 43.32600
C  25.68300 -1.73400 41.52000
C  26.39300 -0.59700 40.75600
H  25.94800 -0.51400 39.30000
N  23.21400 -5.53200 45.67000
C  22.31500 -5.06300 44.82600
C  21.11600 -5.88700 44.90000
C  21.37700 -6.95000 45.76800
C  22.71500 -6.70300 46.25400
C  19.86600 -5.57200 44.17000
C  20.36800 -7.98500 46.24000
O  19.16300 -7.87400 45.91200
C  20.65700 -9.15700 47.14800
N  25.68300 -6.42300 47.26500
C  24.85800 -7.32900 47.64300
C  25.47000 -8.52800 48.41800
C  27.00900 -8.02900 48.46400
C  26.92400 -6.67100 47.71800
C  24.82400 -8.67200 49.88600
C  28.07900 -8.91800 47.77600
C  29.30700 -9.43100 48.74000
N  27.04300 -4.11000 46.12900
C  28.04900 -4.56700 46.85000
C  29.26100 -3.74300 46.69400
C  28.80700 -2.75600 45.77100
C  27.49700 -2.97200 45.45400
C  30.61600 -4.05000 47.27800
C  29.20000 -1.56700 44.99200
O  30.18000 -0.81200 45.15700
C  28.00800 -1.23500 44.05100
C  27.85000 0.29200 44.26200
O  27.27500 0.74500 45.24400
O  28.33300 0.97900 43.07600
C  28.16000 2.39800 43.11600
H  21.57100 -3.67100 43.41600
H  22.99200 -8.35300 47.36200
H  28.90500 -6.18500 48.09200
H  25.02200 -0.24600 43.00800
H  23.04700 -2.06500 42.02100
H  21.63400 -0.42100 42.58400
H  22.85800 0.38400 43.48700
H  21.89300 -0.88200 44.24000
H  24.94100 -2.27500 40.93200
H  26.34100 -2.56600 41.76800
H  27.44900 -0.86000 40.81300
H  26.10300 0.32000 41.26900
H  20.08600 -5.55700 43.10200
H  19.54400 -4.58200 44.49400
H  19.04800 -6.29100 44.19200
H  19.75000 -9.61500 47.54300
H  21.21200 -8.74200 47.98900
H  21.33800 -9.86900 46.68300
H  25.45800 -9.51000 47.94500
H  27.19200 -7.69100 49.48400
H  25.32300 -8.10300 50.67000
H  24.87900 -9.75400 50.00500
H  23.80900 -8.27700 49.89300
H  28.60000 -8.44000 46.94600
H  27.70600 -9.89400 47.46500
H  30.11200 -8.80700 48.35300
H  29.48700 -10.49300 48.57800
H  29.09300 -9.12100 49.76300
H  31.45200 -3.54200 46.79800
H  30.70400 -5.13600 47.27200
H  30.55400 -3.74300 48.32200
H  28.18100 -1.35800 42.98100
H  28.11300 2.97300 42.19100
H  28.96700 2.85800 43.68600
H  27.23200 2.62200 43.64100
Mg 49.04400 35.75300 27.80000
C  46.80600 33.98600 29.97300
C  49.03300 38.38200 29.81400
C  50.52600 37.47500 25.44300
C  48.14100 33.22700 25.34900
N  48.08500 36.08600 29.69900
C  47.29600 35.20900 30.51200
C  47.48600 35.67600 31.96600
C  47.79200 37.26500 31.85200
C  48.29900 37.26500 30.35500
C  46.58300 38.17800 31.94400
C  48.64200 34.85100 32.63500
C  48.57400 34.74500 34.12400
H  47.94900 35.76100 35.09500
N  49.90500 37.58500 27.71900
C  49.87000 38.49900 28.66500
C  50.60500 39.63700 28.23800
C  51.02400 39.50800 26.90900
C  50.53900 38.12900 26.62700
C  50.93200 40.83900 29.20000
C  51.78400 40.46500 25.92100
O  52.12300 40.06500 24.79400
C  52.11600 41.88100 26.31900
N  49.35600 35.37400 25.74100
C  49.96400 36.27400 24.96400
C  50.01000 35.95900 23.45000
C  49.48200 34.42800 23.51200
C  48.90000 34.32800 24.95000
C  49.46200 36.96300 22.46500
C  50.69800 33.38000 23.22300
C  50.29000 32.35300 22.26700
N  47.86700 33.86100 27.69400
C  47.58700 33.01400 26.66600
C  46.70500 31.96500 27.04400
C  46.43000 32.29300 28.35000
C  47.13000 33.44500 28.69100
C  46.09200 30.80700 26.17600
C  45.53900 31.93000 29.48100
O  44.76900 30.96000 29.73800
C  45.71200 33.09700 30.56000
C  45.92000 32.60600 31.96400
O  46.90800 32.01000 32.41400
O  44.77800 33.00600 32.73500
C  44.77600 32.72200 34.19000
H  49.13200 39.34700 30.31400
H  51.04100 37.99700 24.63400
H  47.89500 32.36900 24.72100
H  46.58400 35.50200 32.55100
H  48.56600 37.71200 32.47500
H  46.71000 39.05200 32.58300
H  45.76500 37.52900 32.25500
H  46.42700 38.60100 30.95200
H  49.51100 35.46600 32.40100
H  48.80200 33.85800 32.21400
H  49.49500 34.45400 34.62800
H  47.84000 33.97400 34.35800
H  50.08000 41.50200 29.05100
H  51.86400 41.30500 28.87900
H  50.91000 40.62600 30.26900
H  52.22500 42.52600 25.44700
H  53.07800 41.98800 26.82000
H  51.28200 42.43800 26.74500
H  51.06200 35.97200 23.16600
H  48.69600 34.30000 22.76800
H  48.41200 37.16600 22.67700
H  49.67900 36.63100 21.44900
H  49.93200 37.91600 22.70800
H  51.16300 33.02400 24.14200
H  51.48900 33.99200 22.79000
H  50.97900 32.45200 21.42800
H  49.32800 32.49500 21.77600
H  50.28900 31.35400 22.70500
H  45.17600 30.40000 26.60300
H  46.90800 30.11300 25.97200
H  45.85400 31.20200 25.18800
H  44.84100 33.74700 30.48100
H  44.96600 31.66000 34.34400
H  43.76300 32.92800 34.53400
H  45.47500 33.31300 34.78200

