158

Mg 25.82500 50.87900 26.42100
C  23.50200 51.88700 28.89000
C  28.09300 50.36200 29.02200
C  28.22200 50.76700 24.07900
C  23.52300 51.97700 24.04500
N  25.75400 51.07500 28.69500
C  24.68100 51.24900 29.41400
C  24.90500 50.96200 30.89600
C  26.48000 50.76200 30.88600
C  26.80400 50.73900 29.37000
C  27.27900 51.85300 31.62500
C  24.15700 49.71200 31.47100
C  23.14200 49.92500 32.64300
H  23.37000 49.17500 33.93800
N  27.82800 50.37100 26.50600
C  28.51700 50.18500 27.64900
C  29.85500 49.74300 27.24900
C  29.91300 49.86300 25.82900
C  28.62200 50.33600 25.39500
C  30.91100 49.31200 28.21100
C  31.06100 49.51800 24.91800
O  30.92200 49.64000 23.73300
C  32.30800 49.01300 25.51300
N  25.90700 51.28000 24.29500
C  26.98300 51.17500 23.52800
C  26.62400 51.49700 21.98900
C  25.08300 51.72100 22.06300
C  24.79400 51.64500 23.53700
C  27.49800 52.71800 21.64100
C  24.20400 50.70600 21.20100
C  23.85400 51.15600 19.77000
N  23.96300 51.80200 26.40400
C  23.10500 52.11400 25.36300
C  21.86200 52.64100 25.91300
C  21.99400 52.61700 27.28400
C  23.25600 52.05800 27.55200
C  20.73000 53.20400 25.05600
C  21.32500 52.89100 28.52100
O  20.21600 53.35400 28.78900
C  22.35500 52.41400 29.68600
C  22.74900 53.62100 30.47700
O  23.66900 54.41700 30.21000
O  21.81500 53.77900 31.48000
C  22.14300 54.86800 32.41200
H  28.84300 50.05700 29.75400
H  29.04000 50.84200 23.36000
H  22.69800 52.20300 23.36600
H  24.64200 51.86000 31.45600
H  26.66400 49.78500 31.33200
H  27.59900 51.69400 32.65500
H  26.80100 52.81200 31.42200
H  28.25600 51.97800 31.15900
H  24.91000 49.02300 31.85300
H  23.48000 49.28700 30.73000
H  22.16600 49.63100 32.25800
H  23.31700 50.97100 32.89300
H  31.04400 48.23200 28.26500
H  30.77800 49.77800 29.18800
H  31.85500 49.77900 27.92800
H  32.17100 48.25900 26.28800
H  32.81400 49.93500 25.80000
H  32.84800 48.56100 24.68200
H  26.91000 50.62800 21.39600
H  24.89400 52.71100 21.64800
H  28.57300 52.53600 21.61800
H  27.34600 53.62800 22.22100
H  27.30700 52.91800 20.58600
H  23.24100 50.60000 21.70200
H  24.63300 49.71700 21.04300
H  24.06700 50.39700 19.01800
H  24.45000 52.02900 19.50400
H  22.79000 51.38200 19.69800
H  19.87900 53.32600 25.72600
H  20.36200 52.55900 24.25800
H  21.04000 54.18500 24.69800
H  21.99800 51.66800 30.39600
H  23.03000 54.69400 33.02000
H  21.35900 55.07800 33.13900
H  22.31000 55.84900 31.96700
Mg 8.91900 47.70900 27.90700
C  6.95000 47.20000 30.82400
C  11.67500 47.71900 29.90100
C  10.69600 48.47100 25.10700
C  5.95400 47.80700 25.92400
N  9.26300 47.44300 30.13700
C  8.33900 47.28300 31.10600
C  8.93000 47.20400 32.49800
C  10.46000 47.44200 32.25600
C  10.50400 47.45700 30.67300
C  11.09100 48.61900 33.05300
C  8.49400 45.95600 33.37000
C  9.51600 45.33700 34.38400
H  8.95500 44.78600 35.72400
N  10.84900 48.02200 27.54800
C  11.86800 48.00300 28.52700
C  13.14100 48.20700 27.83300
C  12.88300 48.55300 26.43200
C  11.40800 48.35800 26.30500
C  14.51300 48.03900 28.52600
C  13.86600 48.82300 25.25400
O  13.44700 49.25300 24.16300
C  15.19500 48.62600 25.43000
N  8.37600 47.83400 25.69800
C  9.33400 48.33600 24.85100
C  8.67400 48.70400 23.45500
C  7.15000 48.18700 23.67800
C  7.15600 47.97100 25.16600
C  8.58500 50.24100 23.19600
C  6.73000 46.99800 22.75300
C  5.77300 47.28900 21.53600
N  6.92500 47.67100 28.23600
C  5.82200 47.67000 27.36000
C  4.60300 47.52100 28.04400
C  4.99200 47.44400 29.40100
C  6.44600 47.39300 29.51300
C  3.32100 47.41300 27.28000
C  4.51600 47.24700 30.71700
O  3.34600 47.29000 31.10100
C  5.72100 47.00400 31.73200
C  5.60800 45.67600 32.23700
O  5.87300 44.61200 31.65800
O  5.12700 45.70300 33.48600
C  4.99500 44.34000 34.13100
H  12.54800 47.75900 30.55700
H  11.21300 48.66700 24.16600
H  5.09300 47.68800 25.26300
H  8.51600 48.06600 33.02000
H  11.02800 46.60900 32.67000
H  11.40800 49.37500 32.33500
H  11.93000 48.18900 33.60000
H  10.43000 49.15000 33.73900
H  8.11800 45.28300 32.60000
H  7.62800 46.19800 33.98700
H  10.25400 46.13500 34.45900
H  10.01700 44.56700 33.79700
H  14.90100 47.07500 28.19500
H  14.53900 47.99300 29.61400
H  15.16300 48.86900 28.25200
H  15.56200 49.30900 26.19600
H  15.77300 48.72900 24.51100
H  15.29500 47.59600 25.77300
H  9.13900 48.13600 22.65000
H  6.36400 48.87600 23.36700
H  7.68300 50.49800 22.64000
H  9.44600 50.57200 22.61500
H  8.64600 50.74400 24.16100
H  6.13100 46.33100 23.37400
H  7.64600 46.47300 22.48400
H  4.75700 46.91400 21.66100
H  6.23900 46.76100 20.70500
H  5.64100 48.34000 21.27800
H  2.39700 47.66200 27.80200
H  3.23300 46.40500 26.87600
H  3.27200 48.06500 26.40800
H  5.72000 47.62000 32.63100
H  5.91300 43.85500 34.46500
H  4.41900 43.63500 33.53100
H  4.43700 44.44200 35.06200

