158

Mg 28.55300 59.10000 42.44500
C  25.94000 57.30800 40.87300
C  30.73900 56.86300 41.30100
C  30.88100 61.43400 42.91100
C  26.07600 61.49000 43.40700
N  28.38200 57.31900 41.07500
C  27.19700 56.70200 40.66600
C  27.53600 55.31200 39.97500
C  29.09200 55.14600 40.30200
C  29.41100 56.48700 40.92200
C  29.40000 53.89900 41.15500
C  27.07000 55.36800 38.50400
C  26.72100 54.03200 37.87800
H  27.41200 53.64500 36.55400
N  30.56200 59.09800 42.22100
C  31.32600 58.07300 41.69400
C  32.73200 58.46400 41.64000
C  32.77300 59.81100 42.08100
C  31.35200 60.20700 42.42400
C  33.85000 57.55800 41.16700
C  34.06600 60.61500 42.22700
O  35.08500 60.15500 41.71900
C  34.11600 61.88900 42.93400
N  28.49300 61.17800 42.98200
C  29.62400 61.89900 43.16900
C  29.36900 63.27900 43.46900
C  27.81600 63.35500 43.78200
C  27.43400 61.92100 43.36500
C  30.22400 63.93600 44.58600
C  27.06500 64.40000 42.93000
C  25.97900 65.29600 43.62700
N  26.45600 59.29400 42.29800
C  25.62100 60.26900 42.83100
C  24.21700 59.80800 42.69200
C  24.32200 58.69300 41.84200
C  25.70800 58.42300 41.66200
C  23.04000 60.51100 43.27100
C  23.59600 57.68800 41.20700
O  22.36600 57.56400 41.15200
C  24.55400 56.72300 40.52500
C  24.31700 55.33700 41.02100
O  24.17500 54.95900 42.19400
O  24.23400 54.56800 39.89900
C  24.06400 53.11500 39.97400
H  31.54400 56.12700 41.25300
H  31.70400 62.11700 43.12800
H  25.32400 62.23500 43.67600
H  26.89200 54.56000 40.43000
H  29.51400 55.21100 39.29900
H  28.50400 53.28100 41.18200
H  29.75500 54.12500 42.16100
H  30.24900 53.38500 40.70400
H  27.89500 55.70400 37.87500
H  26.25100 56.03600 38.23700
H  25.64300 53.94000 37.74000
H  26.88100 53.21700 38.58500
H  34.19600 57.90100 40.19200
H  33.69400 56.48200 41.08000
H  34.70700 57.58900 41.84000
H  33.54400 62.54300 42.27700
H  35.11900 62.26600 43.13500
H  33.63100 61.77100 43.90300
H  29.52600 63.85100 42.55500
H  27.58700 63.38000 44.84700
H  30.94300 64.61200 44.12300
H  30.69300 63.08900 45.08600
H  29.63100 64.41500 45.36600
H  26.68600 63.83700 42.07700
H  27.89300 65.00800 42.56500
H  26.41100 66.29600 43.64900
H  25.87400 64.95900 44.65800
H  24.99800 65.20900 43.15900
H  22.50800 59.86800 43.97300
H  22.27900 60.73700 42.52500
H  23.21400 61.40600 43.86900
H  24.50400 56.67500 39.43800
H  25.03200 52.73300 40.29600
H  23.72500 52.82100 38.98000
H  23.41500 52.78900 40.78700
Mg 6.19100 53.92600 41.15900
C  4.71700 50.90400 41.18400
C  8.81700 52.59800 39.55900
C  7.39900 57.18100 40.85300
C  3.23100 55.38900 42.64700
N  6.65600 51.99700 40.30700
C  5.94600 50.86900 40.53800
C  6.66000 49.64700 39.96300
C  8.11700 50.18800 39.84800
C  7.84000 51.67700 39.79100
C  9.07300 49.86300 41.03400
C  6.24200 49.04400 38.61700
C  5.51600 49.92500 37.58600
H  6.12900 50.08800 36.15200
N  7.88300 54.72900 40.39300
C  8.89200 54.04600 39.78000
C  9.98100 54.88500 39.37100
C  9.66800 56.18700 39.78800
C  8.23100 56.09800 40.39600
C  11.22100 54.33700 38.69300
C  10.62100 57.36000 39.66200
O  11.69400 57.15800 39.14600
C  10.32100 58.65200 40.41300
N  5.40500 55.97100 41.60700
C  6.11300 57.19300 41.43800
C  5.42000 58.49900 41.96600
C  4.05500 57.78700 42.44100
C  4.25400 56.28000 42.31000
C  6.10900 59.32400 43.03100
C  2.81900 58.37500 41.81400
C  2.27600 57.70500 40.54900
N  4.31400 53.37100 41.80300
C  3.28400 54.03000 42.39900
C  2.28700 53.07900 42.67300
C  2.81600 51.84100 42.29100
C  4.03600 52.09700 41.68800
C  0.85300 53.35200 43.21700
C  2.50900 50.43200 42.30600
O  1.59300 49.83500 42.84200
C  3.80100 49.71800 41.61200
C  3.30200 48.87400 40.51800
O  2.69100 49.20600 39.53700
O  3.79700 47.57200 40.69600
C  3.45500 46.59200 39.71900
H  9.68800 52.07500 39.15800
H  7.76100 58.20600 40.75400
H  2.32500 55.66400 43.19200
H  6.56400 48.94300 40.78900
H  8.67900 50.03600 38.92700
H  9.42200 50.68400 41.66000
H  9.92800 49.27100 40.70800
H  8.62400 49.10700 41.67900
H  5.68700 48.11100 38.71600
H  7.17200 48.71400 38.15300
H  5.36400 50.95900 37.89400
H  4.52300 49.47700 37.56000
H  11.16900 53.31100 38.32800
H  12.02600 54.32200 39.42900
H  11.54400 54.99400 37.88600
H  11.12300 59.37700 40.27400
H  10.07400 58.36200 41.43400
H  9.40800 58.94300 39.89400
H  5.24500 59.08500 41.06400
H  3.86800 57.84100 43.51400
H  6.34500 60.30100 42.60900
H  7.00100 58.92200 43.51100
H  5.44200 59.44000 43.88500
H  2.93800 59.45400 41.71600
H  2.11000 58.14500 42.60900
H  1.27300 57.30200 40.69400
H  2.93800 56.89800 40.23500
H  2.09200 58.51300 39.84100
H  0.45000 54.33700 42.98400
H  0.95600 53.27000 44.29900
H  0.23500 52.54200 42.83000
H  4.22000 48.98400 42.30100
H  2.37800 46.47000 39.83700
H  3.94500 45.63400 39.89300
H  3.66000 46.88100 38.68800

