158

Mg 8.96500 3.07100 27.86000
C  10.28600 1.51200 30.74900
C  7.00800 4.96500 29.91200
C  7.27200 4.05500 25.10900
C  10.77500 0.70500 25.97900
N  8.81300 3.24900 30.07400
C  9.50700 2.60600 31.04300
C  9.33000 3.23000 32.41500
C  8.02100 4.20100 32.11000
C  7.92100 4.13500 30.58900
C  6.70800 3.75500 32.88800
C  10.63500 3.98900 32.88100
C  10.36300 4.77400 34.23100
H  10.75000 4.20600 35.56200
N  7.49100 4.44200 27.51500
C  6.76200 5.12500 28.54500
C  5.88000 6.03000 27.91500
C  5.88000 5.75000 26.51700
C  6.87700 4.72400 26.31800
C  5.13900 7.11000 28.70900
C  5.15300 6.49700 25.36200
O  5.27500 6.17100 24.17300
C  4.47200 7.77000 25.68700
N  9.02000 2.42200 25.89800
C  8.24800 3.11000 24.93700
C  8.61200 2.57700 23.51100
C  9.80800 1.57000 23.79900
C  9.86400 1.52700 25.32400
C  7.48100 2.03300 22.59800
C  11.23300 1.94800 23.24000
C  11.80600 1.09800 22.08400
N  10.25200 1.35400 28.26300
C  10.91800 0.54300 27.37300
C  11.64700 -0.43400 28.10900
C  11.51400 -0.08000 29.46900
C  10.60100 0.92500 29.48700
C  12.49700 -1.52800 27.60800
C  11.89300 -0.37400 30.77200
O  12.67800 -1.25200 31.15500
C  11.22500 0.73900 31.74000
C  10.44200 0.11400 32.84700
O  9.51100 -0.65100 32.77100
O  11.00000 0.43400 34.02000
C  10.49100 -0.27900 35.18800
H  6.47000 5.65800 30.56300
H  6.77100 4.33600 24.18000
H  11.43100 0.03900 25.41500
H  8.91700 2.41500 33.00900
H  8.16800 5.24400 32.38900
H  6.68600 2.69300 33.13200
H  5.90100 3.78900 32.15700
H  6.44500 4.41600 33.71300
H  11.05100 4.59400 32.07600
H  11.35700 3.26200 33.25400
H  9.28900 4.82900 34.40700
H  10.66800 5.82000 34.26600
H  5.88100 7.90200 28.81300
H  4.71300 6.74500 29.64400
H  4.26500 7.60300 28.28500
H  5.24300 8.47800 25.99200
H  3.71600 7.64600 26.46300
H  4.02100 8.21600 24.80100
H  9.08800 3.44800 23.06100
H  9.54100 0.56100 23.48600
H  6.51900 2.48300 22.84500
H  7.43400 0.96300 22.80200
H  7.80300 2.25800 21.58100
H  11.94100 1.88100 24.06600
H  11.12900 2.97400 22.88800
H  12.88300 1.04500 22.24500
H  11.64800 1.64400 21.15400
H  11.32500 0.12000 22.05000
H  13.24100 -1.17500 26.89400
H  11.83300 -2.16700 27.02600
H  12.94000 -2.19400 28.34900
H  12.03200 1.39300 32.07000
H  10.22200 0.48200 35.92100
H  11.23800 -0.91400 35.66300
H  9.60700 -0.89900 35.04000
Mg -0.13300 43.31500 26.40600
C  2.30600 42.76500 28.77400
C  -2.50300 42.89300 29.08800
C  -2.65800 43.58000 24.13300
C  2.27700 43.44300 23.84900
N  -0.02800 43.04300 28.65900
C  1.06800 42.87100 29.42200
C  0.81900 42.83600 30.96400
C  -0.74200 42.71500 30.93700
C  -1.12300 42.84900 29.46500
C  -1.23000 41.34600 31.49400
C  1.28900 44.10000 31.75000
C  0.81200 44.38100 33.19000
H  0.42000 43.24200 34.10800
N  -2.22700 43.27000 26.59900
C  -3.00700 43.00900 27.72000
C  -4.43100 42.97500 27.28100
C  -4.46600 43.21600 25.94500
C  -3.06600 43.37900 25.49600
C  -5.42300 42.55900 28.29900
C  -5.72900 43.26900 25.06800
O  -5.60000 43.45100 23.85200
C  -7.13600 43.01800 25.64400
N  -0.17100 43.51400 24.39200
C  -1.32600 43.57600 23.65600
C  -1.04400 43.58300 22.18500
C  0.47400 43.74000 22.10600
C  0.94400 43.53100 23.54000
C  -1.73100 42.47500 21.30900
C  1.01600 45.11400 21.50000
C  1.56300 44.99400 20.07500
N  1.83600 43.19500 26.26400
C  2.71900 43.26300 25.19700
C  4.10400 43.25700 25.71000
C  3.96800 43.14200 27.04900
C  2.57000 43.04700 27.40000
C  5.41500 43.33300 24.90900
C  4.69200 43.08300 28.33400
O  5.89900 43.06600 28.50500
C  3.64200 42.79100 29.49500
C  4.11100 41.60800 30.29100
O  4.39200 40.54200 29.85500
O  4.06800 41.95800 31.64800
C  4.60900 40.85600 32.48100
H  -3.09800 42.82400 30.00100
H  -3.49300 43.69100 23.43900
H  3.05800 43.46900 23.08700
H  1.26400 41.92400 31.36000
H  -1.20200 43.55300 31.46000
H  -0.51900 40.97700 32.23300
H  -1.23800 40.57900 30.72000
H  -2.22500 41.49600 31.91400
H  1.13100 44.96100 31.10100
H  2.36000 44.30200 31.76900
H  0.01400 45.09800 32.99500
H  1.53800 44.99500 33.72200
H  -4.87700 42.23400 29.18400
H  -5.77800 41.63400 27.84600
H  -6.22000 43.26600 28.52900
H  -7.25700 42.00800 26.03600
H  -7.87700 43.09000 24.84800
H  -7.35500 43.80300 26.36900
H  -1.49400 44.49800 21.80200
H  0.77600 42.88600 21.50000
H  -2.07400 41.66300 21.95100
H  -1.04100 41.98300 20.62300
H  -2.60000 42.96500 20.86900
H  1.86100 45.41600 22.11800
H  0.32500 45.94800 21.62600
H  2.64900 45.07700 20.09500
H  1.13500 45.77600 19.44700
H  1.39400 43.99300 19.67700
H  5.93500 44.26600 25.12600
H  5.23800 43.25900 23.83600
H  6.00900 42.46500 25.19700
H  3.64000 43.69800 30.10100
H  4.20200 41.06900 33.46900
H  5.69100 40.72300 32.48100
H  4.13800 39.91300 32.20400

