158

Mg 3.06200 -2.23000 44.04100
C  6.24000 -0.71300 43.72300
C  1.82800 0.21100 41.86500
C  0.30700 -3.92700 43.76400
C  4.78900 -5.02300 45.38000
N  4.01700 -0.54000 42.84300
C  5.24300 -0.02100 43.03100
C  5.41900 1.36100 42.40800
C  3.93300 1.67600 42.07300
C  3.19000 0.33900 42.32300
C  3.29500 2.81600 42.97200
C  6.42600 1.40300 41.18500
C  6.49500 0.16400 40.16000
H  5.88700 0.51700 38.77900
N  1.20100 -1.87800 43.12800
C  0.89600 -0.80400 42.32200
C  -0.45700 -0.99300 41.81000
C  -0.92600 -2.23000 42.26400
C  0.14400 -2.71200 43.18300
C  -1.07900 0.00900 40.86700
C  -2.31100 -2.81000 41.95000
O  -3.07400 -2.26300 41.22700
C  -2.77500 -4.24200 42.48300
N  2.56700 -4.12500 44.66900
C  1.32200 -4.62900 44.48900
C  1.12500 -6.04100 45.19400
C  2.60300 -6.41300 45.52000
C  3.36200 -5.11200 45.16400
C  0.15000 -5.99300 46.40900
C  3.23800 -7.66500 44.89700
C  3.83100 -8.66100 45.89200
N  5.13100 -2.72300 44.61900
C  5.65900 -3.96300 45.05100
C  7.02100 -3.85700 45.27300
C  7.31300 -2.57000 44.86100
C  6.15100 -1.91400 44.35800
C  7.92200 -4.95100 45.83000
C  8.37000 -1.64100 44.61200
O  9.55200 -1.61900 44.90500
C  7.77400 -0.37000 43.86500
C  8.09600 0.96600 44.54100
O  8.81500 1.88000 44.04100
O  7.70300 0.95000 45.84000
C  8.03800 2.09300 46.65300
H  1.45000 0.98900 41.19900
H  -0.55800 -4.59300 43.80100
H  5.28300 -5.89600 45.81300
H  5.73600 2.21200 43.01100
H  3.79700 1.93300 41.02300
H  2.65600 2.24600 43.64700
H  2.81300 3.60400 42.39400
H  3.97000 3.33200 43.65500
H  7.38200 1.80300 41.52300
H  6.06400 2.24700 40.59600
H  5.82100 -0.56900 40.60400
H  7.47200 -0.30200 40.03600
H  -1.75500 0.68300 41.39400
H  -1.50700 -0.48200 39.99300
H  -0.28100 0.57800 40.39000
H  -2.02000 -4.89800 42.04900
H  -3.74100 -4.54700 42.08100
H  -2.87700 -4.31800 43.56500
H  0.78900 -6.78900 44.47500
H  2.71000 -6.39300 46.60400
H  -0.63600 -6.74200 46.31000
H  -0.30300 -5.01700 46.58300
H  0.63900 -6.13700 47.37200
H  4.11200 -7.41700 44.29600
H  2.59300 -8.19800 44.19800
H  3.17700 -9.52100 46.03200
H  4.03500 -8.28300 46.89400
H  4.82100 -9.04700 45.64900
H  7.71600 -5.82600 45.21400
H  7.64100 -5.26400 46.83600
H  8.95900 -4.65500 45.99000
H  8.26400 -0.20500 42.90600
H  7.62100 1.84900 47.63000
H  7.51200 2.97100 46.27900
H  9.10700 2.29600 46.70700
Mg 46.99300 15.33500 27.84000
C  45.01300 15.47100 30.68900
C  49.12900 17.61400 29.35900
C  48.93200 15.17800 25.14800
C  44.48000 13.60900 26.12000
N  47.05100 16.37600 29.81500
C  46.16200 16.22800 30.75000
C  46.61000 16.95300 32.01000
C  47.82800 17.81700 31.55400
C  48.01800 17.21100 30.19300
C  47.76800 19.35700 31.46400
C  47.00300 16.06800 33.18000
C  46.50500 16.46600 34.66300
H  47.35600 16.27800 35.93800
N  48.74900 16.36500 27.30000
C  49.49800 17.24800 28.04700
C  50.72200 17.53800 27.31600
C  50.65100 16.86200 26.10100
C  49.40800 16.11200 26.13600
C  51.70600 18.57000 27.75600
C  51.64400 16.94500 24.99400
O  51.49000 16.25700 23.97400
C  52.90200 17.62000 25.08000
N  46.66600 14.66700 25.90600
C  47.69000 14.65800 24.99800
C  47.22800 14.01400 23.72200
C  45.87200 13.34300 24.08900
C  45.62400 13.94000 25.44600
C  46.90000 15.05500 22.57400
C  45.94700 11.78200 23.99500
C  46.84200 11.03200 25.08500
N  45.17700 14.54900 28.28500
C  44.28300 13.88100 27.49300
C  43.20600 13.43900 28.37800
C  43.45500 14.11200 29.58600
C  44.63500 14.76200 29.49800
C  41.97800 12.66500 27.96500
C  42.87300 14.34400 30.87700
O  41.77700 13.86700 31.28200
C  43.84400 15.22700 31.69900
C  43.16300 16.53300 31.93900
O  42.43500 17.11900 31.15800
O  43.35200 16.94900 33.20200
C  42.89500 18.26800 33.55500
H  49.71600 18.30500 29.96800
H  49.58700 14.89000 24.32300
H  43.84000 12.91100 25.57700
H  45.92400 17.76700 32.24400
H  48.76800 17.64800 32.08000
H  46.86700 19.64000 32.00900
H  47.60800 19.62000 30.41800
H  48.66600 19.82800 31.86400
H  48.07900 15.91800 33.27000
H  46.59300 15.07000 33.02500
H  45.61200 15.85100 34.77800
H  46.13600 17.49200 34.65900
H  51.51500 18.96200 28.75500
H  51.84900 19.43800 27.11300
H  52.65200 18.06000 27.93600
H  53.56400 17.48300 25.93500
H  52.72300 18.68100 24.90500
H  53.52200 17.27700 24.25200
H  47.87900 13.21900 23.35900
H  45.08200 13.60300 23.38400
H  47.26800 15.96700 23.04600
H  45.84100 15.13000 22.32900
H  47.61100 14.69100 21.83300
H  46.32500 11.41300 23.04200
H  44.90900 11.45200 23.93900
H  47.77100 10.68000 24.63600
H  46.32500 10.08900 25.26000
H  47.04800 11.67700 25.93900
H  41.19400 13.39900 27.77900
H  41.72700 12.09300 28.85900
H  42.23400 12.02400 27.12200
H  44.14200 14.81800 32.66400
H  42.79000 18.25700 34.64000
H  41.90000 18.52000 33.18700
H  43.62100 19.00900 33.21900

