158

Mg 46.45400 25.97400 28.19600
C  47.13600 28.09100 30.85300
C  45.58000 23.50100 30.62000
C  46.02400 23.88300 25.70900
C  48.02800 28.15800 26.09000
N  46.28100 25.87100 30.50000
C  46.57600 26.91700 31.33200
C  46.30300 26.54600 32.77800
C  46.06500 25.03100 32.67400
C  45.99500 24.70600 31.20500
C  47.11100 24.15100 33.41700
C  45.13800 27.44200 33.38100
C  44.84600 27.12700 34.80500
H  44.90300 28.24400 35.80900
N  45.86500 23.97300 28.13500
C  45.58400 23.16500 29.22200
C  45.35000 21.84600 28.65000
C  45.47500 21.89900 27.21400
C  45.75600 23.30000 26.97500
C  45.12200 20.60700 29.58100
C  45.44100 20.82700 26.18900
O  45.76400 20.99200 25.00400
C  45.01600 19.50200 26.61900
N  47.00200 25.99400 26.23200
C  46.54600 25.05300 25.35500
C  46.60800 25.50100 23.86100
C  47.27000 26.95500 23.97100
C  47.37800 27.06800 25.53700
C  47.32500 24.57900 22.86900
C  46.48800 28.12100 23.27700
C  47.40800 29.07800 22.39100
N  47.34500 27.79900 28.33700
C  48.05900 28.56800 27.42000
C  48.56200 29.72800 28.03400
C  48.22900 29.65700 29.37800
C  47.54100 28.40400 29.53500
C  49.42000 30.75700 27.35000
C  48.35500 30.27200 30.67800
O  48.85200 31.31300 31.09500
C  47.69500 29.20700 31.73700
C  48.81300 28.68600 32.64000
O  49.67600 27.93400 32.28100
O  48.80400 29.39500 33.79000
C  49.95400 29.13400 34.67000
H  45.13500 22.75700 31.28400
H  45.97200 23.31500 24.77800
H  48.33600 28.85400 25.30700
H  47.18400 26.78300 33.37500
H  45.06900 24.95100 33.10900
H  47.75800 24.68300 34.11500
H  47.71000 23.65300 32.65400
H  46.56900 23.40300 33.99500
H  44.21300 27.15900 32.87800
H  45.42300 28.48900 33.27900
H  45.65100 26.47400 35.14300
H  43.91300 26.56300 34.81000
H  44.20400 20.11000 29.26700
H  44.91800 20.77600 30.63800
H  45.94100 19.89800 29.46200
H  45.83300 19.09100 27.21100
H  45.00100 18.78700 25.79700
H  44.05300 19.56200 27.12600
H  45.61600 25.64800 23.43400
H  48.26000 26.83800 23.53200
H  46.51600 23.91500 22.56600
H  48.13300 24.06600 23.39000
H  47.75800 25.10600 22.01900
H  46.12300 28.69600 24.12800
H  45.65400 27.61000 22.79700
H  47.21400 29.03000 21.32000
H  48.45700 28.78500 22.43800
H  47.33400 30.08800 22.79400
H  49.71100 30.61400 26.31000
H  50.36100 30.92600 27.87200
H  48.81900 31.65700 27.48400
H  47.05200 29.92400 32.24700
H  50.31100 28.10500 34.62700
H  49.67400 29.48500 35.66300
H  50.73600 29.86500 34.46300
Mg 17.15100 53.23800 26.58300
C  19.23300 51.56900 28.74700
C  14.72700 53.28700 28.99500
C  15.14400 54.46500 24.29800
C  19.33400 52.21900 23.88000
N  17.00300 52.55000 28.68400
C  18.01600 51.97800 29.37400
C  17.59500 51.94100 30.89800
C  16.04200 52.26300 30.84400
C  15.89500 52.70000 29.44600
C  15.09800 51.13200 31.32300
C  18.43900 52.98900 31.76800
C  19.12100 52.51700 33.03200
H  18.16800 51.93100 34.08800
N  15.28300 54.05800 26.72600
C  14.43600 53.87900 27.76500
C  13.12100 54.46000 27.39500
C  13.19000 54.82800 26.05200
C  14.59400 54.49000 25.63300
C  11.87600 54.19400 28.19900
C  12.19400 55.42300 25.16500
O  12.50100 55.66200 24.02400
C  10.82300 55.71700 25.66700
N  17.15000 53.23100 24.44200
C  16.31100 53.97900 23.81700
C  16.52300 54.05000 22.23900
C  17.92700 53.45200 22.11000
C  18.22100 53.00100 23.59200
C  15.46700 53.22700 21.41500
C  19.01600 54.28200 21.41700
C  19.48200 55.49700 22.23200
N  18.94300 52.20300 26.35000
C  19.76100 51.91400 25.21800
C  20.89100 51.19400 25.61600
C  20.76800 51.09800 27.03400
C  19.57100 51.66300 27.40300
C  21.95200 50.71900 24.66100
C  21.44900 50.48800 28.19200
O  22.51100 49.90600 28.43600
C  20.43300 50.91600 29.38600
C  20.13200 49.65000 30.14300
O  19.34500 48.73300 29.81500
O  20.70600 49.79500 31.37700
C  20.52900 48.83000 32.44100
H  13.96000 53.30500 29.77100
H  14.59600 54.94900 23.48700
H  19.92000 52.02900 22.97800
H  17.76300 50.91700 31.23100
H  15.78600 53.17600 31.38100
H  14.35400 51.69200 31.89000
H  15.67600 50.41600 31.90700
H  14.63800 50.67300 30.44800
H  17.76700 53.77500 32.11400
H  19.15100 53.50100 31.12100
H  19.75100 53.30300 33.44900
H  19.77300 51.67900 32.78700
H  11.61500 55.05300 28.81800
H  12.04600 53.33600 28.85000
H  11.02400 53.97700 27.55600
H  10.26700 56.18600 24.85500
H  10.89100 56.37600 26.53300
H  10.33000 54.74900 25.75000
H  16.44300 55.12500 22.08000
H  17.88200 52.49600 21.58900
H  15.92100 52.53700 20.70400
H  14.94500 53.93300 20.76900
H  14.75600 52.72900 22.07400
H  18.77800 54.59900 20.40100
H  19.91100 53.70400 21.18500
H  19.85400 56.32200 21.62500
H  20.23800 55.10000 22.91000
H  18.67200 55.95800 22.79700
H  21.92000 51.39900 23.81000
H  21.84200 49.65300 24.46100
H  22.91900 50.73400 25.16600
H  20.93700 51.62500 30.04200
H  19.46500 48.62500 32.55500
H  20.83600 49.42900 33.29900
H  21.03100 47.88700 32.22600

