158

Mg 15.94200 -2.22500 28.64200
C  15.02900 0.18000 31.05900
C  17.97900 -3.77900 31.00000
C  17.49000 -4.07800 26.23800
C  14.48100 -0.24100 26.23800
N  16.61400 -1.68600 30.80100
C  16.03500 -0.75700 31.54700
C  16.61100 -1.02400 32.94600
C  17.64400 -2.19200 32.86100
C  17.40600 -2.63100 31.46600
C  19.10400 -1.63500 33.22600
C  15.55600 -1.20100 34.01000
C  15.61500 -0.18400 35.15000
H  16.90300 0.52100 35.55500
N  17.33700 -3.83500 28.66800
C  17.88800 -4.46000 29.74900
C  18.63700 -5.63800 29.31800
C  18.55200 -5.67600 27.85700
C  17.76600 -4.50700 27.51200
C  19.57500 -6.40200 30.20500
C  19.14200 -6.66500 26.91400
O  19.03000 -6.56500 25.73200
C  19.93000 -7.84900 27.45200
N  16.19500 -2.04200 26.62000
C  16.80800 -2.94600 25.81700
C  16.58100 -2.61600 24.31300
C  15.44500 -1.61300 24.37600
C  15.36600 -1.28200 25.85900
C  17.88900 -2.00600 23.68200
C  14.04800 -2.09300 23.91600
C  13.23900 -1.17200 22.98000
N  14.87000 -0.50400 28.58800
C  14.36300 0.22800 27.53200
C  13.53300 1.26600 28.06400
C  13.80800 1.27000 29.43000
C  14.67600 0.27600 29.70800
C  12.64000 2.21900 27.32700
C  13.41500 1.98900 30.64600
O  12.67400 2.98200 30.78400
C  14.23600 1.31800 31.78900
C  15.05500 2.43900 32.30900
O  16.13700 2.77500 31.88700
O  14.30100 3.05500 33.32300
C  14.87200 4.22800 33.93100
H  18.58200 -4.30500 31.74300
H  17.97300 -4.52700 25.36700
H  13.82900 0.15800 25.45800
H  17.10800 -0.08400 33.18500
H  17.54500 -3.03600 33.54400
H  19.05400 -0.89300 34.02300
H  19.53700 -1.18100 32.33500
H  19.88800 -2.34100 33.50100
H  15.76200 -2.23400 34.29000
H  14.57300 -1.25900 33.54300
H  15.31900 -0.77600 36.01600
H  14.90500 0.62800 34.99000
H  20.61500 -6.15400 29.99300
H  19.36700 -7.46300 30.06600
H  19.33200 -6.32600 31.26500
H  19.35900 -8.38100 28.21300
H  20.90800 -7.54600 27.82600
H  20.14200 -8.60600 26.69700
H  16.24700 -3.45100 23.69800
H  15.63400 -0.74400 23.74500
H  18.10800 -1.03100 24.11900
H  17.57800 -1.89300 22.64400
H  18.82500 -2.56100 23.62000
H  13.40300 -2.37700 24.74700
H  14.18400 -3.01400 23.34900
H  12.20600 -1.50900 23.06100
H  13.74000 -1.22200 22.01300
H  13.36800 -0.11200 23.19800
H  12.61400 1.93100 26.27600
H  13.11800 3.18100 27.14700
H  11.68200 2.35200 27.83100
H  13.66800 0.84300 32.58900
H  14.25700 4.57400 34.76200
H  15.23000 5.08300 33.35700
H  15.73700 3.78200 34.42200
Mg 36.80900 50.20500 26.78400
C  37.22800 47.80800 29.22200
C  35.72600 52.37500 29.11000
C  36.27700 52.55300 24.30300
C  37.75300 47.93300 24.37600
N  36.21100 49.96100 28.86300
C  36.52500 48.89800 29.69200
C  36.18100 49.30000 31.16500
C  35.43800 50.70600 31.00700
C  35.90000 51.02800 29.58000
C  33.86800 50.74700 31.18800
C  37.51300 49.36600 32.08200
C  37.35500 48.96900 33.53200
H  35.95500 49.01900 34.16100
N  36.21700 52.28800 26.73400
C  35.82200 52.92400 27.81300
C  35.62100 54.35000 27.46400
C  35.67400 54.36300 26.02400
C  36.01400 53.02100 25.63200
C  35.29100 55.38800 28.54900
C  35.33000 55.46600 25.05600
O  35.17300 55.25800 23.88100
C  35.15700 56.81800 25.63300
N  36.88700 50.12800 24.70500
C  36.70600 51.29500 23.93700
C  36.98000 50.96000 22.40000
C  37.70200 49.57900 22.53900
C  37.42100 49.21700 23.90100
C  35.65400 50.85400 21.52000
C  39.19600 49.64900 22.08900
C  40.20600 49.75900 23.24600
N  37.35300 48.28700 26.72900
C  37.69700 47.44100 25.70000
C  38.15200 46.20900 26.19800
C  37.99500 46.28700 27.57800
C  37.45400 47.52700 27.87900
C  38.80900 45.07600 25.47200
C  38.27700 45.62900 28.86300
O  38.80400 44.52700 29.03300
C  37.69700 46.57700 29.98900
C  36.62400 45.93000 30.75100
O  35.52700 45.51500 30.34200
O  37.08900 45.77400 32.06300
C  36.03500 45.25800 32.94700
H  35.37700 53.03100 29.91000
H  35.95100 53.24900 23.52700
H  38.17100 47.20300 23.68000
H  35.52700 48.55100 31.60900
H  35.82100 51.42000 31.73600
H  33.37100 50.79100 30.21900
H  33.54300 51.55800 31.84100
H  33.60500 49.76400 31.57900
H  37.91200 50.37900 32.03900
H  38.21500 48.68800 31.59600
H  38.03500 49.52200 34.18100
H  37.62500 47.91500 33.58700
H  36.21800 55.94600 28.41400
H  35.20000 55.01900 29.57000
H  34.41400 55.88900 28.13900
H  34.21300 56.95100 26.16200
H  35.38500 57.61000 24.91900
H  35.93600 56.84900 26.39500
H  37.64400 51.72200 21.99100
H  37.11500 48.80100 22.05200
H  34.84400 51.19900 22.16300
H  35.44700 49.87700 21.08300
H  35.74500 51.40900 20.58600
H  39.38300 50.54800 21.50100
H  39.34800 48.83500 21.38000
H  40.72900 50.71600 23.27200
H  40.91900 48.96500 23.02300
H  39.90600 49.54300 24.27100
H  39.41800 45.47900 24.66300
H  38.07800 44.36000 25.09400
H  39.53600 44.58300 26.11700
H  38.58700 46.72400 30.60100
H  35.22500 45.97100 32.78900
H  36.45000 45.23700 33.95400
H  35.66700 44.24500 32.78600

