158

Mg -0.16700 7.10600 27.86100
C  0.61400 9.54100 30.20600
C  -0.50500 4.78400 30.32400
C  -0.71700 4.79200 25.53300
C  0.62500 9.45900 25.24800
N  0.01800 7.14400 29.94600
C  0.22400 8.27600 30.75000
C  0.09000 7.89500 32.23000
C  0.03600 6.33600 32.16400
C  -0.17800 6.06200 30.71100
C  1.26100 5.65300 32.82800
C  -1.19900 8.49900 32.82400
C  -1.45200 8.52700 34.28800
H  -0.49900 7.87300 35.29500
N  -0.56300 5.02400 27.94200
C  -0.73800 4.28400 29.03500
C  -0.95100 2.89100 28.65700
C  -0.94100 2.89700 27.21600
C  -0.75400 4.27400 26.82700
C  -0.97300 1.76300 29.57300
C  -0.95300 1.69700 26.19800
O  -0.65500 1.86500 25.05400
C  -1.40000 0.40600 26.60300
N  -0.11500 7.15200 25.75900
C  -0.49700 6.09600 25.02600
C  -0.65500 6.46600 23.52400
C  -0.43300 7.92600 23.47600
C  0.06800 8.20400 24.90400
C  0.25100 5.62500 22.63400
C  -1.66600 8.85600 23.26400
C  -1.55600 9.94800 22.25800
N  0.57400 9.06000 27.76500
C  0.84400 9.88100 26.63100
C  1.30700 11.18900 27.12500
C  1.09500 11.09200 28.52400
C  0.72600 9.81200 28.81900
C  1.72600 12.37600 26.25100
C  1.26600 11.81700 29.72700
O  1.69200 12.93000 29.91000
C  0.77700 10.91900 30.88000
C  1.82600 10.88500 31.93600
O  2.99400 10.49900 31.82000
O  1.37500 11.44100 33.10100
C  2.35200 11.25600 34.19100
H  -0.43500 3.98800 31.06800
H  -0.90900 4.10500 24.70700
H  0.80800 10.12700 24.40400
H  0.93900 8.27000 32.80100
H  -0.82300 5.95200 32.71500
H  1.59200 4.74600 32.32300
H  0.91200 5.29300 33.79600
H  2.05500 6.37100 33.03100
H  -2.04400 7.96900 32.38500
H  -1.16400 9.52200 32.45000
H  -2.46700 8.14100 34.37800
H  -1.48500 9.55000 34.66300
H  -0.41900 0.87900 29.25800
H  -2.00800 1.47700 29.76200
H  -0.54800 2.08800 30.52200
H  -1.62100 -0.06600 25.64600
H  -2.30100 0.56100 27.19600
H  -0.63400 -0.15200 27.14200
H  -1.65900 6.21200 23.18400
H  0.42100 8.03900 22.80700
H  1.20400 5.61900 23.16200
H  0.40700 6.04400 21.64000
H  -0.08700 4.60600 22.44600
H  -1.84000 9.36200 24.21400
H  -2.61900 8.32900 23.22500
H  -2.19500 9.64500 21.42900
H  -0.52000 10.20400 22.03600
H  -1.92200 10.84700 22.75500
H  1.18000 13.28700 26.49500
H  1.44900 12.19200 25.21300
H  2.79900 12.49100 26.40200
H  -0.11600 11.21300 31.43200
H  2.02600 11.81900 35.06500
H  3.32500 11.58200 33.82400
H  2.33400 10.20500 34.48200
Mg -0.90800 34.42300 26.97000
C  -2.87200 32.70500 29.13400
C  0.11200 36.58500 29.47200
C  0.69700 36.24000 24.62900
C  -2.15400 32.44900 24.23000
N  -1.33000 34.58400 29.11200
C  -2.23400 33.75500 29.81700
C  -2.07500 34.05000 31.36300
C  -1.30500 35.41900 31.39700
C  -0.80200 35.57900 29.93000
C  -1.93500 36.68700 32.07900
C  -1.34900 32.90900 32.17100
C  -2.02400 32.16300 33.32300
H  -1.21800 32.17000 34.67400
N  0.28800 36.16300 27.03900
C  0.67000 36.81800 28.13900
C  1.66600 37.83100 27.77900
C  1.91100 37.68900 26.34700
C  0.92800 36.59300 25.96400
C  2.35300 38.73300 28.79200
C  2.87100 38.41100 25.40200
O  2.94300 38.22000 24.21500
C  3.65300 39.53700 26.04200
N  -0.69600 34.27600 24.81500
C  -0.00600 35.19500 24.09600
C  -0.38200 35.19000 22.62200
C  -1.02000 33.80100 22.52900
C  -1.34600 33.47600 23.93000
C  -1.28900 36.39000 22.16900
C  -0.12500 32.67900 21.85500
C  0.81700 31.86600 22.79000
N  -2.16800 32.84300 26.70600
C  -2.52000 32.09400 25.54200
C  -3.27100 30.99900 25.98400
C  -3.55500 31.27000 27.35700
C  -2.81700 32.35000 27.75500
C  -3.92100 29.94100 25.00900
C  -4.35400 30.77900 28.52400
O  -5.15900 29.85300 28.62700
C  -3.82000 31.67100 29.67500
C  -5.03600 32.26200 30.31700
O  -5.75900 33.10400 29.81000
O  -5.20600 31.76400 31.55000
C  -6.19500 32.37600 32.38700
H  0.35600 37.34300 30.22000
H  1.04400 36.88900 23.82200
H  -2.53700 31.85100 23.40000
H  -3.12000 34.26300 31.58900
H  -0.40000 35.13400 31.93400
H  -2.36200 37.40700 31.38100
H  -1.16700 37.17100 32.68300
H  -2.75700 36.38500 32.72800
H  -0.39100 33.28800 32.52800
H  -1.08500 32.21600 31.37200
H  -2.23400 31.10500 33.16800
H  -3.01900 32.56200 33.51900
H  3.39500 38.41900 28.86000
H  2.05000 38.64500 29.83600
H  2.12700 39.79500 28.70700
H  4.29600 39.13500 26.82400
H  2.93500 40.24400 26.45900
H  4.29100 40.09700 25.35800
H  0.54200 35.14800 22.04500
H  -1.92500 33.81100 21.92200
H  -1.53400 37.16200 22.89900
H  -2.24800 35.99800 21.83100
H  -0.73100 36.80200 21.32800
H  0.46000 33.13700 21.05700
H  -0.69200 31.92600 21.30900
H  0.92600 32.13000 23.84200
H  1.82500 31.86900 22.37500
H  0.54700 30.81300 22.85900
H  -4.41000 29.13800 25.56100
H  -3.18500 29.62400 24.27100
H  -4.67200 30.51400 24.46500
H  -3.28700 31.06600 30.40800
H  -6.90300 33.10900 32.00100
H  -5.62900 32.87200 33.17600
H  -6.80700 31.61400 32.87000

