158

Mg 42.79000 42.06700 27.10100
C  41.67400 44.36000 29.48200
C  43.93700 40.07100 29.72500
C  44.14400 40.04900 24.79000
C  42.60800 44.56400 24.59900
N  42.73100 42.20400 29.36800
C  42.12400 43.20300 30.07400
C  42.08900 42.87600 31.53300
C  43.05200 41.61100 31.62400
C  43.34300 41.30100 30.15200
C  44.37400 41.81800 32.45400
C  40.64700 42.67100 32.06900
C  40.27200 43.43200 33.36200
H  41.20100 43.51700 34.57000
N  43.68500 40.21300 27.31600
C  44.09200 39.58200 28.39200
C  44.58700 38.24700 28.00000
C  44.42400 38.12500 26.60300
C  44.03500 39.48700 26.14200
C  45.10600 37.15200 28.94200
C  44.62500 36.95200 25.70800
O  44.36000 36.99900 24.52500
C  44.93300 35.56400 26.28100
N  43.60400 42.45300 25.11900
C  44.00900 41.37000 24.36700
C  44.16700 41.72000 22.83300
C  43.76000 43.20200 22.79000
C  43.35300 43.45400 24.25300
C  45.47300 41.40400 22.15100
C  42.58400 43.45900 21.81700
C  41.28300 42.66500 22.24700
N  42.15800 44.07800 26.97600
C  42.03500 44.92900 25.88300
C  41.28400 46.10600 26.30200
C  41.17400 45.96700 27.71300
C  41.78000 44.75600 28.11000
C  40.86200 47.26800 25.45400
C  40.59900 46.57800 28.91400
O  40.20500 47.68700 29.13000
C  40.89200 45.52100 30.08000
C  41.70400 46.34700 31.11000
O  42.90600 46.62300 31.02200
O  40.83900 46.79100 32.08700
C  41.45500 47.66500 33.06800
H  44.17600 39.27300 30.43100
H  44.37000 39.39900 23.94200
H  42.50500 45.30300 23.80100
H  42.63400 43.73500 31.92400
H  42.44600 40.86000 32.13200
H  45.15900 41.62600 31.72200
H  44.43300 41.08000 33.25400
H  44.41800 42.85100 32.79900
H  40.43000 41.60800 32.17400
H  39.91400 42.99200 31.32900
H  39.26400 43.13100 33.64900
H  40.12900 44.45700 33.02100
H  46.15100 37.02100 28.66300
H  44.57600 36.23700 28.67600
H  44.96900 37.38100 29.99900
H  44.14600 35.30100 26.98800
H  45.87500 35.59300 26.82700
H  45.07600 34.88500 25.44000
H  43.46200 41.07500 22.30900
H  44.61700 43.84400 22.58600
H  46.05800 40.80500 22.84900
H  46.05100 42.31200 21.97600
H  45.35300 40.81100 21.24400
H  42.83800 43.17900 20.79500
H  42.37500 44.52600 21.75300
H  40.51500 43.38100 22.53900
H  41.41000 41.94200 23.05200
H  40.80900 42.08000 21.45800
H  40.39400 46.79700 24.59100
H  41.79000 47.81500 25.28600
H  40.20100 47.93600 26.00700
H  39.90700 45.17400 30.39400
H  42.39400 48.06900 32.69000
H  41.54800 47.23200 34.06400
H  40.72700 48.45500 33.25500
Mg -12.16900 15.14500 42.76600
C  -8.82400 13.95800 42.37500
C  -11.18400 17.75600 40.72300
C  -15.32300 15.92500 42.51000
C  -12.98400 12.11100 44.27800
N  -10.22100 15.73800 41.62200
C  -8.96600 15.20600 41.70200
C  -7.98600 15.95300 40.89700
C  -8.71800 17.33700 40.72300
C  -10.17900 16.92200 41.03600
C  -8.10600 18.54100 41.46100
C  -7.56500 15.25400 39.56300
C  -6.09100 14.91700 39.37900
H  -5.38400 15.52400 38.18700
N  -13.10700 16.72400 41.77100
C  -12.55200 17.68300 41.04800
C  -13.55300 18.65300 40.70600
C  -14.86500 18.05800 41.08200
C  -14.46200 16.88000 41.85500
C  -13.30600 20.01500 39.97300
C  -16.26200 18.64700 40.80100
O  -16.35300 19.76000 40.17800
C  -17.57100 18.04700 41.35600
N  -13.85800 14.23500 43.42500
C  -15.08100 14.72700 43.19000
C  -16.24900 13.88700 43.87000
C  -15.48800 12.62700 44.44600
C  -14.03000 12.96300 44.00700
C  -16.96600 14.80800 44.99000
C  -15.86600 11.25700 43.73300
C  -17.03900 10.61700 44.47000
N  -11.11900 13.44600 43.30800
C  -11.57200 12.24600 43.89600
C  -10.47900 11.31200 44.09700
C  -9.40600 11.95100 43.45400
C  -9.85100 13.25800 43.04100
C  -10.54500 9.99400 44.76200
C  -7.99300 11.71300 43.09300
O  -7.21500 10.78100 43.31100
C  -7.61200 13.00100 42.34200
C  -6.36300 13.54000 42.84900
O  -6.28000 14.31200 43.84100
O  -5.27300 13.19800 42.12000
C  -4.00600 13.81100 42.61500
H  -10.85900 18.60900 40.12300
H  -16.36800 16.20000 42.35000
H  -13.20600 11.18900 44.81900
H  -7.17900 16.05800 41.62200
H  -8.74200 17.66100 39.68300
H  -8.06900 19.46500 40.88400
H  -7.13300 18.30000 41.89100
H  -8.72100 18.62400 42.35700
H  -7.89700 15.89900 38.74900
H  -8.22200 14.39100 39.45500
H  -5.95700 13.83900 39.29100
H  -5.58000 15.23900 40.28700
H  -13.78800 20.84900 40.48200
H  -13.47900 19.93800 38.90000
H  -12.23000 20.11500 40.12000
H  -17.47800 18.03600 42.44200
H  -17.62400 17.11900 40.78600
H  -18.45800 18.65700 41.19100
H  -16.90200 13.61800 43.04000
H  -15.61700 12.61000 45.52800
H  -16.93300 14.33900 45.97400
H  -18.03900 14.88700 44.81800
H  -16.60300 15.83300 45.05300
H  -15.07400 10.52000 43.60100
H  -16.17600 11.43400 42.70300
H  -17.76500 10.37300 43.69400
H  -17.49700 11.22900 45.24800
H  -16.70900 9.61900 44.75700
H  -11.52900 9.69000 45.12000
H  -9.75700 9.94000 45.51300
H  -10.29700 9.20600 44.05100
H  -7.52600 12.76000 41.28200
H  -3.58400 13.09900 43.32500
H  -4.14300 14.81400 43.01700
H  -3.24200 13.96300 41.85200

