158

Mg -2.63300 17.24500 27.10100
C  -3.14100 15.04100 29.76000
C  -3.06300 19.84700 29.18500
C  -2.53800 19.20200 24.37100
C  -2.79600 14.36600 24.94500
N  -3.25300 17.40400 29.27600
C  -3.28900 16.41000 30.15100
C  -3.38100 16.93400 31.62600
C  -3.52300 18.46700 31.35300
C  -3.30400 18.65700 29.84100
C  -4.76500 19.22700 31.79400
C  -2.22900 16.63400 32.61000
C  -2.66600 16.13800 33.98200
H  -1.74300 16.16000 35.25600
N  -2.61000 19.24500 26.83900
C  -2.86700 20.11400 27.84100
C  -2.59900 21.41300 27.22800
C  -2.46100 21.32600 25.85300
C  -2.51400 19.89300 25.60300
C  -2.79300 22.68400 27.95200
C  -2.24300 22.33700 24.69400
O  -2.20700 22.01500 23.47500
C  -2.09900 23.81400 25.02400
N  -2.91300 16.83600 24.94300
C  -2.70300 17.85500 24.05400
C  -2.60900 17.34500 22.58000
C  -2.56400 15.74800 22.77300
C  -2.79300 15.62000 24.31400
C  -3.65700 17.86800 21.54100
C  -1.42100 14.99700 22.18800
C  -0.08600 15.31000 22.86100
N  -2.98400 15.15800 27.23400
C  -2.92500 14.11500 26.32500
C  -2.95900 12.84700 26.92300
C  -3.03300 13.18100 28.26700
C  -3.07200 14.53800 28.41100
C  -2.92200 11.59000 26.27400
C  -3.22500 12.59300 29.50400
O  -3.34700 11.45100 29.89200
C  -3.18400 13.80700 30.55900
C  -1.89400 13.57600 31.29900
O  -0.74200 13.64000 30.85800
O  -2.14800 13.22600 32.63300
C  -0.93600 12.92400 33.42400
H  -3.11100 20.71800 29.84100
H  -2.35200 19.66300 23.39900
H  -2.81500 13.53700 24.23500
H  -4.31000 16.48000 31.97100
H  -2.66300 18.96800 31.79800
H  -5.45100 19.44100 30.97500
H  -4.45100 20.14900 32.28200
H  -5.37900 18.58200 32.42400
H  -1.48500 17.43100 32.63200
H  -1.74300 15.82800 32.06100
H  -3.10500 15.14300 33.89900
H  -3.43100 16.77100 34.43000
H  -3.24400 23.52700 27.42800
H  -1.81300 22.89400 28.37900
H  -3.34400 22.46800 28.86700
H  -1.58300 24.34500 24.22300
H  -1.54200 23.91100 25.95600
H  -3.09800 24.17900 25.26000
H  -1.60000 17.59900 22.25700
H  -3.47600 15.34400 22.33200
H  -4.10000 18.78100 21.93800
H  -4.53300 17.22100 21.50700
H  -3.24600 18.02600 20.54400
H  -1.29800 15.30300 21.14900
H  -1.58500 13.92000 22.24000
H  -0.14400 15.67100 23.88700
H  0.56800 16.01400 22.34600
H  0.53700 14.41800 22.79700
H  -2.45900 11.50100 25.29100
H  -3.98600 11.45400 26.08100
H  -2.57400 10.82400 26.96600
H  -4.01900 13.79200 31.25900
H  -0.81900 11.85800 33.23400
H  -1.09900 13.02000 34.49700
H  0.00800 13.40100 33.16100
Mg 24.15300 -4.54000 45.59100
C  26.32000 -2.34600 44.03600
C  21.52700 -3.29500 43.73100
C  22.49200 -7.45500 45.96600
C  27.03700 -6.15800 47.16400
N  23.97800 -2.95000 44.09300
C  24.97500 -2.19000 43.51700
C  24.44500 -1.29200 42.39100
C  22.89400 -1.49600 42.50500
C  22.77100 -2.70100 43.53400
C  22.02800 -0.24800 42.88100
C  25.16900 -1.64200 41.05900
C  25.56500 -0.48000 40.20900
H  25.03900 -0.55000 38.84600
N  22.19300 -5.30200 45.03100
C  21.27000 -4.52700 44.34200
C  20.02500 -5.25000 44.32300
C  20.26700 -6.52100 44.97200
C  21.67000 -6.45200 45.36300
C  18.74500 -4.64700 43.65800
C  19.23800 -7.61200 45.16600
O  18.15100 -7.50200 44.63800
C  19.42300 -8.79600 46.02900
N  24.73400 -6.55200 46.27000
C  23.81500 -7.49700 46.44200
C  24.46100 -8.88800 46.87600
C  25.89100 -8.42900 47.30200
C  25.93700 -6.99400 46.89200
C  23.76100 -9.63800 48.06600
C  27.04000 -9.29200 46.73600
C  28.12800 -10.00900 47.55200
N  26.14700 -4.23800 45.87300
C  27.10600 -4.90100 46.57000
C  28.38400 -4.18900 46.35700
C  28.09300 -3.18400 45.43700
C  26.70000 -3.30600 45.09600
C  29.71500 -4.68000 46.81200
C  28.67000 -2.15900 44.63200
O  29.87800 -1.84500 44.44300
C  27.53100 -1.56300 43.73500
C  27.32500 -0.12400 43.92400
O  26.63000 0.39500 44.83300
O  28.00500 0.53000 42.94500
C  28.11900 1.95800 42.97200
H  20.76300 -2.79300 43.13300
H  22.10100 -8.43700 46.23700
H  27.88400 -6.49200 47.76700
H  24.77200 -0.31800 42.75700
H  22.58500 -1.77100 41.49700
H  22.32300 0.69300 42.41700
H  21.98000 -0.12600 43.96300
H  21.00000 -0.33100 42.52900
H  24.43300 -2.19400 40.47400
H  25.80700 -2.48000 41.34100
H  26.64900 -0.36900 40.19100
H  25.14600 0.45000 40.59300
H  18.28300 -5.36300 42.97900
H  18.96100 -3.70800 43.14800
H  18.01300 -4.55500 44.46000
H  19.68500 -8.38400 47.00300
H  20.25600 -9.26700 45.50800
H  18.51400 -9.39500 46.08800
H  24.62100 -9.54700 46.02300
H  25.87400 -8.30000 48.38400
H  24.45500 -9.58000 48.90500
H  23.46800 -10.68200 47.94600
H  22.83200 -9.10600 48.26800
H  27.56700 -8.71500 45.97600
H  26.62400 -10.02500 46.04500
H  29.02100 -9.40300 47.70700
H  28.34000 -11.01900 47.20100
H  27.75200 -9.98900 48.57500
H  29.90600 -5.60100 46.26100
H  29.63000 -4.75600 47.89600
H  30.47600 -3.95100 46.53400
H  27.83100 -1.74800 42.70400
H  28.64200 2.21200 43.89400
H  27.10300 2.35200 42.94800
H  28.55200 2.30300 42.03300

