158

Mg 25.61000 0.73300 29.69400
C  27.44200 0.47100 32.56700
C  22.75200 1.40300 31.68000
C  23.69800 0.80600 26.89100
C  28.43400 -0.24300 27.82400
N  25.14900 0.79200 31.77700
C  26.16700 0.94000 32.74900
C  25.59600 1.28400 34.11200
C  24.03700 1.37700 33.93400
C  23.97700 1.16800 32.37200
C  23.20700 0.25000 34.73000
C  26.35500 2.56300 34.70500
C  27.12100 2.29800 35.95700
H  26.94300 3.35600 37.09200
N  23.56700 1.01300 29.30000
C  22.62500 1.21700 30.30100
C  21.35100 1.38300 29.61200
C  21.53500 1.25000 28.23200
C  23.01400 1.11100 28.05900
C  20.12700 1.77600 30.30500
C  20.48400 1.40000 27.07700
O  20.76100 1.16200 25.89100
C  19.07700 1.71200 27.44000
N  25.98000 0.51200 27.65600
C  25.08900 0.61800 26.65700
C  25.79100 0.37000 25.23400
C  27.26600 0.12700 25.57700
C  27.26000 0.13900 27.12100
C  25.11700 -0.86300 24.50800
C  28.21700 1.21900 24.97600
C  28.15900 1.62900 23.47900
N  27.48000 0.12100 30.08500
C  28.53800 -0.23100 29.23600
C  29.74600 -0.45500 30.02200
C  29.34500 -0.25200 31.30700
C  27.98700 0.10100 31.31400
C  31.09300 -0.95400 29.40300
C  29.80400 -0.29900 32.66800
O  30.86200 -0.57000 33.19400
C  28.58600 0.16100 33.56200
C  28.26600 -0.91300 34.58000
O  27.48500 -1.85700 34.40900
O  28.96400 -0.55900 35.68500
C  28.63900 -1.33200 36.89500
H  21.98500 1.76900 32.36600
H  23.06800 0.85300 26.00100
H  29.25700 -0.56200 27.18100
H  25.71300 0.37000 34.69300
H  23.67200 2.38000 34.15800
H  22.89700 -0.48800 33.99000
H  22.30700 0.69300 35.15800
H  23.88300 -0.09200 35.51400
H  25.62100 3.32100 34.97800
H  27.01600 2.89200 33.90300
H  28.17000 2.36400 35.67000
H  26.94700 1.28400 36.31900
H  19.45700 0.95300 30.55400
H  19.38800 2.46600 29.89800
H  20.33000 2.21600 31.28200
H  18.26800 1.62700 26.71400
H  19.19300 2.75500 27.73700
H  18.79600 1.04200 28.25200
H  25.63100 1.19500 24.53900
H  27.75000 -0.78500 25.22700
H  24.70300 -1.63700 25.15400
H  26.00300 -1.36400 24.11800
H  24.32800 -0.47800 23.86100
H  29.26800 0.96400 25.11300
H  28.10100 2.13500 25.55400
H  29.18200 1.64100 23.10200
H  27.76200 2.64300 23.51600
H  27.60500 0.96200 22.81900
H  31.35800 -0.48900 28.45400
H  30.86400 -1.98500 29.13300
H  31.99900 -0.91100 30.00800
H  28.88800 1.12000 33.98400
H  28.74100 -2.38800 36.64300
H  27.63800 -1.17200 37.29500
H  29.34500 -1.07500 37.68500
Mg 53.37400 23.93500 44.55200
C  50.96100 26.28300 43.69200
C  51.40200 21.38900 43.30800
C  56.07200 21.70900 44.66800
C  55.33600 26.53000 45.56300
N  51.38800 23.86200 43.49400
C  50.57500 24.96400 43.34600
C  49.30300 24.47800 42.62900
C  49.39100 22.91500 42.92200
C  50.79400 22.70300 43.32000
C  48.41900 22.41000 43.97100
C  49.11900 24.69900 41.09800
C  50.34100 25.02800 40.24900
H  50.01500 25.58100 38.83700
N  53.67700 21.80900 44.02900
C  52.73100 20.97400 43.51100
C  53.32400 19.66200 43.26300
C  54.67200 19.74100 43.73600
C  54.85200 21.06800 44.27200
C  52.64500 18.56400 42.52500
C  55.56200 18.51600 43.69600
O  55.30200 17.52200 43.04900
C  56.77800 18.46600 44.48200
N  55.43400 24.17500 44.94000
C  56.31500 23.08000 44.94000
C  57.66700 23.55200 45.44700
C  57.49200 25.08600 45.60000
C  56.03000 25.29500 45.38100
C  58.16500 22.87400 46.75400
C  58.49400 25.87900 44.63900
C  59.56300 26.74900 45.34500
N  53.22900 25.98900 44.71000
C  54.09500 26.90700 45.16000
C  53.43100 28.18900 45.19900
C  52.16600 28.02300 44.60100
C  52.13600 26.63500 44.37400
C  53.98100 29.45900 45.74800
C  50.90500 28.66200 44.23500
O  50.49900 29.83300 44.31400
C  50.03800 27.50800 43.57200
C  49.73500 28.08600 42.17100
O  50.50900 28.36100 41.28200
O  48.36000 28.15500 42.12800
C  47.60700 28.29700 40.89900
H  50.67800 20.59800 43.10100
H  56.97400 21.12600 44.46800
H  55.97100 27.34100 45.92600
H  48.46700 24.95600 43.14000
H  49.25800 22.28300 42.04400
H  48.01200 23.21900 44.57700
H  48.87300 21.76500 44.72300
H  47.52600 22.02600 43.47700
H  48.41900 25.53300 41.03300
H  48.61800 23.81200 40.71100
H  50.84900 24.06700 40.17600
H  51.01100 25.81600 40.59400
H  53.15700 18.24200 41.61800
H  51.61400 18.83900 42.30200
H  52.59200 17.66300 43.13600
H  56.91300 17.40400 44.68700
H  56.74500 18.98500 45.44000
H  57.59800 18.92200 43.92700
H  58.52400 23.44400 44.78200
H  57.80200 25.33900 46.61400
H  57.90000 21.81700 46.74400
H  57.74600 23.43300 47.59000
H  59.23900 22.97700 46.90700
H  57.82800 26.58600 44.14300
H  59.01200 25.27600 43.89300
H  59.73000 26.46600 46.38500
H  59.52000 27.82700 45.18700
H  60.55400 26.56800 44.93000
H  55.05400 29.56400 45.58800
H  53.79800 29.45200 46.82200
H  53.58700 30.38500 45.32800
H  49.14000 27.39800 44.18000
H  48.26500 28.18100 40.03800
H  47.07500 29.23900 41.03600
H  46.82800 27.53800 40.82600

