158

Mg 34.82000 2.97800 30.50600
C  32.31200 3.93900 32.78000
C  37.19900 3.36300 33.09900
C  37.17500 2.01200 28.44500
C  32.35800 2.69300 28.08200
N  34.71400 3.46600 32.63700
C  33.57100 3.74700 33.35700
C  33.90400 3.99900 34.81300
C  35.49400 3.99500 34.86100
C  35.86300 3.55000 33.49100
C  35.95600 5.38500 35.38100
C  33.19400 2.87800 35.69100
C  33.85400 2.48300 37.02900
H  34.42800 3.62000 37.81800
N  36.96000 2.69500 30.72100
C  37.67400 2.88200 31.85200
C  39.06600 2.43100 31.56800
C  39.12500 1.94600 30.23300
C  37.72300 2.15600 29.76700
C  40.16000 2.52400 32.58300
C  40.24500 1.34100 29.42500
O  40.08600 0.93700 28.27100
C  41.64700 1.23800 30.03100
N  34.81200 2.34200 28.55600
C  35.91000 2.14200 27.81100
C  35.59400 2.08000 26.32600
C  34.08300 1.87200 26.34900
C  33.68700 2.38400 27.71400
C  36.09000 3.31100 25.50600
C  33.70700 0.38700 26.31700
C  32.52900 0.03400 25.38100
N  32.74800 3.22300 30.38700
C  31.86200 3.11900 29.36000
C  30.53300 3.41000 29.80300
C  30.68600 3.73500 31.20000
C  32.00900 3.62400 31.48300
C  29.16800 3.20700 29.08100
C  29.95700 4.13900 32.34700
O  28.76300 4.41700 32.54500
C  31.00400 4.31600 33.40600
C  30.93300 5.63700 34.15700
O  30.99400 6.72100 33.64100
O  30.74500 5.40400 35.58400
C  31.16000 6.57100 36.36200
H  37.92500 3.58100 33.88500
H  37.97500 1.75200 27.75000
H  31.61100 2.56500 27.29600
H  33.51600 5.00100 34.99400
H  35.98400 3.30300 35.54700
H  36.19400 6.03000 34.53400
H  36.89300 5.26200 35.92400
H  35.27600 5.94300 36.02400
H  33.17200 1.97900 35.07500
H  32.14300 3.10100 35.87800
H  34.58700 1.70100 36.82900
H  33.04600 2.06600 37.63100
H  39.84400 2.86600 33.56800
H  40.99000 3.10700 32.18300
H  40.45800 1.47900 32.66200
H  41.66400 0.46900 30.80400
H  41.97300 2.14200 30.54500
H  42.32600 1.15700 29.18200
H  36.07600 1.16200 25.99200
H  33.60900 2.38700 25.51400
H  37.13400 3.30900 25.19100
H  36.06700 4.13800 26.21600
H  35.40000 3.65100 24.73300
H  33.56000 0.03900 27.34000
H  34.47100 -0.36600 26.12400
H  31.72000 -0.36000 25.99600
H  32.80600 -0.72100 24.64400
H  32.12400 0.87900 24.82500
H  29.33000 2.45100 28.31300
H  28.84500 4.12000 28.58000
H  28.42900 2.83100 29.78900
H  30.81000 3.54300 34.15000
H  31.38400 6.20800 37.36500
H  30.28200 7.20600 36.48200
H  31.99800 7.08600 35.89300
Mg 31.44000 58.44500 40.60700
C  28.51300 56.73800 39.39700
C  33.36100 55.85400 39.47400
C  34.23500 60.26300 41.33100
C  29.35700 61.22500 41.04900
N  31.00300 56.61000 39.56500
C  29.74000 56.08800 39.08700
C  29.88700 54.79300 38.41300
C  31.33800 54.33400 38.85800
C  31.94900 55.63500 39.42000
C  31.31800 53.18700 39.85800
C  29.67800 55.07500 36.86700
C  28.60300 54.18200 36.27800
H  27.63400 54.77200 35.22800
N  33.45500 58.08700 40.48000
C  34.05900 56.93800 40.07700
C  35.47000 57.05700 40.19800
C  35.76800 58.33700 40.73000
C  34.44800 58.96600 40.91500
C  36.40100 55.92900 39.69300
C  37.14400 58.87300 41.09500
O  38.11000 58.16900 40.98600
C  37.36600 60.15500 41.73100
N  31.75400 60.50600 41.10400
C  33.00100 60.94400 41.43500
C  32.86300 62.48000 41.47700
C  31.32000 62.79100 41.74600
C  30.76800 61.38600 41.34700
C  33.60500 63.11500 42.72300
C  30.74600 63.89500 40.87800
C  29.62400 64.87500 41.43000
N  29.37400 58.83800 40.38500
C  28.67000 60.03900 40.62700
C  27.28300 59.83300 40.26500
C  27.11300 58.49200 39.92600
C  28.45500 57.96700 39.95200
C  26.15200 60.92800 40.22500
C  26.25300 57.52400 39.48000
O  25.03000 57.55400 39.35200
C  27.13300 56.24500 39.02400
C  26.63600 55.13100 39.90400
O  27.05600 54.90500 41.03700
O  25.59000 54.41300 39.31900
C  24.71100 53.49200 40.08300
H  33.88200 54.89400 39.46200
H  35.06200 60.91900 41.61200
H  28.60800 62.00500 41.20100
H  29.28200 53.98000 38.81400
H  31.97600 54.03500 38.02600
H  30.44300 53.29100 40.49800
H  32.18200 53.04500 40.50700
H  31.28200 52.31400 39.20600
H  30.61800 54.94200 36.33200
H  29.38300 56.11900 36.76400
H  27.99100 53.63100 36.99200
H  29.12500 53.36000 35.78600
H  36.28500 56.05700 38.61700
H  36.09000 54.91800 39.95600
H  37.47200 55.94500 39.89500
H  38.36200 60.15200 42.17500
H  36.68600 60.28700 42.57200
H  37.35900 60.99000 41.03000
H  33.09400 62.86200 40.48300
H  31.01800 62.99400 42.77300
H  34.43600 63.73700 42.39000
H  34.09400 62.36300 43.34200
H  33.07800 63.74400 43.44100
H  30.56500 63.46400 39.89400
H  31.54100 64.60900 40.65700
H  28.70800 64.65400 40.88200
H  30.13800 65.82700 41.29300
H  29.47400 64.67800 42.49100
H  25.87100 61.18400 41.24600
H  25.31200 60.39300 39.78000
H  26.41300 61.79300 39.61500
H  26.96600 56.08100 37.96000
H  24.98500 52.44900 39.92800
H  23.68000 53.52700 39.73300
H  24.73400 53.71900 41.14900

