158

Mg 41.19000 9.53600 30.00800
C  43.05000 11.04500 32.56500
C  39.07300 8.13300 32.36900
C  39.36700 8.32100 27.55500
C  43.55400 10.78000 27.74100
N  41.02400 9.67500 32.24200
C  41.85100 10.38300 33.02800
C  41.44200 10.16900 34.50200
C  40.43000 8.96500 34.40500
C  40.13400 8.93800 32.91400
C  40.90500 7.60900 34.92900
C  41.03300 11.60700 35.04800
C  41.81400 12.20200 36.17100
H  41.05500 12.76500 37.38700
N  39.42700 8.42100 29.95700
C  38.73200 7.92200 31.01200
C  37.69900 7.12200 30.52400
C  37.55300 7.38600 29.12500
C  38.82800 8.03400 28.81100
C  36.89800 6.30600 31.48000
C  36.46200 6.91000 28.19900
O  36.60800 7.09900 26.97900
C  35.18500 6.26000 28.70700
N  41.49700 9.49900 27.99500
C  40.59300 8.86000 27.20600
C  41.14300 8.77100 25.80500
C  42.40900 9.69900 25.75000
C  42.45200 10.07200 27.18800
C  41.40800 7.31600 25.29000
C  42.23800 10.95400 24.93000
C  41.45800 12.15800 25.49000
N  42.98300 10.62000 30.06400
C  43.91200 11.02400 29.11200
C  44.96200 11.74300 29.72600
C  44.66800 11.78000 31.10800
C  43.45500 11.06400 31.24800
C  46.08900 12.42900 28.97500
C  45.11900 12.22700 32.43000
O  46.19400 12.75300 32.76000
C  44.05500 11.75200 33.44300
C  44.93700 10.99600 34.36600
O  45.41200 9.87700 34.21400
O  45.20200 11.81700 35.47700
C  45.79500 11.10900 36.66800
H  38.58500 7.53500 33.14200
H  38.86800 7.89600 26.68100
H  44.27100 11.27500 27.08300
H  42.32900 9.81000 35.02500
H  39.52800 9.23300 34.95600
H  40.12500 7.16600 35.54900
H  41.82000 7.63200 35.52100
H  40.98900 6.89000 34.11500
H  39.97700 11.58600 35.31700
H  41.08300 12.40500 34.30700
H  42.32000 13.08400 35.77700
H  42.62300 11.54600 36.49100
H  36.07700 6.86600 31.92800
H  37.46400 5.89900 32.31800
H  36.43900 5.43200 31.01800
H  34.24200 6.54000 28.23600
H  34.86100 6.55600 29.70500
H  35.30700 5.17700 28.70400
H  40.41500 9.18200 25.10700
H  43.33600 9.15700 25.56300
H  40.86700 6.97000 24.40900
H  41.34900 6.58600 26.09700
H  42.43200 7.25500 24.92100
H  41.85500 10.79000 23.92300
H  43.28700 11.22100 24.80100
H  41.03600 12.67300 24.62700
H  42.10100 12.89100 25.97800
H  40.76400 11.73200 26.21400
H  45.67500 12.78400 28.03100
H  46.92300 11.73100 28.90700
H  46.35300 13.30300 29.57000
H  43.53700 12.64500 33.79100
H  45.01200 10.49900 37.11900
H  46.12800 11.86900 37.37500
H  46.62900 10.50100 36.31900
Mg -2.38400 34.21400 27.22200
C  -3.88300 32.44400 29.80000
C  -0.84400 36.23400 29.43300
C  -1.19600 36.01800 24.62900
C  -4.50000 32.42100 24.90900
N  -2.51700 34.41200 29.34000
C  -2.96500 33.42100 30.19400
C  -2.70700 33.78900 31.68200
C  -1.84600 35.12700 31.56100
C  -1.74400 35.29600 30.03000
C  -2.41000 36.42400 32.37400
C  -2.08200 32.58200 32.47200
C  -2.78900 32.15400 33.73300
H  -1.98000 32.23900 35.02200
N  -1.16900 35.82200 27.06900
C  -0.47800 36.50400 28.10600
C  0.33300 37.49900 27.64000
C  0.22600 37.50800 26.24200
C  -0.77100 36.40100 25.88300
C  1.23000 38.38200 28.48500
C  0.90200 38.35500 25.15800
O  0.61800 38.25600 23.98300
C  1.97100 39.23000 25.53600
N  -2.78500 34.17100 25.08600
C  -2.05300 34.99700 24.22700
C  -2.47300 34.77700 22.73900
C  -3.45900 33.52800 22.80900
C  -3.63300 33.36600 24.36800
C  -3.06300 36.09300 22.01000
C  -2.84100 32.33000 22.01600
C  -1.83200 31.51600 22.81300
N  -3.82500 32.72300 27.28700
C  -4.61300 32.13100 26.27000
C  -5.47400 31.15700 26.91300
C  -5.18500 31.27500 28.26900
C  -4.24300 32.23100 28.44400
C  -6.45400 30.26900 26.24700
C  -5.49300 30.65000 29.53200
O  -6.23600 29.70600 29.79100
C  -4.74400 31.50200 30.57000
C  -5.80600 32.17300 31.30000
O  -6.65900 32.97800 30.91200
O  -5.83300 31.58400 32.57100
C  -6.99200 31.90000 33.42600
H  -0.14400 36.48700 30.23200
H  -0.74500 36.42600 23.72200
H  -5.01100 31.81000 24.16100
H  -3.68100 34.07300 32.08200
H  -0.80100 34.90400 31.77800
H  -2.90000 36.18100 33.31600
H  -2.81000 37.21600 31.74100
H  -1.46000 36.84300 32.70500
H  -1.06100 32.84400 32.74700
H  -1.97100 31.63100 31.95000
H  -3.28500 31.18900 33.63100
H  -3.60100 32.82700 34.00800
H  2.25700 38.27100 28.13800
H  1.33700 38.09000 29.53000
H  0.89600 39.40500 28.31200
H  1.62400 40.05700 26.15700
H  2.34700 39.72100 24.63800
H  2.78300 38.56900 25.83900
H  -1.53400 34.47800 22.27400
H  -4.42600 33.81800 22.39800
H  -3.73700 36.61500 22.69000
H  -3.70700 35.73000 21.21000
H  -2.35400 36.86900 21.72100
H  -2.33900 32.79300 21.16600
H  -3.60700 31.64700 21.64800
H  -0.91900 31.51000 22.21800
H  -2.18200 30.48400 22.84100
H  -1.60700 31.88700 23.81200
H  -6.65800 30.69000 25.26300
H  -7.34200 30.05300 26.84200
H  -6.07700 29.24800 26.19100
H  -4.13300 30.76700 31.09500
H  -7.88500 31.46500 32.97700
H  -7.04600 32.98300 33.53700
H  -6.83400 31.34600 34.35200

