158

Mg 40.85700 7.44100 28.79700
C  42.64500 9.18400 31.48200
C  38.75300 6.47500 31.35300
C  39.16600 5.87400 26.42900
C  43.30500 8.36200 26.61300
N  40.77800 7.74200 31.15300
C  41.52800 8.54800 31.94600
C  41.00400 8.56500 33.38300
C  39.96200 7.41900 33.34300
C  39.87400 7.09200 31.88800
C  40.20900 6.24400 34.21300
C  40.37400 9.95800 33.89300
C  39.84600 9.84200 35.32700
H  40.39600 10.77100 36.41600
N  39.18100 6.35800 28.83500
C  38.40600 6.11200 29.95000
C  37.21300 5.45000 29.56400
C  37.26600 5.35300 28.11600
C  38.59300 5.80300 27.76300
C  36.17700 4.91800 30.55300
C  36.19000 4.97000 27.11800
O  36.27600 4.88800 25.91100
C  34.85300 4.57400 27.67500
N  41.29600 7.01500 26.84000
C  40.38800 6.41700 25.99300
C  40.95300 6.40900 24.56200
C  42.17500 7.30600 24.69400
C  42.23300 7.58100 26.11900
C  41.31200 5.06600 23.93300
C  41.97700 8.57500 23.82800
C  41.08800 9.76200 24.25200
N  42.62300 8.43200 29.01500
C  43.52200 8.70700 28.03100
C  44.66900 9.44000 28.52000
C  44.35200 9.68500 29.88000
C  43.09900 9.07600 30.15600
C  45.78000 9.95000 27.70600
C  44.74400 10.42500 31.13100
O  45.70500 11.15900 31.34300
C  43.65000 10.05800 32.25700
C  44.37100 9.47100 33.37300
O  45.28600 8.65100 33.26800
O  43.86100 10.09300 34.48600
C  44.28200 9.38800 35.70900
H  38.00800 6.28600 32.12900
H  38.63500 5.35600 25.62800
H  44.04200 8.77200 25.92000
H  41.83500 8.39100 34.06700
H  39.00200 7.90300 33.52300
H  39.25700 5.76100 34.43100
H  40.73900 6.51800 35.12500
H  40.79500 5.45100 33.74700
H  39.55700 10.35100 33.28800
H  41.21700 10.64100 34.00400
H  39.94500 8.82500 35.70600
H  38.77200 10.02400 35.32200
H  35.95300 3.89900 30.23800
H  35.26800 5.51100 30.45200
H  36.46600 4.94400 31.60400
H  34.07400 4.25500 26.98200
H  34.47300 5.46800 28.16900
H  34.90900 3.79500 28.43500
H  40.25000 6.89900 23.88800
H  43.12100 6.93900 24.29500
H  41.00700 4.27300 24.61500
H  42.36600 4.83100 23.79000
H  40.82800 4.93000 22.96600
H  41.67100 8.32300 22.81300
H  42.93700 9.07100 23.68500
H  40.38200 9.94500 23.44200
H  41.81500 10.54100 24.48100
H  40.36600 9.61700 25.05500
H  45.36000 10.81200 27.18800
H  46.04800 9.23000 26.93200
H  46.52300 10.29600 28.42400
H  43.15500 10.99000 32.52900
H  44.31700 8.31200 35.53700
H  43.58500 9.50900 36.53900
H  45.25200 9.73200 36.06900
Mg 53.56500 24.91400 43.92500
C  50.59200 26.82300 43.19500
C  52.16200 22.28100 42.34400
C  56.51800 23.51000 44.03100
C  54.94800 28.03100 45.14700
N  51.74200 24.76800 42.76000
C  50.66400 25.62100 42.55800
C  49.50600 24.85100 41.94400
C  49.87900 23.41700 42.16200
C  51.37600 23.47600 42.39800
C  49.19400 22.61700 43.35000
C  49.04500 25.32600 40.47900
C  47.60700 24.89000 40.08800
H  47.46100 23.47000 39.56500
N  54.28500 23.07300 43.34100
C  53.49600 22.10800 42.72600
C  54.31700 20.85900 42.71300
C  55.65000 21.12900 43.25300
C  55.53600 22.62800 43.53500
C  53.72200 19.73500 42.02400
C  56.73400 20.17400 43.51400
O  56.52300 18.98400 43.25100
C  58.11500 20.51000 44.11400
N  55.48900 25.68500 44.49900
C  56.52200 24.89100 44.39100
C  57.75100 25.51700 45.14000
C  57.34800 27.02900 45.37400
C  55.90800 26.96800 44.93600
C  58.18000 24.75200 46.41400
C  58.17700 28.13900 44.63800
C  58.22300 28.30000 43.10100
N  52.98200 26.98000 44.18800
C  53.55900 28.00800 44.84600
C  52.62200 28.99300 45.19800
C  51.48900 28.63300 44.53000
C  51.69600 27.38300 43.88100
C  52.91700 30.25200 45.97600
C  50.14700 29.00000 44.23300
O  49.49100 29.97700 44.52800
C  49.48500 27.81500 43.44400
C  48.79800 28.26100 42.22400
O  49.35800 28.61900 41.20200
O  47.42000 28.27600 42.38900
C  46.73200 28.60200 41.13900
H  51.66300 21.36300 42.03000
H  57.51800 23.15500 44.28900
H  55.33600 28.97400 45.53700
H  48.57300 24.94900 42.50000
H  49.66700 22.93300 41.20900
H  48.47400 23.27500 43.83700
H  49.94400 22.37600 44.10300
H  48.71600 21.75000 42.89500
H  49.74200 24.84100 39.79500
H  49.16900 26.38000 40.23400
H  47.20600 25.56600 39.33200
H  47.14400 25.03100 41.06500
H  54.35400 18.84700 41.98500
H  53.45600 19.89200 40.97800
H  52.75100 19.52700 42.47300
H  58.74000 21.16000 43.50100
H  58.75200 19.62600 44.10600
H  58.09400 21.09000 45.03600
H  58.60100 25.51200 44.45800
H  57.49700 27.19900 46.44000
H  57.35300 24.27200 46.93800
H  58.71800 25.43000 47.07700
H  58.88100 23.96300 46.14200
H  59.20900 27.96600 44.94300
H  57.86900 29.07800 45.09900
H  57.60100 29.11100 42.72100
H  57.82600 27.41600 42.60200
H  59.24800 28.48900 42.78300
H  52.03900 30.68400 46.45600
H  53.45100 31.07900 45.50800
H  53.59100 30.08900 46.81700
H  48.66900 27.30400 43.95500
H  46.70500 27.68100 40.55600
H  47.15900 29.31000 40.42900
H  45.68800 28.86700 41.30800

