158

Mg 29.93600 59.46700 39.37800
C  26.79700 58.06200 38.51800
C  31.43700 56.82600 38.28300
C  32.49800 61.46000 39.34600
C  28.01600 62.58200 39.86300
N  29.15200 57.73700 38.26000
C  27.91700 57.25400 38.22500
C  27.90100 55.84300 37.70700
C  29.32900 55.34300 38.12600
C  30.04100 56.71500 38.27600
C  29.34600 54.53400 39.44800
C  27.60700 55.73400 36.17000
C  26.66400 54.60600 35.71200
H  26.04400 54.76800 34.26300
N  31.72600 59.12500 38.91500
C  32.20500 57.95600 38.40800
C  33.65400 58.10600 38.28800
C  34.01200 59.39700 38.65600
C  32.72700 60.09000 39.00200
C  34.42000 56.90300 37.65500
C  35.42800 60.04300 38.72400
O  36.39600 59.42500 38.32800
C  35.84700 61.24600 39.48300
N  30.18500 61.73600 39.73600
C  31.41200 62.21800 39.58300
C  31.43400 63.68900 39.40600
C  30.07100 64.12800 39.94300
C  29.34800 62.71500 39.83500
C  32.54900 64.62800 39.91700
C  29.35000 65.28600 39.23700
C  28.54900 66.11600 40.28500
N  27.84900 60.17400 39.35600
C  27.24800 61.42200 39.66300
C  25.81600 61.31800 39.59600
C  25.61400 59.99400 39.14900
C  26.83500 59.34300 39.05600
C  24.70700 62.44100 39.71200
C  24.57100 59.00800 38.78800
O  23.33300 59.01700 38.77700
C  25.37100 57.72800 38.30100
C  24.97300 56.51000 39.11300
O  25.53100 56.15600 40.14900
O  24.07200 55.82100 38.43300
C  23.94100 54.45600 38.94800
H  32.06300 55.95100 38.09500
H  33.38500 62.09500 39.29900
H  27.36800 63.46000 39.87200
H  27.05400 55.30500 38.13300
H  29.82200 54.65900 37.43500
H  28.59100 54.93000 40.12700
H  30.35500 54.71500 39.81600
H  29.25100 53.45400 39.33700
H  28.55000 55.43500 35.71300
H  27.28500 56.70600 35.79700
H  25.83600 54.54200 36.41800
H  27.20000 53.65900 35.65500
H  34.51700 56.09500 38.38100
H  35.44000 57.15800 37.36500
H  33.77200 56.48800 36.88400
H  36.93500 61.31200 39.48400
H  35.31600 61.25200 40.43400
H  35.50300 62.08900 38.88400
H  31.54300 63.95000 38.35300
H  30.14800 64.32000 41.01300
H  32.85900 65.33700 39.14900
H  33.38000 64.08700 40.36800
H  32.11600 65.18800 40.74600
H  28.53000 65.03500 38.56400
H  30.05200 65.92600 38.70300
H  28.26900 66.94200 39.63300
H  29.09800 66.37000 41.19200
H  27.61600 65.58800 40.48800
H  24.24000 62.75200 38.77800
H  25.08700 63.34700 40.18500
H  23.93300 61.97700 40.32300
H  25.21000 57.61300 37.22900
H  23.27500 53.82800 38.35600
H  23.42300 54.36700 39.90300
H  24.94100 54.02500 38.99900
Mg 8.67200 48.07000 27.62100
C  7.05800 47.44000 30.77100
C  11.62900 48.28600 29.54800
C  10.31800 48.68200 24.81500
C  5.62400 48.03200 26.05400
N  9.14400 47.93600 29.93000
C  8.40200 47.65100 30.98000
C  9.08000 47.75700 32.40000
C  10.56400 48.17600 31.89500
C  10.45700 48.08400 30.37100
C  11.21300 49.48000 32.42200
C  9.11400 46.64900 33.45000
C  8.84300 47.02000 34.93600
H  9.57900 46.12900 36.00500
N  10.63500 48.37300 27.20300
C  11.72600 48.40500 28.14600
C  12.90600 48.63900 27.48400
C  12.59700 48.83800 26.09800
C  11.13800 48.64600 25.96100
C  14.30400 48.71000 28.06400
C  13.56200 49.12800 24.89600
O  13.14100 49.23500 23.77300
C  15.10500 49.18400 25.09300
N  8.05500 48.22700 25.74900
C  8.87900 48.48900 24.76100
C  8.17600 48.58700 23.33600
C  6.66700 48.49600 23.76300
C  6.74600 48.22900 25.25600
C  8.46300 49.85700 22.58500
C  5.87000 47.42300 23.05300
C  5.86100 47.55800 21.53000
N  6.79600 47.77700 28.17800
C  5.66300 47.82700 27.45000
C  4.53800 47.65000 28.24700
C  5.05100 47.47700 29.54300
C  6.42300 47.57400 29.47000
C  3.09800 47.70700 27.87900
C  4.62300 47.21400 30.86700
O  3.52900 47.08700 31.41200
C  5.98700 47.15500 31.70800
C  6.09300 45.81300 32.22000
O  6.48300 44.87300 31.57300
O  5.82500 45.68200 33.61500
C  5.90900 44.28700 34.05900
H  12.53400 48.51200 30.11700
H  10.72000 49.03000 23.86100
H  4.64900 48.11000 25.56800
H  8.62800 48.67600 32.77100
H  11.23600 47.37700 32.20600
H  10.53100 49.88900 33.16700
H  11.32100 50.18400 31.59700
H  12.19700 49.30600 32.85900
H  10.06600 46.13600 33.31700
H  8.41000 45.88100 33.13100
H  7.77700 46.95200 35.15400
H  9.11800 48.05500 35.13900
H  14.75400 47.80400 27.65700
H  14.36600 48.66900 29.15100
H  14.90600 49.58400 27.81800
H  15.48200 50.02400 25.67600
H  15.54500 49.26800 24.09900
H  15.43600 48.20300 25.43600
H  8.52000 47.78400 22.68400
H  6.12300 49.42300 23.58700
H  8.79900 50.71200 23.17100
H  7.58300 50.16700 22.02200
H  9.28400 49.64900 21.89800
H  4.84200 47.46300 23.41500
H  6.23500 46.42200 23.28600
H  6.80800 47.33500 21.03700
H  5.65800 48.61000 21.32800
H  5.06600 46.93900 21.11500
H  2.86800 46.84400 27.25400
H  2.93700 48.70700 27.47700
H  2.50600 47.75300 28.79400
H  5.99800 48.02000 32.37000
H  6.85500 43.81400 33.79500
H  5.05600 43.71300 33.69700
H  5.77000 44.24900 35.14000

