158

Mg 34.82000 2.97800 30.50600
C  32.31200 3.93900 32.78000
C  37.19900 3.36300 33.09900
C  37.17500 2.01200 28.44500
C  32.35800 2.69300 28.08200
N  34.71400 3.46600 32.63700
C  33.57100 3.74700 33.35700
C  33.90400 3.99900 34.81300
C  35.49400 3.99500 34.86100
C  35.86300 3.55000 33.49100
C  35.95600 5.38500 35.38100
C  33.19400 2.87800 35.69100
C  33.85400 2.48300 37.02900
H  34.42800 3.62000 37.81800
N  36.96000 2.69500 30.72100
C  37.67400 2.88200 31.85200
C  39.06600 2.43100 31.56800
C  39.12500 1.94600 30.23300
C  37.72300 2.15600 29.76700
C  40.16000 2.52400 32.58300
C  40.24500 1.34100 29.42500
O  40.08600 0.93700 28.27100
C  41.64700 1.23800 30.03100
N  34.81200 2.34200 28.55600
C  35.91000 2.14200 27.81100
C  35.59400 2.08000 26.32600
C  34.08300 1.87200 26.34900
C  33.68700 2.38400 27.71400
C  36.09000 3.31100 25.50600
C  33.70700 0.38700 26.31700
C  32.52900 0.03400 25.38100
N  32.74800 3.22300 30.38700
C  31.86200 3.11900 29.36000
C  30.53300 3.41000 29.80300
C  30.68600 3.73500 31.20000
C  32.00900 3.62400 31.48300
C  29.16800 3.20700 29.08100
C  29.95700 4.13900 32.34700
O  28.76300 4.41700 32.54500
C  31.00400 4.31600 33.40600
C  30.93300 5.63700 34.15700
O  30.99400 6.72100 33.64100
O  30.74500 5.40400 35.58400
C  31.16000 6.57100 36.36200
H  37.92500 3.58100 33.88500
H  37.97500 1.75200 27.75000
H  31.61100 2.56500 27.29600
H  33.51600 5.00100 34.99400
H  35.98400 3.30300 35.54700
H  36.19400 6.03000 34.53400
H  36.89300 5.26200 35.92400
H  35.27600 5.94300 36.02400
H  33.17200 1.97900 35.07500
H  32.14300 3.10100 35.87800
H  34.58700 1.70100 36.82900
H  33.04600 2.06600 37.63100
H  39.84400 2.86600 33.56800
H  40.99000 3.10700 32.18300
H  40.45800 1.47900 32.66200
H  41.66400 0.46900 30.80400
H  41.97300 2.14200 30.54500
H  42.32600 1.15700 29.18200
H  36.07600 1.16200 25.99200
H  33.60900 2.38700 25.51400
H  37.13400 3.30900 25.19100
H  36.06700 4.13800 26.21600
H  35.40000 3.65100 24.73300
H  33.56000 0.03900 27.34000
H  34.47100 -0.36600 26.12400
H  31.72000 -0.36000 25.99600
H  32.80600 -0.72100 24.64400
H  32.12400 0.87900 24.82500
H  29.33000 2.45100 28.31300
H  28.84500 4.12000 28.58000
H  28.42900 2.83100 29.78900
H  30.81000 3.54300 34.15000
H  31.38400 6.20800 37.36500
H  30.28200 7.20600 36.48200
H  31.99800 7.08600 35.89300
Mg 46.67200 25.02700 27.78200
C  47.89600 26.97200 30.57700
C  45.65400 22.72700 29.95300
C  45.66400 23.32300 25.12300
C  47.65700 27.55900 25.83100
N  46.76100 24.95200 30.03100
C  47.22500 25.81300 30.94700
C  46.86800 25.39900 32.45700
C  46.42900 23.95300 32.14000
C  46.25300 23.86500 30.62000
C  47.32600 22.80600 32.65000
C  45.83600 26.37800 33.15700
C  46.35300 26.96700 34.47800
H  45.36500 27.11100 35.56700
N  45.79000 23.21700 27.65400
C  45.44300 22.38700 28.63800
C  44.97400 21.20000 28.05900
C  44.90500 21.34800 26.65500
C  45.44200 22.63100 26.37700
C  44.56500 20.00000 28.88200
C  44.42900 20.34200 25.58200
O  44.54100 20.50000 24.40100
C  43.95400 18.92800 25.99300
N  46.91200 25.27400 25.75200
C  46.35900 24.46100 24.85100
C  46.50300 24.96600 23.36500
C  46.99800 26.44100 23.57900
C  47.26600 26.42000 25.13800
C  47.49600 23.99200 22.48300
C  46.08300 27.65400 23.15500
C  46.77900 28.72100 22.33300
N  47.65300 26.79600 28.09300
C  47.99800 27.71900 27.14900
C  48.64200 28.84300 27.71700
C  48.62600 28.68200 29.07100
C  48.03700 27.33900 29.25200
C  49.30500 29.92200 26.96700
C  49.01300 29.20300 30.37800
O  49.53000 30.24600 30.71300
C  48.54400 28.13000 31.41400
C  49.59700 27.58900 32.40100
O  50.34200 26.66800 32.15400
O  49.58400 28.34000 33.58400
C  50.53200 27.92700 34.66500
H  45.13000 21.99800 30.57400
H  45.35200 22.68300 24.29500
H  47.70700 28.45100 25.20300
H  47.82500 25.27100 32.96200
H  45.51300 23.71000 32.68000
H  48.32000 23.22600 32.80100
H  47.25700 21.95200 31.97600
H  47.05800 22.57200 33.68000
H  44.89500 25.88500 33.40300
H  45.58700 27.20100 32.48800
H  46.90000 27.89000 34.28900
H  47.16400 26.27500 34.70300
H  43.51500 19.77700 28.69700
H  44.62900 20.19200 29.95300
H  45.25900 19.20200 28.61800
H  42.97400 18.89500 26.46800
H  44.71400 18.49400 26.64200
H  43.79800 18.31800 25.10400
H  45.56100 24.94700 22.81600
H  48.01900 26.58000 23.22300
H  47.29700 24.23800 21.44000
H  47.21900 22.96400 22.71700
H  48.53300 24.20500 22.74300
H  45.60000 28.25900 23.92200
H  45.28000 27.14500 22.62100
H  46.19300 28.98400 21.45200
H  47.72400 28.35900 21.92800
H  47.00100 29.56800 22.98200
H  50.23300 30.19300 27.47000
H  48.76300 30.84400 26.75700
H  49.43800 29.56700 25.94500
H  47.73600 28.50100 32.04500
H  50.86900 26.91100 34.45800
H  49.98100 28.06200 35.59600
H  51.43300 28.53400 34.57700

