158

Mg 24.75700 -4.03500 45.67200
C  26.98500 -1.76400 43.89700
C  22.34300 -3.06500 43.56100
C  23.13300 -6.87400 46.48900
C  27.73400 -5.26400 47.33400
N  24.70800 -2.47800 43.95800
C  25.64500 -1.70800 43.38500
C  25.09200 -0.79500 42.25400
C  23.62500 -1.26300 42.25300
C  23.52100 -2.34900 43.31000
C  22.60400 -0.12700 42.36300
C  25.78000 -1.00800 40.92800
C  25.88300 0.07700 39.89000
H  25.16800 -0.14400 38.52600
N  22.92300 -4.76400 45.25300
C  22.05700 -4.23400 44.33800
C  20.80100 -4.95900 44.35000
C  21.01000 -6.10100 45.19800
C  22.44200 -5.97300 45.70900
C  19.57400 -4.51800 43.57200
C  20.00000 -7.22200 45.35700
O  18.84400 -7.06900 44.97000
C  20.35800 -8.57200 45.99000
N  25.45800 -5.87700 46.57200
C  24.48200 -6.82100 46.92800
C  25.15800 -7.96800 47.70900
C  26.54500 -7.34000 48.14800
C  26.62700 -6.10000 47.25400
C  24.35200 -8.67600 48.82400
C  27.80200 -8.31300 48.13700
C  28.24200 -8.91600 49.38800
N  26.85500 -3.58300 45.79300
C  27.88300 -4.13500 46.52100
C  29.06700 -3.37100 46.31100
C  28.80200 -2.44100 45.29800
C  27.42500 -2.63000 44.93200
C  30.38600 -3.46300 47.03900
C  29.36600 -1.32500 44.48800
O  30.51000 -0.83800 44.46500
C  28.19000 -0.79200 43.62900
C  28.04800 0.68400 43.96200
O  27.32600 1.10100 44.79500
O  28.63500 1.46300 42.95300
C  28.32200 2.91500 42.94300
H  21.49500 -2.73700 42.95700
H  22.65200 -7.76400 46.89900
H  28.55500 -5.65900 47.93500
H  25.28000 0.24800 42.50800
H  23.30900 -1.78900 41.35200
H  21.84700 -0.13300 41.57900
H  23.11100 0.83100 42.24200
H  22.15300 -0.18000 43.35400
H  25.22300 -1.83600 40.49100
H  26.82100 -1.30700 41.05400
H  26.89300 0.38700 39.62000
H  25.34800 0.92400 40.31800
H  19.78100 -4.60500 42.50600
H  19.61700 -3.43000 43.62600
H  18.63700 -5.02600 43.79900
H  20.57600 -8.39500 47.04300
H  21.12500 -9.13200 45.45300
H  19.48400 -9.22200 46.02800
H  25.31700 -8.68400 46.90300
H  26.46400 -6.99200 49.17800
H  24.18200 -9.74700 48.70800
H  23.33600 -8.36200 49.06100
H  24.95900 -8.48300 49.70800
H  28.67100 -7.80600 47.71600
H  27.63500 -9.17400 47.49100
H  28.02700 -9.98500 49.39100
H  27.63400 -8.46700 50.17400
H  29.28900 -8.85900 49.68400
H  31.10700 -2.89600 46.45000
H  30.72100 -4.43800 47.39200
H  30.41400 -2.85700 47.94400
H  28.47700 -0.97100 42.59300
H  28.72900 3.52800 43.74700
H  27.24800 3.10200 42.97800
H  28.67700 3.35500 42.01200
Mg 42.30400 40.81800 27.74600
C  41.14000 43.31500 29.98600
C  43.05600 38.80300 30.26300
C  43.90900 38.78400 25.50500
C  41.78600 43.25600 25.23500
N  42.18100 41.09600 29.85900
C  41.52900 42.13100 30.53800
C  41.46700 41.74200 32.04900
C  42.30100 40.39600 32.12400
C  42.49700 40.02200 30.69500
C  43.70100 40.49100 32.82700
C  40.02800 41.70000 32.64600
C  39.83100 42.50400 33.96300
H  39.33400 41.65900 35.11600
N  43.25600 39.05300 27.89300
C  43.37400 38.33300 28.99600
C  44.00600 37.09700 28.74400
C  44.28900 37.06900 27.35300
C  43.82000 38.31200 26.85300
C  43.96000 35.93500 29.73700
C  44.94500 35.91000 26.51200
O  45.16500 36.01400 25.31500
C  45.36500 34.63600 27.16100
N  42.86500 40.98900 25.68000
C  43.42900 39.95200 24.95900
C  43.22100 40.25100 23.48600
C  42.54700 41.72000 23.40700
C  42.39000 42.01600 24.90600
C  44.42500 39.98800 22.55400
C  41.23500 41.78400 22.56200
C  41.38000 42.63300 21.22900
N  41.69800 42.89600 27.59700
C  41.56700 43.75600 26.53100
C  41.00300 45.01000 26.87700
C  40.77300 44.85000 28.22300
C  41.24800 43.57000 28.60900
C  40.62700 46.16500 25.92200
C  40.23100 45.50000 29.33900
O  39.74000 46.63300 29.49600
C  40.42100 44.52600 30.54600
C  41.28100 45.28700 31.57800
O  42.51100 45.57600 31.45100
O  40.57100 45.44100 32.75200
C  41.36900 46.01800 33.87600
H  43.20700 38.17000 31.14000
H  44.18200 37.97000 24.83000
H  41.65400 43.85900 24.33500
H  42.01000 42.58800 32.47000
H  41.67000 39.64200 32.59400
H  44.01000 39.48800 33.12300
H  43.64000 41.03900 33.76800
H  44.45900 40.89000 32.15300
H  39.78400 40.68400 32.95800
H  39.31100 42.06000 31.90900
H  39.08400 43.28500 33.82000
H  40.78400 42.98100 34.19000
H  44.97800 35.57800 29.89300
H  43.33400 35.18700 29.25100
H  43.46500 36.14900 30.68500
H  46.06400 34.92400 27.94600
H  46.01500 34.25200 26.37500
H  44.51000 33.98700 27.35000
H  42.43900 39.51000 23.31700
H  43.20900 42.50000 23.03300
H  45.31500 40.11400 23.17100
H  44.54700 40.63700 21.68700
H  44.41600 39.00600 22.08000
H  40.46200 42.15300 23.23700
H  40.90900 40.78100 22.28900
H  40.99400 43.63400 21.41800
H  40.75900 42.11200 20.50100
H  42.41800 42.60900 20.89700
H  40.51000 47.09400 26.47900
H  39.73200 45.85600 25.38300
H  41.39000 46.21500 25.14500
H  39.43600 44.38600 30.99100
H  41.80100 45.13700 34.35100
H  40.66800 46.38200 34.62700
H  42.16600 46.70800 33.60000

