158

Mg 15.87000 51.63000 24.75000
C  17.92200 50.56900 27.42300
C  13.52900 52.50700 26.98400
C  14.19900 52.62600 22.24300
C  18.46400 50.28200 22.59400
N  15.64600 51.31800 26.86500
C  16.69000 51.11200 27.75000
C  16.28000 51.49100 29.18000
C  14.72400 51.68000 29.07000
C  14.64200 51.91400 27.56000
C  13.90000 50.50600 29.53000
C  17.03500 52.67700 29.62800
C  16.90200 53.08500 31.15400
H  15.83600 52.26000 31.97800
N  14.01000 52.50300 24.59700
C  13.26700 52.80900 25.65800
C  12.05300 53.43900 25.15300
C  12.20200 53.47400 23.69600
C  13.52300 52.87100 23.47600
C  10.91100 53.98400 25.91200
C  11.27400 54.01700 22.60800
O  11.55000 54.05300 21.41600
C  9.93800 54.71600 22.97100
N  16.28500 51.43500 22.76700
C  15.40800 51.96700 21.87500
C  15.89800 52.01500 20.47300
C  17.15900 51.12200 20.52800
C  17.32600 50.89900 22.06300
C  14.81100 51.51500 19.43600
C  18.37300 51.75900 19.89200
C  19.31100 50.89000 18.94400
N  17.87500 50.66600 24.92700
C  18.78800 50.12500 23.97000
C  19.92900 49.60900 24.58400
C  19.61300 49.76500 26.02700
C  18.39100 50.39600 26.12200
C  21.06800 49.00500 23.80100
C  20.08400 49.42100 27.34800
O  21.10900 48.83200 27.76500
C  19.03300 50.05400 28.36100
C  18.61000 48.90900 29.29400
O  17.68800 48.14800 29.15500
O  19.44600 48.93000 30.34000
C  18.89100 48.39200 31.57900
H  12.67200 52.77800 27.60400
H  13.64300 52.98800 21.37600
H  19.16200 49.90200 21.84500
H  16.43200 50.69000 29.90300
H  14.27900 52.55600 29.54200
H  12.98100 50.93600 29.92800
H  14.34400 49.79000 30.22100
H  13.69900 49.84400 28.68800
H  16.76600 53.60200 29.11800
H  18.11800 52.56100 29.61500
H  16.62500 54.13900 31.19700
H  17.89500 53.01900 31.59800
H  10.86100 55.07200 25.87200
H  11.02500 53.71900 26.96300
H  9.98700 53.49700 25.59800
H  10.21800 55.60100 23.54200
H  9.27600 54.07500 23.55300
H  9.47700 54.97000 22.01600
H  16.09900 53.07700 20.33000
H  16.88700 50.14200 20.13600
H  14.10300 50.91100 20.00300
H  15.26200 51.02000 18.57600
H  14.37000 52.44200 19.06900
H  19.03500 51.98400 20.72800
H  18.05800 52.60000 19.27300
H  19.29500 51.16800 17.89000
H  18.96200 49.85700 18.92600
H  20.35100 50.92300 19.26900
H  20.92000 48.71900 22.76000
H  21.33400 48.15000 24.42300
H  21.86100 49.75300 23.79900
H  19.59300 50.76800 28.96400
H  18.27500 47.51600 31.37500
H  18.27600 49.15900 32.05000
H  19.74400 48.10200 32.19200
Mg -3.10500 34.52000 26.51500
C  -4.28900 33.17200 29.62300
C  -1.21200 36.69700 28.43100
C  -2.65200 36.28100 23.66200
C  -4.84100 32.08500 24.88000
N  -2.85400 34.92200 28.77600
C  -3.29300 34.14700 29.84700
C  -2.67300 34.58900 31.16500
C  -1.91200 35.86300 30.80900
C  -1.97200 35.84300 29.26800
C  -2.41600 37.17100 31.48100
C  -1.87000 33.45800 31.95600
C  -2.45800 33.12800 33.39300
H  -1.48200 33.02200 34.55500
N  -2.08500 36.29800 26.13900
C  -1.29300 36.92800 27.02800
C  -0.56000 37.92700 26.21400
C  -1.04100 37.84100 24.89700
C  -1.92800 36.70500 24.82000
C  0.39000 38.86200 26.88600
C  -0.68400 38.74100 23.73200
O  -0.84900 38.37300 22.56800
C  -0.07200 40.17600 23.96200
N  -3.74300 34.38200 24.57100
C  -3.39600 35.12100 23.51700
C  -3.93800 34.48700 22.18300
C  -4.23500 33.01000 22.60600
C  -4.26300 33.15400 24.12800
C  -5.17900 35.21900 21.59800
C  -3.22900 31.92000 22.14000
C  -3.98000 30.61300 21.83500
N  -4.43100 33.01500 27.08700
C  -4.88200 31.98600 26.28200
C  -5.55900 30.97000 27.16500
C  -5.37200 31.37800 28.44300
C  -4.70300 32.63600 28.38100
C  -6.36000 29.83500 26.63900
C  -5.56500 31.06900 29.88000
O  -6.16800 30.14700 30.41500
C  -4.88300 32.21400 30.62600
C  -5.86600 32.88900 31.49100
O  -6.63300 33.78000 31.16800
O  -5.74600 32.36300 32.76900
C  -6.48300 32.92300 33.80900
H  -0.55900 37.43200 28.90700
H  -2.63700 36.91700 22.77500
H  -5.29200 31.14400 24.55800
H  -3.50100 34.84900 31.82500
H  -0.89000 35.77900 31.17800
H  -2.18300 37.12700 32.54500
H  -3.50300 37.18300 31.40000
H  -1.92400 38.04300 31.05000
H  -0.86100 33.84400 32.10200
H  -1.74400 32.50700 31.43700
H  -2.96900 32.16600 33.37400
H  -3.14800 33.89300 33.74700
H  1.07300 39.22800 26.11900
H  1.02100 38.33300 27.60000
H  -0.13700 39.59800 27.49400
H  -0.47800 40.77100 23.14300
H  1.00300 40.04500 23.84300
H  -0.26400 40.55400 24.96600
H  -3.11700 34.65300 21.48500
H  -5.29000 32.80300 22.43200
H  -5.01000 35.73300 20.65200
H  -5.47400 36.04900 22.24100
H  -6.02200 34.55000 21.42500
H  -2.58300 31.75200 23.00200
H  -2.84400 32.31800 21.20100
H  -3.39300 30.06900 21.09500
H  -4.92500 30.90200 21.37600
H  -4.10000 29.96400 22.70300
H  -6.31200 28.91000 27.21300
H  -6.15000 29.64100 25.58700
H  -7.38800 30.15900 26.79700
H  -4.03600 31.84400 31.20400
H  -5.81000 33.65100 34.26100
H  -6.79700 32.22100 34.58100
H  -7.36900 33.36000 33.34700

