158

Mg 48.20600 16.69300 28.24300
C  46.39500 16.23800 31.16500
C  50.59100 18.42500 30.09700
C  49.91200 17.29100 25.40800
C  45.76100 15.03200 26.56900
N  48.32700 17.37700 30.38900
C  47.58800 16.91800 31.44600
C  48.06000 17.37500 32.87600
C  49.38200 18.15700 32.40100
C  49.44700 17.96600 30.84300
C  49.51700 19.67600 32.88200
C  48.31500 16.14300 33.74900
C  48.32300 16.27800 35.21300
H  47.78500 17.57800 35.77200
N  50.01400 17.74800 27.81400
C  50.89600 18.31800 28.75800
C  52.09900 18.73400 28.02100
C  51.84300 18.62800 26.57600
C  50.54500 17.88300 26.50100
C  53.41700 19.18800 28.75900
C  52.61100 19.12000 25.35600
O  52.24900 18.92000 24.19300
C  53.87800 19.78700 25.60600
N  47.79800 16.33300 26.22400
C  48.67100 16.65000 25.23300
C  48.11600 16.20900 23.92300
C  46.87700 15.32300 24.26900
C  46.81600 15.51900 25.78000
C  47.86200 17.39000 22.90000
C  46.86600 13.82400 23.79600
C  46.31800 13.58100 22.42700
N  46.37900 15.77300 28.68500
C  45.49900 15.16000 27.91200
C  44.30500 14.87300 28.73400
C  44.64000 15.21700 29.95700
C  45.92400 15.74100 29.89500
C  43.01100 14.29900 28.31100
C  44.22300 15.22200 31.37300
O  43.12700 14.94300 31.82200
C  45.32600 15.81000 32.20800
C  44.62000 16.92900 32.84800
O  44.33000 17.99100 32.30600
O  44.31200 16.63300 34.14900
C  43.62700 17.72700 34.85300
H  51.37100 18.84000 30.73900
H  50.52500 17.36200 24.50800
H  44.95300 14.65900 25.93600
H  47.20100 17.97900 33.17200
H  50.27200 17.71500 32.84800
H  48.62800 20.07000 33.37200
H  49.77800 20.37000 32.08200
H  50.25300 19.75000 33.68300
H  49.26300 15.76200 33.36900
H  47.56800 15.35800 33.62700
H  49.36800 16.10400 35.47000
H  47.85800 15.40000 35.66000
H  53.95000 19.93400 28.17000
H  53.97800 18.25400 28.74700
H  53.09800 19.62800 29.70400
H  53.67000 20.79700 25.96000
H  54.40100 19.74100 24.65100
H  54.53500 19.21700 26.26300
H  48.93800 15.64300 23.48400
H  45.93600 15.69100 23.86100
H  46.80200 17.47900 22.66300
H  48.39000 17.24700 21.95700
H  48.21100 18.33200 23.32400
H  46.28700 13.30900 24.56300
H  47.89100 13.45800 23.85800
H  46.30000 14.57800 21.98800
H  45.27500 13.26600 22.39000
H  46.89500 12.90400 21.79600
H  42.83300 14.82100 27.37100
H  42.31700 14.55200 29.11300
H  43.07100 13.22300 28.14500
H  45.65500 15.17400 33.02900
H  42.56300 17.61200 34.64600
H  43.86700 18.73800 34.52600
H  43.82600 17.53800 35.90800
Mg 0.85900 42.03100 26.24000
C  2.17100 42.13200 29.51300
C  -2.03500 40.78900 27.80900
C  -0.24400 41.35600 23.29700
C  4.05000 42.65500 25.10100
N  0.13700 41.57500 28.45400
C  0.79700 41.94300 29.56100
C  -0.15800 41.78300 30.83400
C  -1.49100 41.21500 30.23200
C  -1.11000 41.21900 28.72500
C  -2.10300 39.91900 30.92500
C  -0.36800 43.09000 31.66400
C  -0.26800 43.02000 33.15300
H  -0.77500 41.72500 33.90000
N  -0.92100 41.21900 25.62400
C  -2.05800 40.89200 26.38500
C  -3.08200 40.48500 25.42400
C  -2.62600 40.67600 24.09500
C  -1.21300 41.07200 24.27900
C  -4.44400 39.95100 25.95200
C  -3.28300 40.53200 22.75700
O  -2.69900 40.68500 21.67500
C  -4.64000 40.01600 22.75000
N  1.77900 41.88700 24.44900
C  1.06700 41.72700 23.37100
C  1.99200 41.90500 22.12100
C  3.30300 42.48500 22.70700
C  3.03700 42.27000 24.16800
C  2.13200 40.62000 21.20000
C  3.61500 43.98700 22.37400
C  4.30400 44.21000 20.92700
N  2.76400 42.44100 27.08200
C  3.99700 42.72800 26.47100
C  4.97700 42.82900 27.45600
C  4.33500 42.56700 28.64900
C  2.96000 42.34300 28.37200
C  6.42800 42.97200 27.31000
C  4.47900 42.48300 30.08200
O  5.50300 42.63200 30.71900
C  3.18300 42.16300 30.71400
C  3.36500 40.82400 31.42100
O  3.44900 39.73300 30.85100
O  3.65600 41.07000 32.77700
C  4.30200 39.95300 33.59000
H  -2.95500 40.39600 28.24600
H  -0.52300 41.08300 22.27800
H  5.01200 42.85600 24.62500
H  0.31300 41.02000 31.45300
H  -2.29100 41.93700 30.40300
H  -3.04400 40.29500 31.32600
H  -1.40200 39.60400 31.69700
H  -2.21200 39.07700 30.24100
H  -1.38500 43.43100 31.46800
H  0.43000 43.75700 31.34000
H  -0.97800 43.74700 33.54800
H  0.74300 43.16800 33.53100
H  -5.33700 40.24000 25.39800
H  -4.55800 40.42500 26.92700
H  -4.45500 38.86600 26.05500
H  -4.87900 40.08400 21.68900
H  -5.33400 40.67300 23.27300
H  -4.61300 39.02300 23.20000
H  1.54500 42.70500 21.53000
H  4.08700 41.81500 22.35400
H  1.55200 40.74800 20.28700
H  1.71200 39.78700 21.76500
H  3.17500 40.39000 20.98500
H  4.19000 44.54000 23.11700
H  2.65500 44.50100 22.42800
H  3.46600 44.51100 20.29900
H  4.70500 43.24400 20.62300
H  4.97600 45.03300 21.17100
H  6.90300 42.02000 27.54900
H  6.81800 43.76700 27.94600
H  6.67300 43.11600 26.25800
H  2.96200 42.90500 31.48100
H  5.35400 40.04100 33.31800
H  3.91100 38.94800 33.43300
H  4.38300 40.21000 34.64600

