158

Mg 53.55500 23.32000 44.88100
C  51.31000 25.58300 43.49600
C  52.01100 20.87600 43.20200
C  56.23800 21.47900 45.44900
C  55.40500 26.20100 46.01000
N  51.84700 23.23700 43.48500
C  51.09500 24.30300 43.10600
C  50.08100 23.83700 42.10300
C  50.10200 22.25100 42.22900
C  51.37900 22.04500 43.05300
C  48.85200 21.58400 42.94100
C  50.58900 24.17700 40.66900
C  49.42700 24.43700 39.72300
H  49.82600 24.82100 38.27300
N  53.93300 21.35700 44.56600
C  53.15700 20.46000 43.89300
C  53.64500 19.17100 44.05300
C  54.87200 19.33300 44.69700
C  55.01500 20.78300 44.98300
C  52.80500 18.00200 43.76300
C  55.76800 18.11500 45.00200
O  55.39000 17.00400 44.61100
C  57.00100 18.18800 45.95400
N  55.56200 23.82600 45.48600
C  56.46200 22.82900 45.65300
C  57.85400 23.49900 46.03800
C  57.37900 24.76600 46.67000
C  55.99700 24.98300 45.98000
C  58.83000 22.60100 46.85700
C  58.37800 25.99600 46.60200
C  58.53600 26.60400 45.26900
N  53.37300 25.47400 44.89800
C  54.15800 26.43500 45.49900
C  53.42300 27.70400 45.37300
C  52.32100 27.42400 44.55800
C  52.37900 26.09000 44.29100
C  53.82700 29.04500 45.98100
C  51.09300 27.96900 44.02100
O  50.63400 29.07700 44.07600
C  50.38400 26.82300 43.28000
C  50.10200 27.32900 41.91600
O  50.95900 27.82500 41.17200
O  48.68800 27.40600 41.66000
C  48.10300 27.97400 40.46700
H  51.42600 20.16400 42.61600
H  57.12300 20.93400 45.78300
H  55.93100 27.03400 46.47900
H  49.14100 24.35900 42.28300
H  50.12000 21.84700 41.21700
H  48.42100 20.84900 42.26100
H  48.04800 22.30800 43.07200
H  49.19400 21.05100 43.82800
H  51.29800 23.43200 40.30700
H  51.07900 25.14300 40.79600
H  48.80000 25.25200 40.08400
H  48.87600 23.49600 39.72200
H  52.90900 17.45400 44.69900
H  52.96400 17.41600 42.85800
H  51.73800 18.22000 43.70700
H  56.97400 18.68400 46.92400
H  57.86700 18.48700 45.36300
H  57.25300 17.14500 46.14900
H  58.36300 23.76700 45.11200
H  57.13700 24.54500 47.71000
H  59.09000 23.24100 47.70000
H  59.72300 22.45600 46.24900
H  58.34700 21.70200 47.23800
H  59.36100 25.63600 46.90400
H  58.18500 26.74600 47.36900
H  57.68100 26.37800 44.63200
H  59.41600 26.08800 44.88600
H  58.56100 27.68600 45.40000
H  52.99900 29.51800 46.50900
H  54.24000 29.63400 45.16300
H  54.53500 28.91400 46.79900
H  49.45300 26.64800 43.81900
H  48.81800 28.65200 40.00100
H  47.24800 28.54400 40.82900
H  47.94200 27.31200 39.61600
Mg 9.03200 48.64100 26.16100
C  7.06300 48.72500 29.11200
C  11.58300 49.65500 28.15800
C  10.93900 48.74300 23.42600
C  6.17300 48.32200 24.27000
N  9.21500 49.24300 28.38200
C  8.35100 49.13800 29.45600
C  8.98900 49.39500 30.82100
C  10.41500 49.93300 30.34800
C  10.35500 49.66700 28.83200
C  10.76900 51.41000 30.74500
C  9.12700 48.15800 31.75800
C  8.40100 48.30300 33.07800
H  8.45100 47.02500 34.01600
N  11.07400 48.98500 25.90200
C  12.00400 49.38700 26.80000
C  13.33400 49.39100 26.18200
C  13.10800 49.02700 24.81800
C  11.64100 48.92100 24.66600
C  14.61200 49.63700 26.98100
C  14.13900 48.68700 23.67400
O  13.89100 48.19700 22.55800
C  15.58200 48.96500 23.92100
N  8.60100 48.76700 24.16900
C  9.57300 48.60600 23.17500
C  8.99800 48.22200 21.74200
C  7.46600 48.14300 22.07800
C  7.41500 48.37000 23.57700
C  9.39600 49.09300 20.52900
C  6.78800 46.78500 21.74600
C  7.01900 46.31600 20.37200
N  7.00500 48.61500 26.49000
C  5.96200 48.43100 25.64900
C  4.73900 48.49700 26.38000
C  5.10100 48.47300 27.73100
C  6.54000 48.55800 27.75800
C  3.41600 48.47900 25.79000
C  4.64100 48.43400 29.07000
O  3.45200 48.45900 29.46300
C  5.92100 48.37600 30.05100
C  5.93100 46.96500 30.58100
O  6.21500 45.95400 29.91500
O  5.39000 46.90000 31.80700
C  5.50100 45.62300 32.54100
H  12.45200 49.89600 28.77500
H  11.50900 48.55900 22.51300
H  5.28200 48.43300 23.64800
H  8.45900 50.20200 31.32600
H  11.24400 49.32600 30.71100
H  11.73200 51.42900 31.25400
H  9.95500 51.81200 31.34800
H  10.76100 51.98700 29.82000
H  10.18900 47.99300 31.94100
H  8.68600 47.31200 31.23100
H  7.32300 48.45600 33.01900
H  8.78100 49.10900 33.70500
H  14.35500 49.48500 28.03000
H  14.99700 50.60800 26.67100
H  15.34700 48.86200 26.76600
H  15.67500 49.84600 24.55600
H  16.12500 49.11300 22.98700
H  15.88800 48.02300 24.37400
H  9.45200 47.25300 21.53400
H  6.82700 48.86800 21.57500
H  9.53700 48.31900 19.77400
H  10.33400 49.61200 20.73000
H  8.57200 49.79000 20.37700
H  5.72100 46.86900 21.95200
H  7.22900 46.03100 22.39600
H  6.22800 45.78800 19.83900
H  7.82200 45.58000 20.32700
H  7.24400 47.20400 19.78200
H  3.00000 47.52200 25.47800
H  3.28900 49.24900 25.02900
H  2.79500 48.73500 26.64800
H  5.71300 48.94200 30.96000
H  5.56400 45.90900 33.59100
H  6.35200 45.00000 32.26800
H  4.55800 45.08700 32.43100

