158

Mg 2.02200 -1.75400 44.66800
C  5.38900 -0.98200 44.11900
C  1.15900 0.70300 42.37100
C  -1.00200 -3.17900 44.61300
C  3.25500 -4.85300 46.13600
N  3.20600 -0.29700 43.35500
C  4.57500 -0.22200 43.27900
C  4.88100 0.99100 42.27200
C  3.51500 1.64500 42.00400
C  2.57800 0.64000 42.65100
C  3.35300 3.11900 42.40500
C  5.66300 0.43200 41.05100
C  7.07500 1.02200 40.89000
H  7.58400 1.33300 39.41400
N  0.32000 -1.24300 43.71700
C  0.12700 -0.16600 42.87500
C  -1.30100 -0.06900 42.65000
C  -1.97800 -1.20800 43.33500
C  -0.87100 -1.88700 43.96100
C  -1.82600 1.08200 41.78500
C  -3.40700 -1.41400 43.39100
O  -4.21100 -0.70700 42.73900
C  -4.13200 -2.40400 44.34500
N  1.28400 -3.66800 45.38700
C  -0.03600 -3.99100 45.20500
C  -0.40300 -5.41300 45.69000
C  0.99400 -6.01600 46.06500
C  1.91700 -4.78900 45.91100
C  -1.41600 -5.50100 46.91900
C  1.37600 -7.19500 45.14100
C  2.19000 -8.43700 45.76500
N  3.90000 -2.61400 45.35200
C  4.21800 -3.84200 45.92500
C  5.58300 -3.84800 46.20400
C  6.13500 -2.71100 45.57200
C  5.02300 -2.04700 44.99000
C  6.42500 -4.88000 46.89000
C  7.35900 -2.04700 45.25500
O  8.46200 -2.34300 45.56600
C  6.86700 -0.86800 44.26100
C  7.26100 0.43400 44.98400
O  6.92000 0.76100 46.14200
O  8.05600 1.17600 44.14900
C  8.19500 2.53600 44.60900
H  0.84600 1.51600 41.71300
H  -1.95600 -3.67300 44.41600
H  3.63900 -5.78900 46.54600
H  5.52300 1.49900 42.99200
H  3.32400 1.61100 40.93200
H  3.12000 3.70800 41.51800
H  4.32900 3.38900 42.80800
H  2.57700 3.19800 43.16700
H  5.09000 0.74100 40.17700
H  5.65500 -0.65100 41.17200
H  7.71300 0.23300 41.28900
H  7.23800 1.94800 41.44100
H  -1.19800 1.46200 40.98000
H  -2.11000 1.96700 42.35600
H  -2.75500 0.87700 41.25300
H  -4.19000 -3.33000 43.77300
H  -5.07000 -1.88900 44.55300
H  -3.59600 -2.56800 45.28000
H  -0.93800 -5.87400 44.86000
H  1.07700 -6.27300 47.12100
H  -1.01000 -5.68100 47.91500
H  -2.17600 -6.26700 46.76600
H  -2.00600 -4.59200 47.03100
H  1.81900 -6.81300 44.22200
H  0.37700 -7.57700 44.92700
H  2.52200 -8.21400 46.77900
H  3.09100 -8.69300 45.20800
H  1.47100 -9.25700 45.76700
H  6.50400 -5.66500 46.13800
H  5.81700 -5.25900 47.71100
H  7.39500 -4.49200 47.20100
H  7.36600 -0.98300 43.29900
H  7.21900 3.02200 44.58600
H  8.74500 3.16400 43.90700
H  8.75500 2.69500 45.53000
Mg -13.02500 16.56300 41.26700
C  -10.22700 14.45800 40.75300
C  -11.13200 19.10900 40.03400
C  -15.82200 18.21500 41.12500
C  -14.92600 13.59800 42.00500
N  -10.82000 16.74800 40.40600
C  -9.88700 15.77500 40.38400
C  -8.56900 16.27400 39.81400
C  -8.88800 17.83800 39.58600
C  -10.33900 17.93200 40.05100
C  -8.00300 18.92300 40.38200
C  -8.18600 15.52800 38.56900
C  -6.72300 15.13100 38.45900
H  -6.02900 15.59300 37.16100
N  -13.39600 18.46200 40.71300
C  -12.52900 19.41400 40.31100
C  -13.19200 20.71700 40.29000
C  -14.55800 20.43300 40.35200
C  -14.70800 18.92900 40.69700
C  -12.41600 22.01500 40.14100
C  -15.54200 21.50100 40.25900
O  -15.25200 22.69700 40.19300
C  -16.98300 21.16100 39.96500
N  -15.14000 15.93200 41.40700
C  -16.06700 16.88400 41.44600
C  -17.47000 16.25600 41.60400
C  -17.17500 14.84900 42.01200
C  -15.72300 14.80500 41.82800
C  -18.38500 16.94500 42.60900
C  -17.94300 13.72000 41.20900
C  -19.07900 13.08500 41.96800
N  -12.66000 14.53000 41.51800
C  -13.52200 13.46400 41.80400
C  -12.73700 12.22700 42.06700
C  -11.47900 12.53700 41.55600
C  -11.48400 13.93400 41.25400
C  -13.20600 10.86000 42.51300
C  -10.14000 12.03400 41.25100
O  -9.67200 10.92100 41.31100
C  -9.27300 13.31000 40.78700
C  -8.12300 13.55700 41.65100
O  -8.10400 14.26100 42.63800
O  -6.97600 12.92200 41.15300
C  -5.73100 13.09800 41.88500
H  -10.48900 19.96800 39.83200
H  -16.76800 18.74900 41.00800
H  -15.41700 12.67300 42.31600
H  -7.84800 16.24100 40.63000
H  -8.83100 18.09700 38.52900
H  -7.35500 18.45500 41.12400
H  -8.63600 19.50100 41.05600
H  -7.43600 19.52700 39.67400
H  -8.41300 16.10700 37.67400
H  -8.76800 14.63600 38.33900
H  -6.58400 14.05200 38.53400
H  -6.21000 15.52200 39.33800
H  -12.21200 22.48400 41.10300
H  -12.80500 22.70800 39.39400
H  -11.42700 21.75600 39.76500
H  -17.43400 20.80000 40.88900
H  -17.08600 20.41900 39.17300
H  -17.31300 22.13200 39.59700
H  -17.88300 16.32800 40.59800
H  -17.40200 14.77500 43.07600
H  -19.20500 17.49700 42.15100
H  -17.77400 17.67100 43.14500
H  -18.85700 16.42600 43.44400
H  -17.21200 12.92000 41.09000
H  -18.16000 14.05400 40.19400
H  -19.27700 13.66300 42.87100
H  -18.76400 12.07100 42.21500
H  -19.97200 13.07700 41.34400
H  -12.69400 10.27200 41.75100
H  -14.27400 10.64500 42.47400
H  -12.82000 10.56700 43.48900
H  -8.79400 13.12700 39.82500
H  -5.05200 12.66000 41.15300
H  -5.70600 12.39800 42.72000
H  -5.48300 14.13300 42.12000

