158

Mg 48.50800 16.67200 29.61500
C  46.19000 16.07000 32.17200
C  50.33800 18.64400 31.89100
C  50.64400 17.39500 27.18100
C  46.25300 15.25900 27.37000
N  48.18800 17.39700 31.69600
C  47.32400 16.74200 32.54900
C  47.78700 17.03300 33.99800
C  48.72900 18.27700 33.89600
C  49.13500 18.08600 32.39500
C  47.95200 19.68300 34.09700
C  48.41600 15.72700 34.63100
C  48.12400 15.36900 36.07800
H  48.11800 16.54600 37.05300
N  50.27400 17.68500 29.57700
C  50.90100 18.47900 30.63000
C  52.21200 18.96100 30.18300
C  52.39200 18.48200 28.85600
C  51.03700 17.88200 28.44500
C  53.05600 19.80300 31.13600
C  53.57800 18.72200 27.88400
O  53.55300 18.39000 26.70000
C  54.84000 19.28000 28.40700
N  48.48100 16.47000 27.59700
C  49.48000 16.74300 26.73000
C  49.28400 16.18800 25.31500
C  47.97800 15.41000 25.47500
C  47.54200 15.66900 26.91300
C  49.20300 17.34500 24.20600
C  48.09900 13.82800 25.19200
C  47.03300 13.19300 24.26500
N  46.49800 15.87600 29.72900
C  45.76100 15.31000 28.69100
C  44.54500 14.78700 29.24500
C  44.67000 15.07500 30.63400
C  45.84400 15.70200 30.82100
C  43.46800 14.08500 28.51300
C  44.09500 14.84800 31.95600
O  43.05200 14.33300 32.35300
C  45.03900 15.56300 33.00100
C  44.38100 16.64900 33.73600
O  43.99200 17.71600 33.22900
O  44.31900 16.31800 35.06200
C  43.71000 17.27100 35.95700
H  50.89900 19.22600 32.62500
H  51.33400 17.43000 26.33500
H  45.55000 14.71500 26.73600
H  46.87300 17.28900 34.53300
H  49.56500 18.19000 34.59100
H  47.94500 20.22200 33.15000
H  48.44500 20.29100 34.85600
H  46.96400 19.42300 34.47800
H  49.49100 15.90200 34.59000
H  48.24300 14.87500 33.97400
H  48.99400 14.77500 36.35700
H  47.20100 14.79700 36.17600
H  54.02500 19.99100 30.67300
H  53.28100 19.27700 32.06400
H  52.51000 20.69900 31.43200
H  54.56400 20.32200 28.57200
H  55.60200 19.24300 27.62900
H  55.03700 18.60500 29.24000
H  50.14400 15.56300 25.07400
H  47.14900 15.85300 24.92300
H  49.29400 18.36400 24.58100
H  48.32300 17.15500 23.59300
H  50.00400 17.24600 23.47300
H  48.06900 13.27800 26.13300
H  49.09100 13.70900 24.75700
H  47.50500 12.84700 23.34600
H  46.31400 13.96400 23.98700
H  46.54400 12.29500 24.64200
H  43.83800 13.41700 27.73500
H  42.67300 14.65800 28.03700
H  42.99100 13.47200 29.27800
H  45.31300 14.82000 33.75100
H  43.62900 18.33500 35.73400
H  44.19500 17.18600 36.92900
H  42.68600 16.95300 36.15300
Mg -2.64200 35.04200 25.77000
C  -4.43300 33.55200 28.51200
C  -1.59300 37.46400 27.95200
C  -0.96700 36.41400 23.20400
C  -4.29700 32.80400 23.66200
N  -3.27600 35.55800 27.95300
C  -3.68900 34.62400 28.92400
C  -3.36400 35.11800 30.34400
C  -2.62900 36.52900 30.05500
C  -2.53900 36.55400 28.53000
C  -3.31600 37.77700 30.69700
C  -2.52600 34.08200 31.16600
C  -2.07300 34.38200 32.62800
H  -2.85700 33.82200 33.84300
N  -1.47400 36.72700 25.59100
C  -1.09300 37.60400 26.60100
C  -0.12500 38.56200 25.96500
C  0.22600 38.15800 24.64400
C  -0.74200 37.04300 24.39500
C  0.49200 39.65500 26.62900
C  1.20100 38.69200 23.67500
O  1.35100 38.25200 22.53800
C  2.29900 39.62400 24.21300
N  -2.84000 34.76300 23.67300
C  -2.02100 35.48900 22.81200
C  -2.14200 34.88000 21.39100
C  -3.02300 33.63400 21.56000
C  -3.39600 33.71100 23.07000
C  -2.58900 35.83600 20.26400
C  -2.43600 32.32800 21.11600
C  -1.48500 31.68500 22.12800
N  -4.11500 33.51500 25.93100
C  -4.61500 32.68800 25.03200
C  -5.43200 31.74500 25.60400
C  -5.43700 32.00100 26.95800
C  -4.62500 33.12900 27.14200
C  -6.19500 30.64800 24.88400
C  -5.92900 31.64300 28.28400
O  -6.67700 30.71800 28.50600
C  -5.16300 32.49900 29.32200
C  -6.16000 33.11600 30.28000
O  -6.84600 34.08400 30.02300
O  -6.15200 32.47100 31.46800
C  -7.01100 33.11400 32.45600
H  -1.10800 38.06900 28.72100
H  -0.49600 36.82300 22.30700
H  -4.64500 31.99900 23.01100
H  -4.21100 35.23200 31.01900
H  -1.60200 36.38700 30.39300
H  -3.58500 38.57400 30.00400
H  -2.75200 38.27900 31.48200
H  -4.19200 37.61700 31.32700
H  -1.60900 33.93200 30.59700
H  -3.07500 33.14100 31.18800
H  -1.96500 35.46200 32.72100
H  -1.09100 33.92500 32.75500
H  0.04200 39.77900 27.61500
H  0.45900 40.59300 26.07600
H  1.50300 39.40700 26.95300
H  1.82200 40.49500 24.66100
H  2.64700 39.96400 23.23700
H  3.16400 39.26500 24.77100
H  -1.13900 34.61900 21.05300
H  -3.98500 33.80100 21.07600
H  -3.48200 35.40900 19.80800
H  -1.79000 35.79000 19.52300
H  -2.65200 36.84500 20.67100
H  -1.89900 32.54800 20.19300
H  -3.18500 31.56700 20.89800
H  -0.69300 31.46400 21.41200
H  -2.00800 30.81500 22.52400
H  -1.12600 32.32300 22.93600
H  -6.48100 29.79000 25.49300
H  -5.72400 30.32800 23.95500
H  -7.12600 31.16500 24.65100
H  -4.55800 31.77300 29.86500
H  -8.00300 33.27600 32.03500
H  -6.59200 34.04100 32.84700
H  -7.35600 32.53900 33.31600

