158

Mg 9.70600 47.27200 26.60200
C  8.04700 47.46300 29.60100
C  12.40200 49.02300 28.01900
C  11.34600 46.94500 23.65800
C  6.67700 46.46300 25.02300
N  10.17200 48.16400 28.59700
C  9.40700 47.97000 29.66700
C  10.03600 48.53900 30.89400
C  11.24100 49.39700 30.29900
C  11.27900 48.88100 28.88000
C  11.11800 50.93800 30.36300
C  10.53100 47.50200 31.97200
C  10.18100 47.67500 33.44100
H  9.88300 46.59500 34.48000
N  11.63000 47.70300 26.09000
C  12.59900 48.46600 26.73400
C  13.85000 48.51900 25.91800
C  13.59500 47.72700 24.77000
C  12.15700 47.37900 24.82700
C  15.15300 49.16500 26.38400
C  14.46500 47.39600 23.64200
O  14.08400 46.72500 22.67800
C  15.85700 47.87600 23.63000
N  9.02700 46.71500 24.64700
C  9.91200 46.78100 23.56700
C  9.18600 46.45000 22.23500
C  7.78400 46.01400 22.74300
C  7.81800 46.48300 24.17800
C  9.20800 47.58100 21.22100
C  7.50000 44.51700 22.59700
C  8.52900 43.60600 23.38000
N  7.65700 47.09100 27.15300
C  6.59800 46.65800 26.43900
C  5.37300 46.55100 27.31600
C  5.92000 46.94100 28.55400
C  7.30600 47.25500 28.41100
C  4.06900 45.97000 26.83900
C  5.66200 46.98500 29.99400
O  4.64700 46.74000 30.67600
C  7.05900 47.26000 30.69100
C  7.32500 46.06700 31.58400
O  7.88700 45.04200 31.21400
O  6.69900 46.34100 32.81100
C  6.53300 45.08600 33.58500
H  13.24500 49.57300 28.44200
H  11.90200 46.92300 22.71800
H  5.84500 46.02600 24.46800
H  9.36100 49.25600 31.36300
H  12.20800 49.16900 30.74700
H  10.19800 51.25300 30.85400
H  11.26800 51.32700 29.35600
H  11.99900 51.21500 30.94200
H  11.61700 47.45100 31.89800
H  10.22100 46.48400 31.73600
H  9.27200 48.26800 33.34300
H  11.09800 48.12800 33.81700
H  15.27100 49.98700 25.67800
H  15.89800 48.37000 26.36900
H  15.13100 49.63600 27.36700
H  15.78500 48.96300 23.64900
H  16.19600 47.57100 22.64000
H  16.45800 47.39700 24.40300
H  9.68800 45.62300 21.73300
H  6.86300 46.48100 22.39500
H  8.18400 47.89200 21.01500
H  9.60300 47.29500 20.24700
H  9.85600 48.38000 21.57900
H  7.60900 44.18200 21.56600
H  6.47300 44.33500 22.91300
H  7.94000 42.84600 23.89300
H  9.08700 44.01700 24.22200
H  9.27500 43.18800 22.70300
H  4.17800 45.31700 25.97400
H  3.50600 46.78600 26.38500
H  3.42500 45.62900 27.65000
H  6.89600 48.13400 31.32200
H  6.52900 45.20700 34.66800
H  7.14700 44.19900 33.42300
H  5.61700 44.62900 33.21100
Mg 1.15500 41.44000 26.61600
C  2.93400 41.93800 29.52700
C  -1.53300 40.42300 28.37600
C  -0.41600 40.66000 23.71400
C  4.03600 42.25700 24.80600
N  0.64200 41.31900 28.84200
C  1.52000 41.58900 29.80200
C  0.77600 41.66700 31.16000
C  -0.58000 40.97200 30.80200
C  -0.54200 40.86600 29.30800
C  -1.05800 39.66800 31.54400
C  0.66300 43.15000 31.63000
C  0.78200 43.39000 33.14100
H  0.54500 42.24300 34.10100
N  -0.67400 40.66600 26.14100
C  -1.58700 40.17800 27.00800
C  -2.63800 39.47400 26.33100
C  -2.42100 39.73900 24.96100
C  -1.13000 40.35500 24.89100
C  -3.81500 38.75700 27.02500
C  -3.34300 39.34800 23.77200
O  -2.98600 39.45000 22.64500
C  -4.63600 38.81500 24.06300
N  1.68000 41.54100 24.59100
C  0.88800 41.13500 23.54600
C  1.45000 41.45100 22.08900
C  2.90300 41.89900 22.53900
C  2.86500 41.98000 24.09900
C  1.41200 40.24800 21.10500
C  3.46700 43.20500 21.91700
C  2.99000 44.48200 22.58100
N  3.01400 42.09400 27.00600
C  4.07200 42.40200 26.21600
C  5.20900 42.65700 26.96600
C  4.80000 42.37700 28.24000
C  3.47400 42.11300 28.19600
C  6.52900 43.14400 26.50400
C  5.32500 42.34600 29.62000
O  6.45700 42.52200 30.05900
C  4.02900 42.21000 30.51900
C  4.29100 41.15400 31.62900
O  4.06200 39.95900 31.52200
O  4.91400 41.67700 32.70600
C  5.50800 40.79600 33.74400
H  -2.47500 40.10200 28.82500
H  -0.82300 40.34800 22.75000
H  4.96400 42.43900 24.26000
H  1.44900 41.07000 31.77500
H  -1.39500 41.67500 30.97600
H  -0.53200 39.45200 32.47400
H  -0.96700 38.79000 30.90300
H  -2.12300 39.69200 31.77500
H  -0.29700 43.57500 31.33400
H  1.41800 43.78400 31.16500
H  0.07900 44.21100 33.27800
H  1.83600 43.65900 33.22000
H  -3.92900 37.75300 26.61500
H  -4.61500 39.47300 26.83500
H  -3.88200 38.61100 28.10300
H  -4.60100 37.75700 24.32100
H  -5.26900 38.96700 23.18900
H  -5.01400 39.43000 24.88100
H  0.96600 42.30400 21.61300
H  3.57000 41.05300 22.37400
H  2.44200 40.12000 20.77200
H  0.81200 40.37300 20.20300
H  0.97500 39.38800 21.61200
H  3.15000 43.13100 20.87700
H  4.55300 43.17500 22.00200
H  3.82300 44.92000 23.13200
H  2.12600 44.31100 23.22300
H  2.66700 45.28900 21.92300
H  7.04300 43.63000 27.33300
H  6.49700 43.78300 25.62200
H  7.11500 42.26500 26.23300
H  3.84100 43.21700 30.89200
H  6.20500 40.01800 33.43300
H  4.71800 40.24700 34.25600
H  5.91600 41.44200 34.52100

