158

Mg 41.68600 40.36400 27.11500
C  41.06800 42.78100 29.65500
C  42.90300 38.19500 29.43700
C  42.04000 38.03200 24.62400
C  41.07800 42.81600 24.80400
N  41.95600 40.62500 29.29300
C  41.47400 41.56000 30.19700
C  41.78900 41.15900 31.69700
C  42.27100 39.68600 31.54000
C  42.39800 39.46500 29.98200
C  43.53400 39.27500 32.32700
C  40.66100 41.42800 32.68800
C  40.75000 40.87500 34.13100
H  40.87900 41.83500 35.27700
N  42.25500 38.33900 27.01400
C  42.78300 37.71200 28.08800
C  43.13200 36.39300 27.70800
C  43.00000 36.31900 26.34500
C  42.36900 37.56100 25.90800
C  43.67100 35.27700 28.71800
C  43.27700 35.23100 25.35800
O  42.97800 35.20000 24.12500
C  44.16700 34.12300 25.90400
N  41.61200 40.49000 25.03700
C  41.63200 39.34900 24.23100
C  41.32900 39.77800 22.78200
C  40.85600 41.28900 22.95800
C  41.28700 41.54900 24.32600
C  42.46800 39.67000 21.71600
C  39.33200 41.54200 22.79600
C  38.35700 40.42200 23.20200
N  41.30500 42.43200 27.16700
C  41.14900 43.33400 26.13300
C  40.94300 44.73500 26.59400
C  40.85000 44.55100 27.98600
C  41.07800 43.16000 28.28500
C  40.94200 45.92100 25.74800
C  40.64700 45.17700 29.28300
O  40.40200 46.36000 29.56200
C  40.83000 44.09800 30.43700
C  42.05000 44.56200 31.21000
O  43.17700 44.65200 30.76300
O  41.66800 44.85600 32.44800
C  42.73900 45.29300 33.39700
H  43.14500 37.43500 30.18200
H  42.02000 37.31300 23.80200
H  40.76900 43.55800 24.06400
H  42.53500 41.86900 32.05400
H  41.46700 39.06600 31.93600
H  44.00300 40.12300 32.82700
H  44.31500 38.95500 31.63700
H  43.38300 38.51000 33.08800
H  39.73400 41.01400 32.29100
H  40.29000 42.44400 32.55000
H  41.60200 40.19600 34.17700
H  40.01800 40.07800 34.26000
H  43.38000 35.26200 29.76900
H  44.75600 35.17200 28.70000
H  43.32500 34.28300 28.43400
H  43.58800 33.36800 26.43500
H  44.96200 34.57100 26.50000
H  44.56500 33.60100 25.03400
H  40.52500 39.24300 22.27600
H  41.44300 41.81600 22.20600
H  42.04900 39.29900 20.78000
H  43.21700 38.93500 22.01400
H  43.02400 40.59400 21.55400
H  39.23700 41.67400 21.71800
H  38.96200 42.44000 23.29100
H  37.56800 40.81000 23.84700
H  38.83600 39.67200 23.83200
H  37.98600 39.92300 22.30700
H  40.64900 46.83200 26.27000
H  40.36600 45.92700 24.82300
H  42.00600 46.02200 25.53400
H  39.93900 44.15800 31.06200
H  43.18800 46.28300 33.31600
H  43.63400 44.67800 33.30400
H  42.40300 45.13700 34.42200
Mg 10.05400 48.53400 25.81000
C  8.14700 49.03700 28.65500
C  12.72400 50.01600 27.44200
C  11.86900 47.98600 23.09800
C  7.16000 47.87300 23.98100
N  10.44300 49.25200 27.91100
C  9.50000 49.34000 28.91300
C  10.05900 49.93300 30.15500
C  11.34400 50.71100 29.55800
C  11.50600 50.02300 28.17800
C  11.44800 52.26100 29.51200
C  10.26100 48.89000 31.27900
C  9.51900 49.19900 32.57600
H  9.33300 48.09500 33.58000
N  12.05700 48.83400 25.38600
C  12.97800 49.43200 26.19800
C  14.23200 49.15800 25.58800
C  14.05600 48.51000 24.28600
C  12.62200 48.39900 24.18100
C  15.49500 49.40700 26.29500
C  15.10800 48.04600 23.31800
O  14.85500 47.53200 22.29100
C  16.56200 48.17500 23.62100
N  9.50600 48.10200 23.78300
C  10.46600 47.83300 22.88600
C  9.89600 47.23400 21.55300
C  8.35500 47.17500 21.83900
C  8.29900 47.75700 23.24800
C  10.33800 48.07500 20.25200
C  7.80400 45.76100 21.67100
C  7.94300 44.80600 22.88500
N  8.11500 48.33600 26.18200
C  7.02200 48.13900 25.33200
C  5.81300 48.29800 26.06100
C  6.20900 48.64800 27.36100
C  7.64400 48.64400 27.36900
C  4.44900 48.35200 25.54200
C  5.70700 48.87600 28.78300
O  4.53400 48.85000 29.18800
C  6.97000 49.06800 29.68100
C  7.01900 47.96000 30.54900
O  7.72100 46.93400 30.44100
O  6.18900 48.05700 31.62000
C  6.07100 46.94900 32.60500
H  13.49500 50.54900 28.00300
H  12.56000 47.82400 22.26800
H  6.24500 47.68300 23.41600
H  9.45400 50.74200 30.56400
H  12.18900 50.30300 30.11200
H  10.47900 52.72600 29.69100
H  11.68500 52.77100 28.57900
H  12.15700 52.71200 30.20700
H  11.32000 48.92200 31.53500
H  9.99700 47.93200 30.83100
H  8.48800 49.49900 32.38900
H  10.00300 50.02900 33.09100
H  15.36000 49.38900 27.37700
H  15.97600 50.35700 26.06300
H  16.29000 48.67000 26.17800
H  16.88100 49.20100 23.80700
H  17.09500 47.84700 22.72800
H  16.65500 47.51900 24.48600
H  10.28500 46.22100 21.44500
H  7.76800 47.84300 21.20900
H  10.98800 48.79300 20.75100
H  9.46500 48.61900 19.89100
H  10.85500 47.57800 19.43000
H  8.36100 45.28000 20.86800
H  6.73800 45.74700 21.44200
H  8.64100 45.18300 23.63300
H  8.23600 43.82600 22.50800
H  6.96200 44.83700 23.35900
H  4.03100 47.36000 25.37200
H  4.35300 48.93200 24.62500
H  3.82200 48.77500 26.32800
H  6.94900 49.99800 30.24800
H  5.04500 46.59000 32.52500
H  6.25000 47.33900 33.60600
H  6.70100 46.10000 32.34000

