158

Mg 53.97300 24.69500 44.43100
C  51.24200 26.81800 44.17900
C  51.96400 22.19000 43.39600
C  56.77600 22.96800 43.99200
C  55.91800 27.43300 45.37300
N  51.85100 24.53600 43.59600
C  50.95700 25.52400 43.73900
C  49.57200 24.98400 43.50700
C  49.74300 23.46300 43.72800
C  51.27500 23.37100 43.49000
C  49.18300 23.01600 45.09600
C  49.07700 25.50900 42.17500
C  48.52800 24.48600 41.14500
H  48.15200 24.82800 39.70300
N  54.32300 22.82300 43.70500
C  53.36400 21.87800 43.44200
C  54.06400 20.55900 43.05900
C  55.47800 20.83700 43.35300
C  55.59500 22.27700 43.68600
C  53.38800 19.33300 42.62500
C  56.51600 19.73700 43.36300
O  56.19800 18.65200 42.93300
C  57.87800 19.85400 43.86000
N  56.04600 25.26100 44.26700
C  57.04300 24.33400 44.22500
C  58.45400 24.88700 44.50400
C  58.12900 26.36700 44.75300
C  56.56500 26.40200 44.71800
C  59.19800 24.15600 45.63500
C  58.70700 27.38500 43.80500
C  59.45500 28.54900 44.41600
N  53.71700 26.76000 44.80000
C  54.57400 27.71100 45.32100
C  53.78400 28.83900 45.66500
C  52.53600 28.52800 45.16000
C  52.50300 27.28700 44.63500
C  54.26400 30.09000 46.34000
C  51.28300 29.13000 44.90900
O  50.98500 30.34100 45.11800
C  50.30000 28.06100 44.23300
C  49.68600 28.53800 42.88200
O  50.39300 28.85600 41.92500
O  48.27800 28.69200 42.88300
C  47.77600 29.14800 41.61900
H  51.34700 21.35800 43.05100
H  57.69100 22.38900 43.85400
H  56.55900 28.18700 45.83600
H  49.02300 25.44100 44.33000
H  49.18100 22.84500 43.02700
H  48.88500 23.82000 45.76900
H  50.00600 22.43500 45.51200
H  48.28700 22.42500 44.90600
H  49.81000 26.08500 41.61000
H  48.21400 26.13000 42.41500
H  47.72100 23.92900 41.62100
H  49.33800 23.78900 40.93100
H  53.77900 19.02200 41.65700
H  52.32200 19.54300 42.53500
H  53.48500 18.50100 43.32200
H  58.44400 20.42300 43.12300
H  58.37100 18.88500 43.94400
H  57.92200 20.28300 44.86100
H  59.13100 24.76600 43.65800
H  58.36200 26.69400 45.76600
H  60.20500 24.01000 45.24300
H  58.75800 23.16800 45.76800
H  59.17800 24.65900 46.60100
H  57.97800 27.78100 43.09800
H  59.46300 26.95500 43.14700
H  59.46200 28.44900 45.50200
H  58.98600 29.47100 44.07300
H  60.43400 28.61000 43.93900
H  53.99000 30.87200 45.63100
H  55.35200 30.10700 46.40500
H  53.77100 30.26100 47.29600
H  49.46500 27.91200 44.91700
H  47.98900 28.41300 40.84300
H  48.15000 30.14800 41.39900
H  46.71500 29.39400 41.66000
Mg 48.00700 25.39400 28.15700
C  48.62600 27.73700 30.66000
C  47.12300 23.12500 30.41800
C  47.48100 23.35900 25.53500
C  49.58400 27.66300 25.98200
N  47.81100 25.46800 30.33400
C  48.00100 26.53400 31.18100
C  47.71800 26.06000 32.61400
C  47.43000 24.51700 32.50900
C  47.53700 24.29600 30.98100
C  48.39800 23.55400 33.37300
C  46.64700 26.91600 33.39300
C  47.12500 27.28000 34.83200
H  45.99800 27.60500 35.77300
N  47.32500 23.49400 28.03000
C  46.98000 22.69900 29.07900
C  46.47900 21.45800 28.55500
C  46.49600 21.52300 27.11600
C  47.15100 22.79400 26.78100
C  46.02300 20.33900 29.38200
C  45.99800 20.48600 26.04500
O  46.23900 20.58700 24.84300
C  45.03800 19.29000 26.40800
N  48.50700 25.43000 26.11000
C  48.18300 24.48700 25.20800
C  48.41300 24.89400 23.70800
C  48.99500 26.34900 23.88500
C  48.95800 26.53500 25.37300
C  49.34100 23.93000 22.88500
C  48.26700 27.44900 23.07100
C  49.11900 28.67600 22.67100
N  49.00000 27.30000 28.24000
C  49.73400 28.07200 27.29800
C  50.11900 29.34500 27.88900
C  49.76400 29.27800 29.19700
C  49.10000 28.05600 29.35200
C  50.83900 30.45500 27.14000
C  49.83600 29.99100 30.48500
O  50.27400 31.03500 30.88700
C  49.04100 29.00700 31.48400
C  50.07600 28.50300 32.47300
O  50.89500 27.64600 32.26000
O  50.11100 29.31900 33.63000
C  50.91300 28.71600 34.69600
H  47.03000 22.22500 31.02900
H  47.19700 22.86000 24.60600
H  50.09200 28.28300 25.24000
H  48.65900 26.16600 33.15500
H  46.39600 24.28400 32.76500
H  48.71700 23.97000 34.32900
H  49.29600 23.39400 32.77600
H  47.84000 22.62500 33.49000
H  45.66400 26.44800 33.33300
H  46.48500 27.86200 32.87700
H  47.67900 28.21700 34.79300
H  47.69600 26.51000 35.35200
H  46.40300 20.34900 30.40300
H  46.40100 19.41200 28.95100
H  44.93300 20.36500 29.39000
H  44.37600 19.65100 27.19500
H  45.70500 18.49500 26.74400
H  44.51000 18.93900 25.52100
H  47.45400 24.90600 23.18900
H  50.03700 26.38500 23.56700
H  49.71000 23.09200 23.47400
H  50.13200 24.46800 22.36200
H  48.72000 23.49800 22.10000
H  47.30100 27.77700 23.45500
H  47.90000 26.98600 22.15500
H  49.03700 28.77800 21.58900
H  50.17200 28.59800 22.94200
H  48.74200 29.51900 23.25100
H  51.41700 30.08600 26.29300
H  51.56100 30.86700 27.84500
H  50.20600 31.24800 26.74300
H  48.23600 29.61400 31.89700
H  50.38700 27.87000 35.13900
H  51.21700 29.45100 35.44100
H  51.86800 28.31800 34.35400

