158

Mg 17.03800 -0.50800 27.99200
C  16.00000 1.59200 30.63900
C  19.13600 -2.06200 30.18600
C  18.63000 -2.04500 25.35100
C  15.42100 1.66000 25.72700
N  17.56600 -0.14900 30.05500
C  16.92000 0.55500 31.02400
C  17.33600 0.19900 32.41300
C  18.54000 -0.78600 32.25100
C  18.39500 -1.02600 30.71800
C  19.95500 -0.10000 32.43700
C  16.20500 -0.31100 33.39000
C  16.73200 -0.70400 34.78100
H  17.88500 0.05200 35.51800
N  18.52600 -2.07400 27.86200
C  19.32400 -2.55100 28.87300
C  20.17600 -3.60100 28.38400
C  19.96600 -3.61600 26.99300
C  18.99800 -2.57900 26.65700
C  21.21300 -4.29200 29.31400
C  20.61900 -4.44400 25.87600
O  20.30900 -4.31200 24.68800
C  21.44200 -5.58200 26.17100
N  16.87500 -0.29400 25.81300
C  17.75000 -0.98100 25.03900
C  17.63900 -0.38300 23.64600
C  16.46600 0.63600 23.69300
C  16.24700 0.71500 25.16300
C  18.98100 0.18900 23.16400
C  15.22700 0.30300 22.87000
C  14.01100 -0.31300 23.48300
N  15.83100 1.16200 28.10000
C  15.22800 1.92800 27.14100
C  14.51900 3.02200 27.73400
C  14.80000 2.90300 29.09200
C  15.63400 1.81200 29.28200
C  13.65500 3.96300 27.14300
C  14.42900 3.49000 30.35000
O  13.66600 4.38600 30.66400
C  15.21100 2.61400 31.44600
C  15.97700 3.45900 32.35200
O  17.17500 3.64300 32.31100
O  15.16800 3.97000 33.31600
C  15.87600 4.41600 34.50900
H  19.57700 -2.65800 30.98800
H  19.21400 -2.33800 24.47600
H  14.98100 2.42500 25.08400
H  17.73100 1.09600 32.89000
H  18.52900 -1.60800 32.96600
H  20.61100 -0.33300 31.59800
H  20.55700 -0.27600 33.32800
H  19.77300 0.97400 32.42900
H  15.98700 -1.27600 32.93200
H  15.32900 0.33800 33.42400
H  17.04900 -1.74300 34.68900
H  15.90100 -0.62400 35.48200
H  21.23400 -5.37000 29.15300
H  20.83200 -4.28400 30.33600
H  22.23500 -3.93500 29.19500
H  21.14400 -6.15500 27.04800
H  22.41100 -5.18100 26.47000
H  21.51400 -6.20500 25.27900
H  17.40000 -1.24600 23.02400
H  16.79200 1.61000 23.32900
H  19.08100 1.26900 23.27100
H  19.10200 -0.10500 22.12200
H  19.83500 -0.11700 23.76800
H  15.51600 -0.34000 22.03800
H  14.92600 1.26000 22.44300
H  14.10500 -0.82400 24.44100
H  13.54700 -1.08500 22.86900
H  13.29700 0.48400 23.69300
H  13.70200 4.97400 27.54500
H  12.67200 3.50500 27.25100
H  13.88000 4.11500 26.08700
H  14.46800 2.00800 31.96600
H  16.69600 5.09100 34.26400
H  16.33100 3.52900 34.94900
H  15.22800 4.91300 35.23100
Mg 55.68400 24.52300 44.67100
C  52.96600 26.45400 43.72800
C  53.89100 21.71000 43.33600
C  58.44900 22.91400 44.89900
C  57.20900 27.48700 45.97700
N  53.78000 24.15100 43.52500
C  52.87000 25.11700 43.22800
C  51.67100 24.52700 42.55800
C  51.75400 23.07600 42.99800
C  53.22000 22.93200 43.31300
C  50.81700 22.69300 44.14500
C  51.62300 24.76500 41.00100
C  50.17000 24.58200 40.48100
H  49.96400 24.81000 38.95100
N  56.08400 22.60000 44.08200
C  55.27100 21.58300 43.64600
C  55.99600 20.30500 43.55900
C  57.32700 20.64600 44.00300
C  57.34400 22.08900 44.36400
C  55.43300 18.94900 43.10500
C  58.44100 19.65300 44.13800
O  58.38400 18.60800 43.52800
C  59.65300 19.92700 44.84200
N  57.58400 25.09700 45.39900
C  58.61600 24.18000 45.38500
C  59.91400 24.83600 45.85500
C  59.50400 26.31700 46.19400
C  58.00200 26.32000 45.87800
C  60.52500 24.14500 47.12800
C  60.35300 27.50600 45.40800
C  60.80500 28.79700 46.22500
N  55.19800 26.57100 44.96500
C  55.89800 27.64200 45.51300
C  55.05400 28.80000 45.38600
C  53.84700 28.37900 44.73500
C  54.06200 27.05300 44.44300
C  55.44000 30.17900 45.88300
C  52.60500 28.79100 44.31300
O  52.11800 29.86900 44.38700
C  51.88900 27.56400 43.60700
C  51.49100 27.97000 42.24500
O  52.27600 28.20100 41.33800
O  50.08700 28.11000 42.17000
C  49.57600 28.48100 40.76300
H  53.32300 20.83600 43.01200
H  59.44100 22.46300 44.96800
H  57.68100 28.38500 46.38200
H  50.76200 24.98800 42.94200
H  51.54400 22.39600 42.17200
H  51.46300 22.61900 45.02000
H  50.47300 21.67800 43.94700
H  50.03400 23.41600 44.37500
H  52.22400 24.02100 40.47800
H  52.03100 25.74300 40.74300
H  49.56500 25.41500 40.83800
H  49.79200 23.58700 40.71800
H  55.24700 18.22700 43.90000
H  56.15400 18.45800 42.45200
H  54.49800 19.05100 42.55400
H  60.22300 20.56200 44.16500
H  60.15500 18.96800 44.97400
H  59.42300 20.42700 45.78300
H  60.69200 24.78700 45.09300
H  59.55000 26.50400 47.26600
H  60.18600 23.13400 47.35200
H  60.46200 24.66600 48.08300
H  61.59400 24.19300 46.92000
H  59.90600 27.81600 44.46300
H  61.33200 27.09700 45.16000
H  60.22400 28.83400 47.14700
H  60.69300 29.73300 45.67900
H  61.84100 28.69400 46.54800
H  56.39000 30.08900 46.41100
H  54.79900 30.66700 46.61700
H  55.58200 30.92400 45.10000
H  51.01900 27.21500 44.16300
H  49.15200 29.48300 40.68900
H  48.86600 27.69600 40.50200
H  50.34500 28.51600 39.99200

