158

Mg 40.77800 9.26300 30.30300
C  42.63800 10.23100 33.10400
C  38.16600 8.54400 32.53300
C  39.03600 8.04000 27.64000
C  43.53200 9.79300 28.29500
N  40.53500 9.33900 32.59800
C  41.32700 9.93900 33.55800
C  40.63900 10.09600 34.89000
C  39.32000 9.35000 34.66300
C  39.35600 9.06700 33.17900
C  39.18400 7.94500 35.28800
C  40.42700 11.63200 35.18500
C  39.94400 11.94200 36.63200
H  40.93100 12.71500 37.55600
N  38.88400 8.46600 30.06700
C  38.01700 8.17300 31.11300
C  36.85100 7.52000 30.54500
C  37.06200 7.44400 29.13400
C  38.40900 7.98000 28.86800
C  35.56600 7.14400 31.39600
C  36.13100 6.91200 28.03400
O  36.42300 6.82300 26.86500
C  34.68700 6.44600 28.33800
N  41.28000 8.75900 28.28500
C  40.35100 8.48800 27.39400
C  40.86200 8.77000 25.94600
C  42.31800 9.23300 26.15300
C  42.33200 9.27900 27.69400
C  40.68000 7.62400 24.87800
C  42.78300 10.65900 25.52900
C  42.14200 11.16600 24.25600
N  42.73200 9.83000 30.56200
C  43.77100 10.08000 29.64700
C  44.99200 10.44700 30.34600
C  44.55700 10.58000 31.65900
C  43.17900 10.22600 31.78900
C  46.35600 10.56700 29.84800
C  44.99200 10.91300 33.01700
O  46.06300 11.33800 33.37000
C  43.81100 10.80500 33.95700
C  44.09500 9.93300 35.15400
O  44.80200 8.93200 35.19000
O  43.73600 10.60300 36.32700
C  44.07400 9.97200 37.60200
H  37.30900 8.57600 33.20900
H  38.41900 7.87900 26.75300
H  44.36300 9.91200 27.59600
H  41.33300 9.48200 35.46400
H  38.46400 9.97100 34.92800
H  39.89300 7.72100 36.08500
H  39.25600 7.13600 34.56100
H  38.21400 7.92400 35.78300
H  39.79300 12.07400 34.41600
H  41.39700 12.11100 35.04700
H  39.64100 11.03500 37.15600
H  39.01900 12.46200 36.38200
H  35.71000 7.26400 32.46900
H  35.31700 6.10000 31.20400
H  34.65500 7.65200 31.08200
H  34.17000 7.38900 28.51000
H  34.63000 5.96700 29.31500
H  34.24100 5.83500 27.55300
H  40.30600 9.66200 25.65900
H  42.94300 8.36600 25.94400
H  40.07500 8.13400 24.12900
H  40.13300 6.72700 25.16700
H  41.64500 7.28900 24.49900
H  43.86900 10.69000 25.45000
H  42.45700 11.45200 26.20300
H  41.50500 10.40000 23.81300
H  42.93400 11.48700 23.57900
H  41.52900 12.03800 24.48300
H  46.85300 9.59700 29.82100
H  46.91900 11.34500 30.36300
H  46.27200 10.94500 28.82900
H  43.62800 11.82700 34.28900
H  43.80100 10.51100 38.51000
H  45.13700 9.73400 37.62100
H  43.47900 9.06000 37.65000
Mg 54.52400 24.39800 44.89800
C  51.93000 26.33500 43.87000
C  52.83900 21.62500 43.81600
C  57.34900 22.52600 45.28700
C  56.43600 27.29500 45.41100
N  52.71300 24.05600 43.84100
C  51.83500 24.98500 43.44000
C  50.66600 24.34900 42.67800
C  50.67900 22.94000 43.31200
C  52.18900 22.82200 43.69600
C  49.66000 22.64100 44.50500
C  50.93600 24.53200 41.13300
C  49.68500 24.71600 40.33400
H  49.59300 23.96800 39.03200
N  54.93900 22.36700 44.67800
C  54.09000 21.36800 44.21900
C  54.73700 20.07000 44.41600
C  56.05700 20.33200 44.87700
C  56.17800 21.79400 45.01600
C  54.05300 18.75400 44.02700
C  57.09000 19.19700 45.25500
O  56.80800 17.99500 45.16600
C  58.60300 19.49700 45.50800
N  56.57800 24.84600 44.99000
C  57.52700 23.94500 45.21100
C  58.96400 24.55700 45.31900
C  58.67300 26.08300 45.51500
C  57.06400 26.08300 45.32100
C  59.61900 24.01100 46.56700
C  59.35500 26.98900 44.46900
C  60.37500 28.05500 44.93000
N  54.24800 26.44900 44.79500
C  55.04000 27.51100 45.15300
C  54.22700 28.72100 45.15300
C  52.91200 28.32900 44.65700
C  53.05400 26.90100 44.46500
C  54.68200 30.09000 45.62500
C  51.60100 28.77500 44.25800
O  51.05600 29.84900 44.26200
C  50.92800 27.45700 43.75300
C  50.39400 27.91700 42.47000
O  50.94200 27.97100 41.39400
O  49.08800 28.26300 42.67400
C  48.32400 28.52400 41.47700
H  52.31400 20.68400 43.64000
H  58.27900 21.95300 45.27900
H  57.04200 28.14900 45.72100
H  49.81300 24.90900 43.06000
H  50.45700 22.19800 42.54500
H  50.17900 22.15500 45.33100
H  48.96300 21.87900 44.15400
H  49.25800 23.61100 44.79500
H  51.57100 23.72800 40.76100
H  51.47200 25.47900 41.07400
H  49.47900 25.77200 40.15600
H  48.89900 24.33000 40.98300
H  54.79500 18.00000 43.76500
H  53.57400 19.07700 43.10200
H  53.26900 18.28100 44.61700
H  59.06900 19.92100 44.61800
H  59.09600 18.53000 45.60500
H  58.73200 20.06700 46.42800
H  59.49700 24.35400 44.39000
H  58.75200 26.28800 46.58200
H  59.01000 23.28700 47.10900
H  60.10200 24.67800 47.28200
H  60.45800 23.47100 46.12900
H  58.60400 27.55000 43.91300
H  59.91500 26.32900 43.80700
H  60.50500 28.87800 44.22800
H  61.38900 27.65500 44.91100
H  60.21300 28.51200 45.90600
H  54.27400 30.77700 44.88400
H  55.75100 30.07100 45.84100
H  54.22000 30.25400 46.59800
H  50.12100 27.17600 44.42900
H  48.75000 27.97800 40.63500
H  48.37800 29.57200 41.18400
H  47.28300 28.22900 41.60600

