158

Mg -9.95300 40.03700 42.59200
C  -8.68500 36.84000 41.67200
C  -7.24000 41.47600 41.08200
C  -11.52600 42.98100 42.88500
C  -12.95600 38.37000 43.46900
N  -8.16000 39.19700 41.55000
C  -7.82500 37.88700 41.21600
C  -6.59700 37.78700 40.41000
C  -6.11100 39.27500 40.47700
C  -7.16400 40.05400 41.22500
C  -4.69000 39.54600 41.08700
C  -6.97500 37.29500 38.99200
C  -6.02100 36.27600 38.37200
H  -5.09200 36.72700 37.26400
N  -9.42500 41.95200 42.00600
C  -8.24100 42.35400 41.51700
C  -8.17300 43.77900 41.62200
C  -9.43100 44.26400 42.16600
C  -10.23300 43.05900 42.37600
C  -6.93900 44.46600 41.19100
C  -9.87700 45.73000 42.36100
O  -9.10500 46.61600 41.88400
C  -11.19200 46.16300 43.05100
N  -12.00100 40.59600 42.99200
C  -12.36700 41.85500 43.18400
C  -13.88300 41.94200 43.68600
C  -14.21300 40.45600 43.81100
C  -13.02300 39.73000 43.32200
C  -14.13900 42.89500 44.90600
C  -15.54900 40.02900 43.13800
C  -16.76000 39.87600 43.92400
N  -10.64100 37.96900 42.79500
C  -11.84700 37.49100 43.14100
C  -11.83800 36.03000 43.05500
C  -10.57900 35.73700 42.48000
C  -9.94800 36.91900 42.22400
C  -12.96600 35.19600 43.50000
C  -9.76700 34.64400 42.00300
O  -10.04000 33.45100 41.93500
C  -8.49400 35.35800 41.37400
C  -7.23800 34.79500 41.94900
O  -6.98600 34.60300 43.08500
O  -6.39100 34.53500 40.92800
C  -5.04800 33.96700 41.15600
H  -6.36700 41.85500 40.54700
H  -12.04000 43.92900 43.05600
H  -13.89500 37.94500 43.83200
H  -5.89300 37.08000 40.85000
H  -6.05100 39.76600 39.50500
H  -3.99300 38.72900 40.89800
H  -4.67300 39.71000 42.16400
H  -4.24900 40.42600 40.62000
H  -7.10200 38.11000 38.27900
H  -7.97000 36.85100 38.96400
H  -6.62400 35.48600 37.92500
H  -5.45100 35.69000 39.09300
H  -6.84400 44.48300 40.10500
H  -6.10600 43.92600 41.64100
H  -7.03500 45.49800 41.52800
H  -12.09100 45.90700 42.49100
H  -11.23100 47.25200 43.08000
H  -11.11300 45.91900 44.11000
H  -14.53200 42.34100 42.90700
H  -14.33800 40.24700 44.87400
H  -14.48900 42.45500 45.83900
H  -14.72500 43.74900 44.56500
H  -13.13900 43.26900 45.12300
H  -15.39800 39.15700 42.50200
H  -15.73700 40.75900 42.35100
H  -17.01000 38.84700 44.18500
H  -17.59200 40.33200 43.38800
H  -16.67700 40.38400 44.88500
H  -12.71400 34.14800 43.34000
H  -13.89300 35.45300 42.98600
H  -13.15800 35.40000 44.55300
H  -8.57600 35.07500 40.32500
H  -4.25100 34.70200 41.04500
H  -4.87200 33.31700 40.29900
H  -5.02900 33.41700 42.09700
Mg -4.74900 24.86800 26.84900
C  -3.60300 26.89300 29.58800
C  -5.97300 22.60800 29.11500
C  -5.83800 23.02900 24.21400
C  -3.55700 27.33300 24.74600
N  -4.87200 24.85800 29.07600
C  -4.34500 25.75100 30.02500
C  -4.75600 25.26700 31.44600
C  -5.25900 23.80800 31.25500
C  -5.34600 23.73600 29.72500
C  -4.39800 22.69800 31.89000
C  -5.90800 26.24600 32.04000
C  -5.86400 26.51200 33.54500
H  -5.70200 25.18800 34.28600
N  -5.58700 23.00100 26.66400
C  -6.06800 22.30500 27.76300
C  -6.66100 21.02200 27.25100
C  -6.64900 21.16600 25.83000
C  -5.97600 22.40600 25.46400
C  -7.30800 19.96200 28.07800
C  -7.11400 20.19100 24.75300
O  -6.73000 20.30400 23.55900
C  -7.76600 18.87300 25.13800
N  -4.74700 25.17200 24.72200
C  -5.35200 24.30700 23.87300
C  -5.47500 24.90800 22.46900
C  -4.55600 26.21400 22.66600
C  -4.32000 26.29100 24.11200
C  -4.96800 23.99500 21.29600
C  -5.05500 27.56200 22.08200
C  -5.67000 27.43200 20.67200
N  -3.63600 26.61300 27.01800
C  -3.24900 27.56800 26.10300
C  -2.54500 28.66200 26.66800
C  -2.66700 28.43700 28.10100
C  -3.33200 27.17500 28.22600
C  -1.71400 29.77000 25.96000
C  -2.28600 28.97900 29.38800
O  -1.61700 29.94800 29.69800
C  -2.90900 27.98500 30.43200
C  -1.78500 27.39800 31.30600
O  -0.91400 26.56500 30.99600
O  -1.96300 27.78200 32.58200
C  -0.91800 27.24300 33.51400
H  -6.41000 21.85600 29.77600
H  -6.29700 22.60000 23.32000
H  -3.20000 28.07000 24.02400
H  -3.85700 25.35600 32.05600
H  -6.21900 23.73100 31.76600
H  -4.87700 22.64400 32.86700
H  -3.33400 22.88900 32.02500
H  -4.53800 21.76600 31.34300
H  -6.87200 25.79700 31.80200
H  -5.91300 27.23800 31.58700
H  -6.75300 27.04100 33.88900
H  -4.99700 27.14700 33.72800
H  -6.83800 18.98000 28.02600
H  -8.34000 19.83900 27.74900
H  -7.54100 20.28800 29.09200
H  -8.00800 18.36500 24.20500
H  -8.78500 19.14700 25.41500
H  -7.24500 18.33600 25.93000
H  -6.53700 25.08800 22.29900
H  -3.61600 26.00100 22.15600
H  -4.34700 24.63500 20.66900
H  -5.82900 23.65000 20.72500
H  -4.33200 23.15900 21.58600
H  -4.23800 28.26900 21.93600
H  -5.74400 28.13100 22.70700
H  -5.05800 27.88000 19.88900
H  -6.67200 27.85500 20.74500
H  -5.92700 26.44500 20.28700
H  -1.96500 30.70500 26.46200
H  -2.09900 29.84900 24.94300
H  -0.65300 29.55600 26.09000
H  -3.55500 28.52700 31.12300
H  0.05900 27.20500 33.03100
H  -1.05300 26.18300 33.73100
H  -0.76900 27.95400 34.32700

