158

Mg 8.20300 2.56100 28.32400
C  9.54900 1.05300 31.22400
C  6.31500 4.61100 30.37800
C  7.19500 4.03400 25.60900
C  9.76200 -0.04700 26.45300
N  7.89900 2.64800 30.52800
C  8.65200 2.13800 31.51300
C  8.36800 2.72400 32.87800
C  7.23400 3.72100 32.63800
C  7.11000 3.66200 31.06100
C  5.89800 3.39500 33.37200
C  9.63500 3.41400 33.50200
C  10.12600 3.01600 34.85500
H  9.09000 2.75800 36.03500
N  7.07100 4.21600 27.99400
C  6.29600 4.87200 29.00300
C  5.54600 5.95700 28.29200
C  5.79500 5.85000 26.94600
C  6.69700 4.67100 26.75200
C  4.61900 6.83500 29.02900
C  5.27700 6.72400 25.79000
O  5.69200 6.60100 24.60000
C  4.42000 7.86700 26.03200
N  8.43600 2.10100 26.37200
C  7.96000 2.86600 25.43500
C  8.22000 2.32400 23.96700
C  9.25000 1.14400 24.24200
C  9.15100 1.05200 25.79900
C  6.94300 1.87100 23.14700
C  10.75900 1.37900 23.82200
C  11.33400 2.64000 24.40900
N  9.33400 0.76300 28.72600
C  9.87500 -0.18900 27.87100
C  10.57300 -1.23600 28.62300
C  10.50300 -0.77300 29.92900
C  9.72000 0.44700 29.95200
C  11.28000 -2.47700 28.14100
C  10.92800 -1.01100 31.27200
O  11.58200 -1.95500 31.75300
C  10.32900 0.13100 32.21100
C  9.43600 -0.49800 33.17600
O  8.30600 -0.81900 32.94200
O  9.94500 -0.59900 34.41700
C  9.40800 -1.59200 35.36300
H  5.83200 5.28600 31.08700
H  6.84900 4.43800 24.65600
H  10.24600 -0.77700 25.80000
H  8.16000 1.92000 33.58400
H  7.43200 4.78600 32.75600
H  5.86400 2.42900 33.87500
H  5.10600 3.38200 32.62400
H  5.67200 4.21800 34.05100
H  9.36800 4.44800 33.72200
H  10.48900 3.33700 32.82900
H  10.83400 3.80100 35.12300
H  10.72100 2.11600 34.69900
H  4.84800 7.87100 28.77800
H  4.65300 6.75900 30.11600
H  3.56100 6.66700 28.83200
H  3.54200 7.37000 26.44300
H  4.10700 8.37000 25.11700
H  4.90400 8.66500 26.59500
H  8.63800 3.15000 23.39100
H  8.96300 0.20300 23.77200
H  6.92900 0.82900 22.82900
H  6.95800 2.55400 22.29700
H  6.09900 2.18600 23.76000
H  10.82800 1.53900 22.74600
H  11.38500 0.50500 24.00300
H  12.39400 2.61600 24.66300
H  11.01300 2.86800 25.42500
H  11.19700 3.46500 23.70900
H  11.76000 -2.34500 27.17100
H  10.57400 -3.30000 28.02500
H  12.15900 -2.66400 28.75800
H  11.16300 0.58100 32.75000
H  10.21100 -2.09200 35.90500
H  8.65200 -2.29600 35.01600
H  8.95400 -1.07000 36.20600
Mg 55.57100 24.12600 43.88600
C  53.00000 26.41600 43.06900
C  53.72900 21.59000 42.88200
C  58.33300 22.17500 43.95000
C  57.68100 26.98100 44.48600
N  53.64400 24.06000 42.91200
C  52.64200 25.06200 42.81200
C  51.27400 24.45700 42.49300
C  51.57600 22.92800 42.61900
C  53.10500 22.85900 42.81900
C  50.83900 22.17700 43.76000
C  50.83300 24.76100 41.03200
C  49.35000 24.78000 40.64500
H  49.03700 24.37500 39.20200
N  55.96900 22.10800 43.63900
C  55.03000 21.23600 43.18800
C  55.60100 19.94600 43.08600
C  56.98800 20.09000 43.37600
C  57.24800 21.54200 43.66000
C  54.89800 18.70000 42.64500
C  57.97300 18.92000 43.44300
O  57.58900 17.83600 43.33400
C  59.46800 19.19400 43.61000
N  57.68800 24.55200 44.13800
C  58.53500 23.54600 44.23800
C  59.89000 24.04500 44.67000
C  59.81100 25.58600 44.53400
C  58.26800 25.74600 44.51200
C  60.30200 23.55000 46.08600
C  60.63100 26.23200 43.37300
C  61.74400 27.18600 43.66500
N  55.36800 26.23400 43.88900
C  56.32400 27.24600 44.26700
C  55.61600 28.51500 44.29500
C  54.35700 28.26300 43.81200
C  54.30000 26.87500 43.52000
C  56.17900 29.81400 44.79500
C  53.07500 28.88700 43.57200
O  52.66000 30.02100 43.83100
C  52.10000 27.69500 43.05000
C  51.68200 28.05000 41.75800
O  52.39900 28.40600 40.79500
O  50.29100 27.98400 41.56800
C  49.67000 28.89400 40.56900
H  52.99000 20.79800 42.74800
H  59.28100 21.63900 44.03700
H  58.22500 27.92300 44.58400
H  50.53400 24.78600 43.22200
H  51.37800 22.44300 41.66300
H  51.49800 21.64700 44.44800
H  50.13700 21.42400 43.40300
H  50.38000 22.93000 44.40100
H  51.34000 24.05900 40.37100
H  51.27400 25.70300 40.70700
H  49.07700 25.82700 40.78100
H  48.83100 24.06300 41.28000
H  55.24100 18.40700 41.65300
H  53.81000 18.77200 42.67100
H  55.22300 17.85500 43.25100
H  59.95200 19.79300 42.83900
H  59.95600 18.22400 43.50900
H  59.71000 19.54700 44.61300
H  60.65200 23.72400 43.96000
H  60.17400 25.96500 45.48900
H  59.87000 22.57600 46.31800
H  60.07000 24.23100 46.90500
H  61.37700 23.36600 46.07400
H  60.01300 26.92000 42.79500
H  61.02900 25.43700 42.74200
H  62.62800 26.90600 43.09200
H  62.05800 27.04200 44.69900
H  61.41200 28.20300 43.46000
H  57.06600 30.11100 44.23600
H  56.33700 29.71400 45.86900
H  55.41300 30.57000 44.62300
H  51.26000 27.71000 43.74400
H  48.99800 29.52300 41.15300
H  49.11900 28.24300 39.89000
H  50.40000 29.35800 39.90500

