158

Mg 16.52400 -1.67100 28.04800
C  15.51100 0.22100 30.72700
C  18.60300 -3.36900 30.03400
C  17.59900 -3.34500 25.26500
C  14.44500 0.19800 25.93300
N  16.97800 -1.52500 30.14500
C  16.44300 -0.73800 31.02500
C  16.95700 -0.99700 32.44400
C  18.17300 -2.00100 32.15800
C  17.93800 -2.34300 30.68300
C  19.64200 -1.46000 32.41600
C  15.85900 -1.66600 33.35700
C  15.78500 -1.26100 34.90900
H  17.04700 -0.63000 35.46700
N  17.73600 -3.33100 27.69600
C  18.51600 -3.82700 28.70600
C  19.39100 -4.77200 28.04600
C  19.03800 -4.83200 26.57600
C  18.04800 -3.84800 26.46400
C  20.35700 -5.59800 28.74100
C  19.65100 -5.70300 25.50500
O  19.24800 -5.73700 24.35100
C  20.90500 -6.39800 25.71500
N  16.25400 -1.46700 25.93100
C  16.85700 -2.26300 25.02800
C  16.46000 -1.91000 23.53700
C  15.27200 -0.92200 23.73300
C  15.29700 -0.73900 25.29400
C  17.63600 -1.43000 22.59400
C  13.85900 -1.28000 23.23700
C  13.18900 -0.29100 22.34300
N  15.22300 -0.09300 28.23000
C  14.44500 0.52600 27.28300
C  13.61100 1.49200 28.06900
C  13.95300 1.36100 29.36200
C  15.00800 0.44300 29.42500
C  12.64500 2.44800 27.59000
C  13.79200 1.92500 30.66200
O  12.95800 2.74900 31.01900
C  14.72700 1.17300 31.64900
C  15.63200 2.16600 32.25400
O  16.45900 2.86900 31.65000
O  15.31800 2.19900 33.58900
C  16.12300 3.16000 34.30700
H  19.29800 -3.87600 30.70700
H  18.15800 -3.81400 24.45300
H  13.73100 0.78700 25.35400
H  17.33700 -0.02700 32.76500
H  18.11400 -2.94100 32.70600
H  20.16600 -1.30600 31.47300
H  20.22800 -2.11600 33.06000
H  19.47300 -0.46100 32.81800
H  16.05300 -2.73600 33.28500
H  14.89600 -1.52100 32.86700
H  15.57200 -2.14700 35.50700
H  14.98900 -0.62400 35.29300
H  21.35800 -5.17200 28.68100
H  20.47700 -6.67900 28.66800
H  19.98700 -5.55100 29.76600
H  21.32000 -6.57700 24.72300
H  20.75800 -7.36800 26.18900
H  21.55400 -5.75800 26.31300
H  16.10300 -2.86000 23.13800
H  15.51800 0.03200 23.26600
H  17.35500 -0.48900 22.12200
H  17.74400 -2.25100 21.88500
H  18.49900 -1.48600 23.25800
H  13.21600 -1.49100 24.09200
H  14.04500 -2.19800 22.68000
H  12.45800 -0.82200 21.73200
H  13.96400 -0.07200 21.60900
H  12.69600 0.56900 22.79700
H  12.08000 1.83100 26.89100
H  13.01200 3.23900 26.93600
H  12.03300 2.88400 28.38000
H  14.13500 0.47500 32.24200
H  15.55700 4.08600 34.19800
H  17.07000 3.38200 33.81600
H  16.23400 2.95000 35.37100
Mg 1.39700 42.61600 25.83500
C  3.54100 42.74200 28.51200
C  -1.22400 42.40800 28.05900
C  -0.71500 42.31900 23.22200
C  4.06900 42.66000 23.63300
N  1.19900 42.61800 28.06100
C  2.24900 42.67900 28.94100
C  1.66600 42.71700 30.39000
C  0.18800 42.41800 30.26500
C  0.00800 42.53600 28.72400
C  -0.14800 40.98400 30.65500
C  2.06000 44.08600 31.12300
C  2.03600 43.95800 32.63200
H  0.74100 44.00200 33.38800
N  -0.73500 42.60500 25.65100
C  -1.59000 42.44300 26.70400
C  -2.97100 42.31800 26.17300
C  -2.84800 42.35800 24.71800
C  -1.40500 42.38800 24.46400
C  -4.10700 42.01200 27.13000
C  -3.95600 42.38400 23.67600
O  -3.69700 42.35200 22.42200
C  -5.42300 42.37000 24.05500
N  1.57100 42.62900 23.70700
C  0.61400 42.36900 22.86900
C  1.15800 41.99300 21.51800
C  2.60300 42.55000 21.59400
C  2.77600 42.68000 23.07300
C  1.04300 40.45800 21.11100
C  2.90900 43.85500 20.79200
C  2.95700 43.94300 19.29900
N  3.42400 42.67000 25.98800
C  4.38700 42.79000 25.02900
C  5.67100 42.97200 25.62000
C  5.40200 42.87000 27.04900
C  4.01600 42.73400 27.19400
C  7.02400 43.13800 25.08400
C  6.04900 42.78900 28.30000
O  7.20900 42.67400 28.56700
C  4.89700 42.72100 29.35400
C  4.95100 41.49000 30.28000
O  4.71100 40.35900 30.02200
O  5.49300 41.87000 31.45500
C  5.86200 40.74300 32.24700
H  -2.04300 42.41300 28.78100
H  -1.35000 42.07700 22.36700
H  4.89000 42.66300 22.91200
H  2.13900 41.87400 30.89400
H  -0.32600 43.21900 30.79600
H  -0.36700 40.31600 29.82200
H  -1.04300 40.87800 31.26800
H  0.65900 40.53000 31.23000
H  1.19500 44.73600 30.99400
H  2.97000 44.51300 30.70100
H  2.63800 44.79900 32.97600
H  2.64000 43.14700 33.03900
H  -3.97900 41.02700 27.57800
H  -4.99700 41.85300 26.52200
H  -4.19700 42.73900 27.93800
H  -6.05600 42.51800 23.18000
H  -5.52200 43.13100 24.83000
H  -5.84700 41.47900 24.51700
H  0.57400 42.61900 20.84300
H  3.26400 41.77200 21.21100
H  0.69800 40.36700 20.08200
H  0.29800 39.94000 21.71500
H  2.00400 39.95800 21.23300
H  3.95300 44.10200 20.98600
H  2.33800 44.68600 21.20600
H  2.24300 44.68600 18.94500
H  2.71500 42.96400 18.88600
H  3.95100 44.13800 18.89600
H  7.51700 43.77000 25.82200
H  6.99200 43.74100 24.17700
H  7.59700 42.23500 24.87300
H  4.88900 43.67700 29.87700
H  5.08000 40.00400 32.42500
H  6.20400 40.96300 33.25800
H  6.74900 40.30000 31.79500

