158

Mg 35.66200 3.13500 30.44800
C  33.17600 3.76700 32.71000
C  38.05600 3.61400 32.85400
C  38.05600 2.54200 28.07400
C  33.28800 3.48700 27.85500
N  35.63600 3.78300 32.47700
C  34.50400 3.73900 33.30900
C  34.83100 3.80600 34.79900
C  36.33600 4.20500 34.73400
C  36.72300 3.83800 33.27300
C  36.61100 5.69700 35.14300
C  34.51200 2.51300 35.55100
C  34.38600 2.58000 37.09200
H  35.13200 3.63200 37.86300
N  37.78300 3.02900 30.47300
C  38.59700 3.25900 31.56100
C  39.97700 3.10700 31.15500
C  39.97800 2.76600 29.77600
C  38.54200 2.77400 29.37800
C  41.15600 3.05300 32.11000
C  41.09700 2.42800 28.77300
O  40.91800 2.26500 27.53100
C  42.47700 2.28300 29.15500
N  35.62000 3.04100 28.26500
C  36.74600 2.60200 27.58100
C  36.36700 2.19000 26.11100
C  34.78600 2.52200 26.00300
C  34.53900 3.12900 27.42800
C  37.33400 2.67900 24.97400
C  33.92400 1.25700 25.79300
C  32.66500 1.38500 24.81400
N  33.57900 3.60700 30.22200
C  32.74400 3.65300 29.15800
C  31.42800 3.88700 29.64500
C  31.53900 3.89200 31.03700
C  32.89500 3.78200 31.31200
C  30.32000 4.13900 28.70100
C  30.83800 4.12700 32.29000
O  29.65500 4.44600 32.50500
C  31.91600 3.99900 33.46700
C  31.99500 5.39000 34.09800
O  32.48300 6.45300 33.58000
O  31.57700 5.16700 35.37600
C  31.92600 6.21400 36.34000
H  38.80000 3.65200 33.65200
H  38.76500 2.41700 27.25300
H  32.57000 3.49900 27.03300
H  34.26000 4.66800 35.14300
H  36.82700 3.51500 35.42000
H  37.37100 5.72200 35.92400
H  35.69400 6.11100 35.56200
H  37.10600 6.34600 34.42200
H  35.33600 1.83600 35.32600
H  33.64800 1.97500 35.16000
H  34.45500 1.62000 37.60500
H  33.33600 2.87300 37.10800
H  41.71800 3.96200 31.89400
H  41.74900 2.15000 31.96700
H  40.74200 3.13600 33.11500
H  43.09800 2.03500 28.29400
H  42.55100 1.55200 29.96000
H  42.69800 3.24100 29.62500
H  36.47300 1.10800 26.19400
H  34.54200 3.21300 25.19600
H  37.88000 3.55600 25.32300
H  36.78600 2.82700 24.04400
H  38.03600 1.85300 24.85500
H  33.54600 0.89600 26.74900
H  34.59900 0.56100 25.29300
H  32.91500 0.77800 23.94400
H  32.28300 2.38000 24.58700
H  31.79200 0.96400 25.31300
H  29.32800 4.22300 29.14400
H  30.21500 3.38400 27.92200
H  30.49100 5.08500 28.18700
H  31.89000 3.13900 34.13600
H  32.07300 7.18300 35.86400
H  32.78500 5.92900 36.94800
H  31.02800 6.28900 36.95300
Mg 9.01700 48.93800 25.88200
C  6.97300 49.05500 28.80100
C  11.76300 49.48400 27.81600
C  10.79700 48.18100 23.16400
C  6.10700 48.38300 23.91600
N  9.28200 49.32800 28.02700
C  8.37500 49.20800 29.08800
C  9.07300 49.19700 30.47100
C  10.50400 49.69200 30.06300
C  10.54600 49.47900 28.48800
C  10.67300 51.19400 30.41100
C  9.11000 47.89700 31.41100
C  8.45400 48.14900 32.80500
H  8.62000 47.06100 33.89500
N  11.04800 48.85800 25.58300
C  12.02900 49.19500 26.46300
C  13.30100 49.14000 25.74300
C  13.05700 48.65900 24.45500
C  11.56300 48.61200 24.33100
C  14.62000 49.41000 26.44900
C  13.96800 48.42900 23.32900
O  13.65000 48.06300 22.23400
C  15.40800 48.62600 23.59400
N  8.50200 48.34100 23.87900
C  9.41200 48.05600 22.92800
C  8.83200 47.78800 21.62700
C  7.33200 47.87300 21.88400
C  7.32100 48.27300 23.31000
C  9.17500 48.74300 20.40700
C  6.51700 46.54900 21.60200
C  5.48400 46.84400 20.54700
N  6.84000 48.77600 26.16100
C  5.79300 48.56700 25.28500
C  4.54600 48.57000 26.10300
C  5.00000 48.74500 27.46900
C  6.39300 48.86000 27.50100
C  3.19200 48.38900 25.45800
C  4.54100 48.81800 28.85300
O  3.39000 48.77300 29.27700
C  5.81100 48.92200 29.78400
C  5.85000 47.58900 30.44600
O  6.42300 46.55400 30.12000
O  5.08700 47.69200 31.55400
C  4.96300 46.47000 32.37600
H  12.64800 49.62300 28.43900
H  11.36900 48.02500 22.24700
H  5.34500 48.26000 23.14300
H  8.52000 49.90900 31.08200
H  11.22000 48.97500 30.46400
H  10.95300 51.80400 29.55100
H  11.45400 51.23800 31.17000
H  9.76600 51.59600 30.86100
H  10.11700 47.53200 31.61200
H  8.60000 47.06400 30.92900
H  7.44600 48.51600 32.61800
H  9.00800 49.00400 33.19100
H  14.53600 49.78100 27.47000
H  15.21200 50.24000 26.06400
H  15.17800 48.47500 26.50300
H  15.75900 47.98300 24.40200
H  15.56100 49.66500 23.88400
H  16.07100 48.39700 22.76000
H  9.11100 46.78600 21.30200
H  6.76900 48.72900 21.51200
H  8.36600 49.33400 19.97600
H  9.71900 48.15500 19.66700
H  9.87400 49.50000 20.76300
H  6.19400 46.03300 22.50600
H  7.19500 45.81300 21.17100
H  4.70000 46.18700 20.92200
H  5.75300 46.64700 19.50900
H  5.01400 47.82700 20.57000
H  2.82700 49.22800 24.86500
H  2.49100 48.17900 26.26500
H  3.17500 47.53700 24.77800
H  5.61600 49.69700 30.52600
H  5.88300 45.89000 32.29700
H  4.16400 45.82100 32.01800
H  4.73800 46.64200 33.42800

