158

Mg 8.04300 2.40000 27.81400
C  9.94200 0.92000 30.52600
C  6.32900 4.20600 30.07500
C  6.43700 3.57800 25.20300
C  9.56200 -0.10000 25.78200
N  8.18800 2.44500 30.06600
C  9.10300 1.92800 30.97400
C  8.99400 2.58500 32.36700
C  7.64700 3.43800 32.14600
C  7.32800 3.38900 30.67200
C  6.48000 3.00400 32.97200
C  10.29200 3.32900 32.73000
C  10.97200 2.82700 34.03600
H  11.03000 3.81100 35.19300
N  6.58500 3.74600 27.65400
C  6.03100 4.43800 28.69700
C  5.03900 5.35300 28.09100
C  5.08700 5.21400 26.71200
C  6.04700 4.19900 26.45200
C  4.23900 6.28500 29.03900
C  4.38000 5.99100 25.60800
O  4.38700 5.67300 24.38400
C  3.68800 7.29300 25.99600
N  8.04700 1.84500 25.82600
C  7.20400 2.43200 24.89700
C  7.47700 1.93900 23.46000
C  8.61100 0.94600 23.72500
C  8.72600 0.85800 25.21200
C  6.17200 1.29100 22.80600
C  9.99600 1.23300 23.08100
C  10.89800 0.10500 22.57600
N  9.44700 0.66400 28.04300
C  9.91100 -0.16000 27.13600
C  10.84400 -0.98500 27.74300
C  10.93400 -0.63900 29.07300
C  9.98900 0.38800 29.24600
C  11.54200 -2.09700 27.01200
C  11.59100 -0.96200 30.42900
O  12.40000 -1.76400 30.77000
C  10.88700 0.10400 31.35400
C  10.23400 -0.55500 32.53600
O  9.13300 -1.02000 32.53400
O  11.01200 -0.39700 33.67400
C  10.35500 -0.76000 34.95600
H  5.76200 4.90900 30.68900
H  5.92800 3.91900 24.29900
H  10.18400 -0.69500 25.11100
H  8.90500 1.80300 33.12200
H  7.77100 4.51800 32.22600
H  5.92000 2.28200 32.37800
H  5.84000 3.84900 33.22500
H  6.73100 2.41700 33.85500
H  9.99500 4.37500 32.81200
H  11.05100 3.16100 31.96600
H  11.99900 2.53200 33.82400
H  10.52000 1.90700 34.40700
H  4.31700 6.03600 30.09800
H  3.24900 6.51300 28.64500
H  4.73900 7.24700 28.92500
H  2.80500 7.14300 26.61700
H  3.30100 7.68200 25.05300
H  4.39700 7.98300 26.45300
H  7.75800 2.78700 22.83500
H  8.32600 0.02100 23.22400
H  5.31900 1.71100 23.33900
H  6.01600 0.21300 22.83100
H  6.21100 1.77300 21.82900
H  10.53000 1.76700 23.86700
H  9.74500 1.91000 22.26400
H  11.76700 -0.07100 23.20900
H  11.35700 0.34600 21.61700
H  10.43400 -0.87300 22.45000
H  12.55100 -2.34700 27.34200
H  11.68400 -1.96900 25.93900
H  10.85200 -2.92700 27.16300
H  11.64400 0.73400 31.82100
H  10.41200 -1.82700 35.17100
H  9.30200 -0.47900 34.91200
H  10.97100 -0.17900 35.64200
Mg 35.11900 2.25300 29.04400
C  33.16000 3.53000 31.63200
C  37.74400 2.45500 31.27200
C  37.22600 1.38000 26.46900
C  32.51300 2.63400 26.85100
N  35.38300 3.02800 31.20200
C  34.48300 3.33700 32.08200
C  34.95100 3.53100 33.54500
C  36.49400 3.30600 33.33400
C  36.54200 2.92600 31.84700
C  37.40600 4.49100 33.69800
C  34.29100 2.63400 34.59600
C  34.20100 3.29000 36.04400
H  35.40800 4.00000 36.56400
N  37.18300 1.82800 28.86800
C  38.07100 2.03700 29.92600
C  39.36300 1.58100 29.51300
C  39.29300 1.33000 28.13500
C  37.89200 1.49900 27.72200
C  40.44800 1.58900 30.42300
C  40.41100 0.98100 27.15000
O  40.13400 0.88900 25.96600
C  41.78900 0.81200 27.72700
N  34.96700 2.21000 26.95500
C  35.91900 1.72900 26.05100
C  35.48900 1.80600 24.62600
C  33.91500 1.76600 24.86200
C  33.79000 2.34600 26.31800
C  36.10100 2.99700 23.96400
C  33.22000 0.37500 24.76800
C  31.94600 0.26800 24.00600
N  33.25900 2.90600 29.17500
C  32.22800 2.90300 28.23200
C  30.93200 3.25000 28.82800
C  31.26200 3.47700 30.16500
C  32.70000 3.35000 30.29600
C  29.68000 3.30300 28.16500
C  30.72700 3.77100 31.40900
O  29.52800 3.98600 31.62800
C  31.88800 3.81400 32.42200
C  31.92000 5.19900 33.08500
O  32.33400 6.15300 32.55300
O  31.50400 5.14000 34.37300
C  31.62900 6.43100 35.03100
H  38.48800 2.39900 32.06900
H  37.87500 1.36400 25.59100
H  31.60500 2.63300 26.24500
H  34.65700 4.55800 33.76000
H  36.84900 2.41100 33.84500
H  38.13700 4.68700 32.91400
H  38.09700 4.21100 34.49300
H  36.75500 5.32800 33.95400
H  34.94000 1.76700 34.72000
H  33.28900 2.28000 34.35600
H  34.05100 2.49900 36.77900
H  33.42300 4.05300 36.03100
H  40.81400 2.61500 30.40300
H  41.35900 1.03600 30.19100
H  40.21500 1.24500 31.43100
H  41.77600 -0.00800 28.44300
H  42.20700 1.70300 28.19700
H  42.56200 0.46100 27.04300
H  35.75700 0.84700 24.18300
H  33.46200 2.47000 24.16400
H  35.30300 3.46000 23.38300
H  36.87800 2.63400 23.29200
H  36.58700 3.70200 24.63800
H  33.01200 0.07200 25.79400
H  33.90400 -0.45600 24.59600
H  31.64300 1.19100 23.51100
H  31.32600 0.09300 24.88600
H  32.00800 -0.63500 23.39900
H  29.28300 4.31500 28.23300
H  28.99100 2.69700 28.75500
H  29.79900 2.81000 27.20000
H  31.82500 3.10800 33.25000
H  30.76300 6.32700 35.68500
H  31.47300 7.33300 34.44000
H  32.51800 6.55000 35.65000

