158

Mg 24.57800 1.90900 29.24200
C  26.86900 1.52600 31.82900
C  22.16000 1.95900 31.55100
C  22.50900 1.95000 26.70000
C  27.30000 1.08200 26.97800
N  24.51300 1.76600 31.52700
C  25.55800 1.83300 32.33700
C  25.18600 2.22200 33.73700
C  23.60000 1.94300 33.70900
C  23.40300 1.91700 32.19300
C  23.11600 0.62100 34.35300
C  25.67300 3.64900 34.35100
C  26.36500 3.68700 35.71600
H  25.85700 4.63700 36.84100
N  22.60800 1.91700 29.15000
C  21.75000 1.99400 30.21500
C  20.38100 1.88400 29.73400
C  20.43100 1.85600 28.28000
C  21.91000 1.89700 27.97000
C  19.17400 1.88300 30.72600
C  19.30900 1.80200 27.22000
O  19.48800 2.01600 26.02500
C  17.91900 1.55900 27.70200
N  24.90500 1.52000 27.07800
C  23.86200 1.93200 26.31300
C  24.37100 1.96000 24.83300
C  25.89100 1.80800 24.94700
C  26.05500 1.46000 26.41600
C  23.71300 0.83500 24.00800
C  26.85300 2.97200 24.37000
C  26.38800 4.38100 24.65400
N  26.69600 1.40300 29.37100
C  27.63300 1.03600 28.36600
C  28.90100 0.82600 28.98400
C  28.68300 1.03200 30.38400
C  27.32100 1.32500 30.53800
C  30.23000 0.73200 28.24000
C  29.34700 1.10300 31.65800
O  30.49300 0.89100 32.04800
C  28.22200 1.50400 32.63400
C  28.16000 0.39800 33.73900
O  27.50200 -0.62700 33.63800
O  28.81300 0.77900 34.87400
C  28.67400 -0.16000 36.00800
H  21.34000 1.99400 32.27100
H  21.87400 2.25100 25.86500
H  28.16900 0.91800 26.33800
H  25.57800 1.41600 34.35700
H  22.88600 2.62200 34.17600
H  22.16300 0.44400 33.85500
H  22.90300 0.74600 35.41400
H  23.73900 -0.22300 34.05500
H  24.73000 4.18000 34.47900
H  26.28800 4.13500 33.59400
H  27.36000 4.06500 35.48100
H  26.50000 2.65400 36.03700
H  18.38800 1.17700 30.45600
H  18.66200 2.84500 30.69600
H  19.49500 1.60700 31.73000
H  17.15200 1.70200 26.94100
H  17.61600 2.16200 28.55800
H  17.80200 0.49500 27.90700
H  23.98900 2.87500 24.38100
H  26.11400 0.83600 24.50800
H  22.76500 0.50300 24.43300
H  24.31500 -0.03700 23.75500
H  23.38500 1.35100 23.10600
H  26.97800 2.82900 23.29700
H  27.76600 2.75500 24.92600
H  25.46600 4.38100 25.23500
H  26.08900 4.73900 23.66900
H  27.15500 4.97100 25.15600
H  30.09600 1.13100 27.23400
H  30.32500 -0.34700 28.12100
H  31.07900 1.11300 28.80700
H  28.44700 2.48300 33.05800
H  27.75800 0.20000 36.47700
H  29.52000 0.14300 36.62400
H  28.61200 -1.23000 35.80800
Mg 49.69600 47.09400 43.49100
C  46.45600 47.60200 42.30700
C  49.78400 44.07200 41.78000
C  52.99300 46.80500 44.09100
C  49.82500 50.49000 44.13800
N  48.26900 45.96600 42.29100
C  47.03500 46.36200 41.87600
C  46.35300 45.25600 41.04800
C  47.29200 44.05100 41.27300
C  48.57600 44.71900 41.71600
C  46.97500 42.86900 42.20300
C  45.96100 45.59200 39.54000
C  44.46500 45.25800 39.09800
H  44.21200 44.69100 37.65300
N  51.15600 45.53200 43.26400
C  50.98200 44.38500 42.53700
C  52.17900 43.64700 42.51100
C  53.21400 44.35900 43.22700
C  52.51500 45.60600 43.67500
C  52.31800 42.35200 41.77800
C  54.58500 43.91700 43.39300
O  54.93400 42.81700 42.97100
C  55.66600 44.69300 44.08900
N  51.17800 48.42700 44.18600
C  52.47700 48.09400 44.36800
C  53.36600 49.25900 44.74800
C  52.44400 50.48600 44.47200
C  51.05400 49.77200 44.27800
C  53.95500 49.29900 46.20000
C  53.00000 51.38200 43.35900
C  53.27100 52.87500 43.73300
N  48.38100 48.74900 43.39300
C  48.54200 50.00800 43.82400
C  47.34200 50.67300 43.78900
C  46.35900 49.76100 43.40400
C  47.15000 48.61700 43.01900
C  47.07200 52.09000 44.18900
C  44.96800 49.63300 43.01600
O  43.99400 50.37400 43.06200
C  45.02100 48.15700 42.24400
C  44.02100 47.33500 42.96100
O  44.06800 46.91300 44.14100
O  42.98700 47.00800 42.12100
C  42.03600 46.00900 42.59400
H  49.73800 43.13200 41.22600
H  54.06700 46.63600 44.19100
H  49.82700 51.54600 44.41300
H  45.40700 45.05600 41.55100
H  47.44300 43.55100 40.31700
H  46.50900 42.12600 41.55600
H  46.33100 43.04400 43.06500
H  47.82700 42.35000 42.64200
H  46.74100 45.05000 39.00500
H  46.05500 46.66800 39.38800
H  44.01800 46.25100 39.11400
H  44.07000 44.54000 39.81800
H  52.94900 42.32300 40.88900
H  51.37200 41.87500 41.52400
H  52.86400 41.70500 42.46500
H  56.53500 44.05200 44.23900
H  55.19000 44.90800 45.04600
H  55.91500 45.62600 43.58300
H  54.11900 49.21400 43.96200
H  52.27600 51.14800 45.32100
H  55.02400 49.47800 46.08600
H  53.75800 48.29800 46.58400
H  53.41200 49.97800 46.85800
H  52.28300 51.33100 42.53900
H  53.96900 51.04400 42.99000
H  54.31400 53.01400 44.01700
H  52.55900 53.13500 44.51600
H  53.06800 53.52800 42.88500
H  47.83200 52.64300 43.63600
H  47.03700 52.30000 45.25800
H  46.17800 52.42300 43.66200
H  44.65200 48.05100 41.22300
H  41.34300 46.07300 41.75500
H  41.51000 46.33300 43.49300
H  42.45600 45.00400 42.55800

