158

Mg 35.62000 2.89800 29.81900
C  33.24500 3.60500 32.26800
C  37.98900 2.69600 32.47000
C  38.15000 2.65000 27.51000
C  33.26300 3.25000 27.34800
N  35.58400 3.25200 32.09700
C  34.46900 3.39600 32.88400
C  34.80700 3.40100 34.36200
C  36.31100 3.30400 34.39500
C  36.64100 3.04100 32.90500
C  37.03200 4.56100 34.97100
C  34.15900 2.23200 35.21600
C  33.72000 2.67800 36.55900
H  34.67900 3.63300 37.40500
N  37.68100 2.55400 29.97700
C  38.46700 2.51100 31.14400
C  39.87600 2.19900 30.81400
C  39.99100 2.23900 29.37100
C  38.58600 2.42600 28.88200
C  40.96000 1.90500 31.92500
C  41.17700 2.05100 28.42500
O  41.17000 1.94800 27.21800
C  42.49400 2.02500 29.11700
N  35.68800 2.97000 27.73100
C  36.86000 2.87000 27.04400
C  36.55100 3.16600 25.52500
C  35.04200 3.40500 25.43600
C  34.63400 3.20400 26.93800
C  37.32100 4.28400 24.85600
C  34.34100 2.45500 24.46000
C  34.16500 1.00700 24.84900
N  33.61900 3.40500 29.73100
C  32.75100 3.38900 28.71500
C  31.43800 3.76500 29.18100
C  31.62000 3.81000 30.57200
C  32.91100 3.51300 30.87400
C  30.14400 4.09700 28.37800
C  30.86500 4.09900 31.79700
O  29.68500 4.39000 31.95700
C  31.94700 3.97300 33.05500
C  31.99400 5.36200 33.57500
O  32.26700 6.30200 32.84500
O  31.63900 5.42000 34.91900
C  32.00200 6.65400 35.58300
H  38.69400 2.64400 33.30300
H  38.92200 2.76700 26.74700
H  32.62000 3.64800 26.56000
H  34.44100 4.36900 34.70600
H  36.73700 2.49800 34.99200
H  36.49400 5.19000 35.68000
H  37.47800 5.25400 34.25800
H  37.86900 4.07400 35.47200
H  34.90900 1.44200 35.23900
H  33.36200 1.67900 34.71800
H  33.42700 1.87700 37.23700
H  32.88700 3.34700 36.34300
H  41.36500 0.89800 31.82600
H  40.51000 1.93000 32.91700
H  41.77400 2.62400 31.83200
H  42.63500 2.95700 29.66300
H  43.30700 1.86900 28.40800
H  42.50100 1.15800 29.77900
H  36.69400 2.33800 24.83100
H  34.71700 4.39700 25.12300
H  36.64500 5.07200 24.52400
H  37.70100 3.92400 23.90000
H  38.14100 4.74700 25.40500
H  34.68900 2.61900 23.44000
H  33.29700 2.75800 24.38000
H  33.15200 0.64400 24.67700
H  34.43600 0.87200 25.89600
H  34.89200 0.43200 24.27500
H  30.27500 3.98800 27.30100
H  29.69300 5.06400 28.60000
H  29.27500 3.44600 28.47300
H  31.58200 3.16300 33.68700
H  32.46700 6.32500 36.51300
H  31.12200 7.24600 35.83800
H  32.81700 7.13400 35.04200
Mg -1.76500 35.24500 26.47600
C  -3.76100 33.84900 29.13300
C  -1.01200 37.80700 28.72400
C  -0.12500 36.69900 24.03300
C  -3.00200 32.86100 24.34200
N  -2.49900 35.79600 28.63800
C  -3.11100 35.01400 29.55500
C  -2.98100 35.49600 31.00500
C  -2.24200 36.90700 30.79200
C  -1.87400 36.84400 29.30500
C  -2.98300 38.22100 31.23600
C  -2.19700 34.51900 31.85500
C  -1.61700 35.06300 33.18700
H  -1.83100 34.26600 34.47000
N  -0.68400 36.92000 26.45100
C  -0.51300 37.89000 27.38400
C  0.47800 38.86200 26.93400
C  0.87300 38.45900 25.62100
C  -0.07600 37.35800 25.30300
C  1.08900 39.94900 27.77800
C  1.92100 38.95200 24.68500
O  2.20000 38.63300 23.53400
C  2.67500 40.11800 25.19300
N  -1.70800 34.89500 24.43500
C  -0.86400 35.60300 23.61200
C  -0.76700 35.03200 22.26100
C  -1.53500 33.65400 22.39500
C  -2.13000 33.83500 23.78000
C  -1.32800 35.98500 21.16200
C  -0.54500 32.44900 22.34900
C  0.23300 31.98900 23.64200
N  -3.03500 33.57500 26.68100
C  -3.54500 32.80700 25.64600
C  -4.60500 31.93400 26.09500
C  -4.60500 32.22900 27.50000
C  -3.72200 33.33500 27.79000
C  -5.50900 31.02300 25.37200
C  -5.12300 31.90200 28.78300
O  -5.97500 31.01900 28.99700
C  -4.60700 32.86700 29.93700
C  -5.76200 33.44900 30.72100
O  -6.62200 34.24100 30.40400
O  -5.66600 32.90800 31.95800
C  -6.86100 33.06700 32.84800
H  -0.65300 38.55700 29.43200
H  0.40100 37.13700 23.18200
H  -3.42700 32.18100 23.60000
H  -4.01800 35.60300 31.32600
H  -1.27000 36.92500 31.28500
H  -3.92300 38.12900 31.77900
H  -3.00800 38.87100 30.36100
H  -2.33500 38.68500 31.98000
H  -1.42900 34.18500 31.15700
H  -2.91600 33.70900 31.98000
H  -2.01100 36.07400 33.28200
H  -0.52800 35.03400 33.14700
H  0.73500 39.90500 28.80800
H  0.84400 40.89800 27.30200
H  2.16300 39.76300 27.80100
H  2.06200 40.96700 25.49500
H  3.48800 40.42800 24.53600
H  3.26800 39.78000 26.04400
H  0.28800 34.81900 22.08700
H  -2.29200 33.52600 21.62200
H  -2.27200 35.70400 20.69500
H  -0.57700 36.05100 20.37500
H  -1.43200 36.97800 21.60000
H  0.19400 32.66700 21.57900
H  -1.14000 31.58300 22.05800
H  1.31000 32.14100 23.57700
H  0.11500 30.92700 23.86000
H  -0.09600 32.54200 24.52200
H  -5.13800 30.94400 24.35000
H  -6.55100 31.32300 25.26900
H  -5.52800 29.99300 25.72900
H  -3.99000 32.19100 30.53000
H  -6.52500 33.66900 33.69200
H  -7.16100 32.14400 33.34500
H  -7.73500 33.58000 32.44800

