158

Mg -2.06000 18.10900 27.35100
C  -2.63000 15.77200 29.63300
C  -2.81600 20.60100 29.55200
C  -1.62700 20.19400 24.81500
C  -1.60100 15.50200 24.94900
N  -2.79800 18.14600 29.27600
C  -2.79500 17.07800 30.17700
C  -2.88400 17.48500 31.70600
C  -3.12400 19.03000 31.57900
C  -2.89300 19.32500 30.05300
C  -4.54900 19.64600 32.09400
C  -1.79200 17.01300 32.65500
C  -1.39000 17.80600 33.92800
H  -0.77600 16.98500 35.00500
N  -2.25200 20.10600 27.20700
C  -2.56100 20.98000 28.21600
C  -2.38900 22.37000 27.72200
C  -1.82700 22.25300 26.40700
C  -1.78800 20.84100 26.08700
C  -2.69100 23.59200 28.68100
C  -1.26500 23.39700 25.60800
O  -0.72900 23.25000 24.51400
C  -1.26200 24.77100 26.14800
N  -1.82500 17.84800 25.17100
C  -1.55100 18.90300 24.43600
C  -1.35500 18.48900 22.92600
C  -1.06000 17.00500 22.99300
C  -1.49900 16.71200 24.43800
C  -2.60100 18.73600 22.05600
C  0.40900 16.64100 22.72600
C  1.52600 17.18100 23.73200
N  -1.92100 16.11000 27.27600
C  -1.86100 15.14000 26.27100
C  -1.97700 13.81300 26.84000
C  -2.33300 13.98200 28.13300
C  -2.32300 15.38100 28.30900
C  -1.80800 12.52700 26.20100
C  -2.63400 13.29900 29.31900
O  -2.66600 12.11100 29.48200
C  -2.83400 14.40100 30.39600
C  -1.79700 14.01700 31.39300
O  -0.57600 14.23300 31.32800
O  -2.35600 13.29500 32.47000
C  -1.49600 13.04200 33.61700
H  -2.66100 21.35100 30.33000
H  -1.39800 20.80300 23.93800
H  -1.27400 14.69600 24.28800
H  -3.84500 17.08000 32.02300
H  -2.33600 19.53900 32.13400
H  -4.27200 20.34600 32.88200
H  -5.15900 18.98800 32.71300
H  -5.12300 20.09800 31.28500
H  -0.84500 17.09800 32.12300
H  -1.95600 15.96100 32.88900
H  -2.25900 18.36400 34.27700
H  -0.57200 18.49600 33.71900
H  -1.75000 24.05300 28.98000
H  -3.22100 23.20800 29.55300
H  -3.35800 24.34300 28.25900
H  -2.24300 25.18800 26.37400
H  -0.80100 25.46700 25.44700
H  -0.64200 24.79400 27.04400
H  -0.51500 19.03600 22.49900
H  -1.62700 16.37400 22.30900
H  -3.32800 19.19700 22.72500
H  -3.05700 17.85300 21.60800
H  -2.31800 19.48300 21.31400
H  0.69100 16.87100 21.69800
H  0.46600 15.55800 22.61900
H  2.09500 16.38800 24.21800
H  1.05800 17.77100 24.52000
H  2.26900 17.85200 23.30000
H  -1.06200 12.57500 25.40700
H  -2.68200 11.99800 25.82200
H  -1.44100 11.85300 26.97500
H  -3.84600 14.24200 30.76800
H  -2.10500 13.43400 34.43100
H  -0.57600 13.62500 33.58300
H  -1.33200 11.96500 33.62100
Mg 41.31900 40.72000 26.47000
C  40.80100 43.14100 29.14000
C  42.75800 38.79100 28.95600
C  42.15800 38.69400 24.15400
C  40.57500 43.35000 24.24200
N  41.69600 41.00600 28.79900
C  41.27100 41.97000 29.65600
C  41.42900 41.59300 31.13000
C  42.30900 40.28700 30.93900
C  42.30400 39.97600 29.43900
C  43.73300 40.47000 31.42800
C  40.09300 41.63000 31.89500
C  40.19500 40.90700 33.28000
H  39.51000 41.51600 34.51300
N  42.05600 38.92400 26.58700
C  42.66000 38.26300 27.71500
C  43.13200 36.94300 27.33800
C  42.97700 36.85900 25.91600
C  42.39200 38.18200 25.45500
C  43.69400 35.94100 28.29700
C  43.41700 35.74300 24.98900
O  43.30100 35.87000 23.75200
C  44.04200 34.47100 25.52400
N  41.52500 41.02500 24.48500
C  41.78800 39.96600 23.65500
C  41.41200 40.31600 22.16400
C  40.87000 41.80300 22.25100
C  41.00600 42.08000 23.74600
C  42.61100 40.18500 21.19200
C  39.37600 41.85400 21.84900
C  38.37400 41.17400 22.86500
N  40.72500 42.81100 26.54200
C  40.60200 43.74200 25.57700
C  40.28400 45.05900 26.13700
C  40.36600 44.87300 27.51100
C  40.61000 43.42800 27.73400
C  39.98400 46.30000 25.31200
C  40.21900 45.52400 28.78400
O  39.78800 46.62200 29.01400
C  40.58500 44.49500 29.83600
C  41.78000 44.93500 30.57100
O  42.90800 44.96700 30.05100
O  41.53500 45.30600 31.83900
C  42.73800 45.59700 32.65400
H  43.22800 38.14100 29.69800
H  42.11600 37.82600 23.49300
H  40.21000 44.10900 23.54600
H  42.01600 42.38500 31.59400
H  41.82800 39.46000 31.46100
H  44.45500 40.31400 30.62600
H  43.81100 39.68900 32.18400
H  43.82900 41.45700 31.88000
H  39.41800 41.03100 31.28500
H  39.75700 42.66600 31.95200
H  41.25600 40.76800 33.48800
H  39.86900 39.88200 33.10100
H  43.29300 34.95300 28.07100
H  43.28600 36.11400 29.29300
H  44.77600 35.99500 28.18000
H  44.81800 34.59400 26.28000
H  44.42400 33.83500 24.72500
H  43.17800 33.89400 25.85400
H  40.68800 39.56100 21.85800
H  41.56500 42.38800 21.64800
H  43.45000 39.93000 21.83900
H  42.97400 41.08100 20.68900
H  42.49300 39.40400 20.44100
H  39.31600 41.60100 20.79100
H  39.09400 42.90700 21.83400
H  37.71800 41.96100 23.23600
H  38.77800 40.76900 23.79200
H  37.72500 40.41200 22.43200
H  40.37700 47.20700 25.77000
H  38.90400 46.44400 25.27100
H  40.38000 46.10300 24.31500
H  39.73100 44.49100 30.51400
H  43.19500 46.46300 32.17400
H  43.42600 44.75400 32.59300
H  42.44600 45.81200 33.68200

