158

Mg 23.66000 -5.54300 47.26900
C  25.79800 -3.19700 45.69900
C  21.22600 -4.51600 45.09700
C  21.75200 -8.19700 48.46300
C  26.37500 -6.70300 49.00900
N  23.55500 -4.00200 45.53200
C  24.52800 -3.12600 45.13100
C  24.06500 -2.22700 43.95100
C  22.50600 -2.63500 43.94400
C  22.39700 -3.74400 44.91700
C  21.55000 -1.44100 44.28200
C  24.76600 -2.43200 42.51400
C  25.42500 -1.22200 41.73400
H  25.19500 -1.14100 40.19800
N  21.73000 -6.19400 46.90700
C  20.89300 -5.59100 45.98500
C  19.65900 -6.38200 45.82000
C  19.73500 -7.37200 46.87900
C  21.03300 -7.30100 47.50300
C  18.54300 -6.12100 44.78700
C  18.63700 -8.36100 47.12000
O  17.62100 -8.57300 46.39300
C  18.83300 -9.25400 48.26600
N  24.01300 -7.17300 48.54900
C  23.09900 -8.17500 48.89200
C  23.67700 -9.21400 49.92800
C  25.01500 -8.50200 50.31400
C  25.16500 -7.39400 49.21600
C  22.79500 -9.51700 51.14800
C  26.26100 -9.51300 50.34000
C  26.98600 -9.58500 51.62500
N  25.69000 -5.15600 47.26500
C  26.63800 -5.66100 48.05600
C  27.85400 -4.95800 47.87800
C  27.53600 -3.96500 46.92900
C  26.23400 -4.11400 46.61600
C  29.18200 -5.18900 48.46800
C  28.09600 -2.87900 46.17000
O  29.22600 -2.51200 46.14400
C  27.00100 -2.41400 45.26800
C  26.84300 -0.95800 45.31900
O  26.07600 -0.33200 46.04700
O  27.53200 -0.40900 44.25300
C  27.27500 0.98000 43.86500
H  20.49700 -4.17800 44.35700
H  21.20300 -9.03700 48.89500
H  27.14400 -7.02200 49.71600
H  24.18600 -1.17900 44.22700
H  22.20700 -2.97900 42.95400
H  22.04000 -0.65300 44.85300
H  20.68500 -1.75700 44.86400
H  21.10400 -1.00500 43.38800
H  23.95000 -2.89200 41.95700
H  25.55700 -3.16400 42.67400
H  26.49600 -1.14300 41.91800
H  25.00600 -0.33900 42.21800
H  18.53200 -6.95500 44.08500
H  18.54600 -5.09900 44.40600
H  17.65300 -6.23000 45.40600
H  17.86500 -9.73500 48.40900
H  19.08100 -8.69200 49.16600
H  19.57000 -9.95200 47.86900
H  23.85400 -10.15100 49.40100
H  24.85200 -7.97200 51.25200
H  22.10100 -8.69100 51.30500
H  23.41600 -9.90200 51.95600
H  22.14100 -10.32600 50.82000
H  27.00600 -9.10300 49.65800
H  26.03800 -10.55100 50.09100
H  27.72800 -8.78700 51.65400
H  27.56200 -10.51000 51.61400
H  26.25800 -9.62800 52.43600
H  29.67200 -5.80100 47.71100
H  29.04200 -5.79300 49.36500
H  29.79200 -4.29000 48.55000
H  27.40600 -2.62200 44.27800
H  27.96300 1.35800 43.10900
H  27.22200 1.70300 44.67900
H  26.26600 0.93200 43.45500
Mg 10.02800 48.35700 26.31100
C  8.05400 47.89100 29.25700
C  12.69000 49.20100 28.44300
C  11.84900 48.75800 23.61800
C  7.14700 47.93000 24.49600
N  10.34000 48.35600 28.56500
C  9.40700 48.20500 29.62900
C  9.99300 48.52700 30.99800
C  11.46600 48.91300 30.68400
C  11.50100 48.87200 29.10700
C  11.92900 50.20300 31.30800
C  9.85800 47.39000 32.03800
C  11.02000 47.17000 33.04900
H  10.62200 46.67000 34.49300
N  11.98000 48.91600 26.08600
C  12.92800 49.06200 27.04000
C  14.23300 49.36600 26.39100
C  14.03100 49.33500 25.01400
C  12.56800 48.96400 24.83800
C  15.55400 49.73200 27.04200
C  14.95100 49.68600 23.85600
O  14.62700 49.67200 22.66200
C  16.40700 49.98900 24.12300
N  9.51900 48.49500 24.29400
C  10.49000 48.44900 23.34200
C  10.00200 48.15400 21.90400
C  8.48100 47.75000 22.32200
C  8.32300 48.23100 23.79100
C  10.09400 49.37800 20.87800
C  8.14600 46.22300 22.05200
C  8.71100 45.20600 23.03600
N  8.01700 47.96400 26.78400
C  6.95000 47.81400 25.86700
C  5.73600 47.51500 26.57600
C  6.09300 47.42400 27.96400
C  7.44800 47.81500 28.00400
C  4.37000 47.40400 25.90300
C  5.62400 47.20400 29.33100
O  4.57200 46.87800 29.73500
C  6.90000 47.42700 30.20200
C  7.28800 46.06800 30.74700
O  7.85100 45.16100 30.11900
O  6.85800 46.09400 32.02000
C  7.27700 44.93400 32.81900
H  13.57400 49.38200 29.05700
H  12.48400 48.87400 22.73700
H  6.23000 47.70700 23.94700
H  9.47100 49.36100 31.46800
H  12.14500 48.10700 30.96200
H  11.14400 50.65500 31.91400
H  12.26200 50.97400 30.61200
H  12.78700 50.01000 31.95200
H  9.79700 46.43300 31.52000
H  8.94300 47.55300 32.60700
H  11.64300 48.05900 33.14700
H  11.69100 46.39400 32.68100
H  16.39300 49.06500 26.84300
H  15.40000 49.74800 28.12000
H  15.72000 50.76700 26.74300
H  16.84900 49.14400 24.65100
H  16.47600 50.86900 24.76300
H  17.00300 50.11900 23.22000
H  10.55400 47.32400 21.46400
H  7.87900 48.36500 21.65400
H  10.48400 49.08200 19.90400
H  10.86600 50.05200 21.25000
H  9.16400 49.90100 20.65600
H  8.58600 45.89400 21.11100
H  7.07300 46.04600 21.98200
H  9.20800 45.54700 23.94400
H  9.43600 44.51500 22.60700
H  7.87700 44.54400 23.27200
H  4.27000 48.22300 25.19100
H  3.74000 47.51700 26.78500
H  4.21800 46.42300 25.45100
H  6.67300 48.18600 30.95100
H  7.72700 45.32200 33.73300
H  7.99300 44.19200 32.46600
H  6.43300 44.31600 33.12600

