158

Mg 23.90700 -5.31400 45.61900
C  26.12900 -3.07600 44.06000
C  21.54700 -4.16400 43.61900
C  22.25900 -8.19800 46.17600
C  26.83100 -6.70800 47.18400
N  23.97600 -3.97800 43.83400
C  24.83700 -3.03600 43.54900
C  24.29100 -1.99000 42.58300
C  22.73100 -2.03800 42.87700
C  22.73500 -3.47200 43.52200
C  22.17000 -0.90800 43.81700
C  24.59400 -2.23800 41.12300
C  25.58400 -1.29800 40.44400
H  25.46000 -1.31000 38.94300
N  22.01200 -6.03200 45.11000
C  21.13700 -5.43000 44.23500
C  19.93600 -6.19700 44.19000
C  20.09500 -7.28700 45.04300
C  21.46900 -7.25100 45.49900
C  18.72700 -5.67700 43.48900
C  18.91900 -8.25400 45.40700
O  17.79200 -8.15100 44.93000
C  19.05000 -9.40600 46.32900
N  24.48500 -7.17600 46.49000
C  23.63300 -8.23200 46.63500
C  24.17800 -9.32900 47.46800
C  25.59000 -8.77600 47.90000
C  25.66500 -7.45900 47.14000
C  23.22100 -9.77600 48.59400
C  26.74900 -9.83300 47.73700
C  27.42800 -10.39100 49.10700
N  26.02700 -4.89100 45.82500
C  27.06500 -5.50600 46.50000
C  28.34800 -4.75100 46.31500
C  28.03100 -3.81400 45.34500
C  26.62600 -3.89000 45.16900
C  29.69600 -5.01100 46.90100
C  28.47200 -2.77300 44.48400
O  29.60600 -2.40200 44.33500
C  27.28700 -2.25900 43.66600
C  27.09500 -0.83700 43.86800
O  26.49200 -0.28000 44.77800
O  27.73600 -0.13000 42.94900
C  27.71300 1.37600 42.85400
H  20.70000 -3.78800 43.04200
H  21.68500 -9.12200 46.27600
H  27.69000 -7.16800 47.67700
H  24.58900 -0.96800 42.81800
H  22.16800 -2.02400 41.94400
H  23.06100 -0.55000 44.33200
H  21.43000 -1.38700 44.45700
H  21.67400 -0.14900 43.21100
H  23.71100 -2.27800 40.48500
H  25.12000 -3.19200 41.12700
H  26.64400 -1.48100 40.61700
H  25.43900 -0.34000 40.94400
H  18.18600 -6.49400 43.01200
H  18.85900 -4.98300 42.65900
H  18.10400 -5.23200 44.26500
H  18.02800 -9.68800 46.58200
H  19.61800 -9.19400 47.23400
H  19.51100 -10.18000 45.71400
H  24.32900 -10.11800 46.73100
H  25.47700 -8.34700 48.89600
H  22.68800 -8.93600 49.04000
H  23.74700 -10.29900 49.39300
H  22.53000 -10.44900 48.08800
H  27.42600 -9.36200 47.02500
H  26.30100 -10.67900 47.21600
H  26.85100 -10.02600 49.95700
H  28.51100 -10.28900 49.18600
H  27.22000 -11.45600 49.20700
H  29.76600 -4.61900 47.91600
H  30.40500 -4.36900 46.38000
H  29.89200 -6.07900 46.80700
H  27.59400 -2.33000 42.62200
H  28.23100 1.81800 43.70500
H  26.65200 1.62300 42.83200
H  28.22300 1.65700 41.93200
Mg 7.12400 53.31500 40.40700
C  6.46900 49.80100 40.15600
C  10.48200 52.65100 39.93000
C  7.57500 56.60200 40.21200
C  3.62800 53.73200 40.65900
N  8.36700 51.40500 40.13500
C  7.84400 50.11800 40.05200
C  8.94800 49.20100 39.65200
C  10.21300 49.98300 40.12500
C  9.68700 51.48900 40.02300
C  10.62900 49.65700 41.58200
C  8.96700 48.82300 38.11700
C  8.38500 49.80800 37.08500
H  7.55700 49.22200 35.91500
N  8.79500 54.46900 40.05900
C  10.09800 54.00000 39.86900
C  10.96100 55.15900 39.48400
C  10.19600 56.33400 39.65200
C  8.78800 55.81100 40.05300
C  12.37100 55.11300 39.10300
C  10.70800 57.76700 39.50800
O  11.90400 58.04500 39.28100
C  9.75500 58.96500 39.68300
N  5.78800 54.91500 40.45000
C  6.23600 56.20900 40.48100
C  5.05800 57.21200 40.62800
C  3.81500 56.24600 40.53600
C  4.45500 54.87600 40.56000
C  5.13300 58.13000 41.86000
C  3.00500 56.44300 39.19800
C  1.51400 56.23800 39.33600
N  5.36000 52.11400 40.49500
C  4.06500 52.37900 40.68900
C  3.27800 51.15200 40.82200
C  4.25900 50.08700 40.62100
C  5.43300 50.71000 40.47700
C  1.78000 51.04700 41.07900
C  4.41400 48.68500 40.56200
O  3.54400 47.85800 40.75000
C  5.85700 48.38200 40.16500
C  5.73300 47.69200 38.89200
O  5.25900 48.12600 37.86100
O  6.05800 46.37300 39.08500
C  5.95700 45.57300 37.82900
H  11.52500 52.40800 39.71900
H  7.70300 57.68300 40.29600
H  2.56700 53.85500 40.88200
H  8.81100 48.23500 40.13800
H  11.01300 49.71400 39.43600
H  10.17800 48.78200 42.05000
H  10.32100 50.45100 42.26200
H  11.71600 49.60100 41.62100
H  8.39000 47.91100 37.96200
H  9.99000 48.58200 37.82800
H  9.14100 50.34000 36.50800
H  7.77300 50.60400 37.51000
H  12.98300 55.68000 39.80500
H  12.58000 55.36000 38.06200
H  12.69500 54.07600 39.18600
H  10.38800 59.82100 39.44900
H  9.42400 59.09300 40.71400
H  8.93700 58.98000 38.96200
H  5.05600 57.85100 39.74500
H  3.24000 56.49500 41.42800
H  5.25300 59.20100 41.69600
H  6.01600 57.75400 42.37600
H  4.29100 57.87200 42.50200
H  3.46100 55.92200 38.35600
H  3.18100 57.48900 38.94800
H  1.10900 55.67600 38.49400
H  0.90300 57.10300 39.59500
H  1.45400 55.59000 40.20900
H  1.27500 51.97600 40.81600
H  1.61000 50.80500 42.12800
H  1.41900 50.25800 40.41900
H  6.28300 47.69400 40.89600
H  6.71000 46.01700 37.17900
H  4.94800 45.57700 37.41600
H  6.34800 44.57000 38.00000

