158

Mg 30.11100 58.72500 39.48300
C  27.39700 56.45900 38.54200
C  32.27800 56.23000 38.43900
C  32.47800 60.97600 39.22900
C  27.59800 61.23500 39.77200
N  29.81500 56.57900 38.68500
C  28.67200 55.97200 38.27600
C  28.98900 54.66000 37.49600
C  30.52800 54.46600 37.73100
C  30.89500 55.85300 38.25400
C  30.97200 53.28400 38.66500
C  28.58800 54.86300 36.00500
C  27.75300 53.75200 35.29300
H  27.63900 53.85800 33.78900
N  32.12100 58.62600 39.02900
C  32.83100 57.44000 38.74800
C  34.22800 57.77000 38.73100
C  34.32500 59.16800 38.97100
C  32.96800 59.68800 39.03800
C  35.32100 56.70400 38.43800
C  35.59300 60.00100 39.04800
O  36.68700 59.49700 38.97200
C  35.59600 61.46500 39.10200
N  30.03500 60.85800 39.60200
C  31.19400 61.59600 39.50600
C  30.86900 63.10800 39.53800
C  29.42400 63.07400 40.02000
C  28.92200 61.63800 39.78400
C  31.82400 63.95100 40.42200
C  28.58900 64.22100 39.34300
C  27.50800 64.79800 40.26500
N  27.87500 58.85800 39.34200
C  27.07200 59.95500 39.47000
C  25.63700 59.55800 39.29300
C  25.73100 58.16900 38.97600
C  27.13400 57.81900 38.95600
C  24.35700 60.46000 39.49500
C  24.92100 56.97800 38.74900
O  23.68400 56.81800 38.71000
C  26.03400 55.88800 38.43600
C  25.88600 54.73300 39.37700
O  26.08600 54.72700 40.61300
O  25.26800 53.76300 38.63800
C  24.62900 52.67100 39.40900
H  32.95600 55.43700 38.11700
H  33.13100 61.85000 39.17700
H  26.82100 62.00200 39.80000
H  28.38900 53.89100 37.98200
H  31.17800 54.34400 36.86500
H  31.46800 53.72300 39.53000
H  31.66700 52.55300 38.25000
H  30.18300 52.61800 39.01400
H  29.44700 55.02700 35.35500
H  27.96000 55.75100 35.94200
H  26.72800 53.92300 35.62100
H  28.01400 52.74700 35.62600
H  36.19200 57.24800 38.07300
H  34.95100 55.91200 37.78700
H  35.58000 56.31300 39.42200
H  35.14600 61.83800 40.02200
H  34.98800 61.78500 38.25600
H  36.58500 61.88700 38.92400
H  30.91600 63.60700 38.57000
H  29.52500 63.18400 41.09900
H  32.63800 64.50500 39.95400
H  32.35300 63.14900 40.93600
H  31.33600 64.62700 41.12300
H  28.09900 63.84000 38.44700
H  29.25200 65.03400 39.04700
H  27.64100 64.40500 41.27300
H  26.48700 64.63300 39.92000
H  27.65600 65.86400 40.43900
H  24.24400 60.61900 40.56800
H  23.55100 60.00000 38.92300
H  24.37000 61.49200 39.14600
H  25.78700 55.49400 37.45100
H  25.34100 52.04500 39.94700
H  24.17600 51.93500 38.74500
H  23.86100 53.10600 40.04900
Mg -12.12500 16.63200 42.15300
C  -8.75000 15.30800 41.72200
C  -10.95500 19.53000 40.35200
C  -15.22000 17.43100 41.64300
C  -13.11700 13.21800 42.64500
N  -10.04600 17.31300 41.14100
C  -8.79500 16.63300 41.19900
C  -7.68900 17.47200 40.68600
C  -8.36200 18.91800 40.41700
C  -9.88700 18.61600 40.63600
C  -7.77800 20.21000 41.19000
C  -7.00700 16.91300 39.40300
C  -5.60000 16.47500 39.60300
H  -5.23500 15.16300 38.86100
N  -12.93300 18.35000 41.32900
C  -12.35400 19.36000 40.64600
C  -13.37600 20.31900 40.25200
C  -14.62500 19.85500 40.64200
C  -14.28900 18.49300 41.24900
C  -13.04400 21.70300 39.75500
C  -15.98900 20.52000 40.37600
O  -16.08000 21.59800 39.74700
C  -17.22700 19.81400 40.93900
N  -13.85000 15.48200 42.14200
C  -15.02200 16.09600 42.02700
C  -16.23900 15.18400 42.26400
C  -15.59800 13.81800 42.55100
C  -14.10400 14.15300 42.41200
C  -17.07800 15.71600 43.43300
C  -16.04300 12.71800 41.56100
C  -17.11800 11.86200 42.11300
N  -11.23000 14.71700 42.40000
C  -11.73400 13.42300 42.61300
C  -10.59800 12.53100 42.88100
C  -9.42500 13.24300 42.55300
C  -9.85500 14.54700 42.22800
C  -10.77000 11.09900 43.36700
C  -8.07200 13.12600 42.50000
O  -7.37300 12.17200 42.77300
C  -7.54300 14.51100 41.95700
C  -6.77200 15.06300 43.03700
O  -7.09300 16.03200 43.70800
O  -5.52700 14.45600 43.08000
C  -4.64000 14.86100 44.22500
H  -10.58700 20.46300 39.92000
H  -16.24900 17.78400 41.73500
H  -13.43500 12.17900 42.76300
H  -6.97900 17.53600 41.51100
H  -8.29900 19.17700 39.36000
H  -8.52500 20.56800 41.89800
H  -7.42900 21.00400 40.53000
H  -6.82000 19.88700 41.59700
H  -7.16400 17.57400 38.55000
H  -7.54700 16.03700 39.04400
H  -5.33800 16.28600 40.64400
H  -4.97000 17.20600 39.09500
H  -13.75800 22.18800 39.09000
H  -12.14100 21.77600 39.14900
H  -12.89800 22.37800 40.59900
H  -18.07400 20.47700 40.76600
H  -17.04200 19.77100 42.01200
H  -17.44700 18.85500 40.47100
H  -16.87300 15.15100 41.37800
H  -15.78600 13.68600 43.61700
H  -16.45000 16.43800 43.95400
H  -17.32600 14.91100 44.12500
H  -18.01600 16.12900 43.06200
H  -15.14500 12.10700 41.47400
H  -16.28800 13.11100 40.57400
H  -16.94100 10.82300 41.83700
H  -18.05900 12.09900 41.61600
H  -17.13200 11.95800 43.19900
H  -11.10000 10.49500 42.52200
H  -11.54900 11.16000 44.12700
H  -9.84100 10.71600 43.79100
H  -7.01900 14.42400 41.00500
H  -4.36700 15.90300 44.05900
H  -3.71600 14.30900 44.05500
H  -5.22200 14.69000 45.13100

