158

Mg 44.39200 4.00000 47.49600
C  42.50900 6.76900 47.04700
C  41.57000 2.11700 46.75200
C  46.34400 1.14400 47.44700
C  47.21800 5.87400 47.58400
N  42.29800 4.43200 46.90900
C  41.70300 5.66900 46.80400
C  40.24100 5.64000 46.56800
C  39.92600 4.11500 46.80400
C  41.31800 3.49400 46.89400
C  39.14800 3.87700 48.06700
C  39.79900 6.17300 45.15600
C  40.53300 5.67900 43.85200
H  40.66200 6.71000 42.67700
N  43.95300 1.91200 47.13000
C  42.78200 1.38400 46.76000
C  42.91900 -0.02900 46.61000
C  44.29800 -0.39600 46.81000
C  44.94700 0.92300 47.20600
C  41.77100 -0.92000 46.19700
C  44.86700 -1.76200 46.77700
O  44.19600 -2.69400 46.31600
C  46.28500 -2.17400 47.18000
N  46.47400 3.62600 47.42400
C  47.01200 2.35400 47.55700
C  48.53900 2.37800 47.87100
C  48.82700 3.91900 47.96100
C  47.42100 4.52500 47.63700
C  49.03300 1.43700 49.10000
C  50.09100 4.41100 47.12000
C  50.99500 5.51400 47.78100
N  44.83700 5.95500 47.39200
C  46.03400 6.60200 47.43400
C  45.77700 8.01700 47.49800
C  44.33600 8.11400 47.43700
C  43.85600 6.82800 47.22200
C  46.81500 9.13900 47.51500
C  43.29700 9.03600 47.40500
O  43.33800 10.27200 47.46700
C  41.99400 8.21600 47.20900
C  41.11800 8.39600 48.40800
O  40.97400 7.67700 49.38100
O  40.55000 9.65200 48.23700
C  39.53600 9.98200 49.25200
H  40.69800 1.46300 46.68200
H  46.97200 0.25500 47.53200
H  48.15200 6.43400 47.65200
H  39.68600 6.35500 47.17500
H  39.31200 3.63700 46.04100
H  38.82700 4.87200 48.37600
H  39.78600 3.51000 48.87100
H  38.32500 3.18000 47.90600
H  39.63700 7.25100 45.19100
H  38.84500 5.69200 44.94100
H  40.07200 4.75600 43.50100
H  41.47400 5.42200 44.33900
H  40.99000 -0.28500 45.77800
H  41.45700 -1.46900 47.08500
H  42.09200 -1.56600 45.37900
H  46.38300 -3.25900 47.18700
H  46.43200 -1.76700 48.18100
H  47.02100 -1.70900 46.52400
H  48.99600 2.00200 46.95600
H  49.03100 4.19200 48.99600
H  49.35000 0.48200 48.68000
H  48.19900 1.25900 49.77800
H  49.89800 1.82100 49.64100
H  49.73500 4.97400 46.25700
H  50.79900 3.65600 46.78000
H  51.40800 6.26700 47.10900
H  51.86300 5.07200 48.27100
H  50.55200 6.01000 48.64400
H  46.30600 10.06900 47.26200
H  47.51200 8.96100 46.69600
H  47.37200 9.32600 48.43300
H  41.45300 8.54500 46.32200
H  39.00000 9.12700 49.66300
H  38.71900 10.63600 48.94600
H  40.11400 10.45400 50.04700
Mg 16.55500 51.21500 25.16700
C  18.45200 50.17300 27.87300
C  14.26100 52.37200 27.39200
C  15.09400 52.71700 22.61700
C  19.07900 49.96800 23.01400
N  16.30000 51.13600 27.35600
C  17.23200 50.74500 28.28800
C  16.85300 51.16800 29.68200
C  15.37400 51.50200 29.54900
C  15.21100 51.60100 28.03000
C  14.36800 50.54600 30.25100
C  17.76000 52.14900 30.41800
C  17.90800 51.88400 31.86400
H  17.01500 52.64300 32.83500
N  14.86300 52.29400 25.02000
C  14.11600 52.73600 26.03700
C  13.23000 53.77900 25.54800
C  13.33700 53.81600 24.12400
C  14.50800 52.97500 23.84300
C  12.17100 54.42900 26.41100
C  12.51600 54.55300 23.16000
O  12.71700 54.40500 21.96700
C  11.26500 55.36800 23.50600
N  16.94600 51.24600 23.09800
C  16.19500 51.98800 22.24400
C  16.80000 51.97400 20.76100
C  18.17800 51.19400 21.02000
C  18.04800 50.73500 22.48200
C  15.92000 51.06700 19.77600
C  19.31800 52.15600 20.62700
C  20.49800 51.52000 19.82400
N  18.36100 50.10200 25.31000
C  19.23800 49.68100 24.35900
C  20.45600 49.10900 25.05400
C  20.16700 49.32700 26.41800
C  18.88200 49.93200 26.54000
C  21.50300 48.52300 24.35000
C  20.65500 49.02300 27.77500
O  21.65900 48.47400 28.21600
C  19.63400 49.70500 28.70400
C  19.23900 48.78200 29.89000
O  18.84700 47.63000 29.81300
O  19.52600 49.37100 31.03600
C  19.58400 48.49000 32.19700
H  13.53600 52.71100 28.13600
H  14.66200 53.20700 21.74200
H  19.95000 49.71600 22.40600
H  16.99200 50.16900 30.09500
H  15.18500 52.51400 29.90700
H  14.77300 50.11500 31.16600
H  14.05900 49.78400 29.53600
H  13.47800 51.14000 30.45900
H  17.26200 53.11200 30.29900
H  18.75500 52.16200 29.97400
H  18.95600 51.83800 32.16300
H  17.60800 50.84200 31.97700
H  12.05600 55.49500 26.20900
H  12.36200 54.29600 27.47500
H  11.22300 53.94600 26.17300
H  10.54500 54.75000 24.04200
H  11.09200 55.72000 22.48900
H  11.39900 56.21800 24.17400
H  16.81700 53.01200 20.43100
H  18.21800 50.21600 20.54000
H  16.52400 50.76700 18.92000
H  15.11500 51.73700 19.47500
H  15.48100 50.15100 20.17100
H  19.75300 52.51800 21.55900
H  19.02300 53.08400 20.13800
H  21.42100 51.79500 20.33400
H  20.45100 52.02400 18.85900
H  20.49100 50.46100 19.56600
H  22.28300 49.28300 24.31700
H  21.11700 48.22900 23.37500
H  21.84400 47.59800 24.81500
H  20.06500 50.58900 29.17400
H  19.97500 48.89200 33.13200
H  20.23200 47.62800 32.04100
H  18.56800 48.13400 32.37000

