158

Mg 9.23100 4.10800 27.07700
C  10.55900 2.75000 30.08400
C  7.47700 6.25000 29.01600
C  8.09400 5.33300 24.23900
C  10.54200 1.39000 25.35200
N  9.03400 4.47900 29.39300
C  9.70600 3.90400 30.36000
C  9.41600 4.54400 31.75600
C  8.30300 5.57700 31.38700
C  8.20500 5.40100 29.86800
C  6.96900 5.48300 32.16200
C  10.63800 5.13400 32.47700
C  10.25700 5.83700 33.78600
H  11.20900 5.55500 35.00700
N  8.01800 5.53700 26.73600
C  7.29500 6.31800 27.58800
C  6.57600 7.32700 26.91300
C  6.98200 7.28400 25.58500
C  7.71900 6.01100 25.45200
C  5.55900 8.22000 27.49200
C  6.55100 8.11900 24.50000
O  6.85400 8.00100 23.31900
C  5.69300 9.33800 24.78000
N  9.60500 3.54600 25.03900
C  8.90600 4.14600 24.02900
C  9.08900 3.44100 22.69500
C  9.72700 2.11400 23.15900
C  10.00600 2.37400 24.57600
C  7.81500 3.38600 21.76300
C  10.87700 1.65200 22.19900
C  10.58200 0.40800 21.37800
N  10.26500 2.40600 27.54300
C  10.79200 1.42100 26.70800
C  11.52600 0.46100 27.56900
C  11.53900 1.04100 28.88300
C  10.71400 2.16800 28.79300
C  12.21500 -0.73200 27.20300
C  12.06000 0.79900 30.21000
O  12.77100 -0.04700 30.78600
C  11.42000 1.97600 31.06200
C  10.66500 1.25500 32.09700
O  9.63400 0.64000 31.74700
O  11.22600 1.50300 33.37500
C  10.41400 1.10100 34.46300
H  7.06100 7.07100 29.60300
H  7.71800 5.71000 23.28600
H  10.89000 0.52800 24.77800
H  9.06400 3.82400 32.49500
H  8.69800 6.56700 31.61700
H  6.90500 6.31500 32.86300
H  6.86000 4.52500 32.67100
H  6.13300 5.59300 31.47000
H  11.31600 5.70200 31.84000
H  11.25200 4.26900 32.72600
H  9.29400 5.40800 34.06200
H  10.18300 6.91300 33.63400
H  4.61600 8.08300 26.96400
H  5.86100 9.25900 27.35900
H  5.47000 7.93800 28.54100
H  5.77200 10.01800 23.93200
H  6.23700 9.98200 25.47100
H  4.65700 9.20400 25.09300
H  9.90400 4.01000 22.24800
H  8.89000 1.41500 23.15200
H  6.94600 3.77900 22.29000
H  7.77700 2.30000 21.67700
H  8.03200 3.83600 20.79500
H  11.74300 1.55400 22.85400
H  11.27100 2.41200 21.52500
H  11.23000 -0.44300 21.59100
H  10.84100 0.59200 20.33500
H  9.51600 0.18300 21.36800
H  11.89400 -1.60400 27.77400
H  13.29000 -0.56400 27.26300
H  11.95200 -1.12400 26.22000
H  12.26400 2.45900 31.55300
H  9.50300 0.63400 34.08800
H  10.23500 1.88300 35.20000
H  10.99000 0.31700 34.95400
Mg 48.59400 34.53500 26.93800
C  46.49000 33.15200 29.42400
C  48.88700 37.38300 28.83800
C  50.11400 36.06100 24.29000
C  47.90700 31.80800 24.91600
N  47.78900 35.25400 28.86400
C  47.08900 34.42300 29.77100
C  47.22800 34.90700 31.19100
C  47.50000 36.40100 30.99700
C  48.14600 36.37500 29.46700
C  46.22500 37.33400 31.16600
C  48.41200 34.19400 31.97800
C  48.40200 34.33800 33.51600
H  47.33700 35.26100 34.19300
N  49.42000 36.47900 26.60400
C  49.51600 37.48300 27.58100
C  50.13000 38.63000 26.99700
C  50.39400 38.31300 25.60100
C  49.91000 36.93100 25.40500
C  50.53600 39.81800 27.75200
C  51.10800 39.13900 24.49200
O  51.38500 38.59100 23.36200
C  51.54400 40.56000 24.70000
N  48.95400 33.99600 24.97100
C  49.66900 34.77100 24.12000
C  49.67700 34.07500 22.70700
C  49.41300 32.58100 23.01300
C  48.76600 32.76400 24.42000
C  48.82100 34.85900 21.74500
C  50.53100 31.54100 23.11900
C  51.67400 31.86300 24.14100
N  47.52400 32.78700 27.11900
C  47.33600 31.78400 26.17900
C  46.54100 30.74400 26.77600
C  46.11700 31.27400 27.95000
C  46.78600 32.45300 28.15800
C  46.26600 29.40800 26.20300
C  45.37900 30.98400 29.19800
O  44.76000 30.05700 29.59500
C  45.47700 32.25300 30.11100
C  45.72900 31.86000 31.49000
O  46.68900 31.26100 31.97000
O  44.70200 32.29400 32.25900
C  44.78800 31.84700 33.66300
H  48.86200 38.32400 29.39100
H  50.60500 36.44300 23.39300
H  47.74600 30.95100 24.25800
H  46.28700 34.69300 31.69800
H  48.29800 36.87400 31.56800
H  45.40200 36.83500 31.67700
H  45.85000 37.57500 30.17100
H  46.54800 38.20400 31.73800
H  49.34000 34.68800 31.69200
H  48.49700 33.14200 31.70300
H  49.37400 34.71800 33.82900
H  48.38400 33.38900 34.05100
H  51.32800 39.40300 28.37400
H  49.70200 39.94300 28.44300
H  50.66400 40.76400 27.22500
H  52.47300 40.57700 25.26900
H  50.77000 41.16000 25.17800
H  51.57300 41.02100 23.71200
H  50.68700 34.24100 22.33200
H  48.58900 32.14100 22.45200
H  48.13200 35.43000 22.36800
H  48.32800 34.16300 21.06600
H  49.44500 35.55300 21.18200
H  50.89200 31.42000 22.09800
H  50.10900 30.60300 23.48200
H  51.41500 31.43500 25.11000
H  51.69500 32.95100 24.20600
H  52.66300 31.55400 23.80600
H  45.42800 28.96400 26.74200
H  47.06600 28.69700 26.41000
H  45.96900 29.46700 25.15600
H  44.58200 32.86700 30.01000
H  45.78300 32.01000 34.07900
H  44.69700 30.76100 33.67500
H  43.95100 32.36300 34.13300

