158

Mg 54.00800 23.91300 45.16200
C  51.70000 26.17800 44.19300
C  52.31200 21.40500 43.65100
C  56.77800 21.99800 45.27400
C  55.96900 26.64800 46.35400
N  52.31700 23.81800 44.03100
C  51.53600 24.89300 43.63600
C  50.58400 24.43800 42.58900
C  50.42500 22.95100 42.96800
C  51.74200 22.68900 43.60900
C  49.24600 22.61100 43.96400
C  51.07300 24.75300 41.10900
C  49.91000 24.93600 40.20300
H  50.25500 25.26200 38.73800
N  54.46300 21.89700 44.68700
C  53.59200 21.01900 44.08500
C  54.14600 19.69900 43.99300
C  55.50900 19.91800 44.46100
C  55.62300 21.33600 44.86500
C  53.42600 18.45200 43.49700
C  56.55200 18.80300 44.63700
O  56.26000 17.62000 44.26000
C  57.88300 18.92100 45.23200
N  56.15900 24.31800 45.52600
C  57.02700 23.30000 45.58500
C  58.37400 23.87500 45.95400
C  58.13100 25.28400 46.50100
C  56.64100 25.45800 46.16200
C  59.26700 23.05400 46.90000
C  59.13500 26.42100 46.10700
C  59.78800 27.20000 47.19600
N  53.77300 25.95500 45.53600
C  54.61600 26.91000 46.03200
C  53.92900 28.16900 46.13800
C  52.74000 27.91600 45.40900
C  52.71600 26.55600 45.06400
C  54.41100 29.42100 46.73600
C  51.55600 28.52600 44.90100
O  51.11600 29.68700 44.96300
C  50.78600 27.36700 44.11000
C  50.57000 27.76100 42.71400
O  51.41300 28.29800 41.97300
O  49.22400 27.70500 42.42400
C  48.81300 28.47500 41.25800
H  51.72000 20.71200 43.05000
H  57.62100 21.30900 45.36000
H  56.36900 27.49400 46.91700
H  49.66200 24.99800 42.74300
H  50.30800 22.30500 42.09700
H  49.69800 22.53200 44.95200
H  48.84400 21.63000 43.70900
H  48.49900 23.40200 44.02500
H  51.57000 23.89500 40.65800
H  51.72100 25.63000 41.13500
H  49.36700 25.79700 40.59200
H  49.32400 24.02300 40.30700
H  54.00700 17.62300 43.09200
H  52.70500 18.66500 42.70900
H  52.84500 17.98300 44.29100
H  57.79800 19.19400 46.28400
H  58.52700 19.59600 44.66800
H  58.43200 17.98400 45.14100
H  58.98300 23.92100 45.05100
H  58.20000 25.30700 47.58900
H  59.43900 23.60900 47.82200
H  60.21900 22.80000 46.43300
H  58.91500 22.11800 47.33400
H  58.64500 27.17600 45.49200
H  59.91300 26.03700 45.44700
H  59.76000 28.26100 46.94600
H  60.79800 26.82800 47.36700
H  59.26400 27.22700 48.15100
H  54.34200 30.17600 45.95200
H  55.45500 29.38800 47.04800
H  53.70400 29.63000 47.53900
H  49.80900 27.22400 44.57200
H  47.91300 28.98800 41.59800
H  48.55600 27.97600 40.32400
H  49.55800 29.24700 41.06500
Mg 36.53200 49.28900 24.80600
C  36.48900 47.80500 27.88800
C  35.20000 52.12000 26.16200
C  36.47900 50.69100 21.75100
C  37.89500 46.36700 23.50300
N  35.88300 49.84100 26.78200
C  36.01200 49.12800 27.92600
C  35.73400 49.92000 29.18400
C  35.21400 51.27000 28.57100
C  35.45200 51.08400 27.10100
C  33.77500 51.64200 28.94900
C  36.93700 50.06500 30.14200
C  36.74800 49.77900 31.71200
H  35.42900 50.24400 32.31500
N  35.92000 51.11500 24.06300
C  35.45300 52.14500 24.76800
C  35.08900 53.22000 23.84900
C  35.31100 52.80800 22.57100
C  35.98800 51.47100 22.75200
C  34.67500 54.55400 24.48600
C  35.11500 53.47500 21.31500
O  35.24800 53.00000 20.21100
C  34.49100 54.98600 21.28400
N  36.88500 48.43300 22.88000
C  36.75900 49.25800 21.78100
C  37.37600 48.57800 20.59000
C  38.20900 47.43700 21.23600
C  37.59500 47.39400 22.64800
C  36.40600 48.32600 19.38900
C  39.64500 47.72000 21.37000
C  40.57900 46.66500 20.72800
N  37.14400 47.39000 25.54500
C  37.59200 46.26900 24.89300
C  37.70100 45.17500 25.82600
C  37.18300 45.78200 26.99700
C  36.88900 47.11300 26.74700
C  38.28500 43.81800 25.54100
C  36.88400 45.44300 28.32100
O  37.09500 44.41000 28.98600
C  36.43500 46.76800 29.00100
C  35.13500 46.49400 29.59500
O  34.09600 46.51900 29.00400
O  35.22000 46.25500 30.93200
C  33.95700 45.92500 31.60700
H  34.53800 52.95700 26.39600
H  36.46500 51.15200 20.76100
H  38.45500 45.56100 23.02300
H  34.86300 49.44500 29.63500
H  35.84100 52.12800 28.81500
H  33.42400 51.04200 29.78800
H  33.14600 51.59400 28.06000
H  33.84400 52.61600 29.43300
H  37.30000 51.08100 29.98700
H  37.79900 49.48100 29.81900
H  37.64100 50.20000 32.17400
H  36.76400 48.70000 31.86500
H  33.66000 54.46800 24.87600
H  34.57900 55.44500 23.86600
H  35.46800 54.80700 25.19000
H  33.55400 54.87700 21.83000
H  34.26700 55.27500 20.25700
H  35.13600 55.72700 21.75700
H  38.03900 49.32200 20.14900
H  37.98700 46.46500 20.79600
H  35.39400 48.70400 19.53700
H  36.18900 47.26800 19.24300
H  36.81700 48.63300 18.42800
H  40.07800 47.80900 22.36600
H  39.87100 48.66300 20.87300
H  40.08800 45.93100 20.08900
H  41.17100 46.20000 21.51700
H  41.27400 47.22300 20.10100
H  37.78700 43.10000 26.19200
H  39.35100 43.71100 25.74100
H  38.03200 43.63300 24.49700
H  37.14300 47.02700 29.78800
H  33.41300 46.86200 31.72200
H  34.07600 45.38400 32.54600
H  33.24600 45.25500 31.12200

