158

Mg -2.13700 17.17300 26.43300
C  -2.77300 15.16800 29.21800
C  -2.40900 20.03800 28.68500
C  -1.99500 19.28800 23.83400
C  -2.21000 14.54300 24.46500
N  -2.84000 17.53700 28.64000
C  -2.74100 16.57000 29.57500
C  -2.55700 17.15300 30.96800
C  -2.74100 18.66500 30.86000
C  -2.61200 18.81700 29.29800
C  -3.96000 19.20800 31.52000
C  -1.18700 16.85400 31.63200
C  -0.90500 17.62400 32.95200
H  -0.70600 16.69800 34.20200
N  -2.21100 19.35500 26.27100
C  -2.37800 20.35300 27.29200
C  -2.48300 21.63000 26.64800
C  -2.21800 21.49800 25.26100
C  -2.07300 20.01500 25.02800
C  -2.66400 22.86100 27.55000
C  -2.12500 22.58600 24.22300
O  -1.93300 22.38000 23.04700
C  -2.21300 24.02300 24.66400
N  -2.04800 16.96800 24.45600
C  -2.08000 17.93600 23.54600
C  -2.19300 17.41400 22.12800
C  -1.94900 15.90900 22.34800
C  -2.12200 15.75300 23.85500
C  -3.45700 17.90600 21.40700
C  -0.53300 15.36100 21.85200
C  -0.45500 14.39200 20.67500
N  -2.40500 15.22900 26.74100
C  -2.39500 14.23000 25.77300
C  -2.45000 12.95400 26.44600
C  -2.59800 13.24100 27.83600
C  -2.57900 14.65900 27.90500
C  -2.53200 11.60600 25.75600
C  -2.72600 12.64700 29.16300
O  -2.87800 11.47400 29.52000
C  -2.79100 13.92400 30.12900
C  -1.53100 13.64000 30.86000
O  -0.39800 13.97200 30.39900
O  -1.72500 13.00100 31.97200
C  -0.51500 12.86300 32.79800
H  -2.40000 20.80900 29.45800
H  -2.09600 19.93800 22.96200
H  -2.06800 13.63300 23.87800
H  -3.34100 16.68800 31.56500
H  -1.89400 19.25000 31.21900
H  -3.63900 20.19300 31.86000
H  -4.33900 18.58200 32.32800
H  -4.73600 19.42800 30.78700
H  -0.41200 17.05300 30.89100
H  -1.28900 15.78200 31.79600
H  -1.57000 18.39100 33.34900
H  0.03700 18.15600 32.82100
H  -3.36100 23.54200 27.06200
H  -1.72400 23.29100 27.89700
H  -3.09400 22.55800 28.50500
H  -3.19600 24.31300 25.03500
H  -2.08200 24.67800 23.80200
H  -1.46700 24.19000 25.44000
H  -1.30200 17.79200 21.62500
H  -2.80600 15.42500 21.87800
H  -3.23000 18.07200 20.35400
H  -3.75300 18.88000 21.79700
H  -4.22900 17.13700 21.45000
H  0.02700 14.93600 22.68500
H  0.07000 16.17200 21.44300
H  -0.05600 13.46500 21.08700
H  0.10100 14.92800 19.90600
H  -1.51200 14.27900 20.43400
H  -1.79900 10.96200 26.24200
H  -2.51000 11.58000 24.66600
H  -3.49000 11.16100 26.02700
H  -3.58900 13.88100 30.87100
H  -0.83700 12.77700 33.83600
H  0.13900 13.73200 32.86100
H  -0.02500 11.90300 32.63400
Mg 27.24600 50.47500 26.19800
C  25.25200 51.37800 28.98000
C  29.56200 49.44700 28.63000
C  29.39000 50.05600 23.74700
C  24.82700 51.45100 24.07800
N  27.38100 50.42300 28.54800
C  26.46500 50.86600 29.44900
C  26.84000 50.64400 30.95100
C  28.35100 50.39000 30.73800
C  28.40800 49.96200 29.22900
C  29.44700 51.54000 31.01600
C  26.06800 49.38900 31.57500
C  25.00200 49.75700 32.64500
H  25.33400 49.24200 34.08300
N  29.10400 49.62500 26.13200
C  29.91400 49.27200 27.27100
C  31.21000 48.86700 26.81100
C  31.17000 49.04600 25.35100
C  29.90300 49.60500 25.00500
C  32.36800 48.35700 27.74400
C  32.28400 48.74600 24.38300
O  32.12100 48.94200 23.17200
C  33.73100 48.28000 24.75900
N  27.19000 50.81300 24.24900
C  28.15900 50.52900 23.35100
C  27.77900 50.93700 21.85600
C  26.19800 50.96600 22.07900
C  26.05000 51.11500 23.59200
C  28.36900 52.22900 21.26100
C  25.39700 49.68100 21.63500
C  24.10000 50.01200 20.94600
N  25.37900 51.26300 26.39700
C  24.47200 51.58100 25.43100
C  23.35300 52.20200 26.11400
C  23.61600 52.11400 27.48300
C  24.87200 51.56100 27.64000
C  22.26400 52.99600 25.45600
C  23.14000 52.49300 28.71800
O  22.02800 53.01000 29.03500
C  24.05400 51.88000 29.73400
C  24.41000 52.91900 30.77900
O  25.34600 53.68700 30.77300
O  23.31800 52.96000 31.66700
C  23.49800 54.07400 32.63600
H  30.35400 49.18100 29.33300
H  30.02400 49.92600 22.86800
H  24.03100 51.74000 23.38800
H  26.76700 51.57000 31.52200
H  28.74500 49.52500 31.27000
H  30.21200 51.16800 31.69700
H  29.06100 52.48400 31.40100
H  29.92500 51.91600 30.11100
H  26.70000 48.61100 32.00200
H  25.43100 48.97800 30.79300
H  24.07200 49.30600 32.29800
H  24.82500 50.83200 32.67700
H  32.19500 48.29000 28.81800
H  33.30900 48.90100 27.65700
H  32.66500 47.35100 27.44900
H  34.25600 48.84200 25.53100
H  34.26900 48.33300 23.81200
H  33.87600 47.23800 25.04500
H  27.95700 50.15400 21.12000
H  25.83100 51.84400 21.54600
H  29.13400 52.52500 21.97900
H  27.60100 53.00000 21.19700
H  28.83100 52.03400 20.29300
H  25.16800 49.02800 22.47700
H  26.01000 48.96900 21.08300
H  23.95000 49.60300 19.94600
H  23.97100 51.08100 20.77400
H  23.24700 49.78200 21.58400
H  21.22900 52.83200 25.75600
H  22.20500 52.85500 24.37700
H  22.58000 54.00800 25.70900
H  23.59700 51.02500 30.23200
H  23.61400 54.93600 31.97800
H  24.39300 53.81800 33.20300
H  22.60300 54.08900 33.25700

