158

Mg 24.40100 -5.30100 46.30200
C  26.51700 -2.98200 44.36800
C  21.81800 -4.49200 44.28700
C  23.03700 -8.15400 47.28700
C  27.47700 -6.28000 47.88600
N  24.27400 -4.09000 44.43100
C  25.16800 -3.07800 44.00800
C  24.53100 -2.34900 42.85800
C  23.02200 -2.47000 43.21000
C  22.99800 -3.73100 44.00800
C  22.37800 -1.28400 44.06300
C  24.93100 -2.82600 41.39500
C  25.57800 -1.72200 40.49100
H  25.43000 -1.83800 38.96500
N  22.59400 -6.07400 45.99300
C  21.62700 -5.62200 45.09900
C  20.52500 -6.58900 45.08100
C  20.82800 -7.61700 46.03700
C  22.17800 -7.30500 46.51000
C  19.41000 -6.59200 44.04500
C  19.98800 -8.84800 46.33300
O  18.87800 -8.97100 45.79100
C  20.35700 -9.91600 47.25900
N  25.17400 -6.96300 47.45900
C  24.36800 -7.99300 47.72600
C  24.98700 -8.94600 48.75600
C  26.33600 -8.22000 49.17000
C  26.33500 -7.07900 48.12300
C  24.05200 -9.53500 49.88000
C  27.58500 -9.20900 49.11200
C  28.58000 -9.08000 50.25700
N  26.53600 -4.67500 46.37200
C  27.57600 -5.17600 47.06800
C  28.77800 -4.36600 46.79700
C  28.38400 -3.53400 45.77400
C  27.05000 -3.77400 45.50900
C  30.13200 -4.56800 47.49900
C  28.74600 -2.41600 44.91100
O  29.76600 -1.78200 44.90500
C  27.64300 -2.11900 43.83900
C  27.39200 -0.67100 43.99800
O  27.17800 -0.03400 45.04000
O  27.49200 -0.07100 42.73600
C  27.27500 1.40900 42.74200
H  20.96700 -4.09400 43.72900
H  22.70000 -9.16200 47.53900
H  28.29700 -6.39200 48.59900
H  24.67000 -1.26800 42.84700
H  22.41700 -2.51200 42.30400
H  23.10400 -0.53200 44.36900
H  21.78700 -1.62800 44.91200
H  21.62900 -0.79400 43.44100
H  24.20700 -3.42300 40.84200
H  25.69100 -3.55100 41.68700
H  26.65100 -1.65800 40.67400
H  25.10900 -0.85200 40.95000
H  19.60100 -7.24900 43.19700
H  19.25100 -5.57300 43.69000
H  18.50100 -7.00300 44.48400
H  19.58800 -10.68700 47.29900
H  20.49800 -9.48900 48.25200
H  21.22700 -10.42300 46.84100
H  25.25300 -9.83800 48.18900
H  26.26500 -7.69200 50.12100
H  24.56600 -9.55100 50.84100
H  23.92300 -10.60600 49.72100
H  23.12600 -8.96100 49.92800
H  28.10100 -9.18000 48.15200
H  27.05000 -10.15500 49.20300
H  28.33300 -9.85800 50.97900
H  28.53200 -8.09600 50.72200
H  29.60000 -9.30600 49.94500
H  30.21000 -4.11200 48.48600
H  30.93200 -4.13700 46.89700
H  30.24800 -5.64500 47.61400
H  28.05300 -2.38800 42.86600
H  26.46100 1.58900 43.44400
H  27.04500 1.77800 41.74200
H  28.21500 1.88900 43.01200
Mg 50.06900 46.42900 43.80800
C  46.99800 47.42500 42.41400
C  49.61600 43.43800 41.92200
C  53.37000 45.78400 44.00000
C  50.45900 49.67800 44.83000
N  48.41100 45.50400 42.45800
C  47.30500 46.12200 42.01500
C  46.47700 45.24500 41.01400
C  47.16000 43.83700 41.28500
C  48.45800 44.20200 42.02200
C  46.26100 42.71500 41.97300
C  46.64100 45.93400 39.61700
C  45.25000 46.12900 38.89000
H  45.01100 44.94200 37.89100
N  51.26300 44.75400 43.24700
C  50.95500 43.65300 42.40500
C  52.03500 42.72000 42.44300
C  53.13700 43.44200 42.96300
C  52.62600 44.74400 43.40300
C  52.02500 41.34100 41.80500
C  54.55300 42.90800 43.05400
O  54.78200 41.80800 42.61300
C  55.68900 43.64400 43.58700
N  51.69600 47.54000 44.33300
C  52.95200 47.04600 44.38800
C  53.90800 48.11600 44.96700
C  52.93800 49.32900 45.32900
C  51.61500 48.87700 44.82000
C  54.72500 47.68800 46.13600
C  53.34600 50.67300 44.59200
C  53.32500 51.83000 45.48000
N  48.96200 48.20500 43.90300
C  49.18500 49.45600 44.37100
C  48.02500 50.33400 44.19700
C  47.11400 49.51000 43.52700
C  47.78300 48.26400 43.30100
C  47.83100 51.78000 44.58900
C  45.83400 49.50400 42.76900
O  44.93600 50.34700 42.66400
C  45.68900 48.15900 42.10100
C  44.46200 47.51900 42.60000
O  44.37400 46.81300 43.55300
O  43.51300 47.72900 41.68000
C  42.25000 46.95900 41.95700
H  49.40700 42.65400 41.19100
H  54.44300 45.63400 44.13800
H  50.66000 50.69200 45.18200
H  45.42900 45.30200 41.30700
H  47.47100 43.48400 40.30100
H  46.80100 42.40500 42.86800
H  46.04700 41.85400 41.34000
H  45.32200 43.21800 42.20600
H  47.26100 45.25400 39.03400
H  47.28100 46.81600 39.65800
H  45.24700 47.14000 38.48300
H  44.43600 46.04100 39.60900
H  51.01000 41.07700 41.50900
H  52.37400 40.57400 42.49600
H  52.65800 41.33700 40.91800
H  56.63700 43.10700 43.56200
H  55.47600 43.98200 44.60100
H  55.72900 44.54900 42.98200
H  54.55600 48.29000 44.10800
H  52.72600 49.52600 46.38000
H  54.52900 48.09100 47.12900
H  55.76000 47.95900 45.92600
H  54.80500 46.60100 46.11500
H  52.66400 50.93100 43.78200
H  54.34600 50.58100 44.16900
H  53.15300 51.58500 46.52700
H  52.52100 52.53700 45.27400
H  54.23100 52.42400 45.35900
H  46.77300 52.04100 44.54300
H  48.46800 52.27700 43.85700
H  48.12000 52.07700 45.59700
H  45.71000 48.25400 41.01600
H  41.63300 46.96300 41.05900
H  41.71400 47.42700 42.78200
H  42.48200 45.91400 42.16200

