158

Mg 54.59300 24.96900 45.44400
C  52.03200 26.84600 43.88700
C  53.37800 22.14900 43.91300
C  57.73500 23.53400 45.60900
C  55.99500 28.05600 46.38000
N  53.01900 24.59200 43.95100
C  52.04000 25.49300 43.50800
C  51.02900 24.71900 42.62500
C  51.21500 23.29300 43.09800
C  52.64300 23.33100 43.66400
C  50.13700 22.75000 44.17600
C  51.41700 24.94800 41.12500
C  50.32100 25.07600 40.01500
H  50.79800 25.80700 38.79500
N  55.34400 23.03900 45.15500
C  54.67600 21.99100 44.52800
C  55.38300 20.81500 44.59000
C  56.74600 21.21200 44.91900
C  56.65900 22.62700 45.27400
C  54.90500 19.51100 44.13700
C  57.97900 20.23300 44.68200
O  57.74800 19.03400 44.34000
C  59.43400 20.69800 44.89000
N  56.64100 25.74600 45.68200
C  57.74000 24.93500 45.73300
C  58.99000 25.79300 46.18200
C  58.34600 27.15600 46.69000
C  56.91500 27.03100 46.14300
C  59.89200 25.13400 47.34100
C  59.21800 28.35000 46.23900
C  59.41100 29.46900 47.32800
N  54.11400 27.00700 45.27500
C  54.71300 28.10800 45.86100
C  53.84900 29.24000 45.75000
C  52.73700 28.77500 45.06800
C  53.07900 27.49700 44.67200
C  54.14000 30.60200 46.27200
C  51.40300 29.18100 44.57800
O  50.77000 30.19300 44.79100
C  50.97100 27.92000 43.76300
C  50.57000 28.39200 42.42400
O  51.37500 28.65800 41.57200
O  49.18800 28.29600 42.23600
C  48.74500 28.46400 40.88900
H  52.88000 21.25100 43.54100
H  58.73900 23.10500 45.61800
H  56.37000 28.99000 46.80400
H  49.99900 25.04800 42.77000
H  51.19800 22.54200 42.30800
H  49.46500 22.02100 43.72300
H  49.44300 23.57700 44.32700
H  50.54800 22.36200 45.10800
H  51.93400 24.03800 40.82100
H  52.18100 25.72500 41.14200
H  49.37200 25.53200 40.29900
H  49.96200 24.11600 39.64200
H  55.11100 19.20600 43.11100
H  53.83000 19.34400 44.21400
H  55.41900 18.73500 44.70500
H  59.64100 20.97100 45.92500
H  59.47700 21.63400 44.33400
H  60.13700 20.09200 44.31900
H  59.61400 25.95600 45.30300
H  58.27400 27.18400 47.77700
H  59.16400 24.56500 47.91900
H  60.33800 25.92200 47.94800
H  60.72600 24.57000 46.92300
H  58.66600 28.79300 45.41100
H  60.23500 28.03300 46.00600
H  58.84100 30.39100 47.20700
H  60.44100 29.79300 47.18300
H  59.13800 29.12200 48.32400
H  54.39600 31.23500 45.42200
H  54.96700 30.72100 46.97200
H  53.21700 31.03100 46.66100
H  50.01900 27.67100 44.23300
H  47.76500 27.98900 40.86200
H  49.38200 27.84600 40.25500
H  48.72500 29.50900 40.58100
Mg -12.70900 39.44800 42.31700
C  -11.35400 36.37200 41.33800
C  -10.05700 41.08000 40.53200
C  -14.41600 42.37400 42.31000
C  -15.63700 37.83100 43.36800
N  -11.08500 38.78100 40.87600
C  -10.61700 37.44400 40.77600
C  -9.34200 37.35700 40.02100
C  -8.80500 38.80700 40.03500
C  -10.05100 39.64000 40.48200
C  -7.45400 38.92200 40.88100
C  -9.33400 36.73500 38.59500
C  -8.11200 35.92400 38.20400
H  -7.21700 36.53100 37.11200
N  -12.29600 41.43200 41.61300
C  -11.10700 41.89800 41.00000
C  -11.17100 43.31300 40.82400
C  -12.53300 43.66500 41.06600
C  -13.16900 42.47900 41.69700
C  -10.05000 44.07300 40.30000
C  -13.21300 45.02600 40.80400
O  -12.65800 45.91500 40.29000
C  -14.66400 45.20600 41.06700
N  -14.68600 40.03400 42.94300
C  -15.12200 41.29700 42.88900
C  -16.61700 41.41600 43.35200
C  -16.89700 39.98200 43.85900
C  -15.70600 39.21300 43.29300
C  -16.95700 42.49000 44.34500
C  -18.28500 39.47100 43.29700
C  -19.14100 38.50800 44.19200
N  -13.34800 37.51700 42.57000
C  -14.56300 37.03200 42.95000
C  -14.44200 35.56400 42.90100
C  -13.17400 35.30200 42.28200
C  -12.59100 36.50600 42.03600
C  -15.45300 34.61200 43.38400
C  -12.30200 34.28100 41.84800
O  -12.36400 33.06700 41.90100
C  -11.06300 34.91900 41.21700
C  -9.83600 34.53700 42.03300
O  -9.60500 34.90700 43.15800
O  -9.05000 33.70300 41.30900
C  -7.70800 33.43100 41.78600
H  -9.12600 41.57400 40.24800
H  -15.02400 43.27000 42.44700
H  -16.45300 37.36300 43.92200
H  -8.72000 36.61100 40.51600
H  -8.53900 39.22600 39.06500
H  -6.91100 37.98400 40.76400
H  -7.70400 39.08200 41.93000
H  -6.86100 39.77400 40.55000
H  -9.36400 37.54100 37.86200
H  -10.23900 36.16600 38.38300
H  -8.54400 34.95500 37.95100
H  -7.50400 35.69900 39.08000
H  -10.18000 44.34700 39.25300
H  -9.10900 43.56600 40.51700
H  -10.05100 45.06300 40.75600
H  -15.14700 44.30300 40.69400
H  -15.07500 46.06500 40.53700
H  -14.84600 45.39600 42.12500
H  -17.27000 41.61500 42.50200
H  -16.85700 39.88400 44.94400
H  -17.55000 43.20400 43.77400
H  -16.04900 42.99800 44.67200
H  -17.45500 42.03900 45.20400
H  -18.27800 38.95600 42.33600
H  -18.92300 40.33200 43.09500
H  -20.14400 38.60800 43.77700
H  -19.12000 38.83900 45.23000
H  -18.84900 37.45700 44.18400
H  -16.42000 35.01400 43.08200
H  -15.34800 34.65300 44.46800
H  -15.25500 33.60200 43.02700
H  -11.01400 34.52100 40.20300
H  -7.47100 32.37700 41.64600
H  -7.54300 33.59100 42.85200
H  -7.04500 34.08200 41.21600

