158

Mg 24.92900 -8.04100 46.76900
C  27.26600 -5.53700 45.80900
C  22.50700 -6.35600 44.89600
C  22.91500 -10.65700 47.24900
C  27.67000 -9.85100 48.20700
N  24.94400 -6.21300 45.38700
C  25.93900 -5.29100 45.26100
C  25.51600 -4.09700 44.40500
C  23.90200 -4.10100 44.59000
C  23.78700 -5.66500 44.91200
C  23.29100 -3.16900 45.63200
C  25.99600 -4.31700 42.96400
C  25.80100 -3.16000 42.00000
H  26.29300 -3.38300 40.59600
N  23.01800 -8.51600 46.03100
C  22.17900 -7.66900 45.36400
C  20.85900 -8.32400 45.27500
C  20.97200 -9.54800 46.00000
C  22.32200 -9.63100 46.46300
C  19.69200 -7.74900 44.51800
C  19.80800 -10.62200 46.19500
O  18.68200 -10.45700 45.71400
C  20.00000 -11.89400 46.98300
N  25.30500 -9.94400 47.51400
C  24.23500 -10.84800 47.65100
C  24.68700 -11.99900 48.48800
C  26.31900 -11.80400 48.47100
C  26.44600 -10.40700 48.11300
C  24.11500 -11.85600 49.87200
C  27.19800 -12.74300 47.54700
C  27.86500 -13.98700 48.26100
N  26.96500 -7.65900 47.20700
C  27.91200 -8.48200 47.75800
C  29.16100 -7.77200 47.82400
C  28.93100 -6.60000 47.05300
C  27.60800 -6.65000 46.63300
C  30.39800 -8.16300 48.49300
C  29.59300 -5.36300 46.64900
O  30.70900 -4.86400 46.89300
C  28.53400 -4.67800 45.78000
C  28.37100 -3.20300 46.22300
O  28.89600 -2.22000 45.69300
O  27.40400 -3.06500 47.27600
C  27.09900 -1.67600 47.68200
H  21.72900 -5.66600 44.56400
H  22.31900 -11.50400 47.59500
H  28.51800 -10.41300 48.60300
H  25.93000 -3.21900 44.90000
H  23.42100 -3.96800 43.62100
H  23.77800 -2.19900 45.53200
H  23.53700 -3.52600 46.63200
H  22.21700 -2.98300 45.65200
H  25.56300 -5.18500 42.46700
H  27.07200 -4.39600 43.11600
H  26.39900 -2.37000 42.45400
H  24.77600 -2.81000 41.87700
H  19.72200 -6.66000 44.48200
H  18.73300 -7.94600 44.99700
H  19.64000 -8.25600 43.55400
H  20.32000 -11.62500 47.99000
H  20.77000 -12.48500 46.48700
H  19.04400 -12.41100 47.07100
H  24.28000 -12.94900 48.14200
H  26.72200 -11.97400 49.46900
H  23.06300 -12.13900 49.91400
H  24.03600 -10.78900 50.07700
H  24.76800 -12.24600 50.65400
H  28.00200 -12.15200 47.10700
H  26.60300 -13.09500 46.70400
H  27.76800 -13.88900 49.34300
H  28.91000 -14.15100 47.99900
H  27.23200 -14.79000 47.88300
H  31.12000 -8.64900 47.83700
H  30.16000 -8.76200 49.37100
H  30.87700 -7.24000 48.82000
H  28.86100 -4.62700 44.74200
H  26.72900 -1.07600 46.85000
H  27.99700 -1.22900 48.10800
H  26.32800 -1.93600 48.40800
Mg 26.24900 -0.09300 29.40300
C  28.12900 -0.61500 32.30800
C  23.51500 0.18700 31.31800
C  24.55400 0.06400 26.58300
C  29.20100 -0.88400 27.53300
N  25.85300 -0.47400 31.59700
C  26.84000 -0.35100 32.60400
C  26.23400 -0.23400 33.91400
C  24.70100 -0.04800 33.59000
C  24.63700 -0.08300 32.08300
C  23.68800 -1.04800 34.33400
C  26.96200 0.66400 34.97300
C  26.26500 1.04700 36.26500
H  26.57600 0.23500 37.51400
N  24.24300 0.10700 29.01400
C  23.28300 0.18300 29.93600
C  22.05600 0.45800 29.25800
C  22.24900 0.29300 27.84500
C  23.71000 0.12300 27.68300
C  20.76200 0.75200 30.06300
C  21.27800 0.24900 26.67100
O  21.52900 0.03300 25.49200
C  19.96700 0.56300 27.04600
N  26.82600 -0.35200 27.34400
C  25.89300 -0.18400 26.34100
C  26.52900 -0.16100 24.91200
C  28.05500 -0.18900 25.31300
C  28.07000 -0.49100 26.83000
C  26.11900 -1.30700 23.96600
C  28.93100 0.96500 24.97200
C  30.41700 0.73000 24.80700
N  28.33000 -0.66800 29.79400
C  29.35700 -0.98500 28.92700
C  30.51200 -1.28000 29.66200
C  30.10700 -1.04900 30.97200
C  28.75100 -0.71700 31.04800
C  31.77700 -1.74900 29.14500
C  30.57700 -1.11500 32.35500
O  31.73400 -1.30800 32.77800
C  29.32000 -0.77300 33.25100
C  29.21300 -1.83000 34.26900
O  28.60900 -2.91300 34.04000
O  29.83400 -1.51800 35.48200
C  29.75000 -2.49200 36.53500
H  22.62900 0.35300 31.93400
H  24.02000 0.09400 25.63000
H  30.05600 -0.93500 26.85500
H  26.35200 -1.21500 34.37300
H  24.31000 0.93600 33.84800
H  22.92100 -1.37500 33.63200
H  23.25800 -0.52100 35.18600
H  24.17400 -1.86600 34.86600
H  27.41300 1.58300 34.59900
H  27.87100 0.14400 35.27700
H  25.18100 1.11300 36.16600
H  26.48700 2.10300 36.41900
H  20.25500 1.55800 29.53200
H  21.04300 1.14700 31.03900
H  20.03500 -0.05800 30.12200
H  19.36500 0.53700 26.13800
H  19.87000 1.62000 27.29400
H  19.50400 -0.08100 27.79300
H  26.27800 0.81300 24.49000
H  28.52600 -1.08100 24.90000
H  25.41400 -1.95700 24.48500
H  26.95900 -1.83400 23.51400
H  25.49900 -0.93900 23.14900
H  28.95400 1.77400 25.70200
H  28.65700 1.51200 24.06900
H  30.62800 1.13000 23.81600
H  30.67100 -0.33000 24.76500
H  31.04200 1.15300 25.59300
H  32.26200 -2.17200 30.02400
H  32.42800 -1.09800 28.56100
H  31.43500 -2.53400 28.47000
H  29.60200 0.17300 33.71500
H  29.79200 -3.52400 36.18400
H  28.74900 -2.38400 36.95400
H  30.44500 -2.45700 37.37400

