158

Mg -1.72400 17.30500 26.77000
C  -2.62600 14.99600 29.31600
C  -2.17300 19.75500 29.03200
C  -1.55700 19.49500 24.15700
C  -1.84300 14.68300 24.53600
N  -2.25400 17.29200 28.96200
C  -2.54900 16.27700 29.78900
C  -2.67100 16.83500 31.27500
C  -2.88200 18.34000 30.99100
C  -2.32400 18.49900 29.58100
C  -4.25500 19.09000 31.22300
C  -1.48500 16.46500 32.13600
C  -1.17700 17.27000 33.46800
H  -0.66200 16.58200 34.76300
N  -1.65400 19.34200 26.62100
C  -1.82400 20.16900 27.70400
C  -1.63700 21.52800 27.25400
C  -1.36000 21.51600 25.86300
C  -1.56100 20.02800 25.47800
C  -1.65600 22.70800 28.14600
C  -0.95500 22.54800 24.80500
O  -0.90700 22.32700 23.56000
C  -0.57200 23.96800 25.19600
N  -2.06500 17.12100 24.64700
C  -1.80700 18.15800 23.80400
C  -1.75400 17.79500 22.36900
C  -1.55600 16.17900 22.49000
C  -1.80000 15.96100 23.99600
C  -3.03300 18.19800 21.53200
C  -0.13600 15.71300 22.01700
C  1.03100 16.57000 22.55400
N  -2.22500 15.20600 26.79300
C  -2.19700 14.28700 25.86200
C  -2.64900 13.02700 26.39500
C  -2.76500 13.20900 27.77100
C  -2.56400 14.59600 27.97800
C  -2.75800 11.71100 25.59000
C  -2.93300 12.56100 29.04000
O  -3.06600 11.36000 29.23500
C  -2.88800 13.73000 30.07200
C  -1.81900 13.46300 31.14600
O  -0.59100 13.64900 30.95000
O  -2.37200 13.01900 32.36000
C  -1.42200 12.50000 33.38900
H  -2.39200 20.53900 29.76000
H  -1.50200 20.11500 23.26000
H  -1.73800 13.85000 23.83800
H  -3.53800 16.35000 31.72300
H  -2.33400 18.89200 31.75500
H  -4.86400 18.20400 31.40100
H  -4.41700 19.64900 30.30100
H  -4.35000 19.78400 32.05900
H  -0.59700 16.38100 31.50900
H  -1.67900 15.52100 32.64500
H  -1.97200 17.98300 33.68500
H  -0.27700 17.85700 33.28000
H  -0.75000 23.28300 28.33700
H  -2.23700 22.47200 29.03800
H  -2.26400 23.44100 27.61500
H  0.43800 23.99700 25.60500
H  -1.33800 24.35300 25.87000
H  -0.66800 24.54900 24.27800
H  -0.83900 18.21000 21.94600
H  -2.35100 15.60100 22.01900
H  -3.91000 18.54900 22.07600
H  -3.38100 17.30100 21.01900
H  -2.78900 19.00400 20.84000
H  -0.17600 15.85800 20.93700
H  0.08200 14.64500 22.05500
H  1.29900 17.22400 21.72400
H  1.85700 15.91300 22.82600
H  0.76100 17.21500 23.38900
H  -1.73800 11.34600 25.47000
H  -3.26600 11.77500 24.62700
H  -3.30200 11.02100 26.23500
H  -3.86300 13.70100 30.56000
H  -1.85200 11.61600 33.85900
H  -1.17100 13.20700 34.18100
H  -0.49100 12.09200 32.99400
Mg 1.64800 -1.99300 45.28200
C  5.12200 -1.02100 45.22600
C  1.01600 0.84100 43.41500
C  -1.50700 -2.95200 45.19100
C  2.63800 -4.98000 46.51900
N  2.97400 -0.23700 44.51300
C  4.31400 -0.12300 44.52200
C  4.79100 1.10300 43.69200
C  3.44600 1.94500 43.55200
C  2.41200 0.80400 43.78000
C  3.23100 3.25800 44.42600
C  5.41900 0.71200 42.34800
C  6.38300 1.74600 41.80200
H  6.24500 2.04800 40.32500
N  -0.04800 -1.13400 44.40400
C  -0.06800 -0.00400 43.60200
C  -1.38300 0.22000 43.18400
C  -2.19500 -0.76400 43.84600
C  -1.24100 -1.68300 44.58400
C  -1.80100 1.34900 42.27300
C  -3.72000 -0.90300 43.70200
O  -4.31100 -0.13600 42.95700
C  -4.62000 -1.82400 44.57900
N  0.73400 -3.76000 45.80800
C  -0.63200 -3.91300 45.67500
C  -1.05700 -5.34400 46.09900
C  0.27300 -5.93500 46.58900
C  1.27800 -4.83700 46.27200
C  -2.30900 -5.40400 47.06500
C  0.66200 -7.35300 45.93300
C  0.93100 -8.50700 46.93800
N  3.51200 -2.92500 45.79900
C  3.72200 -4.08300 46.40100
C  5.16300 -4.21100 46.65700
C  5.80600 -3.05300 46.24300
C  4.69000 -2.27700 45.66800
C  5.81600 -5.41800 47.30000
C  7.02600 -2.28100 46.06400
O  8.18700 -2.57300 46.30100
C  6.63600 -0.95900 45.44200
C  6.93400 0.08800 46.49300
O  6.80300 -0.04700 47.69800
O  7.31200 1.25100 45.90100
C  7.80600 2.29000 46.80700
H  0.79900 1.79000 42.91900
H  -2.54300 -3.23400 45.38800
H  2.95000 -5.96000 46.88400
H  5.50400 1.64900 44.31000
H  3.30200 2.31700 42.53800
H  4.20200 3.56500 44.81500
H  2.46900 3.13700 45.19600
H  2.98200 4.11500 43.80100
H  4.55900 0.38700 41.76200
H  5.96200 -0.22100 42.49600
H  7.42800 1.59100 42.07300
H  6.14500 2.66300 42.34100
H  -0.98100 2.02500 42.03100
H  -2.53900 1.89900 42.85800
H  -2.36300 1.00600 41.40400
H  -4.14800 -1.87500 45.56000
H  -4.72000 -2.74400 44.00200
H  -5.67400 -1.55200 44.52900
H  -1.40500 -5.85000 45.19800
H  0.27300 -6.08000 47.66900
H  -1.99000 -5.83100 48.01600
H  -3.02600 -6.12200 46.66500
H  -2.88700 -4.49800 47.24900
H  1.50700 -7.23200 45.25400
H  -0.31500 -7.62800 45.53500
H  0.61000 -8.26800 47.95200
H  1.99200 -8.74000 47.02400
H  0.31800 -9.38300 46.72300
H  5.32700 -6.35900 47.04600
H  6.08700 -5.30500 48.35000
H  6.70400 -5.49400 46.67400
H  7.20400 -0.97500 44.51100
H  8.85800 2.55200 46.69700
H  7.65700 2.22400 47.88500
H  7.33900 3.20600 46.44500

