158

Mg 47.10800 24.24200 27.78400
C  47.97700 26.44500 30.34800
C  46.15300 22.06500 30.11600
C  46.56300 22.16200 25.34700
C  48.10000 26.65000 25.46800
N  47.09000 24.28800 29.96600
C  47.42000 25.27800 30.84600
C  47.26900 24.85100 32.35400
C  46.55300 23.45200 32.20900
C  46.58800 23.30600 30.67200
C  47.41100 22.44000 32.99700
C  46.46500 25.87400 33.26300
C  45.89300 25.31000 34.57500
H  46.50600 26.07900 35.78500
N  46.46300 22.35600 27.74700
C  46.09000 21.59500 28.77800
C  45.61400 20.31800 28.36500
C  45.63400 20.35700 26.94800
C  46.30900 21.68300 26.63100
C  45.10500 19.27000 29.26800
C  45.33400 19.20800 25.96800
O  45.50400 19.17300 24.72300
C  44.84400 17.92900 26.61200
N  47.49500 24.32700 25.62300
C  46.99500 23.33100 24.89100
C  46.98800 23.78400 23.38000
C  47.36200 25.27200 23.39200
C  47.70200 25.46900 24.90400
C  47.89000 22.93900 22.44400
C  46.25400 26.24000 22.81500
C  46.73700 27.27400 21.80200
N  47.98100 26.04600 27.85600
C  48.29800 26.98400 26.83000
C  48.94500 28.14900 27.38600
C  48.89700 27.93500 28.77900
C  48.25000 26.70100 29.04200
C  49.56100 29.26600 26.68500
C  49.23900 28.60000 30.03000
O  49.73000 29.67600 30.34200
C  48.55800 27.68900 31.15800
C  49.54800 27.23100 32.12300
O  50.29800 26.27500 31.98600
O  49.49600 27.99800 33.30900
C  50.22000 27.53600 34.50100
H  45.71800 21.36200 30.83100
H  46.38900 21.33900 24.65100
H  48.30100 27.42900 24.72900
H  48.23800 24.69100 32.82700
H  45.55300 23.56900 32.62500
H  47.89000 22.82700 33.89700
H  48.15100 21.87500 32.43100
H  46.78400 21.67800 33.46000
H  45.70400 26.37900 32.66700
H  47.06200 26.74400 33.53700
H  46.04800 24.25000 34.77400
H  44.81200 25.44800 34.53900
H  44.06500 19.01200 29.06700
H  45.18300 19.59800 30.30400
H  45.69500 18.36000 29.15300
H  45.65400 17.53200 27.22300
H  44.54300 17.34300 25.74300
H  43.94600 18.06800 27.21400
H  45.99700 23.61800 22.95800
H  48.27500 25.51400 22.84800
H  48.59900 22.42600 23.09400
H  48.36600 23.62600 21.74400
H  47.32100 22.25600 21.81300
H  45.74600 26.79700 23.60200
H  45.43600 25.72000 22.31700
H  47.49200 26.72400 21.24000
H  47.21700 28.16100 22.21500
H  45.86900 27.62100 21.24100
H  49.90300 28.96800 25.69300
H  50.37300 29.59800 27.33200
H  48.84800 30.08500 26.58800
H  47.91300 28.36200 31.72100
H  51.25800 27.45100 34.18000
H  49.86500 26.57800 34.88100
H  50.10000 28.29400 35.27600
Mg -10.65300 16.92400 40.29100
C  -7.26800 16.67900 40.30300
C  -10.40100 20.40800 40.16100
C  -13.97300 17.14200 39.45200
C  -10.96200 13.43800 39.81500
N  -9.01500 18.35700 40.23400
C  -7.66800 18.03500 40.20600
C  -6.81900 19.27100 39.88500
C  -7.83800 20.40200 40.28100
C  -9.15400 19.71600 40.24800
C  -7.57100 21.15900 41.56800
C  -6.34700 19.35500 38.37600
C  -4.87400 19.19600 38.11900
H  -4.26500 18.11100 37.21300
N  -12.05500 18.62800 39.87800
C  -11.68400 19.93600 39.94500
C  -12.95800 20.71100 39.78900
C  -14.06900 19.77200 39.68100
C  -13.41100 18.46100 39.68700
C  -13.15400 22.17100 39.83700
C  -15.57800 20.12900 39.54500
O  -16.00700 21.25900 39.58500
C  -16.61500 19.04600 39.30500
N  -12.20500 15.48800 39.81000
C  -13.47100 15.86600 39.61500
C  -14.46900 14.68700 39.32400
C  -13.37600 13.53900 39.13200
C  -12.10600 14.15800 39.77000
C  -15.50400 14.43800 40.36500
C  -13.22200 13.16700 37.63800
C  -13.40800 11.74200 37.20000
N  -9.45500 15.36400 40.12400
C  -9.69500 13.99600 40.00400
C  -8.39200 13.29200 39.96300
C  -7.41900 14.32400 40.08300
C  -8.09700 15.56000 40.25200
C  -8.20700 11.86500 39.80200
C  -6.01400 14.61700 40.10900
O  -5.08000 13.79100 39.87900
C  -5.81000 16.15100 40.31600
C  -5.03300 16.35100 41.58200
O  -5.05600 15.65700 42.61900
O  -4.28500 17.51500 41.52700
C  -3.33800 17.79800 42.65800
H  -10.34900 21.49800 40.10600
H  -15.03200 17.14800 39.18500
H  -10.91000 12.34900 39.75300
H  -5.89000 19.40600 40.43900
H  -7.94700 21.15900 39.50500
H  -6.78100 20.72600 42.18200
H  -8.46000 21.05100 42.19000
H  -7.30500 22.16900 41.25800
H  -6.79300 20.17500 37.81400
H  -6.82600 18.50800 37.88500
H  -4.40200 19.14400 39.09900
H  -4.50600 20.16800 37.79100
H  -13.85800 22.60600 39.12700
H  -12.19500 22.67500 39.95800
H  -13.57600 22.31300 40.83200
H  -17.62900 19.43300 39.41300
H  -16.57900 18.30100 40.10000
H  -16.34300 18.51400 38.39400
H  -14.91300 15.00800 38.38200
H  -13.67100 12.68300 39.73900
H  -15.18500 14.58700 41.39700
H  -16.00300 13.48500 40.19100
H  -16.23300 15.23200 40.20300
H  -12.30800 13.59600 37.22800
H  -13.99300 13.68600 37.06900
H  -14.48100 11.60300 37.06400
H  -13.13100 11.08300 38.02300
H  -12.79300 11.48800 36.33700
H  -7.14200 11.64000 39.86400
H  -8.69400 11.67300 38.84600
H  -8.63400 11.30100 40.63100
H  -5.23200 16.53000 39.47400
H  -3.85200 17.82500 43.61900
H  -2.73400 18.69200 42.50400
H  -2.63500 16.96700 42.71200

