158

Mg 42.32100 41.18700 25.89700
C  41.66900 43.74100 28.38600
C  42.99900 38.92900 28.43500
C  42.97400 39.05700 23.53800
C  41.89500 43.75900 23.58100
N  42.49000 41.43000 28.14500
C  41.96700 42.42600 28.95400
C  41.80800 41.98500 30.43400
C  42.25300 40.51400 30.37700
C  42.54400 40.20600 28.88400
C  43.32000 40.06300 31.34400
C  40.38300 42.32100 31.15000
C  39.98300 41.62500 32.44700
H  39.45600 42.43700 33.62000
N  43.00500 39.28000 25.99700
C  43.19000 38.52900 27.11700
C  43.67700 37.24300 26.75400
C  43.60600 37.16800 25.33800
C  43.24100 38.54600 24.87400
C  44.10100 36.22600 27.74800
C  43.79800 36.02500 24.35300
O  43.48900 36.18300 23.19200
C  44.19200 34.66800 24.79800
N  42.61700 41.46600 23.83800
C  42.69900 40.38100 23.10300
C  42.54200 40.75400 21.64600
C  42.03400 42.24300 21.71800
C  42.28700 42.52100 23.13400
C  43.88200 40.57800 20.85400
C  40.50900 42.39000 21.38700
C  39.55300 41.67400 22.37100
N  41.93300 43.32900 25.86300
C  41.90700 44.23300 24.88700
C  41.73100 45.52900 25.33800
C  41.54700 45.41200 26.74000
C  41.68700 44.04600 26.99600
C  41.55500 46.70300 24.52800
C  41.22200 46.14800 27.96500
O  41.04800 47.31500 28.20400
C  41.21100 45.03300 29.09600
C  42.07600 45.42900 30.19100
O  43.28000 45.68600 30.04100
O  41.40100 45.55600 31.35800
C  42.31500 45.74200 32.48300
H  42.94200 38.13900 29.18600
H  42.98900 38.31500 22.73700
H  41.63100 44.44300 22.77200
H  42.53900 42.53500 31.02700
H  41.44600 39.82400 30.62200
H  44.28800 39.92400 30.86200
H  43.04900 39.08300 31.73500
H  43.30300 40.71500 32.21700
H  39.72400 42.23900 30.28500
H  40.51600 43.36100 31.44900
H  40.61400 40.81700 32.81500
H  39.10900 41.02600 32.18900
H  43.30000 35.57000 28.08900
H  44.39200 36.61700 28.72200
H  44.90800 35.58000 27.40400
H  43.48500 34.26400 25.52300
H  45.22400 34.69700 25.14800
H  44.35400 33.98500 23.96400
H  41.78300 40.22600 21.07000
H  42.64200 42.94800 21.15100
H  44.54700 39.89700 21.38500
H  44.41900 41.52200 20.76300
H  43.76300 40.45500 19.77800
H  40.30100 41.95700 20.40800
H  40.26600 43.44500 21.51000
H  40.05000 41.58300 23.33700
H  39.25200 40.70800 21.96500
H  38.71300 42.35100 22.53000
H  42.18500 47.53500 24.84500
H  40.54500 47.08400 24.68000
H  41.64800 46.65100 23.44300
H  40.21700 44.88900 29.52000
H  42.89000 46.66700 32.49800
H  42.92900 44.84600 32.57500
H  41.75900 45.78400 33.41900
Mg -5.66900 26.30400 25.81000
C  -4.14700 27.38500 28.53200
C  -7.09600 23.72100 27.62200
C  -6.67000 24.72700 22.87600
C  -3.73400 28.40100 23.79400
N  -5.48400 25.46500 27.86300
C  -4.91700 26.26600 28.81900
C  -5.35000 25.81800 30.24700
C  -6.09100 24.47300 29.92000
C  -6.23700 24.49700 28.37500
C  -5.41800 23.15300 30.43100
C  -6.16500 26.92300 31.02500
C  -6.18700 26.94400 32.61600
H  -6.08700 25.59200 33.36100
N  -6.83700 24.54400 25.34900
C  -7.42100 23.71500 26.29600
C  -8.34900 22.81200 25.62900
C  -8.20500 23.03000 24.21900
C  -7.15700 24.13600 24.10900
C  -9.19500 21.61100 26.29600
C  -8.81400 22.37600 23.15000
O  -8.53600 22.57400 21.97400
C  -9.96700 21.39200 23.37700
N  -5.24000 26.47700 23.64500
C  -5.90600 25.84400 22.66800
C  -5.51700 26.40900 21.25600
C  -4.77000 27.70900 21.57600
C  -4.57000 27.51500 23.11100
C  -4.80600 25.33900 20.39400
C  -5.61000 28.90900 21.42100
C  -4.85600 30.12200 20.77400
N  -4.33400 27.66100 26.08200
C  -3.71900 28.56100 25.21300
C  -3.03000 29.52400 25.99800
C  -3.09700 29.11300 27.33000
C  -3.94400 27.99100 27.30900
C  -2.17800 30.65900 25.52600
C  -2.64800 29.35700 28.64300
O  -1.85700 30.17900 29.06200
C  -3.34100 28.23900 29.50300
C  -2.32500 27.48900 30.16200
O  -1.62000 26.64800 29.70500
O  -2.42000 27.84300 31.52300
C  -1.84100 27.01100 32.48200
H  -7.68000 22.93700 28.10900
H  -7.10400 24.35400 21.94600
H  -3.24400 29.15500 23.17400
H  -4.50300 25.44200 30.82200
H  -7.05800 24.49700 30.42300
H  -6.09900 22.75700 31.18300
H  -4.41500 23.19100 30.85600
H  -5.32600 22.47100 29.58600
H  -7.16300 26.81300 30.60000
H  -5.82300 27.90700 30.70300
H  -7.18200 27.28400 32.90400
H  -5.41500 27.54800 33.09300
H  -8.93500 20.67900 25.79500
H  -10.25500 21.86200 26.28800
H  -8.97200 21.46100 27.35200
H  -9.64600 20.43200 23.78000
H  -10.44300 21.23800 22.40900
H  -10.67700 21.85000 24.06500
H  -6.43700 26.61300 20.70900
H  -3.76400 27.70800 21.15700
H  -4.61100 24.46500 21.01500
H  -3.84600 25.73900 20.06700
H  -5.33900 25.08200 19.47900
H  -6.16700 29.24200 22.29700
H  -6.46400 28.78800 20.75400
H  -4.69300 30.85700 21.56300
H  -5.30700 30.60600 19.90800
H  -3.83400 29.85100 20.50800
H  -2.23200 31.45700 26.26700
H  -2.53600 30.86600 24.51800
H  -1.16400 30.28900 25.37400
H  -3.96200 28.81900 30.18600
H  -0.76000 27.00200 32.62600
H  -2.20500 25.98700 32.39800
H  -2.28600 27.38000 33.40600

