158

Mg 9.38900 48.18700 26.05600
C  7.03600 48.59100 28.70400
C  11.71300 49.44600 28.00200
C  11.36600 47.83700 23.41600
C  6.51000 48.06600 23.84100
N  9.39400 48.88700 28.17100
C  8.37700 48.78100 29.08900
C  8.95500 49.04500 30.49200
C  10.34400 49.71700 30.16500
C  10.51100 49.46000 28.65800
C  10.41100 51.30200 30.41400
C  8.95200 47.85400 31.49900
C  8.79700 48.27800 32.98500
H  8.64600 47.09200 33.95000
N  11.30700 48.50400 25.73600
C  12.12200 48.97400 26.70400
C  13.46000 48.88000 26.14400
C  13.37300 48.32600 24.83000
C  11.99900 48.15700 24.65600
C  14.64800 49.28700 26.92600
C  14.46300 47.77800 23.94000
O  14.26600 47.15200 22.88900
C  15.90800 47.87500 24.34600
N  9.02200 47.98600 23.87800
C  9.98200 47.79500 23.07400
C  9.44700 47.48100 21.62400
C  7.96000 47.89600 21.76000
C  7.79500 47.99700 23.28200
C  10.23400 48.13700 20.41400
C  6.93100 46.84100 21.14500
C  5.76700 47.52300 20.41400
N  7.28400 48.29500 26.19700
C  6.25300 48.20300 25.19800
C  4.94900 48.36200 25.84600
C  5.28500 48.46700 27.17400
C  6.65400 48.42600 27.33900
C  3.64400 48.34500 25.19900
C  4.63800 48.64000 28.48900
O  3.46700 48.68200 28.69000
C  5.79400 48.76100 29.50400
C  5.53600 47.64900 30.46100
O  5.92200 46.52000 30.20500
O  4.80800 47.99200 31.53800
C  4.58900 47.03100 32.65600
H  12.54000 49.80100 28.61900
H  11.90300 47.77600 22.46800
H  5.64200 48.06700 23.17800
H  8.43400 49.88900 30.94400
H  11.23800 49.36500 30.67900
H  9.40500 51.72100 30.39500
H  10.99200 51.69500 29.58000
H  11.02300 51.56200 31.27700
H  9.86100 47.26100 31.39800
H  8.14800 47.17700 31.20900
H  7.87100 48.85200 33.00500
H  9.64900 48.87300 33.31400
H  14.48200 49.67600 27.93100
H  15.11200 50.00700 26.25100
H  15.23500 48.37600 27.04600
H  16.21300 47.10400 25.05300
H  16.01000 48.83700 24.84800
H  16.46900 47.99600 23.41900
H  9.43800 46.39200 21.56500
H  7.85600 48.92300 21.40900
H  10.91100 48.87000 20.85300
H  9.71500 48.55600 19.55300
H  10.79300 47.43800 19.79200
H  6.53700 46.15300 21.89300
H  7.54400 46.33100 20.40200
H  5.71000 47.35800 19.33900
H  5.79300 48.60700 20.52800
H  4.91700 47.01100 20.86700
H  3.57800 49.18100 24.50200
H  2.92200 48.68300 25.94100
H  3.30700 47.38400 24.81200
H  5.79800 49.74000 29.98200
H  3.65200 47.36300 33.10400
H  5.26300 47.20000 33.49600
H  4.71000 45.98200 32.38400
Mg -2.58900 35.27900 26.80000
C  -4.32700 33.61400 29.59200
C  -1.92600 37.84300 29.21400
C  -1.03900 36.89400 24.43000
C  -3.76000 32.89300 24.72500
N  -3.14500 35.67500 29.18200
C  -3.74900 34.79200 30.06900
C  -3.82000 35.28600 31.53400
C  -3.21000 36.75300 31.30600
C  -2.70000 36.80900 29.81900
C  -4.19600 37.92100 31.60900
C  -2.97400 34.44700 32.54900
C  -2.78100 35.16300 33.89900
H  -3.24500 34.44400 35.17800
N  -1.51800 37.01800 26.86900
C  -1.33100 37.90700 27.89400
C  -0.47800 39.02500 27.42100
C  -0.29100 38.78600 26.06400
C  -0.95200 37.58200 25.71300
C  0.14600 40.07400 28.38200
C  0.38800 39.64900 25.06200
O  0.60600 39.33100 23.92300
C  0.79500 41.12200 25.40000
N  -2.68400 35.06200 24.81900
C  -1.82400 35.81300 24.03200
C  -1.77700 35.31300 22.58300
C  -2.56600 33.97500 22.72400
C  -3.05500 33.88700 24.14600
C  -2.33100 36.36600 21.61500
C  -1.78800 32.71700 22.26300
C  -0.43700 32.39700 22.96600
N  -3.77800 33.51200 27.04200
C  -4.20100 32.59500 26.06900
C  -4.95600 31.59900 26.71700
C  -5.06000 31.93800 28.05900
C  -4.27700 33.12700 28.28300
C  -5.60100 30.44700 25.95900
C  -5.70800 31.62000 29.22700
O  -6.50400 30.72500 29.51200
C  -5.08700 32.50700 30.32700
C  -6.25900 33.08700 31.07800
O  -6.96800 34.03400 30.79100
O  -6.50100 32.29500 32.20600
C  -7.58400 32.59100 33.15900
H  -1.78800 38.74400 29.81600
H  -0.31000 37.15400 23.65900
H  -3.97100 32.13300 23.96900
H  -4.83800 35.34800 31.92000
H  -2.31200 36.95200 31.89100
H  -4.31400 38.60300 30.76700
H  -3.86200 38.54300 32.43800
H  -5.22800 37.63400 31.81200
H  -2.04500 34.11700 32.08300
H  -3.54700 33.53100 32.69500
H  -3.29500 36.12400 33.91000
H  -1.72200 35.34900 34.07900
H  1.13400 40.34400 28.01100
H  0.26900 39.62800 29.36900
H  -0.56300 40.89700 28.46900
H  -0.07000 41.63300 25.82200
H  1.22900 41.68200 24.57200
H  1.66400 41.16300 26.05700
H  -0.74400 35.05800 22.34500
H  -3.35300 34.09500 21.97900
H  -2.83500 37.02500 22.32200
H  -3.10300 35.98200 20.94700
H  -1.47500 36.86900 21.16500
H  -1.56100 32.89200 21.21100
H  -2.47100 31.89200 22.46400
H  -0.20400 33.15000 23.71900
H  0.30400 32.50000 22.17300
H  -0.50500 31.40300 23.40800
H  -4.89600 30.09900 25.20500
H  -6.47900 30.84600 25.45200
H  -5.89500 29.61600 26.60200
H  -4.53800 31.81000 30.96000
H  -7.96600 31.69300 33.64400
H  -8.33800 33.07000 32.53300
H  -7.23500 33.27500 33.93200

