158

Mg 47.27300 24.16900 28.97700
C  47.97900 26.70100 31.40600
C  46.46200 22.20500 31.48800
C  47.15400 21.75200 26.65300
C  48.44100 26.47800 26.41800
N  47.31500 24.45400 31.22100
C  47.52100 25.54900 32.01600
C  47.09600 25.33000 33.46600
C  46.70500 23.84200 33.44300
C  46.76200 23.45700 31.92000
C  47.57800 22.92100 34.28900
C  45.92700 26.34900 33.90500
C  46.36900 27.25400 35.03800
H  45.33400 27.45200 36.11200
N  46.82100 22.22600 29.05300
C  46.52500 21.55500 30.19900
C  46.34500 20.15800 29.91600
C  46.43300 20.05700 28.51900
C  46.83300 21.36100 28.01500
C  46.01700 19.20700 31.13400
C  46.07600 18.83500 27.65000
O  46.01700 18.87500 26.43800
C  45.69700 17.50500 28.21700
N  47.80800 24.12100 26.91100
C  47.56700 22.98300 26.14400
C  47.94600 23.14300 24.69600
C  48.38100 24.62300 24.68400
C  48.15100 25.13900 26.08500
C  49.06300 22.07300 24.24700
C  47.60200 25.43400 23.52500
C  46.09700 25.70700 23.88300
N  48.05300 26.16000 28.91300
C  48.36200 26.94400 27.78000
C  48.86900 28.21600 28.27900
C  48.71800 28.16500 29.69900
C  48.12400 26.90900 30.02900
C  49.50300 29.31400 27.52000
C  48.91600 28.91900 30.89800
O  49.39500 30.03200 31.16200
C  48.42900 28.00600 32.10600
C  49.65300 27.69300 32.90700
O  50.41700 26.76100 32.68000
O  49.72600 28.58000 33.95800
C  50.46400 28.12700 35.13900
H  46.14800 21.62800 32.36100
H  47.28700 20.87500 26.01600
H  48.92200 27.06600 25.63300
H  47.96000 25.36000 34.13000
H  45.64500 23.72300 33.66500
H  47.03700 22.04100 34.63600
H  48.13800 23.34900 35.12100
H  48.32800 22.51900 33.60800
H  45.07300 25.77100 34.25900
H  45.66000 26.96700 33.04800
H  46.74400 28.23900 34.76200
H  47.28000 26.80900 35.43800
H  45.92600 18.16300 30.83500
H  45.10100 19.41500 31.68600
H  46.78400 19.12700 31.90400
H  46.63400 17.20200 28.68600
H  45.46600 16.74500 27.47100
H  44.94700 17.54200 29.00700
H  47.05200 22.84400 24.14800
H  49.42400 24.49400 24.39500
H  49.83500 22.46700 23.58500
H  48.70600 21.17200 23.74900
H  49.63500 21.73800 25.11200
H  47.59500 24.85100 22.60400
H  48.12400 26.36400 23.29700
H  45.55300 25.26200 23.05000
H  46.02100 26.79300 23.94700
H  45.81500 25.15300 24.77800
H  48.88600 29.39200 26.62500
H  50.57300 29.14900 27.39100
H  49.34900 30.18000 28.16300
H  47.68300 28.49800 32.73100
H  50.90700 29.01200 35.59600
H  51.28700 27.42900 34.98900
H  49.72900 27.65500 35.79000
Mg -11.38800 16.85600 42.12200
C  -7.96800 16.98000 42.65500
C  -11.30600 20.33000 41.69600
C  -14.50200 16.68500 40.88700
C  -11.07400 13.40400 41.75900
N  -9.81500 18.45600 42.18100
C  -8.52700 18.22000 42.36100
C  -7.73500 19.51400 42.22900
C  -8.89900 20.57000 42.39800
C  -10.07800 19.72600 42.05100
C  -8.92800 21.15200 43.76100
C  -7.03300 19.72600 40.83700
C  -5.50900 19.93000 40.93400
H  -4.90300 20.74400 39.78900
N  -12.79600 18.33100 41.38900
C  -12.56100 19.69700 41.32200
C  -13.87700 20.40200 41.07500
C  -14.76200 19.35400 40.65400
C  -14.06200 18.01100 40.99600
C  -13.97500 21.88900 41.09600
C  -16.09600 19.48300 39.91100
O  -16.28100 20.63800 39.43600
C  -17.14000 18.46500 39.68200
N  -12.62700 15.32800 41.53000
C  -13.91700 15.45000 41.12100
C  -14.57100 14.07700 40.88900
C  -13.39200 13.06600 40.98500
C  -12.26500 13.98200 41.47800
C  -15.89200 13.80900 41.73800
C  -13.14600 12.30800 39.62600
C  -14.03100 11.03900 39.41200
N  -9.88800 15.41800 42.40000
C  -9.95800 14.05300 42.20200
C  -8.66700 13.51900 42.42200
C  -7.79400 14.56600 42.65400
C  -8.60700 15.70600 42.60700
C  -8.28300 12.07300 42.21600
C  -6.41900 15.01400 42.82400
O  -5.34800 14.36200 42.93600
C  -6.47500 16.59100 42.85300
C  -6.03900 17.03200 44.23700
O  -6.50000 16.59000 45.29900
O  -5.25400 18.12900 44.17500
C  -4.65600 18.76500 45.32900
H  -11.28300 21.42100 41.74100
H  -15.53500 16.48800 40.59300
H  -11.01200 12.33100 41.56800
H  -7.25000 19.56700 43.20300
H  -8.81300 21.36800 41.66100
H  -9.85900 20.86400 44.25000
H  -8.92700 22.24000 43.69500
H  -8.04000 21.04200 44.38300
H  -7.51800 20.42900 40.16000
H  -7.14500 18.73900 40.38800
H  -5.00300 18.96600 40.86700
H  -5.29800 20.44400 41.87200
H  -15.03600 22.11200 41.21400
H  -13.58300 22.29600 40.16400
H  -13.46700 22.29500 41.97100
H  -16.89100 17.71100 38.93500
H  -18.16400 18.83400 39.62700
H  -17.30700 17.83700 40.55700
H  -14.90900 14.07100 39.85300
H  -13.59700 12.48600 41.88500
H  -15.83800 12.86300 42.27600
H  -16.78600 13.83200 41.11500
H  -16.04400 14.53800 42.53400
H  -12.10500 11.98700 39.58200
H  -13.21900 12.96900 38.76200
H  -14.24600 10.50000 40.33500
H  -13.36900 10.31000 38.94500
H  -14.81800 11.11500 38.66200
H  -8.22300 11.77500 41.16900
H  -9.12400 11.56400 42.68800
H  -7.32100 11.82400 42.66300
H  -5.75700 16.89100 42.09000
H  -5.21900 18.56600 46.24000
H  -4.62300 19.85100 45.25000
H  -3.63400 18.39700 45.42400

