158

Mg 25.83800 -8.15200 47.36100
C  27.86400 -5.51400 46.23400
C  23.59800 -7.54900 44.89300
C  24.05200 -10.86900 48.52000
C  28.58200 -9.20300 49.33800
N  25.92400 -6.88100 45.56700
C  26.72700 -5.76700 45.40000
C  26.19500 -4.84200 44.28200
C  24.70900 -5.37100 44.07400
C  24.69200 -6.69400 44.85400
C  23.59700 -4.35200 44.43900
C  27.13800 -4.93200 43.03800
C  27.90300 -3.60900 42.60200
H  27.66000 -3.28100 41.13000
N  24.04400 -8.93100 46.89900
C  23.29900 -8.55200 45.83000
C  22.19500 -9.37300 45.74100
C  22.25500 -10.35400 46.81000
C  23.49200 -10.09100 47.47300
C  21.19100 -9.38200 44.64600
C  21.16600 -11.44400 47.05300
O  20.15700 -11.70400 46.39900
C  21.21300 -12.28900 48.21700
N  26.26400 -9.87400 48.64700
C  25.37600 -10.79800 49.05500
C  25.94200 -11.67400 50.25600
C  27.45500 -11.25800 50.27200
C  27.47800 -10.06500 49.35400
C  25.29900 -11.31700 51.67800
C  28.43300 -12.38600 49.83700
C  29.75300 -12.57300 50.73600
N  27.82800 -7.58100 47.73000
C  28.76100 -7.97800 48.63700
C  29.93600 -7.09100 48.57900
C  29.61500 -6.10800 47.70500
C  28.32200 -6.42700 47.17900
C  31.25100 -7.32900 49.29500
C  30.06200 -4.80100 47.26200
O  31.03300 -4.15700 47.63300
C  28.85700 -4.33400 46.27600
C  28.20600 -3.05700 46.54100
O  28.35200 -2.02700 45.98000
O  27.37100 -3.23000 47.64300
C  26.76100 -1.97700 48.11300
H  22.86600 -7.35600 44.10600
H  23.44300 -11.65900 48.96400
H  29.41500 -9.58600 49.93200
H  26.22600 -3.78500 44.54700
H  24.54400 -5.63200 43.02900
H  23.06600 -4.12300 43.51500
H  24.08700 -3.50500 44.92000
H  22.94600 -4.68100 45.24900
H  26.60500 -5.47600 42.25800
H  28.00200 -5.50800 43.36800
H  28.95100 -3.63300 42.90100
H  27.53300 -2.77000 43.19100
H  20.31500 -8.78500 44.90300
H  20.94700 -10.39900 44.34200
H  21.71400 -9.04800 43.75000
H  21.97500 -13.06700 48.17100
H  20.31400 -12.90000 48.29800
H  21.22200 -11.73700 49.15600
H  25.73800 -12.71600 50.01100
H  27.79000 -10.93900 51.26000
H  24.50600 -12.04100 51.86600
H  24.95200 -10.28400 51.71100
H  25.98200 -11.56700 52.49000
H  28.87800 -12.13200 48.87600
H  27.91700 -13.34700 49.85600
H  29.55000 -13.28400 51.53700
H  30.08600 -11.56300 50.97300
H  30.54000 -12.96600 50.09300
H  31.67200 -8.21200 48.81500
H  31.06900 -7.51500 50.35400
H  31.94700 -6.50400 49.14500
H  29.35900 -4.11600 45.33300
H  26.20000 -1.45500 47.33700
H  27.53400 -1.23600 48.31600
H  26.14600 -2.26100 48.96600
Mg 10.00400 47.88100 26.72600
C  7.89600 47.79400 29.53100
C  12.46700 49.10200 28.71100
C  11.95300 47.84200 23.97400
C  7.15100 47.20600 24.67300
N  10.20300 48.27700 28.97100
C  9.20900 48.06900 29.93900
C  9.85800 48.24100 31.31200
C  11.06500 49.20400 31.01500
C  11.25900 48.85600 29.43600
C  10.84100 50.73500 31.23900
C  10.24100 46.83800 31.86300
C  9.80300 46.46800 33.34000
H  10.67600 45.65800 34.24800
N  11.94600 48.37900 26.39400
C  12.84500 48.81700 27.35200
C  14.10600 49.12300 26.71500
C  14.01500 48.57700 25.35600
C  12.60500 48.24700 25.15200
C  15.30100 49.78300 27.44800
C  15.12300 48.51600 24.32100
O  14.92500 47.89300 23.28600
C  16.59300 49.00900 24.59300
N  9.57600 47.53000 24.62700
C  10.58500 47.61100 23.70100
C  10.11200 47.26500 22.26900
C  8.58100 47.01700 22.55800
C  8.39500 47.27500 24.02900
C  10.43400 48.22600 21.15500
C  8.10500 45.54600 22.21600
C  6.79200 45.45100 21.52800
N  7.91800 47.63000 27.00700
C  6.89700 47.35200 26.08400
C  5.62100 47.20000 26.81500
C  5.97400 47.38500 28.20300
C  7.36500 47.64400 28.24200
C  4.32700 46.80600 26.24400
C  5.44200 47.38700 29.57300
O  4.24500 47.28800 29.91700
C  6.68100 47.58700 30.45900
C  6.82800 46.28700 31.18700
O  7.29000 45.26100 30.66900
O  6.44000 46.45900 32.52000
C  6.28300 45.24900 33.22800
H  13.14400 49.73700 29.28600
H  12.52100 47.77300 23.04500
H  6.20600 46.94000 24.19300
H  9.17200 48.59800 32.08000
H  11.97100 48.87000 31.52200
H  11.78500 51.15100 31.59200
H  10.09300 50.83000 32.02500
H  10.55700 51.29500 30.34800
H  11.32900 46.79200 31.90200
H  9.93300 46.01000 31.22400
H  8.96500 45.80500 33.12400
H  9.29000 47.26200 33.88200
H  16.15400 49.11600 27.31900
H  15.23600 50.04900 28.50400
H  15.41700 50.67200 26.82700
H  16.52800 50.09100 24.70700
H  17.26400 48.92400 23.73800
H  17.05000 48.42400 25.39100
H  10.63000 46.32500 22.07900
H  8.02400 47.83600 22.10300
H  11.22200 47.89200 20.48000
H  10.70000 49.18300 21.60500
H  9.57700 48.34600 20.49200
H  7.97900 44.94500 23.11700
H  8.82300 45.02100 21.58600
H  6.27700 46.40200 21.38800
H  6.21600 44.66000 22.00800
H  7.01000 45.16000 20.50100
H  3.79800 46.19100 26.97200
H  4.56200 46.08800 25.45800
H  3.64600 47.53700 25.80900
H  6.55900 48.53200 30.98700
H  6.83000 44.35800 32.92000
H  5.22600 44.98600 33.20800
H  6.47600 45.46200 34.27900

