158

Mg -0.41800 7.56600 26.16200
C  0.48900 9.53500 28.87900
C  -0.22000 4.78300 28.17900
C  -0.66000 5.56300 23.39500
C  0.07000 10.34100 24.07200
N  0.04400 7.24200 28.31700
C  0.30500 8.20500 29.18900
C  0.35400 7.60700 30.68000
C  0.35000 6.00800 30.39400
C  -0.04300 6.00200 28.83300
C  1.73100 5.34100 30.65400
C  -0.89200 8.19900 31.41400
C  -1.04200 7.80300 32.87300
H  0.25800 7.62700 33.79100
N  -0.40500 5.40900 25.84000
C  -0.27800 4.50400 26.80900
C  -0.38300 3.17600 26.26900
C  -0.57700 3.32800 24.81800
C  -0.61400 4.81800 24.61600
C  -0.29300 1.88400 27.12300
C  -0.78200 2.17900 23.74200
O  -1.03800 2.42800 22.55600
C  -0.74500 0.77900 24.19500
N  -0.43900 7.85400 24.10600
C  -0.60200 6.90600 23.14800
C  -0.60100 7.45800 21.73500
C  -0.74400 9.05300 21.99800
C  -0.32600 9.14700 23.49400
C  0.77300 7.09400 20.97000
C  -2.15800 9.56100 21.64300
C  -2.33800 10.30600 20.38000
N  -0.00100 9.54300 26.39000
C  0.22000 10.57500 25.46800
C  0.70700 11.78100 26.18900
C  0.68400 11.32400 27.48600
C  0.42700 9.96500 27.59700
C  0.94300 13.13500 25.58400
C  0.96600 11.87100 28.82900
O  1.38800 12.99600 29.11600
C  0.69400 10.74100 29.80400
C  1.96700 10.57700 30.61400
O  2.90700 9.86100 30.31500
O  1.88700 11.35200 31.75200
C  3.18500 11.51700 32.42200
H  -0.15100 3.94800 28.88000
H  -0.72500 4.83500 22.58300
H  0.30000 11.23200 23.48400
H  1.25700 7.85900 31.23600
H  -0.40400 5.52600 31.01600
H  2.56300 6.03700 30.55100
H  2.02000 4.62300 29.88600
H  1.75900 4.93600 31.66500
H  -1.78800 7.80300 30.93600
H  -0.98200 9.27800 31.28700
H  -1.71800 6.94800 32.84900
H  -1.63300 8.50700 33.45900
H  0.63900 1.38600 26.85600
H  -1.10400 1.18300 26.92800
H  -0.41000 2.11700 28.18200
H  -0.69500 0.08800 23.35300
H  -1.69300 0.65000 24.71700
H  0.17100 0.63800 24.76900
H  -1.53500 7.19700 21.23900
H  0.12600 9.30600 21.39200
H  1.61100 7.06100 21.66600
H  1.02900 7.90300 20.28400
H  0.45300 6.12600 20.58400
H  -2.28400 10.27400 22.45800
H  -2.91400 8.78800 21.78400
H  -1.41000 10.31000 19.80700
H  -2.57100 11.35000 20.59000
H  -3.08400 9.81700 19.75400
H  1.84300 13.44500 26.11600
H  0.10800 13.75400 25.91100
H  1.10200 13.11000 24.50600
H  -0.14700 11.05600 30.42200
H  4.03000 11.68300 31.75500
H  3.38600 10.60300 32.98100
H  3.20700 12.36200 33.11000
Mg 17.36300 52.41000 25.97500
C  19.34200 50.87700 28.41800
C  15.24500 53.58300 28.53700
C  15.33500 53.80900 23.66900
C  19.62500 51.31600 23.58500
N  17.35800 52.36000 28.15800
C  18.26300 51.68500 28.95900
C  17.96600 51.84900 30.42600
C  16.48100 52.28800 30.40100
C  16.34200 52.87000 28.96000
C  15.44800 51.20200 30.76300
C  19.01500 52.81200 31.09600
C  19.25600 52.48600 32.62300
H  18.17700 51.79100 33.47400
N  15.46300 53.47400 26.08200
C  14.78500 53.88300 27.24900
C  13.67600 54.76200 26.85100
C  13.68200 54.86900 25.42000
C  14.86100 54.01900 25.01500
C  12.79800 55.36100 27.87200
C  12.75900 55.63400 24.48300
O  12.80700 55.54500 23.30000
C  11.89300 56.69200 25.04900
N  17.43100 52.47100 23.93800
C  16.47600 53.09200 23.18800
C  16.78500 53.09400 21.66900
C  18.15100 52.25900 21.67400
C  18.43800 52.03700 23.18100
C  15.66900 52.52600 20.81800
C  19.42500 52.98400 20.92800
C  19.90200 54.28900 21.57600
N  19.14800 51.22300 25.93200
C  19.95000 50.89400 24.91500
C  20.97500 50.03800 25.37500
C  20.77100 49.87000 26.76800
C  19.63900 50.71600 27.06000
C  22.06000 49.38000 24.64900
C  21.24200 49.35900 28.01100
O  22.17600 48.63700 28.21100
C  20.28100 49.95000 29.16700
C  19.65000 48.92800 30.02200
O  19.07500 47.93500 29.60000
O  19.96000 49.13600 31.38000
C  19.75500 48.13300 32.35400
H  14.60000 53.93000 29.34800
H  14.75200 54.28000 22.87400
H  20.30200 50.89900 22.83600
H  18.04200 50.85700 30.87300
H  16.43400 53.11100 31.11500
H  14.69800 51.07000 29.98300
H  15.06800 51.44700 31.75400
H  15.87300 50.21100 30.92700
H  18.64000 53.83100 31.19300
H  19.98000 52.85100 30.58900
H  19.46500 53.43200 33.12200
H  20.12800 51.84700 32.76300
H  12.95200 54.74500 28.75800
H  11.74300 55.22200 27.63400
H  13.02800 56.39500 28.12600
H  11.15200 56.32900 25.76300
H  11.29400 57.07400 24.22200
H  12.57700 57.49200 25.33100
H  16.97100 54.10500 21.30500
H  17.96200 51.26600 21.26500
H  14.78300 53.05200 21.17500
H  15.42100 51.48200 21.00700
H  15.76400 52.74000 19.75300
H  19.14900 53.20300 19.89600
H  20.34200 52.39800 20.86800
H  19.74100 55.04000 20.80200
H  20.92400 54.28700 21.95400
H  19.23200 54.62200 22.36900
H  22.26100 50.12400 23.87800
H  21.57600 48.49000 24.24700
H  22.87000 49.23200 25.36200
H  20.75200 50.61700 29.89000
H  18.98800 48.47300 33.04900
H  20.66200 47.99900 32.94400
H  19.46700 47.21600 31.84100

