158

Mg 47.34100 17.03400 27.84000
C  45.66800 16.87900 30.92400
C  49.66700 19.15700 29.41400
C  48.54800 17.94900 24.82600
C  44.66000 15.39500 26.30000
N  47.57700 17.92400 29.99800
C  46.84000 17.63400 31.06700
C  47.43700 18.20800 32.32000
C  48.55500 19.12300 31.75700
C  48.63900 18.75400 30.27700
C  48.30200 20.67400 31.95900
C  48.09000 17.11500 33.24400
C  47.83400 17.29700 34.74400
H  47.58800 18.72100 35.27000
N  49.02600 18.18200 27.24300
C  49.90200 18.86600 28.01300
C  50.93600 19.52300 27.13000
C  50.63200 19.13000 25.78300
C  49.37200 18.37500 25.91400
C  51.97700 20.42000 27.71100
C  51.37400 19.56100 24.48000
O  50.81100 19.31900 23.45600
C  52.69900 20.26300 24.61600
N  46.72400 16.67300 25.87000
C  47.38800 17.10000 24.82500
C  46.94700 16.48800 23.49500
C  45.70500 15.56600 24.00200
C  45.63600 15.89100 25.45400
C  46.59800 17.54500 22.39500
C  45.91400 14.03100 23.74000
C  46.65700 13.18900 24.72200
N  45.61200 16.13600 28.47300
C  44.61200 15.55400 27.71000
C  43.60700 15.07000 28.62700
C  43.94900 15.59300 29.88200
C  45.15500 16.28400 29.71600
C  42.44200 14.25100 28.33500
C  43.57400 15.56700 31.24100
O  42.63900 15.04500 31.79100
C  44.62100 16.52500 31.93000
C  43.83400 17.70900 32.42300
O  43.44800 18.61300 31.81000
O  43.72800 17.58700 33.76500
C  43.25200 18.85000 34.42400
H  50.21400 19.91500 29.97800
H  48.84400 18.23100 23.81300
H  43.80300 14.88800 25.85200
H  46.66600 18.74700 32.87100
H  49.46200 18.82600 32.28300
H  48.24000 21.16900 30.99000
H  49.10800 21.08200 32.56900
H  47.36500 20.91900 32.45900
H  49.17600 17.06600 33.17200
H  47.71200 16.15200 32.90100
H  48.73400 16.93200 35.23800
H  47.12800 16.55400 35.11400
H  52.10600 20.47800 28.79200
H  51.78700 21.40600 27.28600
H  52.91200 19.98100 27.36500
H  52.72600 21.27900 25.01200
H  53.17600 20.29100 23.63600
H  53.37400 19.64700 25.20900
H  47.73400 15.84500 23.10200
H  44.78500 15.91800 23.53400
H  45.61600 17.40600 21.94100
H  47.25300 17.47800 21.52600
H  46.57700 18.57300 22.75800
H  46.57700 14.00200 22.87500
H  45.01600 13.46100 23.50200
H  47.55000 12.93900 24.14800
H  45.99000 12.35800 24.95200
H  47.00000 13.74600 25.59300
H  41.96300 13.89000 29.24500
H  42.87000 13.42100 27.77300
H  41.83700 14.87700 27.67900
H  45.05700 16.02600 32.79600
H  42.22400 19.07200 34.13800
H  43.84800 19.73500 34.19900
H  43.27300 18.86500 35.51400
Mg 9.94500 47.66000 25.70900
C  7.96600 47.95400 28.62000
C  12.52700 48.87700 27.59200
C  11.91100 47.38900 22.97800
C  7.17400 46.84000 23.90300
N  10.10000 48.47900 27.88100
C  9.27200 48.15600 28.86100
C  9.83300 48.47300 30.22200
C  11.24700 49.15600 29.88500
C  11.36500 48.82400 28.34200
C  11.28300 50.66000 30.22800
C  10.04000 47.26100 31.13000
C  9.72100 47.60700 32.57500
H  9.69500 46.48200 33.55700
N  11.93600 48.13800 25.35300
C  12.78500 48.63100 26.22200
C  14.02600 48.75400 25.57300
C  13.98100 48.19300 24.26200
C  12.54900 47.91100 24.13200
C  15.11200 49.42900 26.39300
C  15.10600 47.92900 23.21000
O  14.86600 47.58500 22.06400
C  16.42900 48.16700 23.69400
N  9.62900 47.38900 23.65500
C  10.56100 47.19900 22.75500
C  10.06400 46.64700 21.41900
C  8.55400 46.48400 21.78100
C  8.37500 47.00500 23.22700
C  10.22900 47.52200 20.16100
C  8.02800 45.00400 21.64300
C  8.36800 44.05600 22.80900
N  7.99000 47.30100 26.16700
C  6.97800 47.05700 25.23800
C  5.72200 47.01400 26.01200
C  5.98800 47.39200 27.34600
C  7.45900 47.59400 27.32300
C  4.31400 46.76900 25.41500
C  5.51600 47.53700 28.66100
O  4.38700 47.40300 29.10000
C  6.80500 47.83500 29.55400
C  6.84500 46.59800 30.43700
O  7.07800 45.46800 30.12300
O  6.46200 46.99000 31.62300
C  5.93200 45.91500 32.48800
H  13.36700 49.14300 28.23800
H  12.57800 47.27700 22.12000
H  6.32300 46.61900 23.25600
H  9.25600 49.24400 30.73200
H  12.13100 48.62700 30.24100
H  10.38900 51.01200 30.74300
H  11.39400 51.28700 29.34300
H  12.14600 50.93300 30.83400
H  11.10600 47.04100 31.19100
H  9.47600 46.36700 30.86700
H  8.80700 48.19800 32.62900
H  10.50700 48.26100 32.95100
H  14.62300 50.25100 26.91600
H  15.77300 49.85900 25.64100
H  15.48700 48.68200 27.09200
H  16.68500 49.22500 23.63000
H  17.20700 47.70900 23.08400
H  16.41200 47.89200 24.74900
H  10.44500 45.62800 21.34300
H  7.86800 47.07100 21.17100
H  11.02300 48.25500 20.30800
H  9.40400 48.15600 19.83400
H  10.43800 46.73100 19.44100
H  8.54000 44.53000 20.80600
H  6.98500 44.89900 21.34300
H  8.78800 44.51400 23.70500
H  9.09100 43.29800 22.50700
H  7.45000 43.69200 23.27100
H  4.32700 46.96700 24.34300
H  3.54600 47.27500 26.00000
H  4.01600 45.73700 25.60100
H  6.54600 48.67900 30.19400
H  4.84300 45.91300 32.45500
H  6.22800 46.13100 33.51400
H  6.26000 44.88800 32.33100

