158

Mg 8.94500 3.73200 27.07100
C  10.25700 2.16500 29.92700
C  7.00500 5.74300 29.07900
C  7.67200 5.29600 24.30600
C  10.43000 1.40500 25.09400
N  8.55700 3.80500 29.24900
C  9.34300 3.20700 30.24400
C  9.04600 3.74700 31.66300
C  8.11100 4.86600 31.35500
C  7.98000 4.92100 29.78700
C  6.68800 4.87000 32.09800
C  10.31500 4.22500 32.45400
C  9.96800 4.72900 33.85300
H  11.05100 4.47400 34.91600
N  7.46700 5.18500 26.73300
C  6.86200 5.92300 27.68600
C  5.96700 6.94900 27.07900
C  6.24800 6.93100 25.74200
C  7.16100 5.80400 25.48900
C  5.13800 7.94500 27.82200
C  5.81900 7.85600 24.61800
O  6.27000 7.74400 23.46500
C  4.90100 9.08200 24.92100
N  8.97400 3.36900 24.91000
C  8.46400 4.16600 24.01700
C  8.86400 3.74200 22.53900
C  9.61400 2.35300 22.86300
C  9.68200 2.37700 24.37700
C  7.87700 3.65100 21.34400
C  10.95500 2.14100 22.11900
C  10.84300 1.38000 20.76100
N  10.12400 2.15800 27.36100
C  10.67300 1.27500 26.47300
C  11.49200 0.30700 27.15300
C  11.45900 0.69000 28.50300
C  10.53200 1.75800 28.61500
C  12.10700 -0.86000 26.50300
C  11.92400 0.37000 29.86100
O  12.71100 -0.49300 30.24000
C  11.19500 1.30700 30.84300
C  10.50400 0.57100 31.85700
O  9.51700 -0.15000 31.74300
O  11.15900 0.84300 33.05700
C  10.53000 0.22100 34.25000
H  6.43800 6.41000 29.73300
H  7.46300 5.85800 23.39300
H  10.70000 0.54100 24.48400
H  8.58600 3.00600 32.31700
H  8.55900 5.81500 31.65300
H  5.95800 4.50500 31.37600
H  6.54600 5.89100 32.45100
H  6.52300 4.17400 32.92100
H  10.78300 5.00800 31.85700
H  11.09500 3.47000 32.36100
H  9.03000 4.26600 34.16100
H  9.75700 5.78300 33.67300
H  5.69500 8.88200 27.79600
H  4.96900 7.85000 28.89500
H  4.26400 8.14000 27.20100
H  5.28300 9.82300 25.62400
H  3.89400 8.80100 25.22700
H  4.87900 9.63200 23.98100
H  9.60200 4.47700 22.21700
H  8.90100 1.54500 22.70000
H  7.88800 2.61100 21.01600
H  8.17800 4.38300 20.59400
H  6.85700 3.92300 21.61500
H  11.67900 1.71300 22.81300
H  11.32800 3.15000 21.94300
H  11.59800 0.62900 20.52900
H  10.91300 2.18200 20.02600
H  9.82500 1.00200 20.67300
H  12.39500 -0.72300 25.46100
H  11.39200 -1.67800 26.41100
H  12.96700 -1.20600 27.07600
H  11.96300 1.95300 31.26800
H  9.49000 0.53100 34.35000
H  10.89700 0.75400 35.12700
H  10.66600 -0.84600 34.42300
Mg 17.22200 -1.23900 27.42700
C  16.06300 0.64600 30.16900
C  19.25100 -3.08500 29.68600
C  18.61700 -2.97700 24.92500
C  15.72900 0.94500 25.31600
N  17.49900 -1.24500 29.72500
C  17.04300 -0.34000 30.62400
C  17.49300 -0.60400 32.08600
C  18.77200 -1.56600 31.78200
C  18.49000 -2.01200 30.27800
C  20.15400 -0.95000 32.03100
C  16.41200 -1.17100 33.05900
C  16.75800 -1.15700 34.59100
H  18.05100 -0.51000 35.01600
N  18.51200 -2.93500 27.32600
C  19.15600 -3.62600 28.35600
C  19.81000 -4.80400 27.81700
C  19.62200 -4.72800 26.43300
C  18.88800 -3.46400 26.13800
C  20.39300 -5.85900 28.68400
C  19.99600 -5.71900 25.37700
O  19.67900 -5.68400 24.21700
C  20.84000 -6.89000 25.78000
N  17.23300 -0.96400 25.35400
C  17.83800 -1.83500 24.54200
C  17.64000 -1.43000 23.00700
C  16.63800 -0.19500 23.15700
C  16.44300 -0.04100 24.64700
C  19.00500 -1.12100 22.18400
C  15.26400 -0.31700 22.44900
C  14.81000 0.93500 21.66500
N  16.02200 0.34200 27.66100
C  15.47400 1.18800 26.71700
C  14.65400 2.24000 27.34400
C  14.77400 1.99300 28.69400
C  15.73300 0.93300 28.84600
C  13.90000 3.39100 26.63400
C  14.35200 2.40200 29.96600
O  13.61800 3.26100 30.35000
C  15.32000 1.61700 31.04900
C  16.18900 2.61700 31.76700
O  17.28900 2.88400 31.47000
O  15.46600 3.12900 32.88400
C  16.11700 4.01100 33.86600
H  19.83100 -3.70100 30.37600
H  19.02600 -3.44800 24.02800
H  15.18800 1.66300 24.69600
H  17.86400 0.31500 32.53900
H  18.73800 -2.45800 32.40800
H  20.72400 -0.78500 31.11600
H  20.75000 -1.77700 32.41800
H  20.12300 -0.06400 32.66400
H  16.28500 -2.21800 32.78400
H  15.46900 -0.65800 32.87200
H  16.61800 -2.14000 35.04100
H  15.97400 -0.48600 34.94200
H  19.70600 -6.70500 28.66500
H  20.59000 -5.64400 29.73500
H  21.34000 -6.19700 28.26500
H  20.35200 -7.49000 26.54800
H  21.81400 -6.53500 26.11600
H  20.90600 -7.53400 24.90300
H  17.08200 -2.25000 22.55400
H  17.09600 0.74800 22.85800
H  19.04200 -0.07100 21.89400
H  19.09000 -1.68200 21.25400
H  19.87700 -1.44800 22.75100
H  14.51300 -0.49300 23.22000
H  15.16700 -1.21900 21.84500
H  15.67500 1.52800 21.36800
H  14.21400 1.61600 22.27200
H  14.25700 0.50800 20.82800
H  12.93500 3.09300 26.22400
H  14.51400 3.61200 25.76200
H  13.84300 4.24700 27.30600
H  14.62800 1.14100 31.74300
H  16.16200 3.56300 34.85900
H  15.75600 5.03500 33.96200
H  17.18200 4.09200 33.65100

