158

Mg -2.12300 16.97400 26.25700
C  -2.32200 14.72600 28.95700
C  -2.14200 19.51500 28.47300
C  -2.65000 19.02300 23.59200
C  -2.56500 14.20000 24.01800
N  -2.61900 17.06300 28.52900
C  -2.55800 16.04200 29.41900
C  -2.83000 16.58100 30.83000
C  -2.73400 18.11600 30.50200
C  -2.41100 18.27400 29.05300
C  -4.02100 18.89100 30.93500
C  -2.00700 16.01300 32.02100
C  -1.80600 17.02400 33.19500
H  -1.45800 16.48800 34.59700
N  -2.32400 18.97800 26.07600
C  -2.22500 19.91900 27.11100
C  -2.15300 21.25100 26.47400
C  -2.25600 21.09100 25.07400
C  -2.45600 19.63000 24.85300
C  -1.93900 22.42100 27.26500
C  -2.07200 22.11500 24.01500
O  -2.26100 21.84100 22.80000
C  -1.44900 23.36600 24.33300
N  -2.71900 16.65400 24.11000
C  -2.82600 17.70200 23.24000
C  -3.34000 17.18300 21.85500
C  -2.88200 15.66700 21.91600
C  -2.69400 15.47200 23.42200
C  -4.82800 17.38500 21.79400
C  -1.67600 15.18400 20.99700
C  -0.35200 15.20500 21.77000
N  -2.28300 14.86300 26.40500
C  -2.52400 13.92200 25.40000
C  -2.49100 12.56600 26.03400
C  -2.36900 12.91200 27.46700
C  -2.34300 14.28500 27.64100
C  -2.54400 11.25500 25.33400
C  -2.31300 12.33800 28.79000
O  -2.37300 11.16300 29.16700
C  -2.26500 13.51000 29.80000
C  -1.00900 13.41300 30.58900
O  0.10400 13.80500 30.26900
O  -1.19300 12.66600 31.73000
C  -0.12000 12.62100 32.71200
H  -2.12000 20.34400 29.18500
H  -3.00500 19.69500 22.80800
H  -2.67100 13.36400 23.32400
H  -3.87100 16.37000 31.07200
H  -1.85600 18.48100 31.03500
H  -4.71300 18.21200 31.43300
H  -4.56500 19.42200 30.15400
H  -3.80600 19.70300 31.63000
H  -0.97200 15.82700 31.73300
H  -2.41200 15.07900 32.41000
H  -2.64600 17.69500 33.37300
H  -0.96300 17.66600 32.93900
H  -2.48300 23.28100 26.87500
H  -0.86100 22.53600 27.14900
H  -2.04000 22.33200 28.34700
H  -0.53100 23.19300 24.89500
H  -2.11900 24.05500 24.84800
H  -1.33400 23.78200 23.33200
H  -2.85800 17.74200 21.05200
H  -3.74200 15.07000 21.61500
H  -5.25800 17.34600 22.79500
H  -5.38300 16.66300 21.19500
H  -5.03100 18.34200 21.31400
H  -1.61300 15.86800 20.15100
H  -2.00700 14.16500 20.79700
H  0.44400 14.91600 21.08400
H  -0.37000 14.44600 22.55200
H  -0.15500 16.22300 22.10400
H  -3.57300 10.90200 25.40800
H  -1.94700 10.48700 25.82600
H  -2.23900 11.37900 24.29500
H  -3.08400 13.52600 30.51900
H  0.77700 13.21400 32.53800
H  0.26600 11.60200 32.72500
H  -0.44400 13.02800 33.67000
Mg -1.54900 34.72700 26.72700
C  -3.02100 32.69100 29.38000
C  -0.30500 36.77300 29.11500
C  -0.60800 36.67200 24.35300
C  -3.29300 32.63700 24.49000
N  -1.65600 34.65100 28.98800
C  -2.28900 33.76400 29.90300
C  -1.87800 34.05500 31.35100
C  -1.11000 35.46300 31.18200
C  -1.04500 35.66900 29.64400
C  -1.75700 36.76400 31.81400
C  -0.94600 32.90400 32.00400
C  -1.55300 32.07200 33.21200
H  -0.63800 32.02300 34.50100
N  -0.56500 36.46800 26.70700
C  -0.02400 37.08700 27.75800
C  0.87500 38.13000 27.33500
C  0.79700 38.18100 25.90700
C  -0.14000 37.06100 25.59500
C  1.68800 39.05300 28.32800
C  1.55100 39.06800 24.87000
O  1.37100 38.96100 23.67800
C  2.56200 40.08500 25.32700
N  -1.86200 34.65300 24.71200
C  -1.39200 35.58200 23.92300
C  -1.87900 35.55400 22.52100
C  -2.65800 34.18600 22.55700
C  -2.68800 33.80000 24.05900
C  -2.64500 36.77100 21.94000
C  -2.17600 32.97100 21.67000
C  -0.68700 32.55300 21.91500
N  -2.72700 32.97200 26.82000
C  -3.37800 32.23100 25.83600
C  -4.21000 31.20500 26.35400
C  -3.97400 31.31700 27.74000
C  -3.23900 32.44700 27.99500
C  -5.00300 30.11500 25.72800
C  -4.21200 30.62700 29.01500
O  -4.79300 29.54100 29.19500
C  -3.71400 31.59200 30.19400
C  -4.86700 32.03800 31.05900
O  -5.79000 32.76400 30.74600
O  -4.81400 31.31400 32.15300
C  -5.77700 31.59300 33.20300
H  0.16100 37.41000 29.87000
H  -0.19000 37.27900 23.54700
H  -4.00100 32.17200 23.80100
H  -2.71600 34.20700 32.03200
H  -0.13000 35.40800 31.65800
H  -1.11700 37.39400 32.43100
H  -2.55900 36.42500 32.47000
H  -2.15200 37.39300 31.01600
H  -0.00100 33.38200 32.26400
H  -0.76900 32.19200 31.19800
H  -1.68600 31.04200 32.88000
H  -2.57000 32.42200 33.39100
H  1.97000 38.58400 29.27000
H  0.96600 39.82800 28.58700
H  2.55200 39.51700 27.85300
H  3.36100 39.65900 25.93400
H  2.15200 40.85200 25.98500
H  3.12700 40.40400 24.45100
H  -1.00800 35.48100 21.86900
H  -3.71300 34.34600 22.33400
H  -3.43300 36.43300 21.26700
H  -1.94200 37.36400 21.35400
H  -3.02900 37.34900 22.78100
H  -2.23800 33.27500 20.62500
H  -2.81500 32.09000 21.72800
H  -0.05500 33.01400 21.15600
H  -0.61600 31.46700 21.98700
H  -0.42000 32.87900 22.92000
H  -4.46700 29.66300 24.89400
H  -5.88900 30.53600 25.25400
H  -5.11300 29.28800 26.42900
H  -3.02400 30.97300 30.76800
H  -6.70200 31.83800 32.68200
H  -5.40500 32.37000 33.87200
H  -5.94300 30.69200 33.79300

