158

Mg 27.13200 51.46100 25.80500
C  25.10600 52.29100 28.49900
C  29.58500 50.56500 27.90100
C  28.91600 50.62700 23.02800
C  24.70800 52.99000 23.70000
N  27.36900 51.50800 27.95600
C  26.30700 51.69300 28.88900
C  26.80900 51.36100 30.34100
C  28.38800 51.21300 30.09400
C  28.47300 51.12300 28.59200
C  29.31100 52.19700 30.77900
C  26.03800 50.20300 30.97800
C  25.21600 50.38200 32.26600
H  25.99700 50.84700 33.48800
N  28.96600 50.64600 25.51300
C  29.84100 50.35600 26.54100
C  31.06600 49.79200 25.95200
C  30.89900 49.79700 24.50100
C  29.51100 50.34600 24.33700
C  32.28000 49.38900 26.72400
C  31.88700 49.38900 23.51500
O  31.66300 49.42600 22.30600
C  33.22100 48.99100 23.80600
N  26.86700 51.69000 23.73100
C  27.71400 51.36600 22.74500
C  27.21200 51.57300 21.32200
C  25.81900 52.19700 21.52200
C  25.76700 52.33000 23.06100
C  28.14400 52.42600 20.40400
C  24.56800 51.39900 21.00400
C  23.46500 52.35600 20.40200
N  25.33400 52.45500 26.03400
C  24.47200 52.97800 25.10400
C  23.34800 53.61000 25.76100
C  23.55200 53.36400 27.11100
C  24.76900 52.62600 27.19600
C  22.23900 54.40100 25.10100
C  23.13000 53.70200 28.45000
O  22.12500 54.34000 28.78800
C  23.99600 52.81900 29.41200
C  24.51000 53.84300 30.40000
O  25.49100 54.52900 30.27600
O  23.61900 53.83000 31.49000
C  24.02200 54.62000 32.60800
H  30.38300 50.32100 28.60600
H  29.49300 50.37400 22.13600
H  23.92400 53.31800 23.01400
H  26.57700 52.31200 30.82100
H  28.68900 50.22000 30.42700
H  29.83600 52.80500 30.04300
H  30.07400 51.64100 31.32400
H  28.81800 52.91300 31.43700
H  26.69000 49.36600 31.23200
H  25.34500 49.86500 30.20800
H  24.52200 49.58800 32.54200
H  24.57100 51.23500 32.05500
H  32.29500 48.30800 26.86100
H  32.23400 49.69000 27.77100
H  33.14000 49.86900 26.25700
H  33.41200 48.05500 24.33100
H  33.59400 49.88600 24.30200
H  33.76100 48.87100 22.86700
H  27.05900 50.58300 20.89100
H  25.76700 53.23700 21.20300
H  28.79700 52.97000 21.08600
H  27.55100 53.09700 19.78300
H  28.62300 51.58000 19.91100
H  23.99600 50.93000 21.80400
H  24.86800 50.66100 20.26000
H  22.52700 52.26400 20.94900
H  23.24500 51.92700 19.42500
H  23.79200 53.39500 20.34900
H  21.23400 54.13400 25.42800
H  22.34600 54.40700 24.01600
H  22.26700 55.42100 25.48500
H  23.55000 51.96100 29.91500
H  24.79400 54.13600 33.20700
H  23.13000 54.70500 33.22800
H  24.35900 55.62000 32.33400
Mg -12.52300 16.15000 41.30000
C  -9.57400 14.35400 40.75500
C  -10.75400 18.97100 39.85700
C  -15.34600 17.78300 41.16800
C  -14.18300 13.29700 42.09600
N  -10.32600 16.61500 40.51900
C  -9.37700 15.67800 40.33100
C  -8.10400 16.24800 39.69700
C  -8.42800 17.82300 39.65600
C  -9.95800 17.81000 40.03300
C  -7.43500 18.68500 40.59300
C  -7.70000 15.59700 38.30700
C  -6.23600 15.11800 38.24300
H  -5.41500 15.78600 37.21500
N  -12.93100 18.15600 40.66700
C  -12.14100 19.13100 40.19800
C  -12.89200 20.29600 39.99400
C  -14.29600 19.93200 40.23100
C  -14.23800 18.59600 40.73400
C  -12.32800 21.64500 39.51100
C  -15.47100 20.85000 39.96500
O  -15.31300 22.08900 39.82900
C  -16.87800 20.37400 39.83500
N  -14.63600 15.51000 41.24100
C  -15.57900 16.44800 41.51300
C  -16.92400 15.90000 41.95700
C  -16.42800 14.44800 42.39500
C  -14.95800 14.43200 41.92800
C  -17.75000 16.82700 42.97000
C  -17.35200 13.42600 41.75200
C  -17.63900 12.24800 42.65300
N  -11.99300 14.17000 41.58500
C  -12.77300 13.08400 41.88700
C  -11.96700 11.89900 41.83800
C  -10.70300 12.33400 41.48100
C  -10.75800 13.72800 41.26800
C  -12.42500 10.56100 42.07700
C  -9.33700 11.94300 41.16700
O  -8.81000 10.84900 41.28600
C  -8.53500 13.18000 40.74200
C  -7.43700 13.33600 41.78600
O  -7.61100 13.80400 42.92800
O  -6.18900 13.14200 41.19600
C  -4.95000 13.35000 41.95000
H  -10.19700 19.83600 39.48900
H  -16.19800 18.46300 41.22000
H  -14.65200 12.36700 42.42200
H  -7.35800 15.88300 40.40300
H  -8.30800 18.28300 38.67500
H  -6.68000 18.01200 40.99700
H  -7.96500 19.26500 41.34900
H  -6.89500 19.29100 39.86500
H  -7.96400 16.33300 37.54800
H  -8.31400 14.73200 38.05400
H  -6.26700 14.02900 38.24400
H  -5.68100 15.27900 39.16700
H  -12.49800 21.80800 38.44700
H  -11.25100 21.67700 39.67900
H  -12.90100 22.38700 40.06700
H  -16.80400 19.40900 39.33300
H  -17.36500 21.02600 39.10900
H  -17.39200 20.34100 40.79500
H  -17.47000 15.72600 41.03000
H  -16.35400 14.33600 43.47600
H  -17.72000 16.33000 43.93900
H  -18.72000 16.95300 42.48900
H  -17.25000 17.79500 43.00000
H  -16.93100 13.07700 40.80900
H  -18.35800 13.73900 41.47500
H  -18.61600 11.81800 42.43400
H  -17.69900 12.61500 43.67700
H  -16.89200 11.46800 42.50400
H  -11.58500 9.87300 41.98000
H  -13.23600 10.24900 41.42000
H  -12.80100 10.51600 43.09900
H  -8.07400 12.94500 39.78300
H  -4.04800 13.03000 41.42900
H  -4.97600 12.68800 42.81500
H  -4.86700 14.33400 42.41200

