158

Mg 1.63000 -2.92200 44.84100
C  4.87000 -1.70900 44.14000
C  0.29800 -0.43100 42.74600
C  -1.37900 -4.61400 44.47900
C  3.05100 -5.79400 46.30700
N  2.48000 -1.17900 43.58900
C  3.87500 -0.97100 43.43300
C  4.02100 0.11500 42.33400
C  2.62500 0.84500 42.50300
C  1.69100 -0.25400 42.99900
C  2.61800 2.04600 43.53400
C  4.37900 -0.50200 40.92500
C  5.73800 -0.03000 40.28900
H  5.59300 0.59900 38.96200
N  -0.39200 -2.51000 43.88400
C  -0.68200 -1.43200 43.10900
C  -2.05300 -1.40300 42.68800
C  -2.61300 -2.68400 43.15800
C  -1.43700 -3.36300 43.80600
C  -2.78000 -0.32900 41.94600
C  -3.97400 -3.24800 43.07900
O  -4.84400 -2.55500 42.56400
C  -4.33300 -4.63900 43.51700
N  1.00000 -5.06300 45.10200
C  -0.30800 -5.34400 45.13500
C  -0.58900 -6.63000 46.03900
C  0.90600 -7.05600 46.48100
C  1.70000 -5.93800 45.92100
C  -1.56200 -6.40800 47.24900
C  1.22500 -8.49200 45.92300
C  1.39200 -9.65500 46.97100
N  3.57100 -3.59400 45.29700
C  3.98000 -4.72700 45.93400
C  5.43000 -4.62400 46.24700
C  5.81500 -3.47900 45.56300
C  4.63700 -2.86200 44.92700
C  6.27700 -5.58800 47.03900
C  6.93200 -2.68000 45.15400
O  8.18800 -2.78700 45.45100
C  6.39900 -1.60000 44.07400
C  6.96000 -0.27900 44.62100
O  8.00900 0.20000 44.15600
O  6.27100 0.15200 45.81400
C  6.43800 1.58800 46.03100
H  -0.05900 0.43400 42.18200
H  -2.17000 -5.36100 44.57200
H  3.40400 -6.66700 46.86000
H  4.84200 0.70600 42.74000
H  2.30900 1.19300 41.51900
H  3.64100 2.35200 43.75200
H  2.17100 1.79600 44.49600
H  2.09800 2.95800 43.24200
H  3.53200 -0.18000 40.31900
H  4.28800 -1.58400 41.01900
H  6.37600 -0.91400 40.30800
H  6.29100 0.72700 40.84500
H  -2.18600 0.58200 41.87400
H  -3.75600 -0.07100 42.35800
H  -2.90900 -0.57900 40.89300
H  -4.09700 -4.72700 44.57800
H  -3.74900 -5.36800 42.95600
H  -5.36700 -4.87600 43.26500
H  -1.13400 -7.38200 45.46700
H  1.07800 -6.96700 47.55400
H  -1.14900 -6.64000 48.23100
H  -2.50600 -6.94000 47.13200
H  -1.95700 -5.39300 47.21600
H  2.16800 -8.40900 45.38300
H  0.44500 -8.89200 45.27500
H  1.12500 -9.20900 47.93000
H  2.44500 -9.87700 47.14600
H  0.85700 -10.55300 46.66400
H  6.83900 -6.31000 46.44600
H  5.66500 -6.19100 47.70900
H  6.96800 -5.09700 47.72500
H  6.84500 -1.74400 43.09000
H  7.10000 2.10600 45.33800
H  6.73300 1.69000 47.07600
H  5.46400 2.07200 46.11100
Mg 24.97900 0.90300 29.66700
C  27.17400 0.54700 32.35000
C  22.38200 1.13400 31.87400
C  22.91800 1.08300 26.89100
C  27.68700 0.31400 27.48600
N  24.89300 0.88300 31.84000
C  25.86100 0.82600 32.76800
C  25.34700 1.09200 34.21600
C  23.78300 0.83900 34.01700
C  23.62800 0.96700 32.45800
C  23.22400 -0.47300 34.65100
C  25.73500 2.47900 34.80700
C  25.05900 2.73800 36.16800
H  25.92300 2.83300 37.47500
N  23.00700 1.04800 29.47000
C  22.07000 1.13500 30.48700
C  20.77700 1.19800 29.86200
C  20.93300 1.13900 28.44200
C  22.34800 1.11900 28.20200
C  19.53700 1.13000 30.74800
C  19.78700 0.97900 27.36600
O  19.99300 0.88000 26.13900
C  18.38300 1.14000 27.80400
N  25.26400 1.00100 27.53600
C  24.26100 1.11900 26.54800
C  24.90600 1.19700 25.13000
C  26.35800 0.77700 25.41200
C  26.48900 0.67400 26.90100
C  24.13800 0.20000 24.13600
C  27.38800 1.79900 24.82500
C  28.31300 1.27000 23.75000
N  26.93900 0.40900 29.83100
C  27.93600 0.20800 28.88000
C  29.21600 -0.13500 29.54700
C  28.96100 0.02300 30.94900
C  27.55000 0.42300 31.00800
C  30.53100 -0.41400 28.81500
C  29.52500 0.00800 32.30000
O  30.67000 -0.17100 32.67800
C  28.40400 0.42200 33.22300
C  28.41000 -0.55300 34.44400
O  27.78800 -1.61800 34.46400
O  29.26600 -0.05100 35.38100
C  29.49200 -0.99500 36.44700
H  21.55200 1.16300 32.58300
H  22.23600 1.28700 26.06300
H  28.39300 0.03900 26.70000
H  25.76100 0.23400 34.74500
H  23.16000 1.67200 34.34100
H  23.27000 -1.24900 33.88700
H  22.16900 -0.32300 34.87800
H  23.82800 -0.74500 35.51700
H  25.68600 3.31000 34.10300
H  26.79300 2.38500 35.05000
H  24.44200 1.85700 36.34500
H  24.47100 3.63300 35.96600
H  19.79800 0.33000 31.44000
H  18.60700 0.71100 30.36200
H  19.32900 2.00500 31.36400
H  18.10600 0.16800 28.21300
H  17.78900 1.31800 26.90800
H  18.24500 1.97700 28.48700
H  24.89600 2.26100 24.89400
H  26.62700 -0.21100 25.03800
H  24.83000 -0.26000 23.43100
H  23.46200 0.78000 23.50700
H  23.58500 -0.61100 24.61000
H  28.00000 2.11400 25.67000
H  27.05800 2.76200 24.43600
H  29.29400 1.26400 24.22600
H  28.30800 1.92400 22.87800
H  28.07600 0.25400 23.43400
H  31.14600 0.43900 29.10200
H  30.34100 -0.41300 27.74100
H  30.94100 -1.32300 29.25400
H  28.66600 1.36400 33.70300
H  29.21000 -2.02600 36.23300
H  28.90700 -0.74600 37.33200
H  30.53500 -0.80800 36.70600

