158

Mg 45.05500 4.10700 46.18700
C  43.15300 7.02800 46.12800
C  42.11900 2.27200 45.65600
C  46.95400 1.38600 45.71900
C  47.86800 6.11100 46.25900
N  42.86600 4.57500 46.04200
C  42.37400 5.81600 46.03100
C  40.81300 5.75500 45.76500
C  40.58400 4.22700 45.70100
C  41.95100 3.60600 45.77900
C  39.47300 3.74100 46.65000
C  40.22100 6.52700 44.56400
C  41.17800 6.90700 43.45700
H  40.57200 7.13400 42.10000
N  44.57500 2.10000 45.76100
C  43.31600 1.56600 45.59500
C  43.50900 0.23700 45.16300
C  44.87700 -0.11100 45.09700
C  45.56300 1.10200 45.52600
C  42.34100 -0.58400 44.66300
C  45.46400 -1.50800 44.74700
O  44.74700 -2.49600 44.47900
C  46.90000 -1.73800 44.79500
N  47.10800 3.78800 45.70800
C  47.64100 2.52700 45.84700
C  49.20700 2.58600 45.79900
C  49.47200 4.10200 46.03000
C  48.02700 4.73200 45.90800
C  50.02700 1.76700 46.78400
C  50.62200 4.87200 45.14300
C  52.01800 5.22600 45.88700
N  45.45100 6.18600 46.27600
C  46.66500 6.82800 46.35700
C  46.53200 8.26800 46.50400
C  45.11200 8.43900 46.47000
C  44.54800 7.11000 46.34600
C  47.61200 9.29400 46.70500
C  44.00500 9.33200 46.55700
O  43.94600 10.52600 46.69600
C  42.75000 8.44600 46.32500
C  41.84800 8.62500 47.50800
O  41.81300 7.78600 48.41400
O  40.97300 9.69700 47.39500
C  39.76400 9.71200 48.28800
H  41.18600 1.71500 45.55000
H  47.66900 0.56500 45.63000
H  48.73400 6.72400 46.51500
H  40.30900 6.12000 46.66000
H  40.28600 4.01700 44.67400
H  38.84700 4.58600 46.93500
H  39.87300 3.30600 47.56600
H  38.91700 2.98900 46.08900
H  39.80400 7.49700 44.83800
H  39.37000 5.97800 44.16100
H  42.06700 6.29100 43.32300
H  41.63000 7.85200 43.75900
H  41.57100 -0.70100 45.42600
H  42.63100 -1.61800 44.47600
H  41.89500 -0.23500 43.73100
H  47.18800 -2.72900 44.44500
H  47.08200 -1.59900 45.86100
H  47.50500 -0.96900 44.31300
H  49.60100 2.39500 44.80100
H  49.76700 4.29200 47.06200
H  50.90100 2.32200 47.12600
H  50.23900 0.76300 46.41500
H  49.38200 1.45100 47.60400
H  50.04700 5.75100 44.85400
H  50.64800 4.26700 44.23700
H  52.04700 4.69000 46.83600
H  52.27900 6.27100 46.05300
H  52.90000 4.85700 45.36300
H  47.91800 9.74500 45.76200
H  48.47500 8.85100 47.20200
H  47.24400 10.08600 47.35700
H  42.19600 8.81800 45.46300
H  39.82600 9.74200 49.37600
H  39.10000 8.89800 47.99700
H  39.20300 10.62300 48.08400
Mg 26.44800 49.75500 27.14500
C  24.28700 51.22600 29.66000
C  28.53200 48.78200 29.72000
C  28.65600 49.17200 24.78500
C  24.43500 51.49000 24.73800
N  26.47600 50.17400 29.46300
C  25.43800 50.67300 30.23800
C  25.64300 50.21400 31.72800
C  27.05600 49.59800 31.73500
C  27.39500 49.45100 30.18700
C  28.10400 50.41600 32.53900
C  24.50300 49.42500 32.37100
C  23.99500 49.98400 33.66500
H  24.97800 50.68700 34.60900
N  28.25800 48.92500 27.22000
C  28.94600 48.53200 28.36700
C  30.29600 47.92400 28.00400
C  30.39300 48.21300 26.56500
C  29.11200 48.85000 26.10800
C  31.35500 47.34900 28.85800
C  31.62100 48.03400 25.58800
O  31.56100 48.35500 24.38600
C  32.86400 47.48100 26.11500
N  26.64300 50.34100 25.13400
C  27.52000 49.76000 24.29200
C  27.09800 49.94900 22.82400
C  25.67200 50.49000 22.87600
C  25.58700 50.83400 24.36300
C  27.97300 50.90800 22.08100
C  24.62300 49.42600 22.35700
C  23.85600 49.82700 21.08100
N  24.62700 50.99800 27.14500
C  23.97400 51.62000 26.08500
C  22.91100 52.42900 26.64100
C  22.96700 52.24900 28.04200
C  24.06800 51.38100 28.31200
C  21.90200 53.24100 25.96600
C  22.38700 52.72900 29.33200
O  21.39100 53.43100 29.61300
C  23.25100 52.00000 30.43400
C  23.72800 53.01300 31.35800
O  24.83600 53.51200 31.21500
O  22.84900 53.19600 32.38100
C  23.10900 54.29800 33.42800
H  29.19500 48.38500 30.49200
H  29.34600 48.81000 24.02000
H  23.71000 51.92200 24.04500
H  25.68500 51.17000 32.25000
H  27.04100 48.60700 32.18800
H  27.69400 50.90100 33.42500
H  28.47600 51.18900 31.86600
H  28.97400 49.79200 32.74400
H  24.91900 48.44800 32.61600
H  23.73200 49.20200 31.63400
H  23.63900 49.06900 34.13700
H  23.16400 50.67300 33.51400
H  31.60200 46.36000 28.47100
H  30.96200 47.29100 29.87300
H  32.22600 48.00200 28.90300
H  33.40200 48.17700 26.75800
H  33.47300 47.18000 25.26300
H  32.57300 46.56700 26.63300
H  27.09100 48.93400 22.42700
H  25.56000 51.40000 22.28700
H  27.53800 51.88100 21.85300
H  28.35400 50.36500 21.21600
H  28.85400 51.23300 22.63400
H  23.94100 49.26000 23.19100
H  25.09800 48.50800 22.00900
H  24.05200 49.13500 20.26200
H  24.10900 50.84700 20.79000
H  22.84600 49.74300 21.48000
H  22.37900 53.84100 25.19100
H  21.35100 53.92600 26.61000
H  21.12600 52.64300 25.48800
H  22.61200 51.36600 31.04900
H  23.25200 55.18300 32.80900
H  24.05400 54.12400 33.94200
H  22.25300 54.36000 34.10100

