158

Mg 24.91400 1.65200 29.57400
C  26.83600 1.33600 32.49100
C  22.14200 1.72000 31.50200
C  23.01500 1.61500 26.73300
C  27.76800 1.39000 27.76100
N  24.52600 1.49400 31.78800
C  25.43000 1.46100 32.73300
C  24.75900 1.64700 34.12800
C  23.19200 1.59400 33.79600
C  23.25000 1.57400 32.29900
C  22.30300 0.45700 34.39300
C  25.30400 2.92700 34.89900
C  26.02000 2.68900 36.28300
H  25.61200 3.60600 37.51200
N  22.87700 1.69800 29.15000
C  21.87400 1.80800 30.08300
C  20.68400 2.05400 29.46200
C  20.90100 1.80600 28.08400
C  22.32600 1.65000 27.91200
C  19.36000 2.27700 30.20400
C  19.87600 1.60400 26.94000
O  20.12800 1.42400 25.76100
C  18.43000 1.64300 27.35900
N  25.34400 1.45600 27.60800
C  24.38600 1.55200 26.63800
C  25.08800 1.65000 25.26100
C  26.53200 1.85100 25.59800
C  26.56100 1.66500 27.09400
C  24.74300 0.51800 24.26900
C  27.38900 3.07100 25.04400
C  26.76100 4.48200 25.34700
N  26.93600 1.24000 30.05400
C  27.97800 1.21200 29.14300
C  29.21200 0.93200 29.89300
C  28.81400 0.99800 31.29700
C  27.44800 1.13200 31.28900
C  30.50000 0.84200 29.22200
C  29.27900 1.05000 32.63600
O  30.37000 1.04600 33.15300
C  27.98400 1.32700 33.51100
C  27.94700 0.29600 34.66400
O  27.46900 -0.81100 34.63800
O  28.58400 0.83400 35.72200
C  28.68100 -0.05900 36.94800
H  21.28500 1.63500 32.17300
H  22.52600 1.83900 25.78200
H  28.67800 1.39800 27.15600
H  25.00000 0.82700 34.80500
H  22.71800 2.51500 34.13300
H  21.66100 0.92200 35.14100
H  22.87700 -0.24300 34.99900
H  21.68400 -0.04200 33.64700
H  24.43500 3.56800 35.04800
H  25.89900 3.55500 34.23600
H  27.08000 2.92800 36.19800
H  25.87800 1.66900 36.64100
H  19.56900 2.75300 31.16200
H  18.82800 1.34300 30.38600
H  18.84700 2.97300 29.54100
H  18.24800 0.80600 28.03200
H  17.86500 1.44900 26.44700
H  18.06600 2.58100 27.77800
H  24.72700 2.60700 24.88500
H  27.14700 1.01600 25.26100
H  25.52900 -0.23700 24.25400
H  24.48900 0.82000 23.25300
H  23.89700 -0.03500 24.67500
H  27.56100 3.05800 23.96800
H  28.36300 3.01400 25.52900
H  25.93300 4.34700 26.04400
H  26.40600 4.88200 24.39800
H  27.59400 5.10800 25.66600
H  30.55500 1.43900 28.31100
H  30.61500 -0.23100 29.06700
H  31.27300 1.24900 29.87500
H  27.99900 2.34000 33.91200
H  29.19800 0.34700 37.81700
H  29.02600 -1.05400 36.66600
H  27.66100 -0.06300 37.33400
Mg 40.49500 9.36400 29.67700
C  42.58100 10.62500 32.28500
C  38.40500 8.26100 32.09100
C  38.65900 8.02900 27.27000
C  42.98300 10.32500 27.36200
N  40.52100 9.45900 31.97100
C  41.39800 10.06400 32.81600
C  41.08000 9.85100 34.28600
C  39.84200 8.78900 34.15600
C  39.54700 8.74400 32.68400
C  40.03900 7.39800 34.89400
C  40.77400 11.19600 35.06000
C  39.87300 11.08800 36.31000
H  40.30200 11.98900 37.49000
N  38.64800 8.55000 29.65800
C  37.92600 8.14900 30.77400
C  36.59000 7.68500 30.39600
C  36.69900 7.57600 28.93600
C  38.00700 8.07000 28.56000
C  35.51500 7.32200 31.36600
C  35.62500 7.18600 27.92600
O  35.88100 7.11300 26.74700
C  34.30200 6.70800 28.30700
N  40.87000 8.99600 27.65900
C  39.94100 8.45300 26.88200
C  40.33500 8.50100 25.40500
C  41.80100 9.11000 25.45600
C  41.87700 9.54600 26.95500
C  40.25400 7.04300 24.73900
C  42.22400 10.09500 24.30400
C  42.26700 11.64900 24.59800
N  42.46700 10.23900 29.73800
C  43.25300 10.70000 28.68400
C  44.29900 11.49400 29.28300
C  44.09700 11.45900 30.67800
C  42.95900 10.71000 30.94600
C  45.31000 12.24100 28.44400
C  44.52700 12.03400 31.90700
O  45.46200 12.82400 32.05000
C  43.51100 11.55100 32.99900
C  44.42400 10.91700 34.04200
O  44.61400 9.70200 34.21200
O  44.74500 11.86900 34.97500
C  45.57600 11.45400 36.08500
H  37.66200 8.16300 32.88500
H  38.12400 7.46600 26.50300
H  43.69800 10.75900 26.66100
H  41.88200 9.29000 34.76500
H  38.97400 9.17500 34.69000
H  41.01200 7.34600 35.38100
H  39.98400 6.60500 34.14800
H  39.21100 7.12800 35.54900
H  40.38200 11.94500 34.37200
H  41.69900 11.55200 35.51300
H  39.88900 10.03200 36.57700
H  38.83300 11.29200 36.05200
H  34.64400 7.96600 31.24100
H  35.86900 7.49300 32.38200
H  35.20100 6.28000 31.30700
H  33.86900 7.21900 29.16800
H  34.45100 5.64700 28.50700
H  33.69500 6.83600 27.41100
H  39.58700 9.12800 24.92100
H  42.49200 8.26700 25.47800
H  40.20300 6.36500 25.59000
H  41.22900 6.81800 24.30600
H  39.57300 6.92700 23.89600
H  41.52800 10.01400 23.46900
H  43.13300 9.79900 23.77900
H  41.75400 11.86800 25.53500
H  41.77800 12.02700 23.70000
H  43.31800 11.91600 24.48400
H  44.78400 12.85500 27.71300
H  45.93100 11.56300 27.85900
H  45.92500 12.91200 29.04300
H  43.08500 12.42600 33.48900
H  45.94100 12.34500 36.59600
H  46.41900 10.92800 35.63700
H  45.11000 10.79400 36.81600

