158

Mg -11.77000 38.74700 40.77200
C  -9.90200 35.81900 39.98200
C  -9.12400 40.57400 39.30000
C  -13.71500 41.47800 40.61500
C  -14.40300 36.64900 41.44400
N  -9.72900 38.29700 39.72200
C  -9.23000 37.01600 39.48100
C  -7.97800 37.03700 38.61100
C  -7.66300 38.58900 38.59600
C  -8.88300 39.22300 39.31300
C  -6.33500 38.99300 39.24600
C  -8.22600 36.38500 37.23900
C  -6.96800 35.62800 36.74400
H  -6.39600 36.02300 35.40000
N  -11.38300 40.81400 40.34600
C  -10.22300 41.39900 39.81800
C  -10.47200 42.85500 39.84800
C  -11.80400 43.07200 39.98600
C  -12.38700 41.75700 40.30100
C  -9.32800 43.71200 39.36300
C  -12.53900 44.42600 39.96800
O  -11.78400 45.39600 40.02600
C  -14.02200 44.67800 40.08500
N  -13.72500 39.04500 40.92300
C  -14.27700 40.27700 41.04800
C  -15.84200 40.16600 41.22000
C  -16.05900 38.59800 41.20700
C  -14.61600 38.03400 41.27300
C  -16.56900 40.82900 42.44200
C  -16.75300 38.09400 39.88800
C  -17.59900 36.80200 40.06700
N  -12.11700 36.67900 40.90700
C  -13.19700 35.96200 41.27400
C  -12.92000 34.57800 41.32700
C  -11.66700 34.46500 40.85600
C  -11.19300 35.74700 40.59900
C  -13.93300 33.48900 41.57900
C  -10.59400 33.55300 40.59500
O  -10.56400 32.35200 40.68900
C  -9.38600 34.35700 39.98200
C  -8.32300 34.09500 40.92000
O  -7.54400 33.14900 40.74500
O  -8.07500 35.17800 41.79600
C  -6.89700 35.11500 42.73800
H  -8.47700 41.20200 38.68400
H  -14.45000 42.28500 40.62500
H  -15.27100 36.03600 41.69500
H  -7.27100 36.51300 39.25500
H  -7.57800 38.91000 37.55800
H  -5.58900 39.55200 38.68300
H  -5.83100 38.13400 39.69000
H  -6.55700 39.75400 39.99400
H  -8.60200 37.13100 36.53900
H  -9.07900 35.70800 37.29100
H  -7.19400 34.56500 36.66100
H  -6.13000 35.65300 37.44100
H  -8.32700 43.35900 39.61200
H  -9.36100 44.73400 39.74000
H  -9.36900 43.76400 38.27500
H  -14.27700 45.69500 39.78700
H  -14.33600 44.45800 41.10500
H  -14.68800 44.13400 39.41400
H  -16.28300 40.66900 40.36000
H  -16.67900 38.23000 42.02500
H  -17.22300 41.64200 42.12500
H  -15.80900 41.24600 43.10300
H  -17.15900 40.08800 42.98300
H  -15.93100 37.91500 39.19400
H  -17.42900 38.82400 39.44300
H  -17.89400 36.63700 41.10300
H  -17.03800 35.99600 39.59400
H  -18.59900 36.84300 39.63700
H  -14.72300 33.55300 40.83000
H  -14.24900 33.58500 42.61800
H  -13.60200 32.46400 41.41100
H  -9.05500 33.92900 39.03600
H  -6.33000 34.20500 42.54400
H  -7.22700 35.29400 43.76100
H  -6.21700 35.89600 42.39700
Mg -5.40200 25.56800 25.99800
C  -4.06800 27.04500 28.93100
C  -7.28900 23.69800 28.03500
C  -6.32600 23.97100 23.21400
C  -3.21300 27.68300 24.11300
N  -5.49500 25.31600 28.23200
C  -4.92600 25.97700 29.24800
C  -5.56300 25.58500 30.62500
C  -6.43600 24.36400 30.24000
C  -6.49200 24.51700 28.75700
C  -6.03700 22.98500 30.80500
C  -6.39600 26.72400 31.25200
C  -7.06700 26.54600 32.65800
H  -6.39700 25.48100 33.58900
N  -6.70700 24.04500 25.68100
C  -7.45700 23.48300 26.66100
C  -8.40500 22.47400 26.02900
C  -8.08100 22.52300 24.64100
C  -6.93300 23.48300 24.46400
C  -9.44600 21.60800 26.88200
C  -8.62600 21.69300 23.57600
O  -8.26300 21.82800 22.44800
C  -9.64200 20.60300 23.88600
N  -4.85400 25.80800 23.98000
C  -5.36700 24.99800 22.98800
C  -4.66100 25.30300 21.67200
C  -3.87100 26.60400 21.96500
C  -4.08200 26.76500 23.45900
C  -3.76600 24.13600 21.26500
C  -4.16900 27.88800 21.13600
C  -3.15400 28.27400 20.04200
N  -3.99100 27.03700 26.36300
C  -3.22900 27.83800 25.50200
C  -2.47000 28.80600 26.33000
C  -2.76000 28.52500 27.64200
C  -3.66700 27.41900 27.64100
C  -1.57100 29.90600 25.78400
C  -2.52900 28.95500 28.94700
O  -1.90900 29.93100 29.34400
C  -3.36100 28.01800 29.82700
C  -2.57500 27.43800 30.92000
O  -1.56700 26.72600 30.81000
O  -3.12700 27.71900 32.16000
C  -2.31700 27.45300 33.35900
H  -7.89100 23.02500 28.65000
H  -6.49200 23.34800 22.33300
H  -2.46800 28.17400 23.48300
H  -4.74700 25.32700 31.30000
H  -7.41400 24.54800 30.68400
H  -6.68200 22.73100 31.64600
H  -5.01900 22.95700 31.19300
H  -6.13600 22.21500 30.04000
H  -7.15700 26.86200 30.48400
H  -5.81700 27.64200 31.35200
H  -8.13400 26.34800 32.56100
H  -7.00900 27.54200 33.09700
H  -9.47200 22.01200 27.89400
H  -9.39500 20.52500 26.77800
H  -10.46000 21.82200 26.54300
H  -10.62200 20.91000 24.25200
H  -9.06200 20.02100 24.60200
H  -9.68600 19.86500 23.08500
H  -5.45100 25.53300 20.95600
H  -2.79400 26.44500 21.91300
H  -3.89700 23.36400 22.02400
H  -2.68800 24.27600 21.19400
H  -4.13100 23.71500 20.32800
H  -4.36600 28.70600 21.82900
H  -5.14900 27.90000 20.65900
H  -2.83500 29.27200 20.34400
H  -3.59600 28.40700 19.05500
H  -2.31900 27.57300 20.04300
H  -2.25400 30.52900 25.20700
H  -0.78300 29.46400 25.17400
H  -1.10700 30.39900 26.63900
H  -4.09000 28.70900 30.25000
H  -1.64800 28.30000 33.51200
H  -1.77800 26.50600 33.31700
H  -3.06900 27.43300 34.14800

