158

Mg 43.13900 41.75700 26.89600
C  42.24900 44.11500 29.35700
C  44.14100 39.60600 29.15200
C  44.19000 39.85300 24.28100
C  42.56000 44.42600 24.48600
N  43.41500 41.94900 29.05200
C  42.74400 42.85600 29.89600
C  42.73800 42.36900 31.35300
C  43.45000 40.95600 31.26300
C  43.66200 40.80900 29.75900
C  44.73100 40.81800 32.00500
C  41.25400 42.39100 31.90000
C  40.95100 43.35800 33.11500
H  40.17500 42.69600 34.28600
N  44.06500 39.99200 26.69900
C  44.35400 39.19700 27.80300
C  44.94800 37.97500 27.27900
C  44.94300 37.98800 25.83300
C  44.44200 39.36100 25.55300
C  45.45600 36.89900 28.11800
C  45.34000 36.90500 24.76400
O  45.48800 37.18500 23.62400
C  45.57400 35.53500 25.25300
N  43.51900 42.22200 24.62400
C  43.73200 41.09200 23.83300
C  43.53800 41.49000 22.38000
C  43.02800 43.02000 22.44700
C  42.99800 43.23100 23.93200
C  44.68800 41.24500 21.44700
C  41.72100 43.36800 21.63700
C  40.38000 42.72100 22.04800
N  42.67800 43.81800 26.93800
C  42.43400 44.69600 25.88100
C  41.92900 45.94600 26.40400
C  41.88100 45.78200 27.77000
C  42.30700 44.51200 28.04300
C  41.58700 47.19800 25.52100
C  41.60200 46.47000 29.02800
O  41.27100 47.62200 29.18900
C  41.77900 45.34300 30.19700
C  42.86600 45.84500 31.09100
O  43.99700 46.09800 30.69800
O  42.41400 46.08600 32.33300
C  43.19500 46.67100 33.37400
H  44.29600 38.78600 29.85600
H  44.37900 39.21500 23.41500
H  42.31300 45.22400 23.78300
H  43.34400 43.03300 31.96900
H  42.80100 40.15100 31.60700
H  45.61000 40.81000 31.36000
H  44.72400 39.87200 32.54700
H  44.95500 41.61800 32.71200
H  41.01600 41.36700 32.18600
H  40.65100 42.67200 31.03600
H  40.26500 44.12600 32.75800
H  41.80200 43.96900 33.41600
H  45.90100 37.36900 28.99500
H  46.31000 36.46600 27.59700
H  44.62000 36.27700 28.43800
H  45.72200 34.87800 24.39600
H  44.75200 35.10500 25.82400
H  46.46700 35.43200 25.87000
H  42.70000 40.84900 22.10600
H  43.76400 43.66800 21.97000
H  45.63500 41.09600 21.96500
H  44.82800 42.10400 20.79100
H  44.42000 40.35100 20.88300
H  41.73600 42.91900 20.64400
H  41.56000 44.42900 21.45200
H  40.24700 41.72700 21.62200
H  39.59100 43.43900 21.82300
H  40.35600 42.53600 23.12200
H  40.63600 46.98000 25.03500
H  42.23100 47.43000 24.67200
H  41.44400 48.06300 26.16800
H  40.83900 45.07400 30.68000
H  43.64400 45.79300 33.83800
H  42.67200 47.14200 34.20600
H  43.88000 47.41200 32.96200
Mg 30.53100 57.09000 39.99700
C  27.83000 55.04100 38.92500
C  32.59800 54.41200 39.25300
C  33.24800 59.17100 40.37300
C  28.43000 59.64700 40.28400
N  30.22200 55.07800 39.07500
C  29.06800 54.45300 38.67700
C  29.33700 53.07100 38.07200
C  30.65300 52.83200 38.80200
C  31.21800 54.19600 39.01900
C  30.43100 52.00100 40.14500
C  29.50300 53.14200 36.50200
C  28.22700 53.15500 35.60300
H  27.95500 54.50200 34.92300
N  32.61700 56.75400 39.99600
C  33.26000 55.63000 39.57900
C  34.68300 55.97500 39.50300
C  34.88300 57.32700 39.93600
C  33.52800 57.81200 40.13700
C  35.69200 54.98800 38.86700
C  36.26200 57.92300 40.19300
O  37.25400 57.21500 39.89900
C  36.56000 59.27500 40.89600
N  30.87800 59.11000 40.34800
C  32.06400 59.79900 40.59200
C  31.83900 61.33100 40.57700
C  30.23800 61.49400 40.57300
C  29.78800 59.98300 40.38000
C  32.64400 62.07100 41.77200
C  29.76600 62.56000 39.59600
C  28.66400 63.52900 40.13100
N  28.54200 57.30000 39.82800
C  27.83600 58.42400 40.03000
C  26.38700 58.15600 39.89600
C  26.40500 56.84900 39.48300
C  27.72400 56.35300 39.41700
C  25.28900 59.11100 39.95200
C  25.50300 55.81400 39.07200
O  24.28200 55.84300 38.98800
C  26.41500 54.60700 38.64100
C  26.02600 53.41900 39.36200
O  26.46800 52.92000 40.40100
O  24.96600 52.85200 38.65000
C  24.13800 51.86200 39.40800
H  33.20200 53.51000 39.13500
H  34.08600 59.87100 40.35300
H  27.76500 60.49800 40.12400
H  28.62400 52.36900 38.50400
H  31.31400 52.32400 38.09900
H  30.89000 52.54500 40.97000
H  30.93800 51.05100 39.97100
H  29.40600 51.76000 40.42700
H  30.26900 52.52900 36.02600
H  29.94800 54.13300 36.41500
H  27.33800 52.79400 36.11800
H  28.38500 52.31200 34.93000
H  36.10600 55.56700 38.04200
H  35.23500 54.15000 38.34100
H  36.46600 54.66900 39.56500
H  37.51400 59.04900 41.37200
H  35.87500 59.71800 41.61800
H  36.65900 60.09300 40.18200
H  32.32800 61.70100 39.67500
H  29.97000 61.73800 41.60100
H  33.41400 61.43300 42.20600
H  31.94700 62.48900 42.50000
H  33.18800 62.86900 41.26700
H  29.38200 62.11700 38.67700
H  30.59500 63.15500 39.21200
H  27.63600 63.18300 40.24200
H  28.58300 64.40500 39.48800
H  28.95400 64.00900 41.06600
H  25.59300 60.04800 39.48500
H  25.27300 59.40100 41.00200
H  24.37200 58.74900 39.48700
H  26.34100 54.40800 37.57200
H  23.59700 52.25400 40.26900
H  24.77100 51.09100 39.84700
H  23.40900 51.38400 38.75300

