158

Mg 1.03900 8.23500 26.77300
C  1.84600 10.26800 29.48300
C  0.81400 5.54500 29.05900
C  0.69600 6.12200 24.06200
C  1.77600 10.86200 24.71100
N  1.47000 7.84700 28.91100
C  1.62300 8.90200 29.79200
C  1.38400 8.39800 31.31600
C  1.60100 6.86500 31.18100
C  1.28700 6.68600 29.63100
C  2.98300 6.34900 31.75700
C  0.01600 8.78300 31.80300
C  -0.23400 8.86300 33.31600
H  0.80400 8.42300 34.38300
N  0.75600 6.13000 26.64900
C  0.69400 5.18200 27.71100
C  0.40400 3.85300 27.15300
C  0.27600 3.99100 25.70600
C  0.66600 5.46700 25.38900
C  0.40600 2.55800 27.91700
C  0.00600 2.89800 24.62100
O  0.02700 3.24700 23.48700
C  -0.41000 1.48000 24.94100
N  1.29700 8.41900 24.71000
C  0.96900 7.43900 23.82300
C  1.05200 8.03100 22.38700
C  1.03200 9.56600 22.60800
C  1.45700 9.61100 24.13400
C  2.28100 7.56100 21.56100
C  -0.41500 10.19800 22.53600
C  -0.81600 10.86200 21.16300
N  1.59700 10.20400 26.99200
C  1.86600 11.16100 26.08200
C  2.20400 12.37500 26.72300
C  2.18700 12.07400 28.04900
C  1.84400 10.76000 28.16000
C  2.67300 13.66600 26.10700
C  2.40600 12.63700 29.42300
O  2.82700 13.75300 29.74200
C  2.09600 11.40700 30.46200
C  3.23100 11.15300 31.28300
O  4.22400 10.47800 30.98800
O  2.98900 11.76700 32.47600
C  3.95100 11.48600 33.51700
H  0.70500 4.69500 29.73600
H  0.36500 5.52500 23.20900
H  1.83100 11.73400 24.05700
H  2.18500 8.73600 31.97300
H  0.86500 6.37200 31.81600
H  2.79200 5.56600 32.49000
H  3.62000 7.14400 32.14400
H  3.52700 5.82300 30.97200
H  -0.73100 8.05900 31.47700
H  -0.27300 9.71800 31.32200
H  -1.09700 8.28100 33.64100
H  -0.48200 9.91200 33.48100
H  0.69100 2.70800 28.95800
H  1.18100 1.98200 27.41200
H  -0.50500 1.96400 27.84200
H  -0.68100 0.89500 24.06200
H  -1.27300 1.49200 25.60700
H  0.45500 1.10000 25.48400
H  0.14600 7.88000 21.79900
H  1.73100 10.12100 21.98200
H  2.48400 8.31800 20.80300
H  1.97300 6.56700 21.23700
H  3.08600 7.37200 22.27100
H  -0.60500 11.03000 23.21500
H  -1.15900 9.44500 22.79400
H  -1.76100 10.51300 20.74700
H  -0.01900 10.96500 20.42700
H  -0.96900 11.87200 21.54300
H  2.76300 14.45300 26.85600
H  1.90100 13.95500 25.39300
H  3.59900 13.48400 25.56200
H  1.19600 11.58300 31.05200
H  3.76300 10.46400 33.84500
H  4.03200 12.18400 34.35000
H  4.95500 11.67400 33.13600
Mg 45.32100 4.60200 48.69000
C  43.31400 7.35500 48.18400
C  42.53500 2.69900 48.34900
C  47.27700 1.81800 48.73800
C  48.18500 6.61100 48.46800
N  43.17100 4.97600 48.28400
C  42.58800 6.19600 48.17200
C  41.10200 6.06000 47.72800
C  40.78900 4.60500 48.21000
C  42.23200 4.05800 48.47300
C  39.82800 4.49800 49.35200
C  40.91600 6.36600 46.25500
C  39.81100 7.41000 45.91800
H  39.06900 7.28800 44.62600
N  44.95800 2.57800 48.45500
C  43.75700 2.00700 48.22000
C  43.97000 0.64100 47.90700
C  45.36400 0.28200 47.99700
C  45.92300 1.53700 48.50500
C  42.86800 -0.32700 47.52400
C  45.94600 -1.04000 47.78000
O  45.29000 -1.99700 47.43900
C  47.43500 -1.28400 47.93800
N  47.47300 4.27900 48.46200
C  47.98500 3.00200 48.65100
C  49.50300 3.16500 48.90500
C  49.72300 4.68800 48.86800
C  48.40600 5.25500 48.54500
C  50.17600 2.38300 50.12100
C  50.76100 5.23300 47.72900
C  51.77500 6.19000 48.40100
N  45.69000 6.52300 48.50800
C  46.89200 7.22300 48.51600
C  46.63900 8.67700 48.41800
C  45.22500 8.69500 48.19700
C  44.70800 7.41500 48.33600
C  47.67400 9.83300 48.35700
C  44.16500 9.61900 47.85700
O  44.32100 10.80800 47.62800
C  42.84900 8.80700 47.96100
C  42.18900 9.41700 49.09400
O  42.24600 8.98400 50.18500
O  41.28800 10.44900 48.80500
C  40.18500 10.58400 49.74600
H  41.69000 2.02900 48.17900
H  48.00800 1.03000 48.93000
H  49.10700 7.13300 48.73200
H  40.47200 6.64200 48.40000
H  40.45100 3.88600 47.46300
H  39.49000 5.49200 49.64500
H  40.11600 4.02600 50.29100
H  38.95200 3.91400 49.07100
H  40.64600 5.46900 45.69800
H  41.86700 6.79200 45.93700
H  40.38100 8.33700 45.85600
H  39.14100 7.54400 46.76700
H  43.22300 -0.85900 46.64100
H  41.94500 0.14700 47.19200
H  42.59000 -0.92300 48.39300
H  47.71800 -1.27000 48.99000
H  47.95800 -0.50600 47.38000
H  47.67700 -2.25500 47.50600
H  49.83300 2.57200 48.05200
H  49.97500 4.98500 49.88700
H  50.72600 1.49300 49.81800
H  49.42500 1.98800 50.80500
H  50.67600 3.21300 50.62000
H  50.29400 5.71000 46.86700
H  51.24800 4.35200 47.31200
H  52.79200 5.80700 48.48500
H  51.54300 6.41000 49.44300
H  51.81800 7.12900 47.84900
H  47.23900 10.72100 47.90000
H  48.43100 9.54800 47.62600
H  48.08300 10.03700 49.34700
H  42.32100 8.85600 47.00900
H  39.62600 11.51900 49.70700
H  40.57800 10.43700 50.75200
H  39.55000 9.72300 49.53900

