158

Mg 44.67300 5.95100 48.15000
C  42.60900 8.69400 47.73800
C  42.04800 3.89000 47.26200
C  46.75700 3.41400 48.18900
C  47.39200 8.21100 48.28400
N  42.59700 6.20200 47.57500
C  41.97900 7.45700 47.43500
C  40.59600 7.26400 46.86000
C  40.27700 5.74100 47.02600
C  41.73800 5.22200 47.35900
C  39.17700 5.39900 47.99300
C  40.56000 7.66800 45.27100
C  39.10600 7.65300 44.63500
H  38.92700 6.75500 43.47300
N  44.44400 3.95100 47.83100
C  43.32900 3.26800 47.39500
C  43.54900 1.88400 47.12500
C  44.92400 1.68900 47.38900
C  45.45300 2.99200 47.91200
C  42.53900 0.97600 46.53500
C  45.68800 0.41600 47.14000
O  45.18400 -0.55700 46.65600
C  47.07800 0.27600 47.63900
N  46.77600 5.80100 48.22800
C  47.44700 4.60700 48.28000
C  48.91100 4.74200 48.63600
C  49.13000 6.31600 48.50700
C  47.69400 6.83900 48.39800
C  49.21100 4.04800 50.00300
C  49.96000 6.70300 47.27100
C  51.47600 6.95500 47.49200
N  44.98800 8.07800 48.16000
C  46.13700 8.83000 48.18300
C  45.80600 10.24700 48.28600
C  44.39300 10.28400 48.14400
C  43.96200 8.85500 48.03500
C  46.75100 11.33600 48.25800
C  43.21500 11.12500 48.06300
O  43.13400 12.32000 48.02700
C  41.96000 10.13500 47.84800
C  41.13700 10.29200 49.03700
O  41.42900 10.11100 50.21400
O  39.99700 10.99800 48.65900
C  39.09600 11.31600 49.75300
H  41.23000 3.25000 46.92300
H  47.46600 2.60600 48.38200
H  48.21900 8.92100 48.35200
H  39.90900 7.84000 47.48100
H  39.93200 5.32100 46.08200
H  38.59300 4.61600 47.51000
H  38.55500 6.25700 48.25100
H  39.63000 4.94000 48.87200
H  41.19800 6.93600 44.77500
H  40.82000 8.71600 45.12400
H  38.79600 8.68200 44.45200
H  38.36200 7.26500 45.33000
H  43.06500 0.48400 45.71700
H  41.68600 1.53800 46.15300
H  42.02100 0.27800 47.19200
H  47.72200 0.73600 46.89000
H  47.22600 -0.80200 47.70000
H  47.19600 0.65600 48.65400
H  49.57300 4.19400 47.96400
H  49.47300 6.65900 49.48300
H  50.08700 3.40500 49.91500
H  48.37500 3.52100 50.46300
H  49.27800 4.83300 50.75700
H  49.60200 7.62200 46.80500
H  49.85300 5.92900 46.51200
H  52.10900 6.21000 47.01000
H  51.69100 6.98300 48.56100
H  51.67500 7.93900 47.06800
H  47.43900 11.07300 47.45400
H  47.23900 11.47400 49.22300
H  46.23500 12.26600 48.01900
H  41.55500 10.46100 46.89000
H  38.22700 11.87900 49.41100
H  39.62100 11.91700 50.49500
H  38.82200 10.44600 50.35000
Mg 47.85000 16.06700 28.50400
C  45.89400 16.34200 31.40900
C  50.39200 17.77900 30.22900
C  49.48300 16.36000 25.54100
C  45.03600 15.08100 26.81200
N  48.06100 16.90600 30.62300
C  47.18500 16.81800 31.65600
C  47.89300 17.35500 32.86900
C  49.08200 18.20100 32.25100
C  49.22200 17.55000 30.91800
C  48.85300 19.75500 32.24600
C  48.47200 16.17100 33.84800
C  48.60600 16.48000 35.31500
H  48.55000 17.96500 35.82300
N  49.70400 16.84800 27.95600
C  50.62400 17.45900 28.80500
C  51.86600 17.61400 28.08400
C  51.61600 17.17900 26.69700
C  50.22100 16.75100 26.67700
C  53.18600 17.94200 28.83500
C  52.64200 17.07800 25.64500
O  52.34600 16.79700 24.50200
C  54.08100 17.48600 25.90000
N  47.36200 15.59400 26.53100
C  48.14300 15.94500 25.46500
C  47.42400 15.84200 24.14000
C  46.14200 15.17300 24.53600
C  46.10800 15.27400 26.02400
C  47.21700 17.09800 23.26400
C  46.09400 13.64200 24.12300
C  45.06400 13.29600 23.01800
N  45.88500 15.74600 28.97400
C  44.86700 15.33300 28.14600
C  43.74800 15.01500 28.96300
C  44.07300 15.37600 30.22100
C  45.36600 15.89800 30.15900
C  42.47400 14.26600 28.56000
C  43.54600 15.41900 31.54200
O  42.46600 15.03300 31.95400
C  44.78500 16.04500 32.39300
C  44.41800 17.28900 33.09100
O  44.43300 18.41300 32.59700
O  43.82700 16.90600 34.28000
C  43.27000 18.03700 35.00000
H  51.24300 18.29500 30.67900
H  49.97900 16.52300 24.58200
H  44.18300 14.66200 26.27400
H  47.19400 18.01500 33.38300
H  49.98000 18.05100 32.85100
H  47.97600 20.01700 32.83700
H  48.78800 20.05500 31.20000
H  49.70000 20.22700 32.74400
H  49.42800 15.82500 33.45500
H  47.85300 15.28500 33.70800
H  49.51900 16.13900 35.80300
H  47.80400 15.99400 35.87100
H  53.85600 17.08300 28.83000
H  53.03100 18.21700 29.87900
H  53.66000 18.76500 28.30000
H  54.12800 18.55000 26.13100
H  54.63700 17.40600 24.96600
H  54.53500 16.89600 26.69600
H  48.04200 15.15500 23.56300
H  45.35000 15.73700 24.04300
H  47.89700 17.02400 22.41500
H  47.43000 18.01100 23.82000
H  46.21300 17.28700 22.88300
H  45.99900 12.97700 24.98100
H  47.06500 13.35600 23.71900
H  45.66300 13.10400 22.12900
H  44.38500 14.12400 22.81500
H  44.46600 12.46100 23.38200
H  42.38300 14.33000 27.47600
H  41.52300 14.58300 28.98800
H  42.60900 13.21800 28.82700
H  45.03700 15.25700 33.10200
H  44.01800 18.81100 35.17000
H  42.77000 17.87500 35.95500
H  42.47200 18.44100 34.37700

