158

Mg 43.75300 4.50800 47.56700
C  41.57000 7.17900 47.33200
C  41.04800 2.39600 46.98400
C  45.88800 1.96600 47.27800
C  46.40700 6.79200 47.70100
N  41.68000 4.72400 47.05200
C  40.96200 5.96500 47.07000
C  39.50000 5.73600 46.79100
C  39.32600 4.21700 47.02500
C  40.78000 3.71800 47.11100
C  38.32500 3.80000 48.21100
C  39.12600 6.29400 45.32200
C  37.88900 7.13500 45.30600
H  37.15800 7.00100 43.98600
N  43.51700 2.43900 47.16500
C  42.33400 1.72200 47.06300
C  42.61300 0.33400 46.86700
C  44.02300 0.08200 46.96800
C  44.55300 1.53100 47.12200
C  41.49800 -0.63600 46.59400
C  44.71700 -1.19200 46.95900
O  44.04700 -2.16600 46.90500
C  46.16500 -1.37600 47.09600
N  45.77600 4.42900 47.44000
C  46.44900 3.23500 47.45700
C  48.02800 3.43600 47.59200
C  48.18000 4.98000 47.64600
C  46.67500 5.43100 47.56900
C  48.69100 2.84000 48.76900
C  48.96000 5.74600 46.51400
C  49.99800 6.86600 46.93000
N  43.97000 6.55400 47.53400
C  45.05800 7.30000 47.68800
C  44.69100 8.70700 47.74000
C  43.24000 8.73100 47.68200
C  42.86700 7.37100 47.50100
C  45.71100 9.87400 47.73400
C  42.14400 9.55700 47.66300
O  42.03800 10.72200 47.78700
C  40.93800 8.56000 47.48300
C  39.98800 8.69700 48.66500
O  40.15200 8.16800 49.72600
O  38.91300 9.48900 48.34300
C  37.86900 9.68700 49.35700
H  40.22400 1.71400 46.76300
H  46.68900 1.23300 47.16000
H  47.33500 7.36500 47.65700
H  39.01900 6.19900 47.65200
H  38.82600 3.87100 46.12100
H  37.85900 4.61600 48.76300
H  38.93600 3.30100 48.96300
H  37.49800 3.17800 47.86900
H  38.98800 5.48400 44.60600
H  39.97400 6.90700 45.01800
H  38.19700 8.16100 45.50600
H  37.21300 7.03400 46.15500
H  41.65200 -1.10500 45.62200
H  40.49700 -0.20800 46.64600
H  41.54500 -1.37500 47.39400
H  46.45300 -1.28100 48.14300
H  46.61200 -0.59900 46.47700
H  46.39700 -2.34100 46.64400
H  48.47500 3.16500 46.63500
H  48.57700 5.27300 48.61800
H  48.02700 2.10600 49.22700
H  48.74400 3.53900 49.60300
H  49.68100 2.43500 48.56200
H  48.17700 6.13500 45.86200
H  49.52900 5.06700 45.88000
H  50.20700 6.89800 48.00000
H  49.42400 7.76200 46.69500
H  50.85100 6.83600 46.25200
H  45.22600 10.58500 47.06500
H  46.62800 9.45800 47.31700
H  45.81100 10.22700 48.76100
H  40.42000 8.83400 46.56400
H  36.98600 9.32300 48.83100
H  37.78200 10.74300 49.61200
H  37.98500 9.04900 50.23300
Mg 30.82400 58.14700 40.92400
C  28.10800 56.45400 39.25100
C  32.88600 55.79700 39.51200
C  33.43600 60.13400 41.54200
C  28.56700 60.81700 41.42700
N  30.50700 56.38500 39.62200
C  29.36800 55.86500 39.07100
C  29.61000 54.55400 38.31600
C  31.10100 54.22600 38.74300
C  31.54900 55.57400 39.31200
C  31.40100 52.97400 39.71800
C  29.28100 54.72900 36.83800
C  28.40700 53.58700 36.20900
H  27.76600 53.93000 34.82900
N  32.85200 57.96700 40.61500
C  33.52500 56.93000 40.05500
C  34.98000 57.14400 40.11400
C  35.12200 58.38000 40.77100
C  33.76800 58.89100 41.02000
C  36.04300 56.26500 39.54700
C  36.42700 59.12400 41.15100
O  37.48800 58.76000 40.64200
C  36.48300 60.42700 42.10600
N  30.99300 60.25000 41.26300
C  32.16100 60.76800 41.71800
C  32.06400 62.26300 42.03700
C  30.50300 62.39300 42.29700
C  29.97400 61.06000 41.64000
C  32.96700 62.83100 43.17100
C  29.87300 63.68700 41.72800
C  28.86700 64.40400 42.65700
N  28.75700 58.55600 40.55400
C  27.97200 59.61700 40.96400
C  26.65300 59.44000 40.43900
C  26.61900 58.21300 39.80300
C  27.92700 57.67400 39.91600
C  25.48700 60.39200 40.63700
C  25.87000 57.29900 39.03600
O  24.71500 57.26900 38.69000
C  26.77300 55.97200 38.77900
C  26.34100 54.78600 39.65200
O  26.10000 54.88000 40.84400
O  26.29000 53.65300 38.94700
C  26.21800 52.33500 39.67300
H  33.58400 55.02800 39.17300
H  34.19400 60.88300 41.78200
H  27.87200 61.62700 41.65700
H  28.98400 53.81700 38.81900
H  31.80400 54.12300 37.91700
H  30.61900 52.21500 39.70600
H  31.51300 53.44300 40.69600
H  32.35900 52.55200 39.41500
H  30.27200 54.76100 36.38500
H  28.88300 55.73800 36.73300
H  27.62100 53.25500 36.88700
H  29.09800 52.75000 36.10500
H  36.73200 55.97700 40.34100
H  36.57800 56.79700 38.76000
H  35.68400 55.32700 39.12200
H  36.14900 61.33400 41.60200
H  37.52800 60.64300 42.32700
H  35.97800 60.29300 43.06300
H  32.38300 62.71300 41.09700
H  30.38000 62.30800 43.37700
H  33.76800 63.40400 42.70200
H  33.28800 61.97000 43.75800
H  32.38300 63.51300 43.78900
H  29.31000 63.34600 40.86000
H  30.58300 64.42400 41.35400
H  28.66100 63.74000 43.49700
H  27.93500 64.50900 42.10300
H  29.25300 65.40800 42.83600
H  25.65400 61.38700 40.22400
H  25.42800 60.48200 41.72200
H  24.58800 59.92800 40.23200
H  26.68600 55.61700 37.75200
H  25.66000 51.58000 39.11900
H  25.98400 52.42800 40.73400
H  27.14500 51.76100 39.66600

