158

Mg 49.37500 45.85000 42.64200
C  45.95000 46.84700 41.94300
C  48.79700 43.12300 40.70800
C  52.55900 45.33300 42.90600
C  49.74800 49.31400 43.80300
N  47.59300 45.16400 41.59000
C  46.28400 45.60100 41.48700
C  45.43500 44.76300 40.57300
C  46.29300 43.43400 40.33600
C  47.65900 43.92800 40.94900
C  45.68200 42.14100 40.98200
C  44.95400 45.39900 39.23800
C  43.41100 45.35300 39.06600
H  42.97400 45.52800 37.59500
N  50.53700 44.39200 42.10300
C  50.11800 43.33000 41.30100
C  51.15000 42.43200 41.24000
C  52.28500 42.94200 41.97200
C  51.85500 44.26900 42.39800
C  51.13600 41.13100 40.37400
C  53.64900 42.32200 42.15200
O  53.92800 41.30800 41.59600
C  54.69700 42.94700 43.00700
N  50.91300 47.12400 43.12000
C  52.17300 46.61500 43.34100
C  53.16800 47.76400 43.55800
C  52.29000 49.03600 43.88900
C  50.91600 48.47900 43.59600
C  54.28200 47.48600 44.66000
C  52.61500 50.29500 43.18600
C  52.68000 51.60500 44.01100
N  48.14300 47.72800 42.90800
C  48.41500 48.93900 43.46800
C  47.25200 49.68100 43.55700
C  46.19100 48.86400 43.07200
C  46.80200 47.68600 42.59700
C  47.06800 51.04000 44.14200
C  44.82400 48.77100 42.77800
O  43.95600 49.54900 42.99000
C  44.58600 47.46600 41.95200
C  43.60700 46.78500 42.74800
O  43.54300 46.71600 43.99000
O  42.80300 46.08500 41.89500
C  41.95000 45.16600 42.61900
H  48.76200 42.23200 40.07700
H  53.64800 45.26300 42.90100
H  49.98400 50.31400 44.17300
H  44.51300 44.53300 41.10600
H  46.47800 43.19500 39.28900
H  44.62500 42.21600 41.23700
H  46.14700 41.86500 41.92900
H  45.78300 41.31500 40.27700
H  45.46100 44.88700 38.42000
H  45.29700 46.43000 39.14900
H  43.01200 46.24000 39.55900
H  42.87500 44.52600 39.53300
H  51.93300 40.46700 40.70900
H  51.41900 41.46000 39.37500
H  50.16000 40.64900 40.42900
H  54.23000 43.36600 43.89800
H  55.23300 43.73600 42.47800
H  55.45000 42.18200 43.19600
H  53.65200 47.93000 42.59500
H  52.20400 49.29300 44.94500
H  55.32800 47.50500 44.35400
H  54.11100 46.42600 44.84800
H  54.25000 48.09100 45.56600
H  51.88300 50.61500 42.44400
H  53.57400 50.13300 42.69300
H  52.86900 51.44700 45.07200
H  51.71600 52.10400 43.91100
H  53.46500 52.17900 43.52000
H  47.13400 51.79100 43.35600
H  47.89300 51.16100 44.84500
H  46.09200 51.11200 44.62000
H  44.14500 47.74900 40.99600
H  42.44900 44.22200 42.83700
H  41.08500 44.82600 42.04900
H  41.58800 45.63600 43.53300
Mg 30.55100 57.56500 40.41000
C  27.83400 55.76800 38.99100
C  32.76800 55.23800 39.22700
C  33.07200 59.87400 40.83700
C  28.29700 60.20500 40.95700
N  30.27600 55.71000 39.07700
C  29.11100 55.11100 38.68100
C  29.39600 53.62300 38.31200
C  31.02000 53.48800 38.43100
C  31.42300 54.90400 38.95300
C  31.41700 52.24500 39.23700
C  28.77000 53.12700 37.00800
C  29.31600 53.85100 35.72700
H  28.34200 54.69400 34.92100
N  32.57200 57.49300 40.14900
C  33.36000 56.41300 39.70300
C  34.75500 56.75400 39.77200
C  34.81800 58.02300 40.36100
C  33.42100 58.51900 40.53800
C  35.83400 55.78700 39.41100
C  36.14400 58.70500 40.72500
O  37.20700 58.15700 40.38100
C  36.15300 59.93100 41.67800
N  30.68200 59.68700 40.90100
C  31.82100 60.42100 40.93900
C  31.55800 61.88100 41.25200
C  30.04600 61.89100 41.50600
C  29.60100 60.53900 41.07200
C  32.37300 62.55600 42.41400
C  29.31800 63.16800 40.84700
C  28.31100 63.82800 41.77500
N  28.48300 57.91100 40.14500
C  27.74800 59.04400 40.47800
C  26.40500 58.75600 40.30800
C  26.31800 57.46700 39.75200
C  27.65200 57.01300 39.63600
C  25.22500 59.62800 40.66400
C  25.45300 56.46700 39.17400
O  24.26300 56.42600 38.91200
C  26.38700 55.32300 38.68200
C  26.00900 54.01700 39.27500
O  26.43700 53.45600 40.26200
O  25.19900 53.33200 38.33900
C  24.67600 52.06600 38.93300
H  33.39100 54.37000 39.00300
H  33.92800 60.54600 40.75100
H  27.53200 60.93300 41.23500
H  29.01600 53.11000 39.19500
H  31.57500 53.50600 37.49300
H  30.65400 51.54500 39.57800
H  31.78300 52.76300 40.12300
H  32.15200 51.75400 38.59800
H  27.68800 53.25500 37.02700
H  29.13800 52.10000 37.00400
H  29.68900 53.19400 34.94200
H  30.14400 54.50800 35.99500
H  36.43100 56.36500 38.70500
H  35.57500 54.85300 38.91300
H  36.38600 55.56200 40.32400
H  36.10200 60.86300 41.11600
H  37.10700 59.76500 42.17800
H  35.42200 59.84500 42.48200
H  31.75900 62.44400 40.34100
H  29.88000 62.02300 42.57500
H  31.65400 63.12700 43.00100
H  33.12400 63.22000 41.98700
H  32.89900 61.90900 43.11600
H  28.73800 62.77700 40.01100
H  29.99500 63.90200 40.40900
H  28.20800 64.90600 41.65200
H  28.58500 63.73300 42.82600
H  27.33200 63.35000 41.72600
H  24.79300 59.98200 39.72800
H  25.32600 60.34000 41.48400
H  24.47200 58.96900 41.09400
H  26.27900 55.18300 37.60600
H  24.20700 52.26900 39.89600
H  25.36700 51.23000 39.03800
H  23.86900 51.65200 38.32900

