158

Mg 36.19100 49.49100 25.60600
C  36.42600 47.53100 28.73100
C  35.05200 52.03700 27.42800
C  35.70700 50.99600 22.74800
C  36.85300 46.43900 23.94700
N  35.78500 49.66100 27.85300
C  36.04900 48.83600 28.93100
C  35.94900 49.58500 30.28400
C  35.33500 50.89300 29.78800
C  35.34300 50.92100 28.25200
C  33.86900 51.22700 30.22700
C  37.42100 49.76800 31.05500
C  37.56400 49.71900 32.59900
H  36.44500 49.95300 33.59100
N  35.47900 51.28100 25.09100
C  35.05800 52.22700 26.03300
C  34.78200 53.46300 25.32400
C  35.20500 53.26700 23.95900
C  35.50300 51.81800 23.87300
C  34.15800 54.58400 26.00000
C  35.26900 54.19400 22.69800
O  35.55600 53.71200 21.60400
C  35.04200 55.73200 22.81700
N  36.37500 48.79400 23.62600
C  35.97300 49.64000 22.58900
C  36.19600 48.91500 21.15200
C  36.80400 47.54100 21.61400
C  36.73500 47.59700 23.19800
C  34.87400 48.97800 20.25800
C  38.24200 47.20700 21.08100
C  38.34500 45.88100 20.24000
N  36.59200 47.40100 26.13100
C  36.81600 46.32500 25.38300
C  37.06800 45.12100 26.08000
C  36.97900 45.56300 27.45500
C  36.63200 46.94300 27.42600
C  37.47300 43.80400 25.60700
C  37.07100 45.20100 28.86700
O  37.38200 44.09000 29.40200
C  36.77900 46.44700 29.69700
C  35.75600 46.10100 30.70200
O  34.56000 46.08300 30.50900
O  36.36100 46.01800 31.91200
C  35.43300 46.05500 33.06600
H  34.93700 52.98100 27.96500
H  35.69200 51.42000 21.74200
H  37.05200 45.47500 23.47500
H  35.29100 49.06500 30.98100
H  35.88000 51.76500 30.15000
H  33.21600 51.48200 29.39200
H  33.94700 52.09800 30.87700
H  33.43100 50.41700 30.81100
H  37.87300 50.63200 30.56700
H  38.07900 49.03500 30.58900
H  38.42400 50.36900 32.76000
H  37.95100 48.73300 32.85800
H  33.67200 55.26400 25.30100
H  35.01000 55.05700 26.48700
H  33.49100 54.23800 26.79100
H  35.45700 55.99500 23.79000
H  33.96400 55.89100 22.85100
H  35.52900 56.19600 21.96000
H  36.99300 49.52000 20.72000
H  36.21300 46.75200 21.15000
H  34.44300 48.04300 19.89800
H  34.96500 49.53700 19.32700
H  34.16200 49.60900 20.79000
H  38.91500 47.16100 21.93700
H  38.55500 48.07700 20.50400
H  38.89000 46.13100 19.33000
H  37.39900 45.41300 19.96900
H  38.86700 45.18700 20.89900
H  36.60200 43.36500 25.12100
H  37.79600 43.24900 26.48800
H  38.27100 43.77300 24.86500
H  37.67600 46.75000 30.23800
H  35.05500 45.03500 33.12200
H  34.60700 46.74100 32.87800
H  35.88400 46.25100 34.03900
Mg -10.47800 38.43800 41.91400
C  -8.78600 35.68400 40.63400
C  -8.29600 40.43100 39.93500
C  -12.33900 41.20600 42.58600
C  -12.98900 36.45600 43.12800
N  -8.80200 38.11200 40.31800
C  -8.29400 36.86000 40.06700
C  -7.18000 36.93400 38.88100
C  -6.98800 38.49000 38.84600
C  -8.04400 39.10300 39.79700
C  -5.50500 38.93000 39.27400
C  -7.49800 36.17500 37.59200
C  -6.24300 35.43300 36.99200
H  -5.66100 36.08500 35.75800
N  -10.20400 40.51600 41.54000
C  -9.23300 41.10000 40.71400
C  -9.33500 42.51000 40.89500
C  -10.55700 42.79300 41.60500
C  -11.08400 41.50100 41.96300
C  -8.26100 43.42900 40.33100
C  -11.11100 44.19400 41.79300
O  -10.43500 45.14200 41.34000
C  -12.48600 44.56800 42.24000
N  -12.45200 38.76100 42.53200
C  -12.94700 40.01700 42.87700
C  -14.30400 39.91700 43.44600
C  -14.48100 38.40300 43.75200
C  -13.20100 37.83900 43.15100
C  -14.74900 40.81300 44.61800
C  -15.83100 37.71000 43.28200
C  -16.86500 37.46600 44.42400
N  -10.82800 36.49000 42.01500
C  -11.85600 35.82900 42.58400
C  -11.49300 34.41400 42.55900
C  -10.28100 34.33700 41.89300
C  -9.96200 35.62600 41.48500
C  -12.40000 33.29400 42.94600
C  -9.32100 33.41600 41.31300
O  -9.19200 32.20400 41.36900
C  -8.30100 34.26000 40.49900
C  -6.99500 33.94600 41.30900
O  -6.36400 32.91900 41.18700
O  -6.70900 35.06000 42.11400
C  -5.49400 34.93900 42.86900
H  -7.61500 41.01700 39.31500
H  -13.04000 41.96700 42.93700
H  -13.60900 35.71100 43.63100
H  -6.30200 36.49700 39.35600
H  -7.14300 38.89500 37.84600
H  -4.95400 38.08200 39.68100
H  -5.56700 39.75900 39.97900
H  -4.95700 39.29200 38.40400
H  -7.82900 36.91400 36.86200
H  -8.28600 35.45900 37.82400
H  -6.42400 34.37800 36.78600
H  -5.44800 35.42700 37.73800
H  -8.56600 43.89200 39.39200
H  -7.34000 42.84700 40.34200
H  -8.17800 44.15100 41.14300
H  -12.60700 44.59500 43.32300
H  -13.26000 43.91800 41.83200
H  -12.68500 45.56400 41.84600
H  -14.89800 40.17100 42.56700
H  -14.42700 38.33800 44.83900
H  -13.89600 41.19200 45.18000
H  -15.47000 40.25700 45.21700
H  -15.28500 41.67800 44.22500
H  -15.60700 36.76300 42.79200
H  -16.24800 38.35500 42.50900
H  -16.89000 36.41200 44.70100
H  -17.85400 37.87700 44.22200
H  -16.54100 37.99000 45.32300
H  -13.28500 33.14100 42.32900
H  -12.59800 33.26800 44.01700
H  -11.79700 32.39300 42.82600
H  -8.25900 33.93700 39.45900
H  -4.86200 35.79100 42.62000
H  -4.89000 34.05100 42.68100
H  -5.91800 34.92600 43.87300

