158

Mg 2.27300 -1.52500 44.70500
C  5.55200 -0.67100 44.34700
C  1.52200 0.89800 42.20100
C  -0.86300 -2.58600 44.66700
C  3.34500 -4.55100 46.26200
N  3.42500 -0.24300 43.29700
C  4.79800 -0.01200 43.36600
C  5.32000 1.02100 42.38500
C  3.97000 1.50400 41.72600
C  2.89900 0.72300 42.48400
C  3.86600 3.03900 41.76900
C  6.48100 0.43200 41.43000
C  7.78100 1.22100 41.36200
H  8.28100 1.55200 39.95300
N  0.52600 -0.75000 43.79200
C  0.43500 0.19300 42.80000
C  -0.93400 0.49700 42.52400
C  -1.67100 -0.56700 43.18100
C  -0.70100 -1.35600 43.97000
C  -1.45900 1.56500 41.64000
C  -3.32500 -0.65600 43.02000
O  -3.99600 0.18500 42.41300
C  -4.05800 -1.84800 43.72500
N  1.38200 -3.37000 45.28700
C  0.03400 -3.41900 45.31400
C  -0.43500 -4.78900 45.87500
C  0.90500 -5.34400 46.45700
C  1.97200 -4.38000 45.99700
C  -1.73100 -4.98200 46.67300
C  1.30200 -6.80900 46.25600
C  1.65200 -7.80400 47.40400
N  4.05700 -2.48000 45.33200
C  4.30300 -3.60700 46.03900
C  5.66000 -3.57600 46.40600
C  6.20100 -2.40900 45.85000
C  5.15900 -1.82700 45.16700
C  6.51200 -4.57500 47.24300
C  7.35700 -1.57800 45.74000
O  8.50000 -1.74200 46.18000
C  6.94600 -0.36000 44.71400
C  7.10500 0.90500 45.38500
O  6.43800 1.31700 46.33700
O  8.21800 1.57300 44.88500
C  8.61600 2.86400 45.42100
H  1.24700 1.68500 41.49500
H  -1.89600 -2.92200 44.77800
H  3.68400 -5.40500 46.85100
H  5.56300 1.85300 43.04700
H  4.13600 1.24800 40.67900
H  4.77200 3.58200 42.03900
H  3.12300 3.14800 42.55900
H  3.53400 3.43700 40.81100
H  6.06100 0.14700 40.46500
H  6.72100 -0.54600 41.84700
H  8.56300 0.74600 41.95400
H  7.75900 2.16400 41.90800
H  -1.82200 2.41400 42.21900
H  -2.23700 1.19400 40.97300
H  -0.77200 1.89600 40.86000
H  -5.09400 -1.88400 43.38800
H  -4.03300 -1.82500 44.81500
H  -3.57400 -2.76400 43.38800
H  -0.50300 -5.32800 44.93000
H  0.91300 -5.19700 47.53700
H  -2.29500 -4.10400 46.98800
H  -1.65600 -5.70000 47.49000
H  -2.51400 -5.34700 46.00800
H  2.08600 -6.90900 45.50400
H  0.38000 -7.23100 45.85600
H  2.62600 -8.26000 47.22000
H  0.91900 -8.60800 47.46900
H  1.56600 -7.35300 48.39200
H  5.88300 -5.27200 47.79700
H  7.19500 -3.94300 47.80900
H  7.14200 -5.09300 46.51900
H  7.57900 -0.47100 43.83400
H  9.30300 3.23000 44.65800
H  8.98200 2.76600 46.44200
H  7.80100 3.58000 45.53200
Mg 56.49800 22.87800 45.21000
C  54.80100 25.70300 44.33800
C  53.85900 20.99200 43.88400
C  58.52200 20.15100 45.15400
C  59.28700 24.84200 45.89000
N  54.58000 23.33800 43.98400
C  54.06900 24.58900 43.85000
C  52.68800 24.47600 43.09100
C  52.31000 23.02200 43.38500
C  53.65400 22.38400 43.71500
C  51.20800 22.98000 44.47100
C  52.87400 24.78200 41.53300
C  51.68000 25.53700 40.88700
H  50.91900 24.80800 39.84400
N  56.15900 20.88000 44.76300
C  55.04200 20.29200 44.28900
C  55.18000 18.82500 44.19200
C  56.46600 18.56600 44.64000
C  57.10900 19.88700 44.93900
C  54.16000 17.83700 43.53600
C  57.08200 17.17300 44.74500
O  56.43900 16.13600 44.55500
C  58.39400 17.04300 45.40100
N  58.65700 22.54600 45.39000
C  59.22700 21.26000 45.45300
C  60.76100 21.36500 45.59700
C  60.94000 22.89700 45.84600
C  59.56600 23.49500 45.68800
C  61.33500 20.37500 46.66100
C  62.03400 23.57000 45.08600
C  63.27400 24.11600 45.82800
N  56.92800 24.87700 45.40400
C  58.11500 25.57900 45.64200
C  57.84600 26.98100 45.69300
C  56.52900 27.06000 45.19100
C  56.05100 25.74000 44.94200
C  58.81500 27.99800 46.26500
C  55.53700 27.99600 44.81100
O  55.54100 29.17000 44.80800
C  54.39900 27.14300 44.27100
C  53.99600 27.72000 42.92000
O  54.74800 27.74300 41.97400
O  52.71800 28.19200 43.13100
C  52.03200 28.93000 42.05200
H  53.00900 20.42800 43.49500
H  59.20600 19.30400 45.05700
H  60.18600 25.41200 46.13600
H  51.98500 25.16300 43.56300
H  51.90400 22.58200 42.47400
H  51.42700 22.01600 44.93000
H  50.15100 22.93600 44.21000
H  51.34800 23.78000 45.19800
H  52.99000 23.81800 41.03700
H  53.80700 25.33600 41.43200
H  52.00800 26.52100 40.55100
H  50.98200 25.83300 41.67000
H  53.24300 18.31800 43.19400
H  53.92700 17.10300 44.30600
H  54.71600 17.30600 42.76300
H  58.55500 17.75200 46.21300
H  59.22600 17.04200 44.69700
H  58.49500 16.05600 45.85300
H  61.27400 21.08400 44.67800
H  61.09500 23.08800 46.90800
H  62.15400 20.89000 47.16300
H  61.73300 19.47300 46.19600
H  60.62800 20.07500 47.43500
H  61.71400 24.33100 44.37400
H  62.45000 22.79100 44.44800
H  63.16000 23.94900 46.89900
H  63.64800 25.12600 45.65900
H  64.08200 23.48900 45.45300
H  58.45300 28.97700 45.95300
H  59.88800 27.89800 46.10200
H  58.73100 28.06200 47.35000
H  53.61100 27.34700 44.99600
H  52.51100 28.80200 41.08100
H  51.98700 30.00100 42.25000
H  51.04000 28.50100 41.91300

