158

Mg -2.11900 16.56300 26.92800
C  -2.43000 14.43900 29.60300
C  -2.56400 19.24700 28.92700
C  -2.07900 18.64600 24.13900
C  -1.74900 13.82400 24.80100
N  -2.68800 16.75000 29.03900
C  -2.57100 15.77700 30.00400
C  -2.75400 16.37400 31.43100
C  -2.94900 17.88200 31.04600
C  -2.63500 17.97400 29.58400
C  -4.37800 18.48700 31.45200
C  -1.58700 16.06400 32.38600
C  -1.32100 16.96100 33.57000
H  -0.80700 16.39000 34.87500
N  -2.29900 18.74700 26.61300
C  -2.46400 19.66700 27.56700
C  -2.50500 21.01900 27.00000
C  -2.38300 20.82900 25.55200
C  -2.30700 19.36500 25.38000
C  -2.53400 22.31000 27.82600
C  -2.38900 21.90700 24.47100
O  -2.52100 21.67500 23.25500
C  -2.40300 23.34000 24.84200
N  -1.79200 16.33800 24.88700
C  -1.91000 17.33800 23.90800
C  -1.70400 16.75500 22.49800
C  -1.38100 15.22800 22.74900
C  -1.63200 15.07500 24.23800
C  -2.86300 16.94200 21.41100
C  -0.01900 14.74800 22.17100
C  0.09800 13.31400 21.61400
N  -2.09300 14.57500 27.10900
C  -1.91000 13.59100 26.14300
C  -2.05800 12.32300 26.83200
C  -2.18800 12.60200 28.15500
C  -2.13700 13.96600 28.29400
C  -2.21300 11.00200 26.11700
C  -2.36900 12.03900 29.44300
O  -2.37400 10.85700 29.75900
C  -2.45100 13.20500 30.46800
C  -1.28100 13.05400 31.34600
O  -0.17500 13.47900 31.12900
O  -1.59800 12.27800 32.44800
C  -0.44800 11.92000 33.26200
H  -2.50300 20.13200 29.56400
H  -2.07000 19.29600 23.26300
H  -1.72500 12.94500 24.15400
H  -3.66200 16.09800 31.96700
H  -2.18000 18.37900 31.63600
H  -4.18100 19.30300 32.14800
H  -5.01600 17.76900 31.96600
H  -4.89100 19.02100 30.65200
H  -0.70300 15.92400 31.76400
H  -1.90800 15.12000 32.82600
H  -2.29100 17.43900 33.71200
H  -0.58100 17.71300 33.29800
H  -2.80400 22.17200 28.87300
H  -3.31500 22.96100 27.43400
H  -1.57200 22.76100 27.58300
H  -3.31600 23.44400 25.42800
H  -2.48200 24.07000 24.03600
H  -1.68400 23.56300 25.63000
H  -0.74300 17.15700 22.17800
H  -2.12400 14.54200 22.34000
H  -3.68500 16.22700 21.42700
H  -2.36300 16.83300 20.44900
H  -3.20900 17.96400 21.56800
H  0.70200 14.80200 22.98700
H  0.47100 15.45000 21.49600
H  0.48400 13.32800 20.59500
H  -0.82700 12.74400 21.53400
H  0.82000 12.69200 22.14300
H  -2.72300 10.29000 26.76600
H  -1.23300 10.67100 25.77400
H  -2.85500 11.23000 25.26600
H  -3.39600 12.98900 30.96700
H  0.42900 11.55500 32.72800
H  -0.85200 11.21700 33.99100
H  -0.05000 12.85800 33.65100
Mg 52.88700 24.05700 45.57600
C  50.19100 26.12900 44.55600
C  51.17100 21.38500 44.24800
C  55.81600 22.31000 45.47900
C  54.45500 26.75100 46.91300
N  50.89700 23.83800 44.46300
C  49.91900 24.76100 44.21600
C  48.78200 24.20500 43.39600
C  48.94800 22.63100 43.65600
C  50.40600 22.61100 44.18700
C  48.12700 21.95400 44.81400
C  48.66300 24.67900 41.95500
C  49.85900 25.11000 41.14300
H  51.18500 24.40400 41.47200
N  53.47200 22.18300 44.86300
C  52.59700 21.20600 44.39400
C  53.35100 20.01400 44.09200
C  54.68500 20.28000 44.34500
C  54.74600 21.63800 44.94800
C  52.71500 18.83500 43.47600
C  55.74800 19.22300 44.17500
O  55.51000 18.11200 43.60100
C  57.11000 19.38700 44.68200
N  55.02100 24.64800 45.81600
C  55.87100 23.58800 46.08400
C  57.04400 24.01800 46.83400
C  56.67700 25.51700 47.25000
C  55.28700 25.65400 46.70200
C  57.56700 23.08700 47.89500
C  57.74500 26.54600 46.61600
C  58.49300 27.40600 47.72500
N  52.44800 26.04600 45.75700
C  53.17400 27.02600 46.36800
C  52.36600 28.18300 46.58600
C  51.20000 27.90700 45.80300
C  51.32700 26.56600 45.35100
C  52.75700 29.40200 47.45900
C  49.98700 28.43900 45.32700
O  49.51700 29.58100 45.39000
C  49.36800 27.35500 44.32900
C  49.29500 27.91000 42.95300
O  50.30800 28.32100 42.34000
O  48.01300 28.00700 42.51000
C  47.88300 28.60100 41.20400
H  50.65200 20.54900 43.77400
H  56.68300 21.66600 45.63600
H  54.95200 27.42100 47.61800
H  47.90100 24.57000 43.92300
H  48.70700 22.09600 42.73700
H  48.66500 21.37000 45.56200
H  47.25300 21.43500 44.41900
H  47.81700 22.79500 45.43400
H  47.83000 25.37800 41.88700
H  48.35800 23.78700 41.40800
H  49.89900 26.17600 41.36800
H  49.75800 25.01900 40.06200
H  53.31000 17.92600 43.38600
H  52.18300 19.10100 42.56300
H  51.92700 18.59900 44.19100
H  57.68200 18.51700 44.36000
H  56.96500 19.30900 45.76000
H  57.58300 20.34300 44.46100
H  57.92800 24.05500 46.19800
H  56.60900 25.65700 48.32900
H  57.13800 22.08500 47.88900
H  57.27700 23.52300 48.85100
H  58.64700 22.96700 47.81300
H  57.23400 27.24500 45.95500
H  58.55900 26.09200 46.05200
H  58.62100 28.45200 47.44400
H  59.46700 26.97900 47.96400
H  57.90500 27.36700 48.64200
H  51.87100 29.76200 47.98100
H  53.20200 30.17400 46.83200
H  53.55400 29.25600 48.18800
H  48.38200 27.27700 44.78800
H  47.06900 28.07500 40.70400
H  48.67700 28.42200 40.47900
H  47.45900 29.60600 41.20100

