158

Mg 34.83800 2.91500 30.04000
C  32.56300 4.22000 32.53900
C  37.35000 3.29200 32.24400
C  36.82000 2.11100 27.56000
C  32.14700 3.13700 27.88800
N  34.91800 3.74300 32.14800
C  33.88100 4.00100 32.98900
C  34.35400 4.12800 34.44900
C  35.91300 4.10500 34.28100
C  36.06300 3.69100 32.81400
C  36.57800 5.42100 34.59600
C  33.85900 2.93700 35.32600
C  33.74400 3.05700 36.84000
H  34.40700 4.29900 37.31800
N  36.84400 2.71800 29.88200
C  37.70300 2.90700 30.91800
C  39.08100 2.61200 30.44000
C  38.92500 2.18800 29.08100
C  37.49100 2.28100 28.77900
C  40.17300 2.75800 31.29000
C  39.98600 1.58600 28.05900
O  39.78200 1.41900 26.84800
C  41.29900 1.01300 28.58800
N  34.59900 3.00100 27.98300
C  35.50100 2.37000 27.14900
C  34.97100 2.32600 25.69600
C  33.44100 2.33100 25.97600
C  33.42500 2.88200 27.36300
C  35.40800 3.43600 24.75400
C  32.60500 1.04000 25.73400
C  31.47900 1.19300 24.64700
N  32.75800 3.48200 30.16600
C  31.79100 3.44900 29.19400
C  30.48900 3.89700 29.78900
C  30.80500 4.13400 31.09100
C  32.19200 4.00200 31.22000
C  29.21800 4.07600 29.03000
C  30.17500 4.61100 32.25500
O  29.05300 4.96500 32.55700
C  31.33700 4.67700 33.27200
C  31.44800 5.99900 33.90600
O  32.19900 6.89200 33.52900
O  30.72300 6.03500 35.11100
C  30.91100 7.23100 35.96900
H  38.20200 3.44800 32.90900
H  37.40100 1.97700 26.64500
H  31.23400 3.15000 27.28900
H  34.10000 5.12400 34.81400
H  36.39800 3.32600 34.87000
H  36.89400 5.36900 35.63800
H  35.91300 6.26100 34.39300
H  37.42800 5.65900 33.95700
H  34.53700 2.10100 35.15600
H  32.89500 2.62200 34.92700
H  34.29000 2.23100 37.29600
H  32.71400 3.01100 37.19200
H  40.28400 3.80700 31.56300
H  41.10700 2.43400 30.82900
H  39.95600 2.14200 32.16200
H  41.34300 0.49000 29.54300
H  41.83700 1.93700 28.80400
H  41.89800 0.41100 27.90400
H  35.11900 1.32700 25.28500
H  32.90600 3.15400 25.50100
H  35.94500 4.16700 25.35800
H  34.61000 3.95900 24.22800
H  36.08300 3.08000 23.97500
H  32.06300 0.80600 26.65000
H  33.22500 0.23500 25.33900
H  31.43800 2.20500 24.24600
H  30.47300 1.02400 25.03100
H  31.77900 0.60100 23.78200
H  28.43700 3.37100 29.31300
H  29.40400 4.08100 27.95600
H  28.82200 5.05900 29.28300
H  31.11000 4.01300 34.10600
H  31.77500 7.04100 36.60600
H  30.07300 7.33600 36.65800
H  30.98400 8.16100 35.40500
Mg -10.83300 38.07700 41.51200
C  -8.40000 35.55600 41.24100
C  -8.88200 40.08800 39.60300
C  -13.18100 40.34200 41.65300
C  -12.92900 35.61400 42.82200
N  -8.86500 37.78500 40.44700
C  -8.06600 36.70300 40.53100
C  -6.81300 36.94900 39.67800
C  -6.97700 38.39300 39.13900
C  -8.23600 38.83600 39.80800
C  -5.71700 39.30200 39.19400
C  -6.61000 35.73200 38.69400
C  -5.23800 35.01300 38.69100
H  -4.14300 35.48400 37.71900
N  -10.96600 39.98300 40.76800
C  -10.07700 40.62700 39.93900
C  -10.53700 41.97900 39.71800
C  -11.76400 42.13500 40.36500
C  -12.03000 40.80000 40.99400
C  -9.86000 42.99200 38.79700
C  -12.65800 43.40400 40.40000
O  -12.42100 44.46900 39.77900
C  -13.94800 43.49500 41.28400
N  -12.91500 37.86100 41.90100
C  -13.61800 39.02600 42.08500
C  -14.96400 38.74100 42.74400
C  -15.00800 37.17900 42.91600
C  -13.50300 36.82600 42.55800
C  -15.21400 39.57200 44.05200
C  -15.99600 36.32100 42.10700
C  -16.89400 35.42100 42.87400
N  -10.72300 35.96700 41.95900
C  -11.64100 35.16300 42.58300
C  -11.09200 33.76900 42.80600
C  -9.76400 33.94900 42.31200
C  -9.61600 35.22800 41.84900
C  -11.74400 32.54200 43.38000
C  -8.49500 33.30400 42.22400
O  -8.23200 32.14900 42.55400
C  -7.49100 34.32300 41.53000
C  -6.19200 34.52800 42.27500
O  -5.28200 33.76000 42.27100
O  -6.10000 35.76400 42.87600
C  -4.80000 36.18600 43.46700
H  -8.17400 40.68000 39.01900
H  -13.92400 41.08400 41.95200
H  -13.61500 34.96600 43.37100
H  -5.85900 36.90200 40.20300
H  -7.26700 38.23700 38.10000
H  -5.57300 39.56700 38.14700
H  -4.79800 38.87000 39.59200
H  -5.92500 40.17000 39.82000
H  -6.70200 36.24000 37.73300
H  -7.37100 34.95400 38.63000
H  -5.44200 33.95600 38.51800
H  -4.87000 35.08100 39.71400
H  -9.08300 43.56800 39.30000
H  -10.61300 43.72600 38.50700
H  -9.45900 42.45700 37.93700
H  -13.71000 43.19300 42.30400
H  -14.77300 42.97100 40.80100
H  -14.17000 44.54900 41.44700
H  -15.69500 38.99200 41.97500
H  -15.08500 36.85400 43.95400
H  -16.05900 39.26500 44.66800
H  -15.46100 40.55500 43.64900
H  -14.32600 39.63900 44.68000
H  -15.34100 35.87600 41.35800
H  -16.67700 36.94700 41.53000
H  -16.28300 34.65400 43.35000
H  -17.63700 34.99000 42.20300
H  -17.43800 36.09900 43.53100
H  -11.87800 31.68700 42.71800
H  -12.72600 32.84100 43.74600
H  -11.22900 32.30700 44.31100
H  -7.20900 33.99600 40.52900
H  -4.47600 36.98900 42.80500
H  -4.06600 35.39400 43.61700
H  -5.03100 36.79200 44.34400

