158

Mg 29.19600 57.53700 41.52500
C  26.40100 55.75000 40.25700
C  31.14600 55.26700 39.66100
C  31.90500 59.48500 42.05000
C  27.02500 59.86700 42.81800
N  28.80800 55.75700 40.08700
C  27.63400 55.28200 39.77200
C  27.74900 54.16700 38.71800
C  29.18500 53.69800 38.96100
C  29.79800 54.94300 39.59100
C  29.36200 52.42400 39.88400
C  27.48600 54.71600 37.25700
C  26.63600 53.77500 36.37400
H  27.06600 53.74300 34.93400
N  31.24700 57.41100 40.98100
C  31.79100 56.38600 40.30000
C  33.27500 56.49200 40.31900
C  33.51800 57.74500 40.88300
C  32.23500 58.28500 41.31900
C  34.27700 55.48400 39.73000
C  34.89200 58.28900 41.09000
O  35.83900 57.62600 40.71500
C  35.21000 59.65900 41.66500
N  29.38500 59.41400 42.18600
C  30.61700 60.02700 42.38400
C  30.44900 61.45400 42.97100
C  28.90900 61.48100 43.28700
C  28.38400 60.17000 42.70800
C  31.42200 61.88700 44.15000
C  28.27500 62.86900 42.77300
C  27.69500 62.85400 41.37000
N  27.10400 57.68800 41.70000
C  26.34000 58.66200 42.36500
C  24.98100 58.29600 42.35300
C  24.93300 57.10000 41.60200
C  26.23400 56.80400 41.18300
C  23.89200 58.95500 43.09700
C  24.12900 56.06500 41.08500
O  22.94400 55.86600 41.32400
C  25.02700 55.10700 40.04300
C  24.93900 53.63200 40.34300
O  25.20300 53.08700 41.40400
O  24.32200 52.92900 39.26600
C  24.35300 51.44600 39.40700
H  31.86500 54.54000 39.27800
H  32.79300 60.07000 42.29900
H  26.44300 60.60500 43.37500
H  27.09800 53.32300 38.94300
H  29.76400 53.60500 38.04200
H  29.45800 52.74900 40.92000
H  30.28000 51.95000 39.53800
H  28.48200 51.78100 39.85000
H  28.42400 54.90000 36.73200
H  26.99400 55.68400 37.35600
H  25.61800 54.15300 36.27000
H  26.54900 52.76000 36.76000
H  33.85100 54.48400 39.65000
H  35.20300 55.36800 40.29400
H  34.55100 55.65000 38.68800
H  34.70600 60.38200 41.02300
H  36.29600 59.75100 41.68300
H  34.84400 59.68700 42.69100
H  30.51200 62.12300 42.11300
H  28.66600 61.39500 44.34600
H  32.30100 61.24300 44.18200
H  30.93500 61.92400 45.12500
H  31.78800 62.86600 43.84100
H  28.94000 63.71600 42.94400
H  27.41800 63.05400 43.42100
H  27.44000 61.88200 40.94800
H  28.46800 63.30800 40.75000
H  26.80900 63.48800 41.41200
H  22.96400 58.38600 43.02700
H  23.71200 59.89800 42.58200
H  24.16300 59.14300 44.13600
H  24.66700 55.43200 39.06800
H  23.30300 51.18200 39.28800
H  24.77600 51.08100 40.34300
H  25.00500 50.95400 38.68500
Mg 17.25800 50.88000 25.99100
C  19.07900 49.48400 28.64600
C  14.91600 51.91000 28.24400
C  15.34400 51.93100 23.36700
C  19.49700 49.53800 23.81000
N  16.99300 50.60800 28.17000
C  17.93200 50.17200 29.04800
C  17.57700 50.54100 30.46600
C  16.06800 50.98300 30.29300
C  16.01700 51.23100 28.85000
C  14.98400 50.03100 30.83800
C  18.43400 51.76400 30.96400
C  18.26000 52.11400 32.49500
H  17.28800 51.19800 33.37100
N  15.40800 51.82100 25.87200
C  14.62600 52.17500 26.91500
C  13.48900 53.00500 26.48000
C  13.69000 53.06800 25.01400
C  14.87800 52.28100 24.68700
C  12.49400 53.65600 27.48800
C  12.90400 53.82100 24.01300
O  13.18700 53.91900 22.79600
C  11.65300 54.50400 24.41400
N  17.33600 50.68900 23.84000
C  16.45200 51.14100 22.96500
C  17.08300 51.19400 21.59000
C  18.51400 50.45700 21.73600
C  18.45500 50.33300 23.22500
C  16.23800 50.43800 20.53000
C  19.77000 51.30000 21.28700
C  20.87200 50.43300 20.68200
N  19.02800 49.88800 26.13900
C  19.81100 49.26700 25.18100
C  20.95000 48.59700 25.75700
C  20.75400 48.70000 27.11400
C  19.54400 49.40900 27.32500
C  21.94700 47.78100 24.97200
C  21.14700 48.24100 28.38800
O  22.05100 47.51700 28.69300
C  20.23700 48.89600 29.42500
C  19.68000 47.90200 30.32700
O  18.72800 47.15700 30.01400
O  20.36800 47.88200 31.54000
C  19.76300 47.06800 32.66200
H  14.34400 52.43900 29.00900
H  14.83900 52.45300 22.55100
H  20.27300 49.17400 23.13300
H  17.74200 49.61200 31.01100
H  15.90400 51.85300 30.92900
H  15.30500 49.21300 31.48300
H  14.62600 49.45500 29.98500
H  14.11900 50.59700 31.18600
H  18.10600 52.61600 30.36900
H  19.48400 51.61700 30.71100
H  17.72500 53.05100 32.34000
H  19.19400 52.25900 33.03700
H  11.60800 53.86200 26.88800
H  12.88000 54.59000 27.89600
H  12.33000 52.94700 28.30000
H  11.04800 54.79800 23.55700
H  11.94800 55.41800 24.92900
H  11.16100 53.74000 25.01600
H  17.16300 52.21900 21.23100
H  18.44200 49.44400 21.34000
H  15.22200 50.26400 20.88500
H  16.69100 49.50200 20.20400
H  16.26600 51.15500 19.70900
H  20.21700 51.74900 22.17300
H  19.46300 52.04000 20.54700
H  21.81900 50.51500 21.21600
H  21.04600 50.90900 19.71700
H  20.59700 49.40100 20.46800
H  22.20700 48.18500 23.99400
H  21.41100 46.84000 24.84100
H  22.80800 47.59800 25.61500
H  20.79000 49.62900 30.01200
H  18.68900 47.25100 32.69100
H  20.16200 47.39100 33.62300
H  20.07000 46.03800 32.48100

