158

Mg 17.02700 52.82200 26.39600
C  19.27600 51.53500 28.76800
C  14.75800 53.19300 28.93200
C  14.77500 53.81100 24.11700
C  19.18600 51.87100 23.83400
N  17.05500 52.46300 28.48600
C  18.08700 51.97300 29.31300
C  17.79300 52.28000 30.75900
C  16.23800 52.35000 30.77600
C  16.01400 52.69700 29.29500
C  15.52500 51.05300 31.21100
C  18.58000 53.55700 31.24100
C  19.03800 53.54700 32.70800
H  18.20300 52.83200 33.75900
N  14.98900 53.44600 26.49000
C  14.24700 53.52800 27.64500
C  13.06500 54.24600 27.33200
C  12.97300 54.28900 25.88100
C  14.27700 53.85900 25.41900
C  12.15900 54.75800 28.38000
C  11.79600 54.77800 24.94300
O  11.80400 54.62700 23.73600
C  10.69900 55.56500 25.46500
N  17.09100 52.93400 24.29600
C  15.96300 53.30300 23.58100
C  16.18700 53.20100 22.05200
C  17.69700 52.68300 21.96800
C  18.03400 52.53700 23.41300
C  15.22000 52.35900 21.27300
C  18.56200 53.73700 21.16900
C  19.32700 54.82200 22.02400
N  18.92300 51.93100 26.24200
C  19.66400 51.56400 25.12600
C  20.80200 50.73000 25.66700
C  20.74700 50.88700 27.03600
C  19.55500 51.48800 27.33300
C  21.83100 50.14800 24.84000
C  21.41000 50.45300 28.27500
O  22.40500 49.82800 28.46300
C  20.48400 51.06700 29.51400
C  20.20400 49.96600 30.47500
O  19.32900 49.09400 30.30900
O  20.90000 50.10700 31.62400
C  20.58900 49.17800 32.68400
H  14.03000 53.40000 29.71900
H  14.04900 54.07200 23.34400
H  19.85900 51.48100 23.06800
H  18.07000 51.34400 31.24300
H  15.94000 53.08000 31.52800
H  15.42400 51.13700 32.29300
H  16.05200 50.11900 31.01600
H  14.55800 51.04900 30.70800
H  17.96800 54.41500 30.96000
H  19.49100 53.58700 30.64300
H  19.14100 54.55900 33.09900
H  20.06300 53.21000 32.86000
H  12.59600 54.64600 29.37200
H  11.11800 54.43600 28.39000
H  12.01300 55.81700 28.16500
H  10.23100 54.72400 25.97700
H  10.03500 55.87000 24.65600
H  11.00900 56.32500 26.18200
H  16.09800 54.20500 21.63900
H  17.72800 51.69500 21.50800
H  15.73400 51.63000 20.64700
H  14.61800 52.93900 20.57400
H  14.57800 51.76400 21.92300
H  17.99800 54.33300 20.45200
H  19.38700 53.28600 20.61600
H  19.81500 54.39900 22.90200
H  18.81900 55.69000 22.44400
H  20.11000 55.18100 21.35700
H  22.30700 51.03800 24.42700
H  21.48400 49.34900 24.18600
H  22.64300 49.69200 25.40700
H  21.02300 51.86600 30.02200
H  19.61600 49.34800 33.14400
H  21.36200 49.24500 33.45000
H  20.61000 48.17400 32.26000
Mg -11.62000 16.49900 42.61600
C  -8.45100 15.08300 41.79800
C  -10.38600 19.51400 41.20400
C  -14.71600 17.54700 42.35500
C  -12.79800 13.23000 43.10100
N  -9.60200 17.20300 41.62300
C  -8.48000 16.45500 41.48400
C  -7.26300 17.36300 41.07000
C  -7.93700 18.75000 40.88700
C  -9.43600 18.47700 41.24200
C  -7.33900 19.96900 41.69000
C  -6.61800 16.78800 39.78600
C  -5.16800 16.51100 39.82800
H  -4.59100 15.39100 38.86300
N  -12.40000 18.34200 42.08600
C  -11.75800 19.48400 41.56300
C  -12.72800 20.53700 41.47400
C  -13.97400 20.00400 41.84900
C  -13.71500 18.59200 42.15600
C  -12.28800 21.90800 41.02900
C  -15.25500 20.71600 41.80600
O  -15.27200 21.96600 41.66000
C  -16.62200 20.09100 42.07300
N  -13.42900 15.44400 42.50100
C  -14.61300 16.14200 42.52400
C  -15.88500 15.23800 42.51500
C  -15.22600 13.88100 42.99400
C  -13.71100 14.20100 42.83200
C  -17.09500 15.78000 43.39300
C  -15.61300 12.60000 42.14900
C  -16.08300 11.42700 43.08500
N  -10.82100 14.58700 42.57800
C  -11.43100 13.36900 42.84800
C  -10.44100 12.39600 42.92400
C  -9.21600 13.04700 42.54900
C  -9.55400 14.37900 42.21700
C  -10.67600 11.04700 43.36600
C  -7.81600 12.81400 42.35800
O  -7.22300 11.78200 42.46600
C  -7.23800 14.15600 41.88600
C  -6.36100 14.59100 42.96700
O  -6.71800 14.92900 44.04600
O  -5.05000 14.53200 42.57100
C  -4.08800 15.01300 43.63100
H  -10.05400 20.51500 40.92200
H  -15.75400 17.88400 42.32000
H  -13.11400 12.24000 43.43600
H  -6.57900 17.47900 41.91000
H  -7.87900 19.06700 39.84600
H  -7.28700 20.86600 41.07300
H  -6.34900 19.71200 42.06500
H  -7.96100 20.30100 42.52200
H  -6.81300 17.57200 39.05500
H  -7.18700 15.99800 39.29700
H  -4.88100 16.13500 40.81100
H  -4.63200 17.43900 39.63100
H  -12.33800 22.02500 39.94600
H  -11.26300 22.21700 41.23200
H  -12.93700 22.67200 41.45800
H  -16.64500 19.76900 43.11400
H  -16.70600 19.36300 41.26600
H  -17.36800 20.88500 42.06400
H  -16.13000 15.06000 41.46800
H  -15.46000 13.66400 44.03600
H  -16.87500 16.78000 43.76800
H  -17.28000 15.24700 44.32600
H  -18.03000 15.85600 42.83700
H  -14.81500 12.32500 41.45900
H  -16.48000 12.83700 41.53300
H  -16.49200 11.71700 44.05300
H  -15.31200 10.69700 43.33400
H  -16.93100 10.93300 42.61200
H  -9.83800 10.42000 43.67100
H  -11.24800 10.54200 42.58700
H  -11.32100 11.02900 44.24400
H  -6.69800 13.94700 40.96200
H  -4.46000 14.86000 44.64400
H  -4.01600 16.09200 43.49600
H  -3.12500 14.51900 43.50700

