158

Mg 34.53400 2.06900 29.29000
C  32.42000 3.02200 31.86100
C  37.12200 1.87600 31.65100
C  36.76400 1.94200 26.77000
C  32.12700 3.06600 26.85600
N  34.72600 2.57000 31.48800
C  33.71400 2.71800 32.36700
C  34.18400 2.67000 33.83300
C  35.69100 2.38400 33.63700
C  35.89100 2.32400 32.12400
C  36.63300 3.31100 34.43900
C  33.38900 1.67500 34.67600
C  32.89100 1.98500 36.13800
H  33.61600 3.10700 36.87400
N  36.62000 1.75000 29.16700
C  37.44200 1.74700 30.23400
C  38.78300 1.53700 29.74700
C  38.81400 1.41100 28.34200
C  37.37300 1.73900 28.01500
C  40.09400 1.30600 30.61700
C  39.95800 1.15500 27.39500
O  39.75800 1.16200 26.18000
C  41.41700 0.99500 27.67400
N  34.38200 2.27600 27.13400
C  35.46600 2.14900 26.31600
C  35.10600 2.41300 24.83900
C  33.60800 2.60900 24.81900
C  33.36300 2.73700 26.35300
C  35.84700 3.57600 24.03600
C  32.78800 1.44700 24.07700
C  32.64700 -0.02500 24.71300
N  32.65400 2.81900 29.29600
C  31.77000 3.08300 28.24500
C  30.56300 3.57900 28.83800
C  30.68500 3.56000 30.25400
C  32.01700 3.11700 30.45900
C  29.30400 3.86100 28.09800
C  30.05200 3.77800 31.49500
O  28.95000 4.14600 31.79300
C  31.17800 3.51600 32.57000
C  31.29800 4.83400 33.27900
O  31.71400 5.88100 32.80500
O  30.83000 4.68500 34.59500
C  30.94100 5.89500 35.46700
H  37.99800 1.76800 32.29500
H  37.50000 2.00000 25.96500
H  31.39400 3.34100 26.09600
H  33.97900 3.56400 34.42200
H  35.89700 1.36000 33.94900
H  36.06600 4.14700 34.85000
H  37.26500 3.87700 33.75500
H  37.22500 2.85000 35.22900
H  34.03200 0.80500 34.81400
H  32.62000 1.26100 34.02300
H  32.86300 1.12000 36.80000
H  31.88200 2.36800 35.98500
H  40.91100 1.79100 30.08300
H  40.20400 0.22200 30.63100
H  40.07700 1.74300 31.61500
H  41.82000 1.98000 27.91300
H  41.89000 0.70300 26.73600
H  41.58600 0.26400 28.46400
H  35.34800 1.49400 24.30500
H  33.29900 3.54100 24.34300
H  35.12100 4.29500 23.65900
H  36.50600 3.13900 23.28500
H  36.52400 4.17100 24.64900
H  33.26300 1.42500 23.09600
H  31.77100 1.73400 23.81100
H  33.64400 -0.38200 24.97200
H  32.35200 -0.78700 23.99200
H  32.00300 0.03100 25.59100
H  29.35900 4.17200 27.05500
H  28.71400 4.70300 28.46200
H  28.71700 2.94500 28.16400
H  30.81100 2.73700 33.23900
H  31.44300 6.74500 35.00500
H  31.43200 5.62300 36.40100
H  29.93200 6.26800 35.64000
Mg 16.68000 52.49500 26.00300
C  18.51200 50.86800 28.64100
C  14.18500 52.97800 28.21700
C  14.99900 53.81700 23.50000
C  18.87600 50.97000 23.70400
N  16.46100 52.16800 28.24600
C  17.24100 51.39100 29.08100
C  16.72100 51.38500 30.51100
C  15.27400 51.82700 30.36700
C  15.29900 52.35500 28.86300
C  14.18800 50.77700 30.68100
C  17.57100 52.23100 31.37400
C  17.64600 51.84900 32.86700
H  16.91900 52.80400 33.82300
N  14.92700 53.41400 25.90000
C  14.06600 53.56700 26.96500
C  13.00900 54.48900 26.60000
C  13.16300 54.69300 25.19600
C  14.43500 53.98500 24.83100
C  12.00800 54.95200 27.63100
C  12.31600 55.51300 24.31100
O  12.57400 55.64200 23.09600
C  11.04900 56.18500 24.79200
N  16.93400 52.43900 23.83700
C  16.10200 53.16700 23.03300
C  16.58500 53.15700 21.54200
C  17.87400 52.22300 21.66000
C  17.97900 51.85100 23.15200
C  15.54300 52.55400 20.55800
C  19.29500 52.86100 21.32600
C  19.96200 53.67300 22.46800
N  18.46600 51.30400 26.06900
C  19.17100 50.74900 25.03600
C  20.15800 49.87900 25.59000
C  20.05100 49.98600 26.97500
C  18.92400 50.88900 27.25200
C  21.13800 49.01500 24.79700
C  20.55000 49.52500 28.24600
O  21.52200 48.80300 28.40400
C  19.54800 50.08900 29.37600
C  19.02500 48.88300 30.07100
O  18.06600 48.20800 29.74700
O  19.80600 48.71500 31.21600
C  19.09700 47.86500 32.26200
H  13.23000 52.97400 28.74600
H  14.43100 54.29600 22.70000
H  19.40800 50.45600 22.90100
H  16.70100 50.35000 30.85000
H  15.00500 52.65500 31.02200
H  13.55800 51.13800 31.49300
H  14.68300 49.90400 31.10600
H  13.71500 50.49200 29.74100
H  17.29300 53.27800 31.25000
H  18.59500 52.13000 31.01400
H  18.72000 51.74200 33.02000
H  17.25400 50.84300 33.01400
H  11.94200 56.03300 27.50700
H  12.16700 54.72000 28.68400
H  11.00700 54.57300 27.42600
H  10.45600 56.65400 24.00700
H  11.42000 56.98800 25.42900
H  10.38300 55.44100 25.22900
H  16.97600 54.11400 21.19700
H  17.78900 51.30500 21.07900
H  15.32400 53.33700 19.83300
H  14.59000 52.18600 20.93800
H  15.92000 51.65200 20.07600
H  19.17200 53.57400 20.51000
H  20.05200 52.11500 21.08600
H  20.78500 52.99500 22.69500
H  19.32300 53.87100 23.32900
H  20.48300 54.54900 22.08000
H  21.57900 48.22200 25.40100
H  21.85600 49.65600 24.28700
H  20.55000 48.52500 24.02100
H  20.23600 50.72300 29.93600
H  19.69800 46.98500 32.49100
H  18.13900 47.44500 31.95700
H  18.97400 48.29300 33.25700

