158

Mg -9.74400 40.30600 42.19800
C  -8.96700 36.86900 41.47400
C  -6.88100 41.10500 40.60000
C  -10.85800 43.47800 42.06500
C  -12.98800 39.23000 43.07100
N  -8.06900 39.09900 41.30000
C  -7.93600 37.75100 41.02200
C  -6.64500 37.49900 40.17000
C  -5.91700 38.85200 40.17600
C  -7.02500 39.77500 40.75700
C  -4.48200 38.95500 40.75800
C  -6.93100 36.83600 38.82800
C  -5.64100 36.12400 38.31100
H  -4.65000 36.75700 37.34500
N  -8.91900 42.07800 41.53700
C  -7.72200 42.15600 41.02400
C  -7.41400 43.57600 40.84100
C  -8.49900 44.38200 41.29400
C  -9.51000 43.32600 41.61700
C  -6.09400 44.13000 40.37000
C  -8.72700 45.87400 41.35300
O  -7.85600 46.66600 41.01700
C  -10.00100 46.56900 41.64600
N  -11.66000 41.24200 42.39900
C  -11.79000 42.59200 42.49600
C  -13.18400 43.07500 42.95000
C  -13.81000 41.73900 43.26000
C  -12.76500 40.62400 42.94100
C  -13.15000 44.12600 44.11800
C  -15.24900 41.45800 42.65500
C  -16.15200 40.62700 43.63600
N  -10.79200 38.46300 42.30600
C  -12.06600 38.23500 42.77100
C  -12.32300 36.80000 42.85700
C  -11.04100 36.17900 42.40200
C  -10.20300 37.26100 42.08800
C  -13.59200 36.12700 43.31300
C  -10.30800 34.94600 42.12000
O  -10.72800 33.80700 42.30000
C  -8.98000 35.30100 41.45800
C  -7.77500 34.84900 42.23800
O  -7.56700 35.09000 43.43200
O  -6.86600 34.20200 41.47500
C  -5.52600 34.00200 42.07400
H  -5.92800 41.40700 40.16000
H  -11.10000 44.51500 42.30600
H  -13.97400 39.05000 43.50500
H  -6.17500 36.80500 40.86800
H  -5.87100 39.10800 39.11700
H  -4.09900 37.94800 40.59300
H  -4.43600 39.22600 41.81200
H  -3.80800 39.58100 40.17200
H  -7.26600 37.62600 38.15600
H  -7.77500 36.14900 38.88300
H  -6.00800 35.12700 38.06500
H  -4.93700 35.96600 39.12800
H  -6.10000 45.20000 40.16200
H  -5.58300 43.68600 39.51600
H  -5.39700 43.98000 41.19500
H  -10.41600 46.36400 42.63200
H  -10.74100 46.09500 41.00100
H  -9.91100 47.60000 41.30400
H  -13.62100 43.55200 42.07300
H  -13.89900 41.65800 44.34400
H  -12.11500 44.29900 44.41400
H  -13.74000 43.91400 45.01000
H  -13.62500 45.05100 43.79400
H  -15.14600 41.05300 41.64800
H  -15.73900 42.42100 42.51000
H  -16.57000 39.71700 43.20700
H  -16.84000 41.38800 44.00400
H  -15.63700 40.27000 44.52800
H  -14.13100 35.60700 42.52100
H  -14.24900 36.86800 43.76700
H  -13.30200 35.42700 44.09600
H  -9.03700 34.88100 40.45400
H  -4.95500 33.42800 41.34400
H  -5.44100 33.44700 43.00800
H  -5.06500 34.97900 42.22300
Mg -5.97900 25.34000 25.70000
C  -3.97100 26.69800 28.17700
C  -7.40900 23.31800 27.94000
C  -7.56800 23.85800 23.15300
C  -3.72900 26.97500 23.32800
N  -5.67900 25.01700 27.78300
C  -4.95500 25.81900 28.68200
C  -5.31300 25.40900 30.15800
C  -6.03100 24.10400 30.02700
C  -6.39900 24.13100 28.52500
C  -5.16500 22.82100 30.33200
C  -6.04100 26.54100 30.89000
C  -5.64000 26.69300 32.33300
H  -5.22900 25.46100 33.08800
N  -7.31100 23.81900 25.57300
C  -7.86200 23.13000 26.61600
C  -8.94700 22.27500 26.12300
C  -9.00300 22.47700 24.72800
C  -7.93000 23.36700 24.41400
C  -9.87600 21.47800 26.99500
C  -9.89100 21.80000 23.62700
O  -9.68000 21.90700 22.37900
C  -11.07600 20.88400 23.91900
N  -5.44900 25.20300 23.54100
C  -6.43500 24.64700 22.77000
C  -6.03000 24.82000 21.30800
C  -4.93000 25.97300 21.27100
C  -4.63700 26.02800 22.79100
C  -5.60600 23.46000 20.74800
C  -5.29600 27.34200 20.67600
C  -4.71800 27.58000 19.22300
N  -4.34400 26.67100 25.67200
C  -3.57400 27.27600 24.68000
C  -2.62400 28.18700 25.23200
C  -2.69500 28.01000 26.62100
C  -3.68500 27.00000 26.79700
C  -1.73500 29.15000 24.52400
C  -2.20600 28.36700 27.90100
O  -1.31800 29.18300 28.12100
C  -2.98800 27.57900 28.93300
C  -2.07200 26.72100 29.75500
O  -1.68900 25.62100 29.59300
O  -1.74900 27.48800 30.84300
C  -1.00800 26.88900 31.97100
H  -7.86100 22.59500 28.62300
H  -8.18000 23.48400 22.32900
H  -3.16400 27.51900 22.56800
H  -4.33100 25.30700 30.62000
H  -6.88300 24.00700 30.70000
H  -5.03200 22.60500 31.39200
H  -4.32000 22.83300 29.64400
H  -5.79900 22.02700 29.93900
H  -7.12800 26.46700 30.89800
H  -5.83200 27.46900 30.35900
H  -6.42000 27.15400 32.93800
H  -4.74100 27.29500 32.20100
H  -9.63300 21.41300 28.05600
H  -9.76300 20.48700 26.55500
H  -10.88000 21.88800 26.88800
H  -11.93800 21.39200 24.35100
H  -10.73700 20.11800 24.61600
H  -11.31900 20.35100 22.99900
H  -6.92800 25.32000 20.94600
H  -3.97000 25.62000 20.89600
H  -5.62000 22.71300 21.54200
H  -4.61100 23.59200 20.32400
H  -6.29800 23.27000 19.92700
H  -5.01100 28.22100 21.25500
H  -6.38600 27.37300 20.70100
H  -5.36700 27.69700 18.35400
H  -4.14800 26.70300 18.91800
H  -4.00000 28.39500 19.31200
H  -0.76900 29.03500 25.01600
H  -2.05800 30.19100 24.54600
H  -1.55900 28.89900 23.47800
H  -3.51900 28.22900 29.62900
H  -0.66500 25.85700 31.90000
H  -1.70600 27.01500 32.79900
H  -0.14300 27.47300 32.28400

