158

Mg 7.46400 2.82400 28.58200
C  8.73900 1.50400 31.34700
C  5.25600 4.71100 30.29000
C  6.32200 4.11500 25.65200
C  9.24700 0.46500 26.76800
N  7.01700 2.99300 30.61100
C  7.81900 2.50100 31.60200
C  7.33100 3.02600 33.00800
C  5.93400 3.75700 32.60900
C  6.04600 3.83500 31.07700
C  4.71400 2.92400 33.01000
C  8.29700 4.03200 33.65600
C  8.07000 4.33600 35.12900
H  9.02600 3.72100 36.14500
N  6.00100 4.22200 28.03000
C  5.21000 4.95500 28.89200
C  4.51600 5.95300 28.12200
C  4.83400 5.76400 26.75500
C  5.80900 4.66400 26.74100
C  3.55700 6.96100 28.71200
C  4.47500 6.60900 25.59400
O  4.90800 6.42400 24.47500
C  3.48100 7.70100 25.79400
N  7.70400 2.32300 26.55600
C  7.18500 3.03500 25.46700
C  7.51600 2.53200 24.10600
C  8.65600 1.55000 24.44800
C  8.56100 1.40500 26.03300
C  6.33200 1.75800 23.34100
C  10.10400 2.10500 24.00400
C  10.52000 3.42200 24.76700
N  8.69400 1.14100 28.89100
C  9.43300 0.35700 28.10700
C  10.19700 -0.57200 28.89900
C  10.01800 -0.08600 30.19400
C  9.06500 0.90800 30.09500
C  10.80500 -1.73400 28.37600
C  10.44100 -0.21900 31.57500
O  11.31600 -0.94700 32.05600
C  9.53800 0.82800 32.37100
C  8.84000 0.03500 33.47500
O  7.72100 -0.48800 33.42400
O  9.63900 -0.08300 34.60700
C  9.03400 -0.74400 35.82400
H  4.66800 5.34400 30.95900
H  6.00600 4.55200 24.70300
H  9.78000 -0.27200 26.16300
H  7.12800 2.18200 33.66800
H  5.99800 4.76500 33.01800
H  4.77700 1.83800 33.07300
H  3.92900 3.17400 32.29600
H  4.20200 3.36000 33.86800
H  8.11500 4.99100 33.17000
H  9.32100 3.67300 33.55200
H  7.07500 3.97000 35.38000
H  8.05600 5.41500 35.28600
H  3.56300 6.96000 29.80200
H  2.53500 6.73000 28.41000
H  3.81300 7.97700 28.41200
H  3.92400 8.50700 26.37800
H  2.49100 7.30100 26.01600
H  3.49400 8.24400 24.84900
H  7.76500 3.35700 23.43900
H  8.56400 0.62200 23.88500
H  5.45100 2.09800 23.88700
H  6.28400 0.67100 23.28900
H  6.33400 2.17500 22.33400
H  10.08500 2.26000 22.92500
H  10.72600 1.23400 24.21000
H  9.72900 3.79800 25.41600
H  10.74400 4.20500 24.04300
H  11.48300 3.25800 25.25100
H  11.70800 -1.49900 27.81200
H  10.10200 -2.15800 27.65900
H  11.04700 -2.41000 29.19600
H  10.17300 1.48400 32.96600
H  8.18100 -1.30200 35.43800
H  8.76000 0.01800 36.55400
H  9.76800 -1.40800 36.28000
Mg 45.64800 5.48100 47.31400
C  43.54600 8.27000 46.71400
C  42.87900 3.45700 46.84900
C  47.72900 2.94100 47.14300
C  48.49400 7.80400 47.25100
N  43.53400 5.86300 46.69300
C  42.85700 7.05200 46.64300
C  41.27700 6.91700 46.57100
C  41.19200 5.44400 46.60800
C  42.66500 4.89200 46.83200
C  40.27000 4.86900 47.72100
C  40.62800 7.65700 45.36000
C  39.29000 7.20500 44.90700
H  39.14600 6.51400 43.48800
N  45.39400 3.39500 47.08700
C  44.15000 2.80200 46.95400
C  44.40500 1.32400 46.90100
C  45.83100 1.14100 46.88700
C  46.38200 2.49700 47.01900
C  43.34500 0.28300 46.73100
C  46.50100 -0.27000 46.80800
O  45.79200 -1.24700 46.87900
C  47.96400 -0.33900 46.55500
N  47.79300 5.41200 47.27300
C  48.37200 4.18900 47.20600
C  49.92800 4.28000 47.17400
C  50.12500 5.79800 47.17900
C  48.70700 6.46100 47.17400
C  50.68200 3.62300 48.28900
C  51.19900 6.56200 46.27200
C  52.55700 6.86700 46.89400
N  46.00000 7.51500 47.12000
C  47.19500 8.27700 47.13300
C  46.80200 9.65400 47.02500
C  45.43400 9.67700 46.96600
C  44.99400 8.39200 46.81900
C  47.81800 10.82600 47.09900
C  44.31600 10.55800 46.86200
O  44.28400 11.79400 46.68200
C  43.01200 9.67700 46.70900
C  41.99600 9.93600 47.82600
O  41.96100 9.33300 48.94200
O  41.03100 10.81100 47.40300
C  39.79300 11.05200 48.19700
H  42.05900 2.73900 46.78800
H  48.30000 2.02200 47.28500
H  49.36300 8.46500 47.24200
H  40.90900 7.37600 47.48900
H  40.89700 4.94900 45.68300
H  40.81200 4.28000 48.46100
H  39.45800 4.26400 47.31900
H  39.77500 5.65100 48.29700
H  41.32600 7.51200 44.53600
H  40.50600 8.73500 45.46500
H  38.58000 8.01000 45.09700
H  38.93100 6.52100 45.67600
H  43.50400 -0.38400 45.88400
H  42.38500 0.79000 46.63600
H  43.34200 -0.44000 47.54700
H  48.47600 -0.20000 47.50800
H  48.11900 0.38500 45.75500
H  48.28500 -1.34000 46.27000
H  50.42200 3.90300 46.27800
H  50.45600 6.01900 48.19300
H  50.85800 2.58700 47.99800
H  50.13900 3.64200 49.23400
H  51.62800 4.10300 48.53900
H  50.87300 7.55100 45.95000
H  51.37100 5.94100 45.39300
H  53.29000 6.23700 46.39100
H  52.66800 6.68800 47.96300
H  52.79900 7.92600 46.79800
H  47.25800 11.75000 47.24000
H  48.47700 10.89700 46.23400
H  48.52800 10.73900 47.92200
H  42.46500 9.78000 45.77200
H  38.94400 11.16300 47.52100
H  39.96300 11.91200 48.84400
H  39.59600 10.20200 48.85000

