158

Mg 47.74900 24.55400 29.34900
C  48.54100 27.01600 31.72800
C  46.52100 22.60700 31.87300
C  47.28100 22.03800 27.03600
C  49.63000 26.36000 26.97100
N  47.48400 24.85100 31.48200
C  47.84100 25.98300 32.29700
C  47.28500 25.79300 33.71400
C  46.94800 24.28200 33.77500
C  46.97400 23.87400 32.27900
C  47.72900 23.39400 34.72300
C  46.18100 26.80800 34.13600
C  46.00300 27.17500 35.59200
H  46.82800 26.61400 36.74700
N  46.91800 22.64000 29.46900
C  46.45700 22.05900 30.63400
C  45.84300 20.79000 30.25500
C  46.10600 20.59200 28.83400
C  46.85200 21.78200 28.38600
C  45.25700 19.95600 31.28800
C  45.82400 19.36100 28.03900
O  46.23500 19.17300 26.91300
C  44.96700 18.28500 28.53500
N  48.60400 24.11600 27.31300
C  48.10000 23.09600 26.59000
C  48.60100 23.17800 25.12300
C  49.26700 24.61300 25.08700
C  49.16800 25.06400 26.51700
C  49.58000 21.95900 24.80400
C  48.54100 25.62100 24.04500
C  47.30600 26.25900 24.58600
N  48.85100 26.27400 29.31600
C  49.55100 26.88500 28.26700
C  50.08900 28.23200 28.74100
C  49.66700 28.29600 30.09100
C  48.90200 27.08700 30.36900
C  50.85100 29.23400 27.87100
C  49.65000 29.19700 31.21600
O  49.96100 30.36600 31.32400
C  48.98300 28.33700 32.43000
C  49.97200 28.14600 33.54800
O  51.09300 27.71100 33.26600
O  49.58200 28.80300 34.69000
C  50.62100 29.02900 35.69600
H  45.98100 22.06400 32.65100
H  47.05000 21.21500 26.35700
H  50.00600 27.00400 26.17300
H  48.17100 25.89900 34.34000
H  45.89000 24.17100 34.01000
H  48.19500 22.67100 34.05400
H  47.00600 22.87500 35.35100
H  48.48100 23.87400 35.34900
H  45.26100 26.24800 33.96900
H  46.22200 27.68400 33.48800
H  44.97200 26.91300 35.82600
H  46.05800 28.25500 35.46000
H  44.36000 19.42500 30.96900
H  45.02500 20.41400 32.25000
H  45.97200 19.15600 31.47700
H  44.08600 18.65900 29.05600
H  45.64200 17.65600 29.11600
H  44.71500 17.58800 27.73600
H  47.65000 23.01600 24.61700
H  50.31000 24.57500 24.77300
H  50.56100 22.34100 25.09000
H  49.58200 21.69700 23.74600
H  49.38200 21.08500 25.42400
H  48.32300 25.03600 23.15100
H  49.28700 26.39200 23.85500
H  47.62400 27.22900 24.96700
H  46.91100 25.87600 25.52700
H  46.54100 26.28900 23.81100
H  51.71300 29.40500 28.51600
H  50.21500 30.11900 27.90600
H  51.24900 29.03100 26.87700
H  48.15500 28.90300 32.85600
H  51.61500 28.85700 35.28300
H  50.42400 28.48600 36.62000
H  50.56400 30.06600 36.02700
Mg 6.22500 54.00100 42.10000
C  5.29600 50.57100 41.68800
C  9.31200 53.27400 40.60600
C  6.78800 57.28500 41.75300
C  2.81800 54.63700 42.71200
N  7.08400 52.20800 41.22400
C  6.56500 50.92600 41.14600
C  7.58300 49.95900 40.45500
C  8.90800 50.73700 40.46100
C  8.42900 52.18600 40.78200
C  9.98400 50.17900 41.45200
C  7.21800 49.34300 39.04900
C  6.20800 50.21000 38.22200
H  6.48100 50.36400 36.70400
N  7.87400 55.15300 41.42100
C  9.09600 54.65000 40.92400
C  10.01900 55.73400 40.67900
C  9.32500 56.94100 41.13300
C  7.92900 56.54200 41.46800
C  11.36600 55.63500 40.06700
C  9.88700 58.34200 41.13300
O  11.11300 58.51600 40.95300
C  9.04100 59.52500 41.44900
N  4.96500 55.67700 41.94900
C  5.47900 56.93800 42.03500
C  4.39500 57.90700 42.52400
C  3.07300 57.08300 42.43800
C  3.65800 55.72600 42.40100
C  4.65500 58.43100 43.92900
C  2.21600 57.43200 41.19400
C  0.73100 57.81800 41.53200
N  4.39000 52.87100 42.34600
C  3.15100 53.28100 42.78000
C  2.30700 52.12000 42.99300
C  3.20300 51.04100 42.66600
C  4.35700 51.56800 42.17200
C  0.98700 52.06300 43.54600
C  3.33900 49.59900 42.66200
O  2.62700 48.73300 43.09500
C  4.71800 49.24900 42.00200
C  4.33600 48.42700 40.81200
O  3.67700 48.79800 39.85100
O  4.74900 47.16400 41.03200
C  4.30900 46.14200 40.06500
H  10.30000 53.04100 40.20300
H  6.95800 58.35400 41.89300
H  1.74900 54.77500 42.88700
H  7.69500 49.15700 41.18500
H  9.33000 50.84500 39.46200
H  9.57700 50.04300 42.45400
H  10.81100 50.88300 41.54600
H  10.30300 49.23100 41.01900
H  6.77300 48.35600 39.17700
H  8.11700 49.19600 38.45000
H  6.34100 51.25600 38.49800
H  5.22600 49.77900 38.41700
H  11.28500 55.28600 39.03700
H  11.91700 54.83500 40.56100
H  12.10300 56.43800 40.07800
H  8.26700 59.56600 40.68200
H  9.66400 60.40600 41.29700
H  8.61500 59.55700 42.45100
H  4.31800 58.79900 41.90200
H  2.55700 57.17800 43.39300
H  3.99200 57.99900 44.67900
H  4.52700 59.51000 44.01800
H  5.65700 58.10700 44.20900
H  2.05200 56.58600 40.52600
H  2.71100 58.16900 40.56200
H  0.47500 57.80800 42.59100
H  0.12700 57.09800 40.98100
H  0.47900 58.78100 41.08700
H  0.42200 51.20400 43.18400
H  0.44300 52.96800 43.27500
H  1.12700 52.00400 44.62500
H  5.27300 48.60700 42.68600
H  4.58300 45.21800 40.57300
H  4.89900 46.21400 39.15200
H  3.27200 46.21600 39.73700

