158

Mg 0.94900 8.01900 26.58200
C  1.75200 9.94100 29.34200
C  0.87700 5.20600 28.54600
C  0.94500 6.07900 23.73700
C  1.43700 10.89800 24.61900
N  1.36200 7.59000 28.67800
C  1.55200 8.60800 29.59600
C  1.30800 8.05800 31.01000
C  1.27200 6.47400 30.70400
C  1.24000 6.42500 29.21800
C  2.56900 5.65900 31.12600
C  0.03900 8.67900 31.53400
C  -0.18100 8.67100 33.08600
H  0.95100 8.44700 34.13300
N  0.88500 5.96400 26.19000
C  0.83500 4.96500 27.16100
C  0.79900 3.62900 26.61700
C  0.71100 3.84200 25.19100
C  0.85500 5.30900 24.97500
C  0.82000 2.34000 27.36100
C  0.43000 2.90800 24.04200
O  0.45100 3.28500 22.88400
C  0.09800 1.42100 24.35900
N  0.94800 8.42800 24.48800
C  1.07100 7.48300 23.50800
C  1.29500 8.15100 22.11200
C  0.98200 9.65000 22.49400
C  1.17000 9.70000 24.00000
C  2.73700 7.92500 21.49900
C  -0.51100 10.13300 22.19400
C  -0.75100 11.16900 21.09800
N  1.42700 10.01800 26.85500
C  1.68200 11.07000 25.97500
C  2.07100 12.28400 26.68000
C  2.10500 11.88600 28.04700
C  1.77300 10.46400 28.06900
C  2.36100 13.62900 26.05100
C  2.37100 12.38200 29.40900
O  2.74500 13.48400 29.69100
C  2.08000 11.10000 30.35700
C  3.19000 11.03300 31.38400
O  4.21700 10.35600 31.17600
O  2.89000 11.77400 32.48500
C  3.84400 11.61600 33.54200
H  0.70000 4.34900 29.19900
H  1.00000 5.50600 22.80900
H  1.59200 11.81300 24.04300
H  2.23900 8.18200 31.56300
H  0.41600 5.94900 31.12900
H  2.29700 4.61400 31.27700
H  3.16200 6.11200 31.92100
H  3.18600 5.58200 30.23100
H  -0.67900 7.90900 31.25100
H  -0.14200 9.59500 30.97200
H  -0.99100 7.96900 33.28100
H  -0.72200 9.57700 33.35900
H  -0.05600 2.04600 27.93900
H  1.66700 2.42900 28.04200
H  0.95000 1.46900 26.71800
H  -0.49400 1.35500 25.27200
H  0.97600 0.79200 24.50100
H  -0.52100 1.23600 23.48100
H  0.63700 7.72000 21.35800
H  1.55400 10.28400 21.81700
H  3.30400 8.85400 21.42600
H  2.48300 7.55800 20.50500
H  3.25700 7.10200 21.98800
H  -0.85600 10.54800 23.14100
H  -1.04600 9.20200 22.00400
H  -1.26300 12.01900 21.54700
H  -1.36900 10.72300 20.31800
H  0.17100 11.44400 20.58600
H  3.33300 13.52400 25.56800
H  2.46200 14.40800 26.80700
H  1.53300 13.65700 25.34400
H  1.22800 11.37600 30.97900
H  4.67400 12.23100 33.19500
H  4.07900 10.58300 33.79900
H  3.49000 12.09300 34.45600
Mg 30.11100 58.72500 39.48300
C  27.39700 56.45900 38.54200
C  32.27800 56.23000 38.43900
C  32.47800 60.97600 39.22900
C  27.59800 61.23500 39.77200
N  29.81500 56.57900 38.68500
C  28.67200 55.97200 38.27600
C  28.98900 54.66000 37.49600
C  30.52800 54.46600 37.73100
C  30.89500 55.85300 38.25400
C  30.97200 53.28400 38.66500
C  28.58800 54.86300 36.00500
C  27.75300 53.75200 35.29300
H  27.63900 53.85800 33.78900
N  32.12100 58.62600 39.02900
C  32.83100 57.44000 38.74800
C  34.22800 57.77000 38.73100
C  34.32500 59.16800 38.97100
C  32.96800 59.68800 39.03800
C  35.32100 56.70400 38.43800
C  35.59300 60.00100 39.04800
O  36.68700 59.49700 38.97200
C  35.59600 61.46500 39.10200
N  30.03500 60.85800 39.60200
C  31.19400 61.59600 39.50600
C  30.86900 63.10800 39.53800
C  29.42400 63.07400 40.02000
C  28.92200 61.63800 39.78400
C  31.82400 63.95100 40.42200
C  28.58900 64.22100 39.34300
C  27.50800 64.79800 40.26500
N  27.87500 58.85800 39.34200
C  27.07200 59.95500 39.47000
C  25.63700 59.55800 39.29300
C  25.73100 58.16900 38.97600
C  27.13400 57.81900 38.95600
C  24.35700 60.46000 39.49500
C  24.92100 56.97800 38.74900
O  23.68400 56.81800 38.71000
C  26.03400 55.88800 38.43600
C  25.88600 54.73300 39.37700
O  26.08600 54.72700 40.61300
O  25.26800 53.76300 38.63800
C  24.62900 52.67100 39.40900
H  32.95600 55.43700 38.11700
H  33.13100 61.85000 39.17700
H  26.82100 62.00200 39.80000
H  28.38900 53.89100 37.98200
H  31.17800 54.34400 36.86500
H  31.46800 53.72300 39.53000
H  31.66700 52.55300 38.25000
H  30.18300 52.61800 39.01400
H  29.44700 55.02700 35.35500
H  27.96000 55.75100 35.94200
H  26.72800 53.92300 35.62100
H  28.01400 52.74700 35.62600
H  36.19200 57.24800 38.07300
H  34.95100 55.91200 37.78700
H  35.58000 56.31300 39.42200
H  35.14600 61.83800 40.02200
H  34.98800 61.78500 38.25600
H  36.58500 61.88700 38.92400
H  30.91600 63.60700 38.57000
H  29.52500 63.18400 41.09900
H  32.63800 64.50500 39.95400
H  32.35300 63.14900 40.93600
H  31.33600 64.62700 41.12300
H  28.09900 63.84000 38.44700
H  29.25200 65.03400 39.04700
H  27.64100 64.40500 41.27300
H  26.48700 64.63300 39.92000
H  27.65600 65.86400 40.43900
H  24.24400 60.61900 40.56800
H  23.55100 60.00000 38.92300
H  24.37000 61.49200 39.14600
H  25.78700 55.49400 37.45100
H  25.34100 52.04500 39.94700
H  24.17600 51.93500 38.74500
H  23.86100 53.10600 40.04900

