158

Mg 16.93400 53.48200 26.97600
C  19.04800 51.78200 29.33900
C  14.85400 54.14200 29.40800
C  14.85300 54.96800 24.62200
C  19.12200 52.46000 24.36000
N  16.86500 52.85400 29.02600
C  17.81400 52.28400 29.76600
C  17.38100 52.16600 31.20900
C  15.89700 52.54900 31.17100
C  15.84700 53.24100 29.79700
C  14.85000 51.40100 31.20500
C  18.29700 53.17700 32.08500
C  18.25800 53.10100 33.58800
H  17.23400 52.14200 34.17600
N  15.21000 54.55200 27.05600
C  14.50800 54.73500 28.19600
C  13.44800 55.66000 27.94900
C  13.38400 55.87000 26.53000
C  14.58800 55.14800 26.01000
C  12.47100 56.21200 29.03700
C  12.56200 56.72100 25.66300
O  12.70000 56.85000 24.51500
C  11.56500 57.59800 26.26600
N  16.96800 53.71900 24.79600
C  15.99500 54.37100 24.04700
C  16.24700 54.25300 22.52800
C  17.77900 53.73400 22.53700
C  17.98600 53.25500 23.96800
C  15.13900 53.33800 21.89400
C  18.88200 54.63600 21.78700
C  20.19400 54.91100 22.57800
N  18.79500 52.33500 26.74500
C  19.53700 52.05400 25.64100
C  20.78000 51.35700 26.19300
C  20.61400 51.26900 27.58500
C  19.38900 51.84500 27.93300
C  21.84900 50.78300 25.35500
C  21.24500 50.69700 28.84500
O  22.34400 50.22300 29.10800
C  20.28600 51.15800 30.00300
C  19.81000 50.02400 30.83300
O  19.09000 49.15300 30.33900
O  20.23700 50.04900 32.11900
C  19.85700 48.93200 32.99200
H  14.14400 54.33600 30.21400
H  14.12800 55.34400 23.89700
H  19.83200 52.04800 23.64100
H  17.45700 51.10900 31.46700
H  15.71500 53.25500 31.98100
H  14.72800 50.91500 32.17300
H  15.21200 50.69600 30.45600
H  13.84900 51.75800 30.96400
H  18.07900 54.19400 31.75700
H  19.34600 52.98200 31.86200
H  18.00500 54.14800 33.75300
H  19.25900 52.98300 34.00300
H  12.88200 55.98200 30.02100
H  11.51900 55.73000 28.81500
H  12.25900 57.27800 28.96100
H  12.17900 58.40700 26.66200
H  10.97600 57.09600 27.03300
H  10.91700 58.02300 25.50000
H  16.21600 55.22400 22.03300
H  17.79800 52.80000 21.97600
H  15.55200 52.46500 21.38800
H  14.62800 53.89600 21.10900
H  14.30500 52.96100 22.48600
H  18.36600 55.46000 21.29500
H  18.97700 53.97700 20.92400
H  19.99400 55.12700 23.62700
H  20.84400 55.68300 22.16400
H  20.80400 54.01500 22.46900
H  22.44100 49.96800 25.77000
H  22.47400 51.57300 24.93900
H  21.31000 50.35300 24.51100
H  20.73300 51.92900 30.63100
H  20.43100 48.85500 33.91600
H  20.05800 48.00600 32.45300
H  18.80000 48.93600 33.25700
Mg -4.58800 25.26500 25.92200
C  -3.89800 27.04400 28.85900
C  -5.93500 22.84500 27.89200
C  -4.93700 23.47900 23.10900
C  -2.50300 27.40400 24.18000
N  -4.79900 24.92200 28.13800
C  -4.54200 25.78900 29.10900
C  -5.13800 25.33600 30.39700
C  -5.40800 23.87000 30.15800
C  -5.44100 23.86300 28.60900
C  -4.35300 22.81500 30.61700
C  -6.40000 26.22300 30.71600
C  -6.63600 26.55500 32.22500
H  -6.15300 25.52200 33.34200
N  -5.50200 23.55100 25.56400
C  -6.00400 22.63500 26.49400
C  -6.58000 21.49400 25.78000
C  -6.28800 21.73500 24.41300
C  -5.56800 23.00300 24.30400
C  -7.43300 20.39900 26.44000
C  -6.74100 21.01500 23.15500
O  -6.53100 21.41300 22.00000
C  -7.39500 19.69800 23.26500
N  -4.05100 25.58200 23.84900
C  -4.26800 24.65100 22.94100
C  -3.44500 24.88300 21.60700
C  -2.58900 26.20500 22.01900
C  -3.14400 26.48300 23.42200
C  -2.71400 23.65800 21.10400
C  -2.70000 27.44200 21.02800
C  -1.50100 28.19400 20.77300
N  -3.47500 26.91100 26.34200
C  -2.67800 27.72700 25.51200
C  -2.08600 28.73000 26.31500
C  -2.59500 28.60600 27.61900
C  -3.42600 27.40800 27.58600
C  -1.10800 29.70000 25.79600
C  -2.56200 29.10800 28.98500
O  -1.86000 30.01900 29.42900
C  -3.44700 28.10500 29.85400
C  -2.55400 27.52300 30.89000
O  -1.46600 27.00000 30.66900
O  -3.29300 27.57400 32.07400
C  -2.43700 27.07900 33.17400
H  -6.39300 22.03200 28.46100
H  -4.82000 22.81500 22.25000
H  -1.83600 28.04900 23.60400
H  -4.44000 25.54600 31.20700
H  -6.42000 23.64000 30.49000
H  -3.53100 23.26300 31.17600
H  -3.91700 22.25900 29.78800
H  -4.77000 22.09600 31.32200
H  -7.24800 25.75100 30.21900
H  -6.33500 27.13000 30.11500
H  -7.72100 26.60300 32.32100
H  -6.39100 27.58200 32.49300
H  -7.22700 19.42400 25.99900
H  -8.44800 20.56700 26.07900
H  -7.25400 20.24600 27.50500
H  -6.76400 19.02200 23.84200
H  -7.50600 19.31700 22.25000
H  -8.41600 19.78300 23.63800
H  -4.18400 25.15500 20.85400
H  -1.55000 25.88300 22.08300
H  -1.88700 24.06500 20.52300
H  -3.41400 23.11100 20.47200
H  -2.23200 23.05200 21.87100
H  -3.55400 28.02700 21.36900
H  -3.17300 27.11100 20.10300
H  -1.73300 29.23100 20.52900
H  -0.92600 27.70500 19.98600
H  -0.89700 28.32000 21.67100
H  -0.14000 29.24200 25.99800
H  -1.28100 30.63900 26.32200
H  -1.19900 29.80200 24.71500
H  -4.27900 28.57700 30.37600
H  -2.28000 26.00800 33.04500
H  -2.91900 27.33600 34.11800
H  -1.41800 27.45600 33.26400

