158

Mg 26.46900 1.33400 29.48100
C  28.26000 1.07100 32.40500
C  23.54800 1.61100 31.35800
C  24.70400 1.56000 26.64800
C  29.39000 0.65900 27.67100
N  25.99900 1.39300 31.63900
C  26.85900 1.31100 32.65500
C  26.19300 1.56800 34.00000
C  24.66400 1.73900 33.63600
C  24.70300 1.55200 32.14700
C  23.65700 0.83000 34.46900
C  26.98600 2.65400 34.92900
C  26.13700 3.22700 36.09300
H  26.48300 2.73100 37.47700
N  24.42500 1.50000 29.03700
C  23.38800 1.62900 29.94500
C  22.08700 1.89400 29.23700
C  22.37300 1.84900 27.84100
C  23.91000 1.64300 27.80300
C  20.77200 2.08600 29.97800
C  21.46900 1.86400 26.61000
O  21.86800 1.57800 25.43900
C  19.99300 2.16000 26.78600
N  26.97200 1.06000 27.47300
C  26.06700 1.27800 26.47000
C  26.69000 1.16400 25.06100
C  28.22600 0.87000 25.37900
C  28.20900 0.81300 26.90300
C  25.98700 0.26300 24.06200
C  29.18400 1.95900 24.78400
C  29.36300 1.98000 23.25700
N  28.44500 0.86600 29.87400
C  29.55000 0.63600 29.04900
C  30.72300 0.45100 29.83400
C  30.25100 0.63200 31.14500
C  28.90100 0.92200 31.09900
C  31.95900 -0.13800 29.29000
C  30.63800 0.66300 32.50900
O  31.78600 0.63800 32.97500
C  29.42600 0.95100 33.36900
C  29.34000 -0.07500 34.38800
O  28.73200 -1.12300 34.23200
O  30.00000 0.33600 35.55300
C  29.54900 -0.50400 36.71300
H  22.63500 1.66200 31.95600
H  24.28300 1.85300 25.68400
H  30.29600 0.62500 27.06400
H  26.22800 0.62300 34.54200
H  24.37000 2.76500 33.85700
H  24.07900 0.28700 35.31500
H  23.19500 0.16100 33.74300
H  22.88800 1.54700 34.75500
H  27.46800 3.52300 34.48100
H  27.76000 2.08000 35.43900
H  25.07500 3.07900 35.89800
H  26.27600 4.30800 36.10500
H  20.16500 2.91600 29.61900
H  20.92000 2.02400 31.05700
H  20.23800 1.24900 29.52900
H  20.00700 3.22100 27.03800
H  19.54400 1.48300 27.51300
H  19.45600 1.99000 25.85300
H  26.63300 2.17700 24.66400
H  28.41600 -0.16500 25.09700
H  25.14800 -0.19900 24.58300
H  26.55400 -0.59800 23.70700
H  25.61600 0.90000 23.25900
H  30.17000 1.86400 25.23800
H  28.90800 2.98100 25.04200
H  28.94600 1.11500 22.74100
H  30.44300 1.98800 23.11700
H  28.92400 2.88200 22.83000
H  32.50400 -0.57600 30.12600
H  32.69000 0.58000 28.91800
H  31.77800 -0.90700 28.53800
H  29.66700 1.92200 33.80200
H  30.50200 -0.76900 37.17200
H  29.29600 -1.55100 36.54900
H  28.78300 0.00400 37.29800
Mg 44.76700 5.03200 47.85000
C  42.47600 7.58500 47.69300
C  42.21200 2.76500 47.78000
C  46.97500 2.64600 47.33300
C  47.35700 7.49400 47.25600
N  42.67300 5.22500 47.50800
C  41.87400 6.36000 47.56900
C  40.34800 6.05600 47.28100
C  40.35100 4.46100 47.58400
C  41.85900 4.10900 47.63800
C  39.34200 3.93400 48.70900
C  39.81300 6.43900 45.89500
C  40.72800 7.06400 44.78500
H  40.39000 6.56200 43.33400
N  44.59600 2.92200 47.58900
C  43.46400 2.21300 47.65700
C  43.82700 0.81900 47.51400
C  45.25900 0.69100 47.58900
C  45.68600 2.12000 47.49000
C  42.84300 -0.21600 47.37500
C  45.97700 -0.68800 47.56900
O  45.37700 -1.76200 47.53700
C  47.49800 -0.80900 47.60400
N  46.91800 5.06800 47.53500
C  47.57300 3.88200 47.35000
C  49.05700 4.16600 47.12500
C  49.19900 5.72600 46.95100
C  47.77300 6.16100 47.33100
C  49.95900 3.68700 48.20700
C  49.64200 6.14200 45.51400
C  48.92000 5.45700 44.33500
N  44.96000 7.15900 47.65500
C  46.04600 8.00800 47.50100
C  45.61700 9.32800 47.45700
C  44.19900 9.25600 47.63000
C  43.89500 7.89400 47.68600
C  46.51700 10.47400 47.12900
C  42.99500 10.02800 47.68300
O  42.69400 11.24300 47.62100
C  41.81700 8.94100 47.75800
C  40.96400 9.26000 48.97600
O  40.93800 8.67600 50.07700
O  40.10700 10.25100 48.58900
C  38.98400 10.46900 49.48100
H  41.35800 2.09900 47.63500
H  47.77600 1.90600 47.26500
H  48.13100 8.21700 46.99300
H  39.73300 6.53800 48.04100
H  39.94700 3.92700 46.72300
H  38.49500 4.58600 48.92000
H  39.90800 3.64300 49.59400
H  39.02800 2.98200 48.28100
H  39.05500 7.19200 46.11100
H  39.39900 5.52300 45.47500
H  41.69200 6.66500 45.10100
H  40.70000 8.15400 44.79400
H  42.76800 -0.85300 48.25600
H  43.12100 -1.04500 46.72400
H  41.79700 0.00100 47.15700
H  47.86000 -0.26200 48.47500
H  47.88000 -0.34500 46.69400
H  47.79300 -1.85800 47.57000
H  49.29600 3.67300 46.18300
H  49.92900 6.12600 47.65400
H  49.36800 3.58100 49.11700
H  50.70100 4.38400 48.59500
H  50.38400 2.71200 47.97100
H  50.72200 5.99100 45.52300
H  49.53500 7.21300 45.34600
H  47.95000 5.02100 44.57200
H  49.42900 4.60300 43.88800
H  48.67200 6.09300 43.48500
H  47.23900 10.10400 46.40000
H  47.00700 10.79100 48.04900
H  45.92000 11.28300 46.70900
H  41.17300 8.96800 46.87900
H  39.28400 10.64600 50.51400
H  38.28600 9.63300 49.44200
H  38.35200 11.31100 49.19600

