158

Mg 25.35800 -6.30900 46.83200
C  27.08500 -3.53800 45.76200
C  22.74300 -5.54200 44.73200
C  24.09400 -9.41300 47.46400
C  28.37300 -7.27900 48.59000
N  25.02000 -4.84500 45.24200
C  25.85600 -3.74500 45.06000
C  25.12100 -2.64300 44.15800
C  23.76900 -3.42400 43.85500
C  23.81200 -4.64200 44.66000
C  22.50700 -2.48300 44.12400
C  25.99000 -2.46100 42.80200
C  26.61700 -1.09400 42.51300
H  26.56400 -0.60400 41.06400
N  23.58400 -7.21000 46.35100
C  22.71300 -6.79100 45.42200
C  21.60500 -7.73100 45.34100
C  21.83400 -8.75100 46.30200
C  23.20400 -8.49200 46.75800
C  20.44800 -7.64500 44.29800
C  20.85200 -9.87300 46.64600
O  19.72300 -9.95100 46.17300
C  21.16500 -10.73400 47.79000
N  26.15900 -8.16900 47.82000
C  25.42900 -9.25400 47.92000
C  26.28600 -10.41000 48.50700
C  27.42800 -9.58900 49.21700
C  27.35200 -8.22200 48.48900
C  25.46600 -11.21100 49.57400
C  28.83700 -10.27700 49.24200
C  29.48900 -10.34600 50.58700
N  27.38700 -5.66900 47.12600
C  28.40100 -6.12900 47.88200
C  29.49700 -5.10800 47.92000
C  28.96000 -3.98900 47.18900
C  27.72300 -4.47300 46.59100
C  30.84100 -5.19700 48.68100
C  29.17000 -2.64500 46.74600
O  30.05800 -1.85400 46.99200
C  28.01100 -2.30900 45.77500
C  27.34500 -1.03200 46.31100
O  27.13200 -0.04900 45.62700
O  26.95600 -1.18900 47.67200
C  26.28400 -0.01700 48.31200
H  21.95100 -5.24500 44.04100
H  23.76300 -10.45200 47.52800
H  29.24400 -7.54100 49.19400
H  24.88700 -1.74700 44.73300
H  23.67300 -3.81400 42.84200
H  22.67600 -1.47400 43.74800
H  22.22700 -2.50800 45.17700
H  21.76700 -2.89200 43.43600
H  25.35400 -2.50800 41.91900
H  26.81100 -3.16100 42.64800
H  27.65500 -1.23000 42.81600
H  26.19300 -0.35500 43.19300
H  20.74500 -8.02700 43.32200
H  20.02200 -6.64200 44.28600
H  19.60900 -8.33700 44.36900
H  20.30300 -11.27800 48.17500
H  21.50600 -10.17600 48.66200
H  21.89600 -11.40900 47.34500
H  26.49300 -11.12600 47.71300
H  27.02800 -9.59200 50.23100
H  25.98400 -11.47800 50.49500
H  25.22200 -12.21300 49.22100
H  24.50300 -10.73100 49.74500
H  29.53700 -9.64800 48.69200
H  28.86200 -11.24300 48.73800
H  29.90800 -11.35200 50.54400
H  28.80500 -10.28800 51.43300
H  30.28800 -9.60700 50.65500
H  31.62700 -4.67300 48.13700
H  31.08500 -6.25200 48.81100
H  30.84500 -4.65900 49.62800
H  28.51400 -2.13800 44.82400
H  25.29100 -0.26900 48.68500
H  26.24000 0.86800 47.67700
H  26.90500 0.18700 49.18400
Mg 30.35600 57.56700 39.85500
C  27.54500 55.48600 39.24100
C  32.46000 55.09600 39.12700
C  32.87900 59.84500 40.10600
C  28.01800 60.15600 40.54900
N  30.01700 55.53300 39.26600
C  28.81500 54.93600 38.81100
C  29.14100 53.55000 38.23300
C  30.66900 53.42200 38.36600
C  31.06500 54.76200 39.02800
C  31.09700 52.21800 39.25300
C  28.42900 53.34900 36.86200
C  28.75300 54.35800 35.75600
H  27.61400 55.17300 35.20900
N  32.33300 57.48100 39.57600
C  33.04200 56.36200 39.33400
C  34.40600 56.65300 39.19100
C  34.57600 58.02700 39.46100
C  33.24400 58.52200 39.75800
C  35.49200 55.62600 38.96200
C  36.01300 58.69400 39.65400
O  36.93200 58.03700 39.27200
C  36.33500 60.05800 40.16200
N  30.44300 59.77700 40.15200
C  31.62000 60.47300 40.23700
C  31.34600 62.02000 40.48400
C  29.75900 62.03400 40.56900
C  29.39100 60.55200 40.48200
C  32.06600 62.63100 41.71700
C  29.08600 62.77700 39.37900
C  28.74400 64.23400 39.69500
N  28.21900 57.75900 39.98900
C  27.45800 58.85200 40.31000
C  26.08300 58.55100 40.27000
C  26.06600 57.18600 39.85200
C  27.37600 56.77800 39.68100
C  24.89500 59.36300 40.55600
C  25.18100 56.10000 39.62100
O  23.93700 56.07800 39.75500
C  26.13200 54.92900 39.20100
C  26.04400 53.80100 40.18600
O  26.55800 53.67900 41.30300
O  25.40200 52.84100 39.56800
C  25.33000 51.59900 40.34100
H  33.22200 54.36000 38.86500
H  33.72900 60.52700 40.02400
H  27.24500 60.91500 40.69200
H  28.58600 52.83700 38.84400
H  31.11600 53.36300 37.37400
H  31.73700 51.51900 38.71400
H  30.21500 51.72300 39.65900
H  31.56000 52.51400 40.19400
H  27.35700 53.26700 37.03900
H  28.67800 52.34000 36.53300
H  29.04200 53.77500 34.88200
H  29.52000 55.03500 36.13200
H  35.86400 55.87400 37.96800
H  35.21400 54.57300 38.92100
H  36.22100 55.68400 39.77100
H  36.22600 60.71500 39.29900
H  37.40800 60.15900 40.32400
H  35.76600 60.41700 41.02000
H  31.76200 62.49300 39.59400
H  29.42500 62.52400 41.48300
H  32.39800 63.66700 41.64600
H  32.93700 62.06200 42.04200
H  31.22800 62.77400 42.40000
H  28.29700 62.19200 38.90800
H  29.81300 62.91500 38.57800
H  29.29300 64.91700 39.04800
H  28.88800 64.52300 40.73600
H  27.73400 64.40100 39.32000
H  24.50000 58.99600 41.50400
H  24.19500 59.37000 39.72200
H  25.33400 60.33300 40.78800
H  25.85400 54.53600 38.22300
H  26.23200 51.01400 40.16600
H  24.41500 51.13200 39.97700
H  25.30000 51.76400 41.41800

