158

Mg 24.40000 -5.39800 46.08500
C  26.90200 -3.17600 44.87900
C  22.38700 -4.11700 43.71100
C  22.47100 -8.06300 46.54700
C  26.92700 -7.01000 47.98600
N  24.64900 -3.71600 44.55600
C  25.70000 -2.94900 44.27800
C  25.39900 -2.03500 43.11100
C  23.85000 -2.16400 42.93100
C  23.60800 -3.45200 43.78300
C  22.95700 -0.98200 43.39400
C  26.21700 -2.39600 41.84700
C  26.70900 -1.21900 40.97000
H  26.46000 -1.27500 39.38900
N  22.61400 -6.01000 45.37400
C  21.97700 -5.36800 44.35400
C  20.66500 -5.97600 44.17100
C  20.53200 -7.01900 45.13500
C  21.90300 -7.08300 45.77800
C  19.73300 -5.69300 43.02400
C  19.34500 -7.90800 45.41900
O  18.34600 -7.83200 44.76100
C  19.40000 -8.87100 46.52800
N  24.69800 -7.29800 47.13800
C  23.75100 -8.24500 47.08100
C  24.11000 -9.50200 47.88500
C  25.56500 -9.20900 48.33800
C  25.78700 -7.77200 47.78100
C  23.10300 -9.91100 48.97400
C  26.78000 -10.12700 47.94500
C  26.54100 -11.53300 47.32200
N  26.54700 -5.19500 46.42500
C  27.39100 -5.88400 47.23400
C  28.69200 -5.23200 47.26300
C  28.54300 -4.20000 46.31500
C  27.20500 -4.21700 45.84600
C  29.90000 -5.74700 48.01300
C  29.25100 -3.07800 45.76100
O  30.34700 -2.51500 45.99000
C  28.25900 -2.49800 44.65900
C  28.19200 -1.03900 44.68400
O  27.50000 -0.32200 45.43500
O  29.02900 -0.56900 43.66100
C  29.16200 0.90500 43.51700
H  21.80100 -3.55800 42.97900
H  21.87600 -8.95600 46.74700
H  27.84100 -7.43400 48.40700
H  25.59000 -1.04400 43.52300
H  23.67300 -2.32900 41.86800
H  22.66200 -0.47200 42.47700
H  23.47300 -0.23900 44.00300
H  22.12800 -1.35300 43.99600
H  25.60700 -3.05500 41.22900
H  27.07800 -3.01200 42.10500
H  27.78800 -1.24000 41.12300
H  26.46400 -0.25400 41.41200
H  18.93000 -5.29900 43.64700
H  19.35400 -6.60100 42.55500
H  20.11500 -4.89100 42.39200
H  19.74900 -8.29300 47.38300
H  20.11400 -9.68100 46.37400
H  18.41400 -9.22500 46.82700
H  24.19000 -10.28800 47.13300
H  25.61100 -9.17600 49.42600
H  22.59500 -10.78800 48.57200
H  22.31800 -9.20800 49.25000
H  23.65000 -10.16900 49.88100
H  27.37000 -10.22900 48.85700
H  27.38800 -9.54800 47.25000
H  25.51400 -11.85900 47.48700
H  27.25000 -12.22000 47.78500
H  26.79400 -11.48400 46.26300
H  29.52800 -5.79800 49.03600
H  30.60400 -4.92700 47.87200
H  30.10300 -6.69800 47.52000
H  28.70100 -2.95300 43.77200
H  28.66400 1.37000 44.36800
H  28.77600 1.23000 42.55100
H  30.22100 1.12900 43.65100
Mg 44.75700 4.06700 48.10000
C  42.63100 6.75500 47.76400
C  41.98200 1.91900 47.76400
C  46.81000 1.62800 47.63800
C  47.43800 6.45800 47.78300
N  42.58100 4.28300 47.81700
C  41.98500 5.51000 47.65000
C  40.50000 5.30700 47.26100
C  40.28800 3.80500 47.65900
C  41.67000 3.29800 47.76300
C  39.49500 3.59300 49.01300
C  40.25700 5.53300 45.76900
C  39.08700 6.39200 45.26200
H  39.42500 7.30800 43.95900
N  44.45500 2.03100 47.88000
C  43.24700 1.33300 47.82300
C  43.55700 -0.05500 47.72300
C  44.96700 -0.14400 47.61700
C  45.50300 1.19900 47.68300
C  42.57900 -1.18900 47.49900
C  45.72100 -1.48300 47.35600
O  45.11500 -2.55500 47.47000
C  47.17600 -1.61400 47.19100
N  46.79500 4.09000 47.76400
C  47.43400 2.88400 47.75300
C  48.95000 3.00600 47.65700
C  49.14400 4.55100 47.67600
C  47.72600 5.09700 47.79200
C  49.84200 2.28400 48.69400
C  49.90100 5.01300 46.40500
C  49.25700 5.24900 45.03800
N  45.06500 6.23000 47.95200
C  46.16100 7.03800 47.84600
C  45.72200 8.45900 47.64600
C  44.33600 8.33400 47.72200
C  43.98700 7.03800 47.91700
C  46.56600 9.66500 47.47100
C  43.10600 9.12600 47.74000
O  42.94800 10.33300 47.71800
C  41.93600 8.12600 47.61100
C  40.99000 8.47600 48.67000
O  40.95300 7.94800 49.78800
O  40.04400 9.35200 48.22200
C  39.01700 9.94900 49.14300
H  41.20100 1.16100 47.67200
H  47.54700 0.83700 47.48700
H  48.27300 7.15900 47.71800
H  39.89900 6.02000 47.82600
H  39.76200 3.32300 46.83500
H  40.19800 3.32800 49.80200
H  38.85800 2.70900 48.99700
H  38.92100 4.50400 49.18500
H  40.06000 4.57000 45.29800
H  41.11800 5.89100 45.20400
H  38.58800 6.89800 46.08900
H  38.23900 5.82100 44.88300
H  42.80100 -1.53300 46.48800
H  41.55900 -0.86000 47.69300
H  42.99100 -2.02300 48.06800
H  47.80100 -1.45400 48.06900
H  47.44200 -0.87200 46.43800
H  47.46600 -2.59900 46.82500
H  49.22000 2.54300 46.70800
H  49.75100 5.03200 48.44300
H  50.68500 2.91100 48.98500
H  50.25600 1.32700 48.37400
H  49.14900 2.06000 49.50500
H  50.54600 4.18600 46.10800
H  50.52900 5.85900 46.68400
H  49.86300 4.77200 44.26800
H  49.08200 6.30800 44.85200
H  48.31800 4.69600 45.08300
H  47.09300 9.83400 48.41100
H  46.13700 10.63300 47.21400
H  47.41600 9.54100 46.79900
H  41.44100 8.48500 46.70800
H  38.64300 10.88300 48.72400
H  39.43100 10.13700 50.13400
H  38.22000 9.21700 49.27500

