158

Mg 41.95200 41.11500 26.48200
C  41.32400 43.46800 29.12500
C  42.86400 38.82300 28.96400
C  43.41100 39.19200 24.07500
C  41.47000 43.64600 24.25600
N  42.12700 41.17500 28.78600
C  41.77900 42.19800 29.64000
C  41.75500 41.74400 31.10700
C  42.48700 40.38700 30.99900
C  42.42300 40.05700 29.48400
C  43.89500 40.42800 31.62100
C  40.39700 41.76900 31.85600
C  40.57000 41.29300 33.37900
H  40.01200 42.23900 34.46000
N  43.02000 39.27500 26.52600
C  43.12000 38.40900 27.61200
C  43.59800 37.09300 27.04600
C  43.77300 37.16000 25.64000
C  43.39700 38.58400 25.32400
C  43.76600 35.85100 27.82800
C  44.31900 36.10100 24.63600
O  44.57500 36.35900 23.47400
C  44.56500 34.66100 25.12600
N  42.39200 41.39200 24.48300
C  42.93800 40.47100 23.66400
C  42.58700 40.71200 22.17600
C  41.76300 42.05100 22.24200
C  41.88800 42.38400 23.76600
C  43.83200 40.72500 21.22600
C  40.20500 41.75900 21.92600
C  39.39700 40.94900 22.94300
N  41.42000 43.14600 26.58300
C  41.36600 44.07500 25.60300
C  41.08100 45.39800 26.06600
C  40.90400 45.18400 27.52300
C  41.23800 43.81300 27.74300
C  40.79900 46.55300 25.23200
C  40.63200 45.88000 28.77500
O  40.35000 47.04000 29.06500
C  40.78700 44.78000 29.84100
C  41.71800 45.32800 30.79900
O  42.91600 45.62900 30.52700
O  41.15600 45.44900 32.03900
C  42.04600 46.19500 32.93900
H  43.19900 38.07800 29.69000
H  43.72300 38.51500 23.27600
H  41.35800 44.35300 23.43200
H  42.20100 42.54000 31.70400
H  41.86900 39.60800 31.44600
H  44.28700 41.38600 31.96200
H  44.52400 40.00300 30.83800
H  43.90900 39.81500 32.52200
H  39.75300 41.08500 31.30300
H  39.99500 42.78000 31.91200
H  41.58000 41.00400 33.67000
H  39.91800 40.42000 33.43000
H  42.93400 35.18700 27.58900
H  43.52400 35.96800 28.88400
H  44.76900 35.43800 27.71900
H  44.71400 33.92600 24.33400
H  43.72300 34.27800 25.70200
H  45.53200 34.73100 25.62400
H  41.95500 39.88200 21.86000
H  42.23100 42.72600 21.52500
H  44.72800 40.59200 21.83300
H  43.82300 41.63500 20.62700
H  43.75700 39.89300 20.52600
H  40.08900 41.23300 20.97900
H  39.74800 42.73600 21.76900
H  38.89700 41.52800 23.72000
H  39.78600 40.01200 23.34100
H  38.64800 40.46400 22.31700
H  40.01700 46.22700 24.54500
H  41.71500 46.84900 24.72000
H  40.46200 47.35800 25.88300
H  39.80100 44.63500 30.28200
H  41.72000 46.01100 33.96300
H  41.92400 47.27600 32.87500
H  43.09100 45.88400 32.94100
Mg 9.75400 48.22900 25.80200
C  7.74400 48.38300 28.73300
C  12.35200 49.43200 27.62700
C  11.51200 47.94800 23.08800
C  6.76600 47.75100 23.99300
N  9.96000 48.79600 27.97400
C  9.05700 48.77600 28.95400
C  9.67100 49.16400 30.31100
C  11.03200 49.80200 29.92300
C  11.17500 49.38200 28.34800
C  11.14200 51.36100 30.03100
C  9.85100 47.96500 31.23200
C  9.27800 48.10100 32.66400
H  8.97800 46.85000 33.43500
N  11.69900 48.43500 25.51700
C  12.62000 48.92400 26.40900
C  13.88900 48.81100 25.80100
C  13.67600 48.38700 24.42000
C  12.25800 48.19200 24.30300
C  15.14200 49.20400 26.57300
C  14.73700 48.23900 23.29500
O  14.42100 48.04000 22.09600
C  16.15700 48.32600 23.63700
N  9.11700 48.10100 23.74600
C  10.15300 47.79000 22.87100
C  9.58200 47.54800 21.46300
C  8.00400 47.44500 21.74600
C  7.89000 47.84700 23.21800
C  9.90900 48.57800 20.40200
C  7.43000 45.99600 21.51300
C  6.14800 45.91500 20.62000
N  7.62100 48.26100 26.19600
C  6.58500 47.91300 25.36500
C  5.41400 47.70700 26.18400
C  5.80800 48.04200 27.46600
C  7.16900 48.22500 27.47000
C  4.03400 47.37000 25.72100
C  5.26800 48.11900 28.77900
O  4.12900 48.01700 29.17000
C  6.51700 48.30400 29.72900
C  6.57500 47.11000 30.65600
O  7.02000 46.00700 30.31300
O  5.99800 47.39600 31.90300
C  5.69900 46.21800 32.69800
H  13.14300 49.81300 28.27600
H  12.13400 47.83500 22.19800
H  5.87000 47.60500 23.38500
H  8.94500 49.75900 30.86600
H  11.87100 49.40700 30.49500
H  10.10600 51.64700 30.21000
H  11.56700 51.92700 29.20200
H  11.72900 51.68400 30.89200
H  10.91100 47.77500 31.40200
H  9.37400 47.04200 30.90500
H  8.29500 48.55700 32.54200
H  9.98400 48.70300 33.23600
H  15.84900 48.38000 26.47500
H  15.05100 49.42200 27.63700
H  15.64400 50.06900 26.14100
H  16.49100 47.32700 23.91700
H  16.25900 49.03300 24.46000
H  16.61500 48.77500 22.75500
H  9.99000 46.57400 21.19400
H  7.43600 48.19100 21.18900
H  9.10300 49.30300 20.29400
H  9.94900 48.11200 19.41700
H  10.84900 49.10900 20.55100
H  7.28000 45.40700 22.41800
H  8.11900 45.52300 20.81300
H  5.50800 46.73400 20.94900
H  5.59100 44.98700 20.75300
H  6.36500 46.01200 19.55700
H  3.58900 46.63700 26.39400
H  4.19800 46.77500 24.82200
H  3.54200 48.31600 25.49600
H  6.48900 49.30400 30.16300
H  4.62400 46.07900 32.81100
H  6.19100 46.45900 33.64000
H  6.06100 45.24500 32.36700

