158

Mg 36.54900 0.43400 30.51100
C  34.24700 1.69400 32.97500
C  38.89500 0.33700 32.99200
C  38.59200 -0.41000 28.05700
C  33.99000 0.91000 28.20700
N  36.51700 0.90800 32.72100
C  35.51600 1.35400 33.48800
C  35.90500 1.52300 34.86200
C  37.46900 1.43000 34.80300
C  37.68300 0.81200 33.42200
C  38.22900 2.80000 35.00200
C  35.26600 0.32900 35.70500
C  34.98700 0.63500 37.21400
H  35.61900 1.93200 37.80200
N  38.50400 -0.10900 30.53300
C  39.33600 -0.08700 31.64000
C  40.66400 -0.41400 31.25400
C  40.63600 -0.63000 29.81000
C  39.18700 -0.34900 29.37500
C  41.83700 -0.59600 32.19100
C  41.64800 -1.13000 28.96000
O  41.43700 -1.28300 27.75900
C  42.95100 -1.63500 29.48600
N  36.32400 0.20800 28.48400
C  37.29300 -0.12400 27.63000
C  36.87300 -0.21000 26.18800
C  35.32100 0.02100 26.32800
C  35.14100 0.29600 27.79300
C  37.58900 0.79400 25.29800
C  34.40300 -1.19800 25.89900
C  33.74200 -1.09500 24.51100
N  34.50900 1.13200 30.48500
C  33.57100 1.20600 29.43000
C  32.36700 1.66000 29.95800
C  32.54500 1.91800 31.30300
C  33.92500 1.57500 31.62200
C  31.13400 1.80600 29.04400
C  31.91400 2.27500 32.53800
O  30.73500 2.48100 32.75200
C  32.98200 2.19900 33.64600
C  33.09500 3.50400 34.29100
O  33.84200 4.38200 33.90200
O  32.43800 3.55600 35.51800
C  32.82300 4.60800 36.52300
H  39.58100 0.31800 33.84100
H  39.29000 -0.47200 27.21900
H  33.24000 0.82100 27.41800
H  35.50100 2.47100 35.21800
H  37.85900 0.73500 35.54700
H  37.62200 3.67700 34.77700
H  39.11800 2.83400 34.37200
H  38.46100 2.66500 36.05900
H  35.82800 -0.60500 35.72800
H  34.35300 -0.04700 35.24300
H  35.16200 -0.29000 37.76300
H  33.91700 0.82300 37.28900
H  42.83900 -0.38000 31.81900
H  41.75800 -1.61300 32.57300
H  41.73000 0.08900 33.03200
H  43.57400 -0.80700 29.82600
H  43.54400 -2.35800 28.92600
H  42.69100 -2.26500 30.33700
H  37.04000 -1.20500 25.77600
H  35.08700 0.92100 25.75900
H  36.85600 1.32900 24.69500
H  38.26000 0.28600 24.60500
H  38.23200 1.48000 25.85000
H  33.66000 -1.47900 26.64600
H  35.10700 -2.03000 25.89700
H  32.72200 -0.71200 24.55700
H  33.85700 -2.06400 24.02600
H  34.24900 -0.44100 23.80200
H  30.59800 2.70900 29.33500
H  30.52200 0.90500 29.09200
H  31.48100 1.85600 28.01200
H  32.59500 1.59200 34.46400
H  33.62300 5.23400 36.12900
H  33.22500 4.21700 37.45700
H  31.93000 5.19100 36.74700
Mg 54.67400 22.91600 45.10100
C  52.40500 25.15000 43.73700
C  52.50300 20.31600 44.04900
C  57.10800 20.69200 45.57800
C  56.78800 25.62100 45.83100
N  52.74700 22.85800 44.06700
C  51.98700 23.83600 43.59100
C  50.65000 23.36000 43.00100
C  50.52000 21.87100 43.57500
C  52.04200 21.66900 43.95900
C  49.53700 21.67200 44.78300
C  50.47000 23.47200 41.47800
C  49.08700 23.88400 40.96600
H  48.59000 23.21100 39.66600
N  54.82200 20.75200 44.84200
C  53.84800 19.92000 44.34600
C  54.34600 18.55900 44.41600
C  55.73300 18.63100 44.91800
C  55.97000 20.08700 45.13900
C  53.59500 17.40400 43.82100
C  56.59800 17.45200 45.08900
O  56.23200 16.32300 44.76400
C  58.05900 17.61900 45.42700
N  56.79200 23.15000 45.36800
C  57.51600 22.05300 45.74100
C  58.80400 22.50700 46.46900
C  58.60500 24.08800 46.70100
C  57.36600 24.34200 45.77700
C  59.25400 21.76000 47.78800
C  59.83900 24.99600 46.30300
C  60.48200 25.80800 47.45700
N  54.59800 25.05500 45.01400
C  55.51400 26.05700 45.29300
C  54.85300 27.25200 45.23200
C  53.64500 26.94100 44.60400
C  53.59400 25.59800 44.41500
C  55.25600 28.62800 45.62500
C  52.44000 27.54900 44.10100
O  52.03100 28.72000 43.97500
C  51.63100 26.41800 43.50300
C  51.56400 26.73600 42.08100
O  52.50600 26.68400 41.33900
O  50.34700 27.22100 41.75500
C  50.24500 27.53300 40.29800
H  51.78400 19.49500 44.06700
H  57.97100 20.05900 45.79400
H  57.32900 26.52200 46.12800
H  49.82900 23.92600 43.44100
H  50.22200 21.11000 42.85300
H  49.94800 21.04000 45.57100
H  48.60500 21.17000 44.52200
H  49.35700 22.65100 45.22700
H  50.66800 22.52700 40.97200
H  51.19200 24.21200 41.13500
H  48.90800 24.92300 40.68700
H  48.38300 23.68000 41.77200
H  52.78500 17.70900 43.15800
H  53.26500 16.67600 44.56300
H  54.32400 16.95400 43.14700
H  58.60700 18.19900 44.68400
H  58.52900 16.64100 45.32800
H  58.25100 17.90900 46.46000
H  59.67500 22.38800 45.82500
H  58.33000 24.31500 47.73100
H  59.40700 22.45000 48.61800
H  60.23000 21.29700 47.64900
H  58.54300 20.97100 48.03300
H  59.66100 25.69900 45.48900
H  60.63300 24.35400 45.92200
H  60.37900 26.86500 47.21300
H  61.52600 25.62100 47.71100
H  59.89900 25.65800 48.36500
H  55.36200 28.72000 46.70600
H  54.51100 29.32800 45.24600
H  56.22900 28.87600 45.20200
H  50.63200 26.43500 43.93700
H  51.02600 28.15600 39.86300
H  49.30300 27.89700 39.88700
H  50.33800 26.58400 39.76900

