158

Mg 54.59900 24.25000 44.59800
C  51.78300 26.32000 43.87500
C  52.57700 21.54800 43.68200
C  57.33400 22.26300 44.59600
C  56.36400 27.14700 45.33200
N  52.39400 23.97400 43.56800
C  51.44800 25.01600 43.53700
C  50.04900 24.42600 43.51700
C  50.35200 22.85600 43.64000
C  51.87000 22.74200 43.59900
C  49.76200 22.25000 44.91200
C  49.29400 24.69800 42.19400
C  49.98000 24.85800 40.77600
H  49.60200 24.01900 39.54000
N  54.91100 22.22300 44.23300
C  53.97200 21.23900 43.89400
C  54.56700 19.92200 43.72100
C  55.92500 20.05100 44.04700
C  56.14400 21.57500 44.32300
C  53.67800 18.70000 43.49300
C  56.91500 18.84600 44.13700
O  56.59700 17.67900 43.94300
C  58.31200 19.02900 44.60400
N  56.59300 24.67700 44.76000
C  57.58800 23.68500 44.77600
C  58.94500 24.23200 45.20000
C  58.61500 25.80600 45.43200
C  57.10800 25.96200 45.13000
C  59.76000 23.50700 46.30100
C  59.65600 26.79900 44.79800
C  60.28700 27.95000 45.70000
N  54.23100 26.33800 44.55400
C  55.00900 27.28200 45.08200
C  54.21400 28.47500 45.23000
C  52.97200 28.18300 44.75700
C  52.98500 26.82800 44.38900
C  54.83800 29.75900 45.80300
C  51.66700 28.70400 44.44900
O  51.24800 29.83400 44.67100
C  50.82800 27.51600 43.90300
C  50.33000 27.94900 42.52600
O  50.93100 27.95500 41.46700
O  49.00700 28.16800 42.68200
C  48.24600 28.61500 41.50400
H  51.81100 20.78400 43.52900
H  58.24400 21.66600 44.68300
H  56.85000 27.98100 45.84200
H  49.46200 24.83500 44.33900
H  49.93700 22.28800 42.80700
H  50.47000 22.03500 45.71200
H  49.22300 21.31100 44.78600
H  49.01600 22.90000 45.36900
H  48.71700 25.59100 42.43400
H  48.59200 23.89600 41.96600
H  51.05400 24.69400 40.86800
H  49.78000 25.92200 40.64700
H  53.61100 18.58300 42.41200
H  52.66200 18.88500 43.84100
H  54.11600 17.82100 43.96600
H  58.37200 19.39300 45.63000
H  58.71400 19.77600 43.91900
H  58.87400 18.09800 44.52700
H  59.54400 24.05100 44.30800
H  58.71400 25.98800 46.50200
H  59.23700 22.55600 46.39900
H  59.82200 23.99100 47.27600
H  60.76600 23.30400 45.93300
H  59.15500 27.26800 43.95100
H  60.52500 26.20600 44.51300
H  61.37100 28.04900 45.66200
H  59.99500 27.85300 46.74500
H  59.88800 28.92800 45.43000
H  53.95000 30.31800 46.09900
H  55.37900 30.19900 44.96500
H  55.43100 29.46000 46.66800
H  49.99200 27.24100 44.54600
H  48.77600 29.48600 41.11600
H  47.22400 28.89700 41.75400
H  48.24400 27.86500 40.71300
Mg -5.11500 25.51400 25.25400
C  -3.43600 27.20000 27.82800
C  -6.49100 23.42700 27.45700
C  -6.28300 23.65400 22.70400
C  -2.77900 27.06800 23.08600
N  -4.79300 25.25100 27.41400
C  -4.26200 26.15900 28.31600
C  -4.74400 25.85000 29.71100
C  -5.44200 24.48900 29.58300
C  -5.63000 24.39800 28.02100
C  -4.71400 23.23200 30.10500
C  -5.66600 26.97200 30.43400
C  -5.09700 27.34200 31.79000
H  -4.74200 26.08500 32.65700
N  -6.26800 23.78400 25.07300
C  -6.81800 23.12000 26.12500
C  -7.76000 22.12900 25.65300
C  -7.68000 22.10200 24.26200
C  -6.78000 23.26500 23.95900
C  -8.56500 21.34700 26.71000
C  -8.42000 21.19200 23.24900
O  -8.21100 21.25200 22.07500
C  -9.45000 20.10900 23.68000
N  -4.60300 25.35600 23.29100
C  -5.25800 24.56500 22.37800
C  -4.68100 24.69200 20.96800
C  -3.58700 25.77000 21.06300
C  -3.60500 26.01200 22.57300
C  -4.09800 23.32000 20.36300
C  -3.82700 27.05200 20.21600
C  -3.58400 27.03500 18.72900
N  -3.57100 27.00400 25.35000
C  -2.74800 27.60300 24.40600
C  -1.91700 28.63300 24.98100
C  -2.11400 28.46700 26.37500
C  -3.11800 27.49500 26.49800
C  -1.01400 29.53200 24.28700
C  -1.73200 28.91400 27.68400
O  -0.84100 29.72000 27.98400
C  -2.54500 28.08700 28.71700
C  -1.48000 27.39200 29.48300
O  -0.71900 26.51700 29.03800
O  -1.49500 27.81900 30.77500
C  -0.71200 27.17300 31.79700
H  -7.02000 23.00900 28.31600
H  -6.85000 23.20100 21.88800
H  -2.10600 27.63800 22.44300
H  -3.85200 25.61300 30.29100
H  -6.45300 24.39000 29.97700
H  -3.87600 23.35900 30.79000
H  -4.33700 22.70600 29.22800
H  -5.52700 22.65700 30.54800
H  -6.71300 26.70500 30.58100
H  -5.69500 27.86900 29.81600
H  -5.83900 27.99400 32.25200
H  -4.26800 28.02100 31.58700
H  -9.48600 21.91600 26.83300
H  -8.10400 21.37600 27.69700
H  -8.75900 20.33000 26.36800
H  -9.97100 19.94000 22.73700
H  -10.08800 20.52000 24.46300
H  -8.97700 19.21100 24.07700
H  -5.49400 25.03200 20.32700
H  -2.59100 25.39300 20.83200
H  -4.46800 23.27100 19.33900
H  -4.52000 22.47400 20.90600
H  -3.01100 23.35300 20.30000
H  -3.28100 27.91700 20.59300
H  -4.84800 27.33900 20.46900
H  -2.85000 27.78700 18.44100
H  -4.52300 27.30200 18.24400
H  -3.20300 26.07200 18.38900
H  -1.06200 30.57600 24.59600
H  -1.25200 29.40700 23.23000
H  -0.01100 29.19000 24.53900
H  -3.02100 28.83900 29.34600
H  -1.43100 27.27000 32.61000
H  0.24500 27.66900 31.96200
H  -0.64700 26.12100 31.51800

