158

Mg -1.96800 17.85600 27.30000
C  -2.46100 15.31400 29.70100
C  -2.87400 20.13100 29.69900
C  -2.37600 20.15300 24.91100
C  -2.05700 15.34400 24.94000
N  -2.46700 17.70900 29.51600
C  -2.53600 16.59900 30.30500
C  -2.72000 16.94400 31.80000
C  -3.06900 18.50200 31.69200
C  -2.72800 18.81400 30.24000
C  -4.50500 18.95800 32.18200
C  -1.52300 16.70100 32.71700
C  -1.80300 16.03900 34.07100
H  -0.85900 16.36100 35.29700
N  -2.27200 19.90600 27.34800
C  -2.62300 20.63100 28.43900
C  -2.71300 22.03600 28.09200
C  -2.43400 22.16700 26.68400
C  -2.33700 20.71400 26.19200
C  -3.01500 23.17600 29.03100
C  -2.15400 23.42800 25.84900
O  -1.84100 23.34700 24.67500
C  -2.01300 24.70200 26.54400
N  -2.04400 17.79200 25.23200
C  -2.32200 18.88000 24.45100
C  -2.40200 18.44200 22.95300
C  -2.27100 16.88600 23.02400
C  -2.01200 16.65100 24.49200
C  -3.68300 18.91700 22.17900
C  -1.13600 16.37500 22.11400
C  0.25600 16.34800 22.70100
N  -2.13700 15.74700 27.19200
C  -2.12000 14.88000 26.20800
C  -2.27300 13.52700 26.57200
C  -2.33100 13.59600 27.99000
C  -2.34300 14.98900 28.29400
C  -2.40700 12.26100 25.78100
C  -2.51800 12.89100 29.23900
O  -2.44600 11.61400 29.35600
C  -2.61600 13.95300 30.38900
C  -1.60800 13.48400 31.43100
O  -0.38800 13.66100 31.37800
O  -2.29800 12.75400 32.33600
C  -1.52900 12.23600 33.50000
H  -3.15400 20.87500 30.44900
H  -2.55700 20.90500 24.14000
H  -2.05000 14.57000 24.17000
H  -3.57700 16.41500 32.21700
H  -2.34600 19.19100 32.12900
H  -5.14900 19.05500 31.30800
H  -4.35000 19.87500 32.75000
H  -4.80800 18.19300 32.89700
H  -1.02200 17.66300 32.82800
H  -0.79900 16.11900 32.14600
H  -1.87600 14.95700 33.96800
H  -2.79700 16.36600 34.37700
H  -2.15400 23.82300 29.19500
H  -3.51500 22.96200 29.97600
H  -3.73400 23.74800 28.44500
H  -1.78900 25.50200 25.83800
H  -1.18700 24.54700 27.23800
H  -2.99200 25.00000 26.91700
H  -1.65800 18.93900 22.33100
H  -3.16900 16.33900 22.73800
H  -3.53400 19.67400 21.40900
H  -4.41800 19.44300 22.78700
H  -4.18800 18.04200 21.77000
H  -1.30300 16.98800 21.22800
H  -1.34100 15.35000 21.80600
H  0.46200 15.27800 22.71000
H  0.43300 16.58600 23.75000
H  0.99700 16.89400 22.11700
H  -2.33000 11.35700 26.38500
H  -1.57000 12.31000 25.08600
H  -3.31900 12.22200 25.18500
H  -3.61000 13.71700 30.77000
H  -1.51100 11.14600 33.52200
H  -1.91300 12.65900 34.42800
H  -0.50100 12.59400 33.56700
Mg 44.95600 4.45400 48.53800
C  42.88500 7.11700 47.63700
C  42.52000 2.25800 47.69700
C  47.38400 2.00900 48.53000
C  47.68000 6.85600 48.48000
N  42.96600 4.69700 47.73900
C  42.27700 5.84900 47.54400
C  40.81200 5.60100 47.02500
C  40.66100 4.03600 47.32400
C  42.13000 3.64800 47.67400
C  39.67300 3.73400 48.41600
C  40.67000 5.89600 45.50700
C  39.63500 6.94200 45.05400
H  40.01500 8.08600 44.04100
N  44.90000 2.31300 48.22500
C  43.79300 1.61700 47.78600
C  44.14800 0.27300 47.60100
C  45.56900 0.16400 47.95300
C  46.02200 1.55700 48.22300
C  43.20000 -0.85600 47.27800
C  46.30900 -1.15000 48.02700
O  45.69200 -2.14900 47.79100
C  47.80200 -1.44600 48.39000
N  47.18500 4.43400 48.47700
C  47.82500 3.30000 48.64200
C  49.35600 3.58600 48.85100
C  49.45800 5.14800 48.89300
C  48.03800 5.50400 48.51900
C  49.96500 2.94300 50.10300
C  50.60800 5.82600 48.03700
C  51.38500 6.87800 48.82000
N  45.30900 6.53900 48.22000
C  46.42800 7.38600 48.20300
C  46.04200 8.74400 48.01200
C  44.65400 8.68300 47.71000
C  44.24900 7.29400 47.91500
C  47.00900 9.86700 48.28600
C  43.53100 9.44600 47.39600
O  43.36000 10.65100 47.18400
C  42.31200 8.43100 47.22700
C  41.25800 8.87600 48.14800
O  41.11900 8.54500 49.29600
O  40.31800 9.60900 47.42800
C  39.06800 9.76100 48.16500
H  41.72500 1.51800 47.58500
H  48.17400 1.25700 48.58900
H  48.47700 7.59700 48.56500
H  40.10400 6.16800 47.63100
H  40.28700 3.47900 46.46500
H  40.12200 2.90800 48.96700
H  38.65200 3.47400 48.13600
H  39.67400 4.62000 49.05100
H  40.46700 4.99800 44.92400
H  41.62800 6.24500 45.12200
H  39.30100 7.50000 45.92900
H  38.81800 6.31900 44.69000
H  42.88500 -1.49900 48.10100
H  43.55300 -1.44600 46.43200
H  42.24400 -0.54000 46.86100
H  47.92900 -2.52300 48.50000
H  48.12500 -0.98600 49.32400
H  48.51800 -1.12500 47.63400
H  49.88100 3.21400 47.97100
H  49.50000 5.58000 49.89300
H  50.82600 2.30000 49.92300
H  49.16900 2.44100 50.65300
H  50.26400 3.76700 50.75100
H  50.16900 6.41500 47.23100
H  51.19800 5.13600 47.43400
H  52.36700 6.44700 49.01100
H  50.87900 7.35400 49.66000
H  51.61500 7.71400 48.15900
H  46.59500 10.87500 48.25300
H  47.71900 9.68600 47.47900
H  47.47800 9.78500 49.26600
H  42.00600 8.50900 46.18400
H  39.17400 10.59300 48.86100
H  38.68500 8.94600 48.77900
H  38.26800 9.92800 47.44300

