158

Mg 44.28900 4.10700 48.20800
C  42.06700 6.84700 47.69000
C  41.43900 2.04100 47.93600
C  46.31100 1.39800 48.00400
C  47.01100 6.24200 48.02300
N  42.01800 4.42300 48.03200
C  41.34000 5.65500 47.74400
C  39.85000 5.47100 47.54400
C  39.74500 3.94500 47.69800
C  41.17400 3.38500 47.91300
C  38.71500 3.49300 48.77800
C  39.45200 5.92800 46.12100
C  37.99200 6.44100 46.07500
H  37.28700 6.37500 44.71500
N  43.96500 2.02400 48.05200
C  42.73900 1.43400 47.91600
C  42.97500 -0.03600 47.71600
C  44.40200 -0.17700 47.62500
C  44.92800 1.09400 47.92500
C  41.96400 -1.15000 47.51700
C  45.11400 -1.49400 47.33200
O  44.58600 -2.61800 47.31600
C  46.57900 -1.55700 46.96800
N  46.32200 3.85200 47.77100
C  46.94200 2.64100 47.98900
C  48.41600 2.82900 48.21200
C  48.67400 4.32800 47.72200
C  47.25800 4.81200 47.92300
C  48.80100 2.46000 49.71800
C  49.26900 4.58400 46.33500
C  50.73700 5.09800 46.34000
N  44.56400 6.17500 48.03100
C  45.71700 6.91800 47.98500
C  45.42300 8.32400 48.03300
C  43.99600 8.34600 47.87100
C  43.48700 7.01500 47.85100
C  46.37800 9.42400 48.32900
C  42.80200 9.19500 47.76600
O  42.73900 10.42000 47.74000
C  41.52000 8.27900 47.66600
C  40.63900 8.60000 48.81200
O  40.84100 8.30700 49.96900
O  39.55600 9.35100 48.37000
C  38.55100 9.72200 49.40600
H  40.51400 1.46500 47.86200
H  47.03700 0.58400 48.06600
H  47.91800 6.84500 47.94100
H  39.23600 5.94800 48.30800
H  39.33900 3.35900 46.87300
H  37.89700 4.21400 48.79600
H  39.20500 3.62700 49.74300
H  38.40000 2.45100 48.72300
H  39.44800 5.00000 45.54900
H  40.06300 6.69400 45.64200
H  37.98500 7.49100 46.36900
H  37.31400 5.98500 46.79700
H  41.86700 -1.45200 46.47400
H  40.99100 -0.71300 47.74100
H  42.13000 -1.98300 48.20000
H  47.09400 -1.54700 47.92800
H  46.91100 -0.70400 46.37600
H  46.73100 -2.42900 46.33100
H  48.86500 2.08700 47.55200
H  49.36700 4.66300 48.49400
H  47.89000 2.46400 50.31800
H  49.45500 3.23800 50.11100
H  49.26100 1.47200 49.72600
H  48.66700 5.38200 45.90100
H  49.25800 3.71700 45.67400
H  50.80300 6.18400 46.39900
H  51.06500 4.82400 45.33700
H  51.39300 4.61800 47.06600
H  46.57900 9.42600 49.40000
H  46.08200 10.43700 48.05900
H  47.28700 9.19400 47.77400
H  41.03300 8.62900 46.75600
H  37.69200 10.01100 48.80000
H  39.01300 10.52700 49.97800
H  38.31300 8.87300 50.04700
Mg 16.63500 51.96100 26.31100
C  18.80700 50.62200 28.70100
C  14.56400 52.89700 28.84600
C  14.52100 53.14800 23.90600
C  18.72900 50.87000 23.84400
N  16.68000 51.69100 28.49600
C  17.66900 51.08900 29.27300
C  17.36500 51.17000 30.82000
C  15.86400 51.72100 30.74000
C  15.63600 52.08500 29.26300
C  14.77900 50.74100 31.25200
C  18.32200 52.14000 31.65500
C  18.85100 51.74600 33.05300
H  17.96000 52.20900 34.25900
N  14.76600 52.80000 26.33800
C  14.06900 53.11100 27.52000
C  12.94000 53.96000 27.10300
C  12.85300 53.93100 25.69400
C  14.10500 53.28700 25.22800
C  11.96400 54.70500 28.20600
C  11.79000 54.53800 24.86300
O  11.73000 54.23900 23.66800
C  10.56400 55.26400 25.45100
N  16.63600 52.06500 24.21600
C  15.69500 52.58300 23.39500
C  15.95900 52.49100 21.89400
C  17.40000 51.90900 21.99500
C  17.63000 51.63700 23.46300
C  14.91700 51.52800 21.19900
C  18.50400 52.84900 21.33900
C  18.87800 54.19100 22.11700
N  18.39500 50.87800 26.23400
C  19.15100 50.50300 25.14300
C  20.29700 49.84000 25.58400
C  20.15600 49.74500 26.97800
C  19.03200 50.48200 27.37800
C  21.37500 49.21800 24.83300
C  20.83600 49.29200 28.21400
O  21.81000 48.72900 28.52300
C  19.91400 49.84200 29.39800
C  19.40600 48.59500 30.07800
O  18.56700 47.83400 29.59700
O  19.78600 48.61600 31.35600
C  19.15500 47.65100 32.20100
H  13.92800 53.21200 29.67600
H  13.92900 53.66400 23.14700
H  19.30800 50.56900 22.96900
H  17.27400 50.17900 31.26500
H  15.74400 52.64600 31.30400
H  13.81400 51.24700 31.28000
H  15.10800 50.45700 32.25200
H  14.60500 49.88000 30.60600
H  17.78300 53.07900 31.78000
H  19.19600 52.45300 31.08400
H  19.90000 52.04000 33.06700
H  18.68700 50.67000 33.00100
H  12.27900 55.74800 28.18700
H  12.31600 54.45100 29.20500
H  10.89500 54.50100 28.14300
H  10.95500 56.17500 25.90400
H  9.93200 54.63800 26.08100
H  9.89400 55.62700 24.67100
H  15.86300 53.49000 21.46700
H  17.42100 50.90900 21.56100
H  15.47600 50.62700 20.94500
H  14.54300 51.93600 20.26000
H  14.17900 51.38100 21.98700
H  18.03100 53.13100 20.39800
H  19.43800 52.29200 21.26500
H  18.37000 54.27000 23.07800
H  18.66400 55.02300 21.44700
H  19.93600 53.97700 22.26600
H  21.89500 50.00400 24.28600
H  20.89000 48.55000 24.12100
H  22.09200 48.67600 25.45000
H  20.44200 50.49400 30.09400
H  19.31800 46.63200 31.85000
H  18.11100 47.95700 32.26200
H  19.38100 47.83600 33.25100

