158

Mg 0.40500 7.09400 26.31300
C  1.13600 8.99000 29.05100
C  0.57000 4.28400 28.26000
C  -0.28200 5.25800 23.53100
C  0.72900 9.89800 24.30300
N  0.91200 6.71000 28.42100
C  0.91100 7.60400 29.36200
C  0.67400 7.09700 30.72200
C  0.82000 5.62000 30.49100
C  0.77300 5.46900 28.99500
C  2.16900 5.07500 31.05200
C  -0.62500 7.60200 31.38000
C  -0.63200 8.15800 32.80700
H  0.50800 7.65900 33.71100
N  0.08300 5.06300 25.93500
C  0.13900 4.12100 26.89100
C  -0.29200 2.85800 26.35000
C  -0.53000 3.10700 24.99500
C  -0.23100 4.52100 24.77500
C  -0.40200 1.61000 27.08500
C  -1.06500 2.13500 24.00600
O  -1.13600 2.40600 22.81700
C  -1.42100 0.66100 24.33600
N  0.38000 7.41600 24.19400
C  0.01900 6.53600 23.25700
C  -0.15000 7.18900 21.80500
C  -0.04500 8.68900 22.15600
C  0.40600 8.69000 23.62100
C  0.88500 6.61400 20.79500
C  -1.44700 9.46300 22.06100
C  -1.49000 10.86200 21.50300
N  0.94800 9.09700 26.61800
C  0.96200 10.09000 25.69100
C  1.34200 11.25500 26.33900
C  1.43900 10.92900 27.71400
C  1.14700 9.54000 27.78800
C  1.57500 12.61400 25.67100
C  1.77700 11.47700 29.00300
O  2.24500 12.58700 29.27900
C  1.30600 10.24500 29.97300
C  2.29300 10.13000 31.04000
O  3.25100 9.36100 31.09100
O  1.87200 11.02100 32.00400
C  2.72500 11.09100 33.21900
H  0.63800 3.37400 28.85900
H  -0.81200 4.71500 22.74500
H  0.77700 10.73000 23.59700
H  1.55900 7.44900 31.25100
H  -0.02000 5.06600 30.91100
H  1.93700 4.36900 31.84900
H  2.88700 5.79000 31.45400
H  2.72600 4.62900 30.22800
H  -1.42400 6.87700 31.22800
H  -0.86400 8.42200 30.70200
H  -1.62700 7.97900 33.21500
H  -0.60800 9.24600 32.74300
H  -0.20500 1.76200 28.14700
H  0.24700 0.86200 26.63100
H  -1.42900 1.24600 27.12300
H  -2.19100 0.43200 25.07300
H  -0.49700 0.08500 24.36800
H  -1.88600 0.26700 23.43200
H  -1.14500 6.85700 21.50900
H  0.76400 9.13900 21.58000
H  1.59900 7.41400 20.60300
H  0.28000 6.42600 19.90700
H  1.36200 5.72100 21.20000
H  -1.91400 9.44400 23.04500
H  -2.19300 8.86400 21.53800
H  -2.53600 11.15400 21.41000
H  -0.96800 10.91400 20.54800
H  -1.02900 11.45100 22.29700
H  2.05600 13.36600 26.29600
H  0.63600 12.91000 25.20200
H  2.20600 12.40400 24.80800
H  0.35100 10.62200 30.33800
H  3.57600 10.41100 33.22300
H  2.02200 10.59000 33.88500
H  3.12900 12.05500 33.53100
Mg 48.78500 45.22400 43.29100
C  45.30800 45.34900 42.64000
C  48.69700 41.75300 42.54300
C  52.08700 45.23300 43.04900
C  48.67300 48.66700 43.76500
N  47.13900 43.87200 42.60600
C  45.85900 44.04600 42.48600
C  45.09000 42.74600 42.07600
C  46.13900 41.61000 42.34800
C  47.43700 42.44100 42.42600
C  45.85400 40.71000 43.58900
C  44.35900 42.72100 40.65200
C  45.03200 43.26200 39.42500
H  45.05200 42.41700 38.08000
N  50.19600 43.64500 42.88300
C  49.98400 42.33400 42.62300
C  51.22200 41.70400 42.40500
C  52.25400 42.70400 42.53100
C  51.49100 43.92500 42.87600
C  51.44700 40.25300 42.13100
C  53.75400 42.47200 42.15200
O  54.13700 41.35000 41.88200
C  54.71600 43.66100 41.80600
N  50.21700 46.70300 43.32100
C  51.53400 46.50200 43.19300
C  52.30500 47.83700 43.23200
C  51.20500 48.96800 43.44700
C  49.91800 48.04400 43.54100
C  53.43700 47.83800 44.35600
C  50.94100 50.02500 42.24700
C  51.52600 51.38600 42.59500
N  47.32900 46.72700 43.34900
C  47.41600 48.06800 43.59300
C  46.15700 48.63900 43.56200
C  45.28600 47.61400 43.24500
C  46.06600 46.48900 43.05500
C  45.90600 50.04400 43.52600
C  43.87400 47.28800 42.82100
O  42.86600 47.93700 42.69000
C  43.88900 45.77500 42.41400
C  42.81000 44.98100 43.18200
O  41.99400 44.23900 42.62600
O  42.77000 45.35900 44.46800
C  41.68300 44.82700 45.29200
H  48.64300 40.66700 42.44500
H  53.17700 45.17800 43.09500
H  48.54300 49.75200 43.77900
H  44.24600 42.58900 42.74700
H  46.19800 41.00300 41.44500
H  45.50000 39.82000 43.06900
H  45.11100 41.18500 44.23000
H  46.74400 40.54500 44.19700
H  43.38600 43.20300 40.74700
H  44.13900 41.65500 40.59100
H  46.04800 43.57800 39.65700
H  44.42600 44.11000 39.10700
H  51.97800 40.20600 41.18000
H  50.51400 39.69600 42.04800
H  52.03900 39.84800 42.95200
H  55.08900 44.19400 42.68100
H  54.09000 44.31600 41.19900
H  55.50200 43.13400 41.26600
H  52.74800 48.02400 42.25400
H  51.33900 49.39100 44.44200
H  53.20400 48.52500 45.17000
H  54.36700 48.11700 43.86100
H  53.56300 46.83400 44.76000
H  49.90600 50.19900 41.95300
H  51.32300 49.74500 41.26500
H  50.84500 52.20100 42.34900
H  52.34600 51.55900 41.89700
H  51.77400 51.45800 43.65400
H  45.25500 50.35800 44.34100
H  45.44000 50.33500 42.58400
H  46.81800 50.63900 43.57200
H  43.62800 45.78300 41.35600
H  41.58900 43.74900 45.16400
H  40.68600 45.17500 45.02300
H  41.75800 45.03400 46.36000

