158

Mg 1.09200 8.15000 26.05000
C  2.06000 10.11700 28.74600
C  1.44100 5.31900 27.96800
C  0.51400 6.26700 23.30800
C  1.55900 11.04200 23.89800
N  1.71400 7.77800 28.12600
C  1.95500 8.74100 29.02500
C  2.06800 8.16000 30.43000
C  2.02200 6.61500 30.23400
C  1.66600 6.53600 28.70400
C  3.29800 5.87400 30.80800
C  0.86900 8.68500 31.15400
C  1.00300 8.77500 32.72200
H  2.24400 8.18300 33.44300
N  0.98900 6.00900 25.75200
C  1.07300 5.04500 26.66300
C  0.81700 3.79600 26.05700
C  0.43100 4.01300 24.74600
C  0.65900 5.49200 24.54900
C  0.73700 2.41300 26.82000
C  -0.10800 3.12100 23.76200
O  -0.32100 3.51300 22.61300
C  -0.47800 1.77800 24.03700
N  1.21600 8.58200 23.88900
C  0.86700 7.55600 22.93500
C  0.83300 8.14400 21.48400
C  0.98900 9.67000 21.81900
C  1.15400 9.81100 23.30800
C  2.00200 7.60400 20.62300
C  -0.17200 10.52000 21.30200
C  -0.07900 10.98100 19.79700
N  1.76000 10.15600 26.25200
C  1.82400 11.13500 25.30700
C  2.15000 12.43200 25.94500
C  2.30600 12.04600 27.31100
C  2.01800 10.69900 27.42700
C  2.20300 13.81600 25.35200
C  2.59200 12.61700 28.61100
O  2.90100 13.71300 28.97600
C  2.35100 11.30300 29.57600
C  3.47700 11.00800 30.44000
O  4.53400 10.53800 30.11900
O  3.20200 11.62300 31.60400
C  4.22300 11.69400 32.60000
H  1.50500 4.41500 28.57600
H  0.22400 5.72800 22.40400
H  1.53800 11.95100 23.29300
H  2.98000 8.41200 30.97100
H  1.16300 6.08300 30.64400
H  4.08400 6.56200 31.11900
H  3.55800 5.23700 29.96200
H  3.05500 5.24700 31.66500
H  0.09400 7.94100 30.96800
H  0.51100 9.62500 30.73400
H  0.05000 8.32300 32.99400
H  0.80300 9.78900 33.06800
H  -0.31700 2.19300 26.99500
H  1.43200 2.47300 27.65700
H  0.93600 1.53000 26.21300
H  0.39000 1.19800 24.35000
H  -0.79200 1.24100 23.14200
H  -1.29800 1.72100 24.75300
H  -0.15300 8.06700 21.02700
H  1.82000 10.16500 21.31600
H  2.69300 8.34600 20.22200
H  1.61500 7.09300 19.74100
H  2.56500 6.89800 21.23300
H  -0.16400 11.37300 21.98100
H  -1.10500 9.96500 21.39700
H  -0.21000 10.12100 19.14000
H  0.88600 11.40600 19.52300
H  -0.87700 11.67000 19.52400
H  1.16600 14.14800 25.31000
H  2.57800 13.74200 24.33100
H  2.88600 14.46200 25.90300
H  1.52000 11.48900 30.25500
H  4.86000 12.57700 32.52700
H  4.92400 10.85900 32.57800
H  3.69800 11.77400 33.55200
Mg 47.10700 35.86500 28.96900
C  45.55000 33.57500 31.19800
C  47.19200 38.07000 31.65100
C  48.04800 38.16900 26.91900
C  46.49600 33.64100 26.23500
N  46.54700 35.81900 31.13800
C  45.97900 34.72300 31.89400
C  46.12600 34.89500 33.37800
C  46.20000 36.40500 33.45400
C  46.69000 36.81000 31.98800
C  44.84100 37.10400 33.82200
C  47.41400 34.06300 33.86700
C  47.38300 33.65500 35.34000
H  46.51900 34.45400 36.32400
N  47.82900 37.75800 29.26600
C  47.68900 38.46700 30.41100
C  48.41600 39.82200 30.16600
C  48.76600 39.78400 28.80300
C  48.17800 38.55900 28.20600
C  48.58900 40.88000 31.19000
C  49.62700 40.73200 27.91900
O  49.85100 40.56500 26.75400
C  50.00500 42.05300 28.50600
N  47.20000 35.91000 26.87300
C  47.67200 36.99400 26.27200
C  47.75100 36.91300 24.77100
C  47.26600 35.45400 24.53100
C  47.02700 34.92500 25.98100
C  46.81300 37.96700 23.97800
C  48.13700 34.57900 23.59700
C  47.68900 34.43500 22.09100
N  46.25300 34.05100 28.73100
C  46.08600 33.27900 27.51000
C  45.34900 32.08100 27.87300
C  45.12200 32.20500 29.30100
C  45.68800 33.42000 29.80200
C  45.13800 30.83200 26.96900
C  44.59300 31.44100 30.43700
O  44.12200 30.27500 30.54700
C  44.66300 32.40000 31.60800
C  45.00600 31.75000 32.92000
O  46.06500 31.30200 33.27900
O  43.87100 31.75300 33.72900
C  44.04800 31.15600 35.07600
H  47.18300 38.89500 32.36600
H  48.19700 38.96500 26.18600
H  46.19900 33.05100 25.36600
H  45.28000 34.59400 33.99600
H  46.84900 36.66700 34.28900
H  43.97900 36.44400 33.72500
H  44.67000 37.83200 33.02800
H  44.80200 37.63900 34.77000
H  48.22300 34.79300 33.84600
H  47.55900 33.24000 33.16700
H  48.40100 33.72300 35.72200
H  47.05100 32.64700 35.59100
H  48.07300 41.79600 30.90400
H  49.67000 40.90500 31.32400
H  48.20500 40.58700 32.16700
H  50.57100 42.61100 27.76100
H  50.68200 41.78400 29.31700
H  49.12200 42.57300 28.87700
H  48.80900 36.96700 24.51700
H  46.27000 35.70800 24.16800
H  46.08200 37.46200 23.34800
H  47.43400 38.61900 23.36200
H  46.29700 38.64500 24.65800
H  48.13500 33.61200 24.10000
H  49.13200 35.01900 23.52400
H  46.61400 34.55400 21.95400
H  47.94900 33.40700 21.83900
H  48.21000 35.07700 21.38200
H  46.08700 30.45400 26.59000
H  44.53900 31.17600 26.12500
H  44.64700 29.97300 27.42500
H  43.63600 32.76500 31.60100
H  44.62100 31.78900 35.75400
H  44.44700 30.14200 35.10300
H  43.05500 31.11200 35.52400

