158

Mg 3.04300 -0.99900 43.68100
C  6.45500 -0.18900 42.98000
C  2.16400 1.50300 41.55400
C  -0.18600 -2.16900 43.83800
C  4.19500 -3.72100 45.52000
N  4.19500 0.32700 42.23800
C  5.54300 0.50300 42.13500
C  5.84700 1.61400 41.14700
C  4.50300 2.32500 40.94100
C  3.53600 1.42400 41.71200
C  4.43000 3.84000 41.26800
C  6.58000 1.20500 39.78400
C  7.66300 2.15900 39.38100
H  7.46800 2.83500 38.04500
N  1.25100 -0.37300 42.93500
C  1.10900 0.72300 42.08400
C  -0.32900 1.02000 41.93700
C  -1.05400 0.01400 42.71000
C  -0.01100 -0.94000 43.18700
C  -0.90000 2.16600 41.12900
C  -2.64300 -0.06300 42.91900
O  -3.23300 0.83900 42.32400
C  -3.36900 -1.08800 43.86700
N  2.12600 -2.75600 44.42700
C  0.78100 -2.99900 44.47100
C  0.54400 -4.47900 44.85900
C  1.83400 -4.75800 45.66600
C  2.79300 -3.71000 45.16800
C  -0.88200 -4.75300 45.53900
C  2.43000 -6.23500 45.52600
C  1.73600 -7.32800 44.72200
N  4.85900 -1.75900 44.23600
C  5.20600 -2.87900 45.04200
C  6.67200 -2.90100 45.29700
C  7.07900 -1.78200 44.51100
C  6.00900 -1.21700 43.85000
C  7.46600 -3.86700 46.04600
C  8.30100 -1.09700 44.15600
O  9.47200 -1.38600 44.37500
C  7.97000 0.02400 43.23900
C  8.27600 1.25400 43.93500
O  7.61500 1.60600 44.90100
O  9.22900 1.95400 43.28800
C  9.56500 3.27100 43.81500
H  1.92600 2.36000 40.92100
H  -1.23300 -2.44900 43.97100
H  4.47400 -4.46200 46.27200
H  6.44500 2.28600 41.76300
H  4.07600 2.28500 39.93900
H  5.38000 4.37200 41.30300
H  3.90200 3.92200 42.21800
H  3.94100 4.42500 40.48900
H  5.89700 1.01600 38.95600
H  7.05000 0.22700 39.89600
H  8.55700 1.54300 39.28400
H  7.88400 2.96700 40.07800
H  -0.21200 2.73600 40.50500
H  -1.42800 2.81100 41.83100
H  -1.51100 1.74000 40.33300
H  -4.41800 -0.84600 44.03900
H  -2.91200 -1.07300 44.85700
H  -3.26400 -2.10100 43.47800
H  0.56100 -5.10300 43.96600
H  1.55200 -4.57200 46.70300
H  -0.80500 -5.18800 46.53500
H  -1.34900 -5.55300 44.96500
H  -1.49600 -3.85600 45.61600
H  2.49100 -6.66100 46.52700
H  3.38900 -6.22800 45.00900
H  1.97900 -8.29900 45.15300
H  2.05300 -7.41700 43.68300
H  0.67100 -7.15400 44.56500
H  6.84500 -4.61600 46.53700
H  8.13300 -3.36000 46.74300
H  8.00300 -4.36600 45.23900
H  8.53100 -0.01100 42.30500
H  9.16200 4.09400 43.22500
H  10.63900 3.30300 43.63300
H  9.36200 3.30900 44.88500
Mg -5.28400 25.41700 25.83300
C  -3.80800 26.93300 28.62000
C  -6.88600 23.22700 28.12500
C  -6.60600 23.74800 23.25900
C  -3.49700 27.44100 23.78100
N  -5.50100 25.22400 28.08400
C  -4.70900 25.92700 28.97900
C  -5.01000 25.45100 30.42000
C  -5.84000 24.16300 30.23800
C  -6.16100 24.25400 28.73000
C  -5.10600 22.88400 30.60100
C  -5.71100 26.59800 31.22300
C  -6.50100 26.36000 32.53100
H  -6.19200 25.09600 33.34100
N  -6.59700 23.70700 25.70600
C  -7.14300 22.93400 26.76600
C  -7.99900 21.95000 26.19500
C  -8.01400 22.12500 24.76900
C  -7.11100 23.23900 24.49500
C  -8.61300 20.88600 27.06600
C  -8.82700 21.34000 23.75600
O  -8.84800 21.68600 22.59000
C  -9.52100 20.02700 24.17200
N  -5.04100 25.61900 23.75900
C  -5.68600 24.80100 22.88900
C  -5.41900 25.21800 21.47300
C  -4.42300 26.36600 21.63600
C  -4.31100 26.52500 23.14100
C  -4.77900 24.03500 20.66000
C  -4.92200 27.63500 20.96500
C  -4.32900 27.83900 19.58900
N  -3.86700 26.85400 26.06200
C  -3.24500 27.60700 25.14100
C  -2.36400 28.64500 25.76800
C  -2.50200 28.37300 27.09500
C  -3.43300 27.33100 27.25600
C  -1.59400 29.70000 24.98900
C  -2.09500 28.74700 28.42100
O  -1.33000 29.64000 28.74700
C  -2.77000 27.79500 29.43700
C  -1.82000 27.01800 30.33000
O  -1.12200 26.08400 29.91100
O  -1.94400 27.48000 31.59100
C  -1.23800 26.72000 32.60200
H  -7.37600 22.61600 28.88600
H  -7.12700 23.23700 22.44600
H  -2.84100 28.05900 23.16400
H  -4.05200 25.19600 30.87200
H  -6.77800 24.34900 30.76100
H  -5.86600 22.21200 30.99900
H  -4.28000 22.95200 31.30900
H  -4.62700 22.46100 29.71700
H  -6.37300 27.15400 30.55900
H  -4.91600 27.29500 31.48900
H  -7.56900 26.38400 32.31700
H  -6.46100 27.18500 33.24200
H  -8.53300 19.88900 26.63200
H  -9.67800 21.09500 27.17100
H  -8.18200 20.75400 28.05800
H  -8.89900 19.35700 24.76500
H  -9.76000 19.50900 23.24400
H  -10.47000 20.24500 24.66200
H  -6.35700 25.54500 21.02400
H  -3.44700 26.12900 21.21200
H  -5.53900 23.46000 20.13100
H  -4.11900 23.45700 21.30700
H  -4.11000 24.42200 19.89100
H  -4.77600 28.38000 21.74700
H  -5.98500 27.46700 20.78900
H  -3.63900 27.04600 19.30400
H  -3.64300 28.68500 19.56000
H  -5.03400 28.03200 18.77900
H  -2.05300 29.92100 24.02500
H  -0.53000 29.46300 25.00600
H  -1.66700 30.58800 25.61700
H  -3.30800 28.45900 30.11300
H  -0.18700 26.74500 32.31400
H  -1.53200 25.67100 32.63100
H  -1.15800 27.30000 33.52100

