158

Mg 0.41500 7.45700 26.17200
C  1.18500 9.51800 28.85300
C  0.55400 4.71000 28.21200
C  0.04600 5.34700 23.56800
C  1.12100 10.12100 24.10000
N  1.21100 7.16700 28.16500
C  1.16600 8.16400 29.17800
C  1.13900 7.53600 30.58400
C  1.24900 6.02500 30.28900
C  1.02500 5.91800 28.79500
C  2.57700 5.37800 30.76400
C  -0.27800 7.88700 31.32900
C  -0.13700 8.19800 32.81200
H  0.99400 7.40800 33.54000
N  0.08800 5.27700 25.92200
C  0.13100 4.34600 26.93800
C  -0.30900 3.08600 26.38300
C  -0.61400 3.30100 25.00200
C  -0.21400 4.69800 24.78200
C  -0.54700 1.92600 27.16200
C  -1.15900 2.46900 23.94700
O  -1.55600 2.86400 22.88300
C  -1.37500 1.01600 24.22100
N  0.68900 7.69900 24.06800
C  0.39300 6.69600 23.21600
C  0.49400 7.24400 21.73000
C  0.35400 8.80500 21.98400
C  0.73400 8.90400 23.48100
C  1.80300 6.73600 20.97200
C  -1.00900 9.35500 21.59500
C  -1.16900 9.80100 20.15000
N  0.93500 9.42600 26.33000
C  1.18100 10.44900 25.43400
C  1.28700 11.79200 26.08500
C  1.26900 11.44000 27.42800
C  1.07900 10.02000 27.51300
C  1.45900 13.05700 25.30900
C  1.31300 12.00300 28.80500
O  1.38200 13.13400 29.19700
C  1.14900 10.79200 29.75300
C  2.29200 10.79800 30.75300
O  3.32200 10.15000 30.76100
O  1.89600 11.62200 31.80700
C  2.54900 11.45300 33.10400
H  0.52400 3.97200 29.01700
H  -0.13600 4.74300 22.67700
H  1.07600 10.99900 23.45300
H  1.94600 7.97300 31.17200
H  0.51400 5.48800 30.88800
H  3.33500 6.08600 31.09900
H  3.02900 4.81600 29.94700
H  2.38500 4.73800 31.62500
H  -0.83700 6.95200 31.29100
H  -0.81000 8.66700 30.78400
H  -1.07600 7.74200 33.12600
H  -0.08100 9.26600 33.02000
H  -0.49100 2.18900 28.21900
H  0.17700 1.14900 26.91800
H  -1.58000 1.57800 27.15500
H  -0.38900 0.64400 24.50000
H  -1.74100 0.57800 23.29300
H  -2.06600 0.86400 25.05000
H  -0.29000 6.82900 21.09800
H  1.16500 9.34300 21.49300
H  2.49200 7.54600 20.73400
H  1.53700 6.06000 20.15900
H  2.27300 6.15000 21.76100
H  -1.30800 10.23400 22.16700
H  -1.75400 8.56900 21.71800
H  -1.86100 9.17600 19.58700
H  -0.23100 9.90100 19.60300
H  -1.59400 10.80500 20.16800
H  2.01800 12.81300 24.40600
H  2.04700 13.76100 25.89800
H  0.42600 13.39900 25.24800
H  0.21800 11.00200 30.28100
H  1.76200 11.71800 33.81000
H  3.41700 12.10900 33.03000
H  2.88800 10.44500 33.34200
Mg 46.87700 15.05600 27.74900
C  44.90000 15.08500 30.72000
C  48.91800 17.41800 29.24300
C  48.47200 15.18300 25.01200
C  44.24700 13.16700 26.25600
N  46.82000 16.07600 29.74700
C  45.98100 15.94300 30.78300
C  46.52300 16.62900 32.00300
C  47.55200 17.69200 31.37400
C  47.79700 16.99700 30.01200
C  47.20200 19.16400 31.22300
C  47.28000 15.56400 32.93200
C  46.96900 15.63600 34.40000
H  48.17700 15.47800 35.40300
N  48.57900 16.04800 27.22400
C  49.28900 16.94100 27.95600
C  50.42200 17.42200 27.19500
C  50.37000 16.75500 25.92100
C  49.12800 15.97100 26.01200
C  51.41400 18.43500 27.72500
C  51.30600 16.80600 24.69700
O  51.11600 16.19200 23.62900
C  52.56900 17.68200 24.83400
N  46.26700 14.37700 25.78800
C  47.25500 14.50800 24.84600
C  46.93800 13.61100 23.62400
C  45.53800 12.96000 24.02900
C  45.31000 13.51500 25.41600
C  46.83100 14.48800 22.35800
C  45.45500 11.32700 23.96600
C  46.68400 10.57500 24.62500
N  45.02600 14.22100 28.26300
C  44.05800 13.57900 27.52400
C  42.93400 13.26800 28.38100
C  43.23700 13.85200 29.61600
C  44.49800 14.43600 29.52900
C  41.63600 12.76000 27.95200
C  42.61300 14.10100 30.96500
O  41.50300 13.89500 31.46600
C  43.82300 14.84000 31.71500
C  43.27400 16.16700 32.19600
O  43.02200 17.10300 31.50100
O  43.12500 16.13000 33.58500
C  42.67600 17.30200 34.36200
H  49.59600 18.14100 29.70300
H  49.14900 15.18900 24.15600
H  43.41500 12.64200 25.78400
H  45.70900 17.03500 32.60300
H  48.44500 17.74000 31.99700
H  46.99100 19.39700 30.17900
H  48.04400 19.76100 31.57200
H  46.27200 19.30400 31.77300
H  48.35000 15.63500 32.73400
H  46.95500 14.57000 32.62400
H  46.26000 14.86800 34.70900
H  46.48500 16.59500 34.58500
H  51.70500 19.12600 26.93400
H  52.28500 17.90100 28.10600
H  51.03000 19.01800 28.56300
H  53.12600 17.62700 23.89900
H  53.18200 17.29800 25.64900
H  52.26800 18.72900 24.85900
H  47.67500 12.80800 23.63400
H  44.79000 13.26800 23.29700
H  46.50900 15.51400 22.53600
H  46.04700 14.10400 21.70500
H  47.84100 14.55500 21.95300
H  45.49500 11.02700 22.91900
H  44.59200 10.89500 24.47200
H  47.27300 10.15200 23.81200
H  46.24700 9.77700 25.22600
H  47.23900 11.22400 25.30300
H  41.22300 13.19600 27.04300
H  40.98600 13.04300 28.78000
H  41.80600 11.69100 27.82500
H  44.16600 14.35700 32.63000
H  42.30700 18.17100 33.81800
H  43.47600 17.69100 34.99200
H  41.85900 17.01300 35.02300

