158

Mg -0.67600 7.80100 26.58500
C  0.26400 9.39900 29.63400
C  -0.76900 4.89900 28.24900
C  -0.62800 6.51700 23.70600
C  0.05500 11.04500 25.03500
N  -0.21300 7.30900 28.73700
C  -0.07900 8.06800 29.81500
C  -0.30900 7.32700 31.14100
C  -0.58000 5.86100 30.55200
C  -0.42900 5.98100 29.04200
C  0.20700 4.71600 31.21700
C  -1.53200 7.84000 32.00100
C  -1.32300 8.27500 33.43300
H  0.02800 7.84100 34.13100
N  -0.76800 5.92500 26.04400
C  -0.90400 4.80400 26.83500
C  -1.10100 3.62800 26.01200
C  -1.00600 4.18600 24.65100
C  -0.84800 5.67000 24.79100
C  -1.21200 2.18100 26.57700
C  -1.18000 3.43200 23.34500
O  -1.33900 3.96500 22.24800
C  -1.34400 1.91600 23.42100
N  -0.53900 8.72900 24.60800
C  -0.42700 7.89800 23.58300
C  -0.12300 8.70000 22.26600
C  -0.38800 10.18400 22.75300
C  -0.34900 10.04000 24.26100
C  1.35700 8.47600 21.87100
C  -1.60800 10.77100 22.03100
C  -1.34100 11.43100 20.65800
N  -0.04500 9.86400 27.18500
C  0.25900 11.01200 26.43600
C  0.79300 11.97900 27.29800
C  0.75800 11.41300 28.60200
C  0.25200 10.14200 28.43600
C  1.18800 13.36600 26.98700
C  1.05800 11.69500 29.95400
O  1.61400 12.61800 30.54800
C  0.53100 10.40600 30.72300
C  1.62800 10.08600 31.71100
O  2.63100 9.41700 31.45600
O  1.38500 10.80000 32.86800
C  2.56900 10.87800 33.70200
H  -1.00500 3.93500 28.70500
H  -0.52300 6.05200 22.72300
H  0.37700 12.02100 24.66600
H  0.62300 7.26900 31.70400
H  -1.63300 5.58800 30.49100
H  0.83300 5.17000 31.98500
H  0.99400 4.38800 30.53700
H  -0.43500 3.90300 31.55800
H  -2.32000 7.09300 31.89900
H  -1.83000 8.75900 31.49800
H  -2.12900 7.97900 34.10400
H  -1.26300 9.35700 33.55200
H  -0.38700 1.62100 26.13600
H  -2.13300 1.70900 26.23400
H  -0.94800 1.98400 27.61600
H  -1.48100 1.58700 22.39100
H  -2.23000 1.64300 23.99400
H  -0.48100 1.37900 23.81600
H  -0.86000 8.54300 21.47800
H  0.46000 10.83300 22.53600
H  1.95000 9.37300 22.05000
H  1.43900 8.10700 20.84900
H  1.79300 7.69500 22.49500
H  -1.92700 11.61200 22.64700
H  -2.39500 10.03900 21.84900
H  -0.69200 10.78300 20.06900
H  -0.91800 12.42600 20.79900
H  -2.31200 11.46600 20.16300
H  0.64400 14.08700 27.59700
H  1.08300 13.65400 25.94100
H  2.23700 13.41000 27.27700
H  -0.30400 10.60300 31.39700
H  3.23100 11.61400 33.24700
H  2.96300 9.86800 33.81100
H  2.30400 11.25900 34.68800
Mg 31.76500 58.50800 41.03500
C  28.96000 56.79500 39.29400
C  33.76700 55.99200 39.88000
C  34.29300 60.53300 41.74600
C  29.41100 61.14200 41.73900
N  31.38700 56.68100 39.68500
C  30.25900 56.20500 39.10900
C  30.62900 54.91000 38.29600
C  32.06700 54.62900 38.69000
C  32.44200 55.82500 39.49300
C  32.36100 53.24800 39.24000
C  30.28600 55.02800 36.82300
C  29.21100 54.14600 36.13700
H  28.29400 54.72700 35.02900
N  33.78200 58.26100 40.87400
C  34.47200 57.11500 40.43600
C  35.92200 57.42500 40.53200
C  36.08900 58.74800 41.06200
C  34.73900 59.24500 41.22200
C  36.92300 56.39900 40.09800
C  37.38400 59.44700 41.46500
O  38.51700 58.98600 41.38600
C  37.45900 60.78000 42.11800
N  31.83400 60.51600 41.71100
C  33.02300 61.13500 41.94100
C  32.83600 62.59000 42.44800
C  31.24400 62.72400 42.53400
C  30.77100 61.37100 41.96100
C  33.49300 62.93000 43.81700
C  30.58400 63.96400 41.88200
C  29.76500 64.86000 42.84200
N  29.53600 58.91400 40.75900
C  28.79000 60.05600 41.14100
C  27.41000 59.89700 40.53900
C  27.47400 58.58200 39.86800
C  28.75800 58.04700 40.05000
C  26.20800 60.72100 40.66000
C  26.65500 57.69000 39.10900
O  25.49500 57.76800 38.72600
C  27.57500 56.43500 38.74100
C  27.00700 55.23700 39.39900
O  27.46400 54.62500 40.37800
O  26.04300 54.65700 38.62400
C  25.35300 53.46600 39.17900
H  34.32200 55.11900 39.52900
H  35.08200 61.23400 42.02800
H  28.84300 62.02300 42.04400
H  29.99400 54.09000 38.63200
H  32.61900 54.86600 37.78100
H  32.57700 53.24500 40.30900
H  33.22900 52.79500 38.76200
H  31.48700 52.62500 39.04800
H  31.18700 54.96400 36.21300
H  29.91600 56.02100 36.56600
H  28.59100 53.78800 36.95800
H  29.75300 53.29800 35.71800
H  37.65000 57.05200 39.61500
H  36.45200 55.70000 39.40700
H  37.39300 55.82900 40.89900
H  38.51800 60.97100 42.29000
H  36.99800 60.70000 43.10300
H  37.12800 61.66700 41.57700
H  33.39200 63.12600 41.67900
H  30.91400 62.54600 43.55800
H  33.83800 62.08400 44.41000
H  32.88500 63.60100 44.42400
H  34.37800 63.53300 43.61800
H  29.99700 63.76400 40.98500
H  31.46600 64.51500 41.55600
H  28.87700 65.32700 42.41700
H  30.25600 65.76500 43.20000
H  29.34100 64.31900 43.68800
H  26.20200 61.26500 39.71500
H  26.28000 61.37300 41.53100
H  25.35800 60.03900 40.67500
H  27.59800 56.20300 37.67700
H  26.08000 52.66300 39.30400
H  24.46500 53.14600 38.63300
H  24.86500 53.67200 40.13100

