158

Mg 1.77900 -0.98300 44.87800
C  5.09300 -0.17100 44.22500
C  0.83800 1.85400 43.27400
C  -1.42900 -2.23100 44.67600
C  2.90600 -4.13700 45.88400
N  2.89200 0.57800 43.66300
C  4.21400 0.75700 43.73000
C  4.56600 2.10500 43.13500
C  3.20900 2.90100 43.10600
C  2.24100 1.74600 43.43200
C  3.16500 4.07800 44.14100
C  5.35200 2.04200 41.79100
C  4.99100 0.81300 40.84600
H  4.77000 1.17000 39.39200
N  -0.09400 -0.22500 44.23800
C  -0.24100 0.95500 43.57100
C  -1.61700 1.15500 43.19000
C  -2.27900 -0.00800 43.58800
C  -1.24700 -0.93000 44.15000
C  -2.05200 2.39400 42.39400
C  -3.78900 -0.36500 43.40400
O  -4.61200 0.55200 43.11300
C  -4.42800 -1.72300 43.56500
N  0.82100 -2.91400 45.10900
C  -0.51200 -3.16100 45.06900
C  -0.81700 -4.57800 45.55000
C  0.57100 -5.02600 46.10200
C  1.51600 -3.97000 45.67400
C  -2.06600 -4.76300 46.44900
C  0.92700 -6.44500 45.56000
C  1.91400 -7.35000 46.30200
N  3.62500 -1.92700 45.29000
C  3.92800 -3.21900 45.63400
C  5.35300 -3.41900 45.75400
C  5.89000 -2.21500 45.30700
C  4.78100 -1.36400 44.91000
C  6.07300 -4.57600 46.25000
C  7.12500 -1.55800 44.99300
O  8.26800 -1.86500 45.18300
C  6.65300 -0.18000 44.29800
C  7.11900 0.94000 45.14300
O  6.91400 1.16700 46.32100
O  7.80900 1.77500 44.21600
C  8.09800 3.12000 44.64300
H  0.57800 2.79400 42.78400
H  -2.44300 -2.61600 44.80200
H  3.34600 -5.08500 46.20000
H  5.21700 2.58500 43.86600
H  3.01900 3.27000 42.09800
H  3.43500 4.98200 43.59500
H  3.80400 3.81100 44.98200
H  2.11600 4.13900 44.43100
H  6.42600 2.09500 41.96900
H  5.05900 2.96000 41.28000
H  4.16100 0.21600 41.22300
H  5.80600 0.09100 40.90300
H  -3.07400 2.23400 42.05100
H  -1.48800 2.58700 41.48100
H  -2.02400 3.29000 43.01400
H  -5.45600 -1.71800 43.20300
H  -4.43600 -1.84500 44.64800
H  -3.83000 -2.54000 43.16100
H  -0.97300 -5.14400 44.63200
H  0.43500 -4.99300 47.18300
H  -2.83500 -5.24700 45.84700
H  -2.48200 -3.82400 46.81200
H  -1.89100 -5.29200 47.38600
H  1.40200 -6.19700 44.61100
H  0.02400 -6.93400 45.19700
H  1.34600 -8.27000 46.44500
H  2.28000 -6.86000 47.20400
H  2.71100 -7.53700 45.58200
H  5.79400 -5.03300 47.19900
H  7.15000 -4.42700 46.31800
H  5.86100 -5.43100 45.60900
H  7.00400 -0.04100 43.27600
H  7.15500 3.51500 45.02100
H  8.59100 3.69800 43.86100
H  8.77800 3.09500 45.49400
Mg 17.19900 52.45800 25.64600
C  18.80600 51.04800 28.21400
C  14.50900 53.14500 27.66800
C  15.48900 53.78100 22.98800
C  19.83000 51.61000 23.53100
N  16.69900 51.97500 27.71500
C  17.60700 51.61400 28.63200
C  17.03000 51.93000 29.98800
C  15.53400 52.09200 29.79600
C  15.53400 52.37900 28.25800
C  14.71000 50.76800 30.09500
C  17.69200 53.15000 30.56000
C  18.32100 53.16900 31.98200
H  17.63000 52.34900 33.08800
N  15.21100 53.25700 25.42200
C  14.32300 53.53500 26.37700
C  13.23700 54.33400 25.82600
C  13.38300 54.34200 24.40700
C  14.76900 53.77400 24.21100
C  12.27500 55.11500 26.65800
C  12.35200 54.87300 23.34500
O  12.62100 54.88500 22.16800
C  10.92900 55.34400 23.75300
N  17.51800 52.53300 23.46900
C  16.72500 53.25100 22.65700
C  17.38400 53.41500 21.29900
C  18.76400 52.72800 21.44600
C  18.73600 52.25900 22.90400
C  16.49600 52.92900 20.06400
C  19.93200 53.61000 21.08100
C  21.08500 52.93100 20.40500
N  18.84600 51.24900 25.71700
C  19.84900 51.06100 24.82400
C  20.84500 50.18200 25.50100
C  20.45600 50.09300 26.83900
C  19.29700 50.91200 26.92500
C  22.11700 49.60400 24.84200
C  20.80900 49.73500 28.21700
O  21.79900 49.13500 28.56600
C  19.84300 50.46600 29.13700
C  19.22500 49.49000 30.09900
O  18.34900 48.66700 29.93800
O  19.86500 49.58200 31.34800
C  19.58600 48.54400 32.32800
H  13.75700 53.41700 28.41200
H  15.02400 54.37900 22.20100
H  20.70500 51.50900 22.88600
H  17.25900 51.11600 30.67600
H  15.09500 52.89300 30.39100
H  13.96600 50.89700 30.88100
H  15.25100 49.86100 30.36300
H  14.22700 50.52400 29.14900
H  16.93300 53.91000 30.74700
H  18.43000 53.68400 29.96300
H  18.36700 54.22900 32.23100
H  19.37800 52.90900 32.02500
H  11.29600 54.63700 26.69400
H  12.00300 56.09100 26.25600
H  12.61100 55.26100 27.68500
H  10.44300 54.38900 23.95100
H  10.55300 55.70400 22.79500
H  10.88000 56.06700 24.56700
H  17.56000 54.48300 21.17600
H  18.78300 51.82800 20.83100
H  16.15200 51.92300 20.30600
H  17.09200 52.94500 19.15200
H  15.61100 53.56600 20.07200
H  20.30700 54.25500 21.87500
H  19.56800 54.33400 20.35300
H  20.84800 51.89000 20.18500
H  21.94600 52.99900 21.07000
H  21.51700 53.44700 19.54700
H  22.54300 50.36700 24.19000
H  21.70800 48.76000 24.28700
H  22.71300 49.28100 25.69600
H  20.42500 51.18600 29.71300
H  19.66600 48.83100 33.37600
H  20.31600 47.73900 32.25000
H  18.53300 48.27300 32.24600

