158

Mg 40.30600 9.27500 28.96400
C  42.04800 10.51100 31.66700
C  38.39100 7.36000 31.20300
C  38.61600 8.03400 26.39900
C  42.69600 10.68400 26.80800
N  40.41200 8.85200 31.20200
C  41.01700 9.66700 32.07500
C  40.32000 9.68700 33.47000
C  39.15000 8.59300 33.28200
C  39.31500 8.17400 31.80600
C  39.25200 7.33600 34.17500
C  39.88200 11.12600 34.01700
C  38.86100 11.23600 35.15900
H  39.36900 11.98100 36.46500
N  38.67500 7.97900 28.85200
C  38.12500 7.27100 29.86500
C  36.98100 6.45100 29.24400
C  36.99900 6.67500 27.84200
C  38.11200 7.60400 27.64800
C  36.09100 5.46000 30.16700
C  36.08900 6.05600 26.83100
O  36.24700 6.20500 25.59400
C  34.92600 5.05400 27.17800
N  40.58100 9.42200 26.89800
C  39.79100 8.75900 26.05400
C  40.28300 8.84700 24.63100
C  41.51100 9.77200 24.75100
C  41.57000 10.07600 26.25500
C  40.48600 7.46800 23.92000
C  41.64300 11.01200 23.81600
C  40.65900 12.19300 24.01400
N  42.09400 10.25000 29.14200
C  42.91500 10.81600 28.14400
C  44.00600 11.50400 28.80400
C  43.66500 11.47200 30.14500
C  42.50200 10.68200 30.32800
C  45.31400 12.06800 28.14600
C  44.03000 11.87700 31.56800
O  44.95000 12.51800 31.94400
C  42.81400 11.51000 32.48900
C  43.51900 10.95600 33.75200
O  44.01200 9.89200 34.02600
O  43.48400 11.96600 34.67700
C  43.75400 11.52800 36.00000
H  37.74800 6.98700 32.00200
H  38.12000 7.59700 25.53000
H  43.40700 11.11400 26.09900
H  41.11800 9.29600 34.10200
H  38.20600 9.13700 33.31900
H  38.26300 7.03000 34.51500
H  39.78400 7.56700 35.09800
H  39.77000 6.48200 33.73800
H  39.53900 11.78300 33.21800
H  40.85000 11.56500 34.26000
H  38.50300 10.25700 35.48000
H  38.01000 11.80300 34.78200
H  36.46800 4.43800 30.12800
H  35.08500 5.37200 29.75500
H  35.93700 5.78200 31.19700
H  35.26200 4.33100 27.92100
H  34.62400 4.52200 26.27600
H  34.15100 5.65000 27.66000
H  39.56900 9.39700 24.01800
H  42.42400 9.19000 24.62700
H  40.00400 7.63200 22.95600
H  40.02800 6.71400 24.55900
H  41.54100 7.20500 23.84500
H  41.37600 10.69700 22.80700
H  42.62900 11.46900 23.90600
H  41.09800 12.98200 24.62400
H  39.82000 11.80700 24.59300
H  40.38800 12.73400 23.10700
H  45.30500 11.95000 27.06200
H  46.24200 11.58800 28.45800
H  45.25400 13.14400 28.30600
H  42.27000 12.43500 32.68200
H  43.16900 10.64700 36.26100
H  43.68300 12.37100 36.68700
H  44.81900 11.29800 36.03800
Mg 29.88900 57.70400 41.11200
C  27.28500 55.52700 40.20100
C  32.05800 55.48300 39.89300
C  32.26300 60.17000 40.80800
C  27.40700 60.34900 41.56400
N  29.60600 55.75000 40.21400
C  28.46300 54.98900 39.94000
C  28.89500 53.64800 39.43200
C  30.41200 53.62000 39.52900
C  30.73800 55.03600 39.85800
C  30.94200 52.53800 40.59200
C  28.40400 53.38300 38.01500
C  28.48700 54.54100 36.97100
H  27.79500 54.26700 35.68900
N  31.95200 57.74500 40.59200
C  32.66700 56.64600 40.21700
C  34.05400 57.02000 40.09800
C  34.17900 58.45000 40.31600
C  32.73300 58.87100 40.55200
C  35.15100 56.15400 39.67600
C  35.50800 59.14900 40.20600
O  36.56700 58.51800 40.11600
C  35.57500 60.65900 40.36700
N  29.80100 59.99200 41.02100
C  30.95300 60.74300 40.98000
C  30.66300 62.19100 41.43800
C  29.18200 62.16900 41.88500
C  28.76000 60.67300 41.60700
C  31.74000 62.88800 42.47400
C  28.30700 63.33100 41.20100
C  27.71600 64.33000 42.19300
N  27.84400 57.90100 41.03500
C  26.93300 59.00800 41.22200
C  25.57600 58.56700 41.01700
C  25.67000 57.24900 40.63900
C  27.03100 56.88300 40.61500
C  24.37000 59.41400 41.05600
C  24.87300 56.09800 40.18900
O  23.67200 55.82400 40.06800
C  25.96400 55.00300 39.91600
C  25.76600 53.88200 40.97000
O  25.87400 53.91600 42.17800
O  25.32700 52.71000 40.37200
C  25.21700 51.49900 41.23300
H  32.79800 54.75800 39.54700
H  32.97600 60.98400 40.95700
H  26.60900 61.03600 41.85300
H  28.49400 52.90000 40.11600
H  30.80200 53.46900 38.52200
H  32.02000 52.64400 40.71900
H  30.73500 51.55000 40.18000
H  30.48200 52.58500 41.57900
H  27.34900 53.10900 38.03100
H  28.84600 52.46400 37.62900
H  29.53900 54.75200 36.78100
H  27.85700 55.32000 37.39900
H  35.78500 56.61500 38.92000
H  34.73900 55.25500 39.21900
H  35.76500 55.69200 40.45000
H  35.17500 60.95100 41.33800
H  34.95700 61.12600 39.60000
H  36.60900 60.99700 40.43200
H  30.69300 62.64200 40.44600
H  29.07100 62.35400 42.95300
H  31.25400 63.53000 43.20900
H  32.42900 63.54100 41.93800
H  32.39400 62.16900 42.96600
H  27.42100 62.89800 40.73600
H  28.98400 63.74600 40.45500
H  26.69000 64.01500 42.38600
H  27.65000 65.35700 41.83400
H  28.30800 64.29900 43.10700
H  23.68800 59.20000 41.87900
H  23.82300 59.27900 40.12300
H  24.59000 60.48000 41.10900
H  25.82400 54.64600 38.89600
H  26.15500 50.95200 41.32900
H  24.61100 50.75400 40.71900
H  24.68000 51.74500 42.14900

