158

Mg 0.90000 42.91000 26.30300
C  2.77300 43.29300 29.39000
C  -1.78900 41.98800 28.25700
C  -0.72800 42.43600 23.49900
C  3.75600 43.62400 24.53700
N  0.65000 42.59600 28.60400
C  1.48500 42.79400 29.67200
C  0.74400 42.86000 30.97400
C  -0.74200 42.24700 30.59300
C  -0.61100 42.27900 29.02800
C  -0.92300 40.78900 31.18500
C  0.72200 44.19900 31.72100
C  1.05000 44.20000 33.21400
H  0.64300 43.00600 34.05700
N  -1.01900 42.38700 25.92600
C  -2.02100 41.94000 26.86400
C  -3.08200 41.37200 26.17500
C  -2.84500 41.47600 24.75100
C  -1.46600 42.13100 24.63100
C  -4.27300 40.73800 26.90000
C  -3.81700 41.18300 23.58900
O  -3.45000 41.33400 22.42600
C  -5.20200 40.56700 23.73600
N  1.49000 43.00200 24.22600
C  0.59400 42.90500 23.24400
C  1.21500 43.11100 21.85500
C  2.60100 43.65900 22.20100
C  2.63200 43.52200 23.78900
C  1.20900 41.75300 21.03300
C  2.95000 45.06800 21.63400
C  3.92200 45.15100 20.39000
N  2.85900 43.33300 26.79700
C  3.93900 43.57300 25.96800
C  5.14200 43.84300 26.71300
C  4.71200 43.71600 28.07400
C  3.28600 43.44500 28.02300
C  6.50400 44.33400 26.15400
C  5.16700 43.76600 29.43300
O  6.31400 43.98600 29.90100
C  3.92800 43.41600 30.28200
C  4.18800 42.21600 31.04700
O  4.03100 41.04500 30.61700
O  4.65900 42.63900 32.32200
C  4.70500 41.59600 33.33500
H  -2.58600 41.58900 28.88900
H  -1.20500 42.22400 22.54000
H  4.65400 43.90700 23.98400
H  1.23300 42.16900 31.66200
H  -1.49800 42.92100 30.99600
H  -1.67100 40.95500 31.96000
H  0.05700 40.54200 31.59500
H  -1.27700 40.04700 30.47000
H  -0.23700 44.71100 31.64800
H  1.52700 44.82400 31.33400
H  0.40900 44.98800 33.60900
H  2.12400 44.36400 33.29500
H  -5.19200 40.72100 26.31500
H  -4.31600 40.92000 27.97400
H  -3.99000 39.68800 26.82400
H  -5.06500 39.61600 24.25200
H  -5.68800 40.29200 22.79900
H  -5.91500 41.10600 24.35900
H  0.57800 43.85300 21.37400
H  3.43000 43.05700 21.82900
H  0.44800 41.66000 20.25900
H  1.12400 40.85800 21.64900
H  2.22300 41.57400 20.67600
H  3.33200 45.67700 22.45400
H  2.01400 45.53900 21.33400
H  3.42200 45.55600 19.51000
H  4.52900 44.27800 20.14900
H  4.60500 45.99600 20.47000
H  6.33100 44.91200 25.24600
H  7.01400 43.44100 25.79200
H  7.08200 44.73000 26.98900
H  3.69100 44.26000 30.93000
H  5.72400 41.21800 33.25400
H  4.16200 40.68300 33.09200
H  4.46100 41.96900 34.33000
Mg -5.89500 24.90800 25.98000
C  -4.35000 26.32000 28.84400
C  -7.76200 22.93400 28.13300
C  -6.95500 23.36100 23.20000
C  -3.62700 26.66600 23.97900
N  -5.78500 24.49000 28.20900
C  -5.24000 25.28400 29.20100
C  -5.76000 24.85200 30.60900
C  -6.69600 23.60700 30.27600
C  -6.79800 23.72400 28.77400
C  -6.08000 22.14900 30.80400
C  -6.50800 26.05700 31.27900
C  -6.39100 26.17900 32.79400
H  -5.92500 24.95600 33.53600
N  -7.38600 23.56600 25.65700
C  -8.03100 22.85800 26.66700
C  -9.08200 22.07100 26.09200
C  -8.78400 22.03800 24.66500
C  -7.66200 22.97700 24.45600
C  -10.15700 21.50400 26.91100
C  -9.46300 21.30200 23.54100
O  -9.19800 21.49000 22.30100
C  -10.70800 20.41000 23.80600
N  -5.25700 24.82300 23.92300
C  -5.86600 24.21200 22.94300
C  -5.41000 24.59900 21.58600
C  -4.49600 25.81000 21.78000
C  -4.47900 25.76700 23.32900
C  -4.73300 23.41800 20.78400
C  -5.09100 27.09100 21.13200
C  -4.25700 27.57900 19.96600
N  -4.33900 26.27200 26.27500
C  -3.56800 26.89300 25.35100
C  -2.69600 27.84700 26.01500
C  -2.90600 27.57100 27.36800
C  -3.94500 26.61600 27.50300
C  -1.70900 28.87400 25.37000
C  -2.45400 27.86800 28.70000
O  -1.47900 28.49000 29.04700
C  -3.42500 27.12100 29.74200
C  -2.55200 26.37300 30.67100
O  -2.08800 25.27500 30.42500
O  -2.43700 26.97100 31.84700
C  -1.76500 26.21100 32.93400
H  -8.47900 22.43900 28.79100
H  -7.48100 22.97600 22.32400
H  -2.90300 27.10600 23.29000
H  -4.90100 24.50800 31.18500
H  -7.63700 23.64400 30.82500
H  -6.86600 21.75800 31.45000
H  -5.23900 22.21700 31.49400
H  -6.02800 21.46600 29.95600
H  -7.53000 25.99900 30.90400
H  -6.12700 26.96700 30.81500
H  -7.38400 26.42300 33.17300
H  -5.75600 27.05000 32.95400
H  -10.45500 22.19600 27.69900
H  -10.01200 20.57100 27.45400
H  -11.03200 21.25500 26.30900
H  -10.40500 19.62500 24.49900
H  -11.08400 20.05700 22.84600
H  -11.46000 20.97800 24.35300
H  -6.37600 24.83100 21.13700
H  -3.47400 25.61500 21.45400
H  -3.81900 23.64100 20.23400
H  -5.47900 23.06800 20.07000
H  -4.42400 22.60500 21.44200
H  -5.24200 27.81800 21.93000
H  -6.08900 26.95400 20.71600
H  -3.60600 26.76800 19.63800
H  -3.62600 28.40400 20.29600
H  -4.92900 27.88600 19.16500
H  -2.02700 29.87500 25.66000
H  -1.71300 28.68600 24.29600
H  -0.69600 28.64200 25.69800
H  -3.91900 27.89700 30.32700
H  -0.69200 26.30100 32.76600
H  -2.06400 25.18200 33.13300
H  -2.11400 26.67400 33.85700

