158

Mg 25.00100 0.99500 28.97200
C  27.16800 0.58100 31.69100
C  22.35800 0.89000 31.07500
C  22.91600 0.94800 26.12700
C  27.77400 0.36100 26.79900
N  24.73800 0.70000 31.08800
C  25.77400 0.69100 32.02600
C  25.21500 0.94300 33.43600
C  23.72000 0.91200 33.25000
C  23.59200 0.82500 31.71900
C  23.02300 -0.35500 34.03200
C  25.91700 2.19300 34.12000
C  25.08100 2.92100 35.27900
H  25.84500 3.06900 36.57100
N  22.87200 0.89700 28.67600
C  22.00000 0.88900 29.62200
C  20.67100 0.91500 29.05100
C  20.80100 0.94800 27.65200
C  22.22300 0.89500 27.38900
C  19.41200 0.84300 29.91300
C  19.72700 1.18000 26.57800
O  20.01000 1.44500 25.42600
C  18.22900 1.13400 26.95200
N  25.26100 0.63600 26.75100
C  24.27900 0.79200 25.82200
C  24.80500 0.98300 24.46000
C  26.35400 0.77300 24.64700
C  26.49800 0.54000 26.16700
C  24.23800 0.15200 23.30800
C  27.16800 1.98200 24.06200
C  27.22600 3.22800 24.96100
N  27.03900 0.63000 29.18700
C  28.01900 0.35700 28.24500
C  29.25100 -0.04500 28.92800
C  28.93200 0.11200 30.29400
C  27.61500 0.47200 30.37900
C  30.54100 -0.59500 28.25900
C  29.47100 0.12000 31.59500
O  30.54700 -0.31700 31.92700
C  28.36800 0.48100 32.66300
C  28.25500 -0.60400 33.67400
O  27.52900 -1.56800 33.56100
O  29.03200 -0.34700 34.75100
C  28.85500 -1.16800 35.94900
H  21.51700 1.03000 31.75700
H  22.23300 0.94600 25.27500
H  28.50600 0.17000 26.01100
H  25.60600 0.09300 33.99600
H  23.22600 1.84000 33.53900
H  23.81400 -0.96500 34.46800
H  22.49200 -0.93400 33.27600
H  22.33000 -0.07100 34.82400
H  26.24000 2.88100 33.33800
H  26.78000 1.68500 34.55100
H  24.18600 2.33800 35.49600
H  24.72800 3.90900 34.98100
H  18.72000 0.11000 29.49700
H  18.88400 1.78700 29.78100
H  19.60000 0.60300 30.95900
H  17.70700 1.33800 26.01700
H  17.94300 1.77900 27.78200
H  18.00600 0.09300 27.18100
H  24.61500 2.03800 24.26500
H  26.61800 -0.11400 24.07100
H  23.53400 -0.59400 23.67900
H  24.95700 -0.37900 22.68400
H  23.61800 0.76800 22.65600
H  26.76100 2.16900 23.06800
H  28.20200 1.67800 23.89400
H  28.25900 3.52800 25.13800
H  26.71000 2.98200 25.88900
H  26.70400 4.15600 24.73100
H  31.40000 -0.27200 28.84800
H  30.68100 -0.23000 27.24100
H  30.31300 -1.66000 28.28800
H  28.61500 1.38100 33.22500
H  29.19200 -2.17800 35.71400
H  27.86400 -1.21700 36.40000
H  29.41000 -0.69400 36.75900
Mg 44.22500 5.10000 46.18700
C  42.44700 8.08900 45.92100
C  41.25100 3.42200 45.09200
C  45.91900 2.33700 45.61500
C  47.20000 6.91200 46.34300
N  42.06500 5.74700 45.44800
C  41.55200 7.01000 45.62100
C  40.07500 7.06300 45.51100
C  39.75400 5.52100 45.38400
C  41.07200 4.80600 45.29500
C  38.88900 4.79300 46.47000
C  39.46600 7.93600 44.41400
C  40.29600 8.07600 43.15000
H  39.62100 7.81100 41.79700
N  43.68300 3.08300 45.67500
C  42.44500 2.62700 45.25300
C  42.47400 1.21600 45.10000
C  43.82200 0.80200 45.26500
C  44.54900 2.07100 45.54400
C  41.31700 0.40900 44.82700
C  44.35800 -0.68100 45.17800
O  43.58600 -1.56700 44.79500
C  45.78000 -1.03300 45.56600
N  46.27900 4.71000 45.69300
C  46.72200 3.43800 45.70400
C  48.27100 3.37000 45.71500
C  48.64700 4.95600 45.72300
C  47.28700 5.56900 45.95800
C  48.87300 2.54200 46.91500
C  49.28400 5.47100 44.40700
C  50.87700 5.52300 44.41000
N  44.73300 7.11600 46.21700
C  45.98600 7.63900 46.39500
C  45.83500 9.02500 46.60700
C  44.48700 9.27000 46.47800
C  43.82400 8.06800 46.11200
C  46.91500 10.08500 46.82000
C  43.40200 10.27400 46.47300
O  43.43800 11.49700 46.62900
C  42.07100 9.58600 46.13100
C  41.10400 9.78300 47.19300
O  40.94300 9.03400 48.12000
O  40.24800 10.77200 46.91400
C  39.08600 10.92800 47.75900
H  40.34000 2.82000 45.08900
H  46.58100 1.47100 45.54200
H  48.13800 7.41000 46.59700
H  39.74700 7.40500 46.49300
H  39.14300 5.47800 44.48300
H  39.45200 4.74700 47.40200
H  38.74900 3.75300 46.17400
H  37.97300 5.38100 46.41200
H  39.19900 8.88200 44.88600
H  38.49900 7.56300 44.07600
H  41.16400 7.41800 43.11400
H  40.60000 9.11900 43.05600
H  41.44200 -0.15700 43.90400
H  40.35400 0.91400 44.90200
H  41.40400 -0.32500 45.62800
H  45.92000 -2.10800 45.67100
H  46.06700 -0.48600 46.46400
H  46.55000 -0.83300 44.82000
H  48.58800 2.87400 44.79800
H  49.27400 5.10100 46.60200
H  49.69200 3.07800 47.39500
H  49.37600 1.64100 46.56500
H  48.09700 2.33800 47.65200
H  48.92000 6.47700 44.20000
H  49.06100 4.72800 43.64100
H  51.13200 6.51900 44.04900
H  51.42000 4.84700 43.75100
H  51.21000 5.38200 45.43900
H  46.55900 11.11200 46.91000
H  47.49000 10.30700 45.92000
H  47.61800 9.78500 47.59700
H  41.72000 10.04700 45.20800
H  39.17400 11.68300 48.54000
H  38.79400 9.95000 48.14400
H  38.25300 11.32100 47.17600

