158

Mg 35.23700 1.02900 29.58500
C  33.23900 2.48900 32.06600
C  37.83200 0.97600 32.03700
C  37.18500 -0.23100 27.30300
C  32.60700 1.52400 27.27200
N  35.57100 1.94900 31.80500
C  34.51700 2.22500 32.60200
C  35.03300 2.31800 34.04600
C  36.59300 2.06700 33.93600
C  36.66900 1.59500 32.52200
C  37.61400 3.17600 34.28900
C  34.23800 1.45400 35.03700
C  34.13100 1.88200 36.53500
H  34.52900 3.26400 37.01900
N  37.34200 0.48600 29.62600
C  38.12600 0.39000 30.71400
C  39.40200 0.01700 30.21400
C  39.26100 -0.37000 28.87400
C  37.89100 -0.06100 28.55600
C  40.61500 0.06600 31.09800
C  40.26800 -0.73200 27.86000
O  40.00800 -0.84000 26.70500
C  41.64800 -1.01600 28.25800
N  34.98400 0.82200 27.55100
C  35.94600 0.18900 26.83600
C  35.42000 -0.02600 25.36500
C  34.03100 0.48600 25.38100
C  33.83600 0.90900 26.83800
C  36.33700 0.63000 24.29800
C  32.92600 -0.51600 24.95600
C  32.52000 -1.57500 26.01300
N  33.36700 1.90700 29.53300
C  32.37200 2.03000 28.59100
C  31.23600 2.69100 29.09700
C  31.52800 2.88500 30.50900
C  32.85200 2.40600 30.70200
C  29.89500 2.97000 28.34700
C  30.97000 3.27100 31.74100
O  29.83500 3.55900 32.11300
C  32.01600 2.97000 32.88000
C  32.18700 4.29900 33.61700
O  32.81900 5.23400 33.13700
O  31.38200 4.22400 34.74400
C  31.32300 5.46200 35.46200
H  38.55800 0.75800 32.82300
H  37.65600 -0.82500 26.51700
H  31.86100 1.64100 26.48300
H  34.75200 3.35400 34.23600
H  36.85100 1.20600 34.55300
H  38.60100 3.03200 33.85000
H  37.78700 3.14000 35.36500
H  37.12900 4.12900 34.07600
H  34.68200 0.45900 35.00300
H  33.28100 1.42700 34.51600
H  34.51800 1.18500 37.27900
H  33.07800 1.78500 36.79900
H  40.50100 0.74700 31.94100
H  41.42500 0.60000 30.60200
H  40.99200 -0.93100 31.32500
H  42.20500 -0.11400 28.51300
H  42.12700 -1.40000 27.35700
H  41.58600 -1.77100 29.04100
H  35.36000 -1.09200 25.14600
H  33.84500 1.35900 24.75600
H  36.65200 -0.14200 23.59600
H  37.24600 0.90100 24.83600
H  36.01500 1.52100 23.76000
H  33.37000 -0.97200 24.07100
H  32.04800 0.05000 24.64300
H  32.43000 -2.50600 25.45300
H  31.53500 -1.32700 26.40900
H  33.13100 -1.65200 26.91300
H  29.69700 2.29700 27.51200
H  29.82900 3.95000 27.87400
H  29.03300 2.79400 28.99100
H  31.68500 2.18400 33.55800
H  30.48100 6.07800 35.14400
H  32.22900 6.06400 35.39000
H  31.33000 5.22300 36.52500
Mg 41.47300 41.44000 26.90500
C  41.11500 43.68800 29.47500
C  41.95700 39.06300 29.31200
C  41.98700 39.18900 24.51400
C  41.33800 43.91700 24.49700
N  41.47800 41.36200 29.16100
C  41.24800 42.44500 30.01300
C  41.07700 42.05600 31.48800
C  41.52000 40.55500 31.45800
C  41.65400 40.26000 29.91000
C  42.88000 40.25000 32.19000
C  39.64900 42.32300 32.00200
C  39.50800 41.86600 33.48400
H  38.93100 42.93100 34.44800
N  41.87300 39.45500 26.87400
C  42.08000 38.60600 27.96700
C  42.60900 37.33600 27.54300
C  42.69100 37.37400 26.13000
C  42.22200 38.70000 25.78200
C  42.70100 36.21700 28.43800
C  43.08600 36.19800 25.19000
O  43.02300 36.20800 23.94600
C  43.53900 34.86500 25.80100
N  41.67800 41.60100 24.83500
C  41.89800 40.49700 24.04800
C  41.90500 40.85500 22.52500
C  41.67500 42.38400 22.53600
C  41.56300 42.70600 24.03000
C  43.23000 40.49900 21.86300
C  40.47700 42.84600 21.77200
C  39.07800 42.86800 22.39700
N  41.33200 43.37800 26.93700
C  41.22000 44.25800 25.90900
C  40.97900 45.55900 26.50200
C  40.98200 45.41500 27.87600
C  41.18600 44.06800 28.11100
C  40.71200 46.89000 25.78000
C  40.78500 46.10100 29.11800
O  40.60800 47.30400 29.26400
C  40.78600 45.00600 30.21900
C  41.77800 45.36100 31.25700
O  42.91200 45.66900 30.99500
O  41.22700 45.42900 32.52800
C  42.17700 45.77900 33.61200
H  42.16300 38.46900 30.20400
H  42.12900 38.51900 23.66300
H  40.99200 44.74100 23.87000
H  41.75800 42.68800 32.05900
H  40.74700 40.00500 31.99600
H  42.61000 39.57100 32.99900
H  43.34300 41.17400 32.53500
H  43.62300 39.83400 31.51000
H  38.96200 41.74900 31.38000
H  39.36700 43.36800 31.87600
H  40.40600 41.46200 33.95000
H  38.75600 41.07800 33.53000
H  43.68000 35.75800 28.57300
H  41.96300 35.46700 28.15100
H  42.35700 36.61200 29.39400
H  44.38400 35.01700 26.47300
H  43.75600 34.34200 24.87000
H  42.81700 34.26800 26.35800
H  41.01100 40.40500 22.09300
H  42.47500 43.01100 22.14400
H  43.50100 41.30500 21.18100
H  43.21300 39.57700 21.28100
H  43.93100 40.38000 22.68900
H  40.45300 42.11800 20.96100
H  40.68500 43.76900 21.22900
H  38.79100 43.10200 23.42200
H  38.56500 41.97600 22.03800
H  38.70600 43.74400 21.86400
H  40.99300 46.86800 24.72700
H  41.45400 47.54800 26.23100
H  39.71700 47.29600 25.96300
H  39.77500 44.81100 30.57600
H  41.71300 45.72500 34.59700
H  42.46300 46.82800 33.55000
H  43.04400 45.12700 33.72100

