158

Mg 45.13100 3.70800 47.27800
C  43.15000 6.79500 46.89900
C  42.22100 2.06000 46.92400
C  47.02700 1.04900 47.10900
C  48.01300 5.86700 47.07800
N  42.92600 4.34700 46.69600
C  42.38200 5.61100 46.85500
C  40.82600 5.51100 46.92000
C  40.55900 3.97700 47.02300
C  42.00700 3.40100 46.86100
C  39.87400 3.46100 48.37500
C  40.06800 6.30000 45.80600
C  40.81900 6.57600 44.42800
H  40.07000 6.05400 43.16900
N  44.69400 1.77700 47.08100
C  43.44900 1.23700 46.96300
C  43.57000 -0.15500 46.78700
C  44.93000 -0.49000 46.92500
C  45.62200 0.75700 47.07200
C  42.40200 -1.03600 46.46700
C  45.48700 -1.93900 46.87000
O  44.68600 -2.89100 46.72400
C  46.90000 -2.27200 46.86600
N  47.16500 3.54800 46.94300
C  47.67900 2.31000 47.07900
C  49.22900 2.38900 47.11100
C  49.60700 3.90300 47.09100
C  48.16800 4.53300 46.90700
C  49.94700 1.58800 48.18200
C  50.45800 4.38400 45.89200
C  51.81800 5.12200 46.37600
N  45.53900 5.84900 47.08400
C  46.77100 6.54200 47.00500
C  46.51700 8.04600 47.05200
C  45.12900 8.07700 47.15400
C  44.54500 6.79500 47.02900
C  47.57800 9.04000 46.81700
C  43.95600 8.98000 47.25600
O  44.00800 10.24600 47.41700
C  42.63600 8.24900 47.05000
C  41.76400 8.47500 48.24200
O  41.78600 7.75000 49.26000
O  40.90100 9.48300 47.95100
C  40.03600 9.96500 49.01300
H  41.32000 1.44600 46.86100
H  47.72200 0.24400 47.35700
H  48.93800 6.42200 47.24500
H  40.57600 6.00600 47.85900
H  39.93500 3.61100 46.20800
H  39.01700 2.83600 48.12600
H  39.57800 4.33900 48.94900
H  40.59100 2.82700 48.89700
H  39.85800 7.22900 46.33600
H  39.14000 5.76700 45.59900
H  41.76000 6.02700 44.47300
H  40.91700 7.66100 44.41200
H  41.61900 -0.43000 46.01200
H  41.98600 -1.52100 47.35000
H  42.62200 -1.87000 45.80000
H  46.91300 -3.35400 46.73400
H  47.48600 -1.89200 47.70200
H  47.39100 -1.79800 46.01600
H  49.56700 1.95600 46.16900
H  49.95000 4.25100 48.06600
H  50.47800 0.73200 47.76600
H  49.14200 1.20700 48.81100
H  50.69100 2.09300 48.79700
H  49.93800 5.12700 45.28700
H  50.77400 3.57000 45.23900
H  52.72000 4.56100 46.13000
H  51.69700 5.46000 47.40500
H  51.92200 6.05700 45.82600
H  48.34200 9.01200 47.59400
H  47.18800 10.05700 46.78300
H  48.04000 8.81200 45.85600
H  42.19500 8.65900 46.14200
H  40.40700 9.57100 49.95900
H  38.99600 9.69600 48.82800
H  40.09200 11.05100 49.09400
Mg 41.57400 7.95100 29.77700
C  43.25600 9.39700 32.45400
C  39.43800 6.44400 31.99000
C  39.82200 6.78800 27.12500
C  44.02800 9.07200 27.56000
N  41.53400 7.73200 31.99900
C  42.13100 8.59600 32.89700
C  41.57200 8.36300 34.37100
C  40.43600 7.29100 34.15600
C  40.50000 7.06400 32.61700
C  40.61100 5.90600 34.89500
C  41.12700 9.73300 34.83500
C  40.93700 9.92500 36.35200
H  41.62400 11.04500 37.11100
N  39.80000 7.01000 29.61200
C  39.06100 6.41700 30.59400
C  37.79800 6.00000 30.06900
C  37.86100 6.19300 28.63000
C  39.14900 6.70400 28.37700
C  36.64100 5.48400 30.89800
C  36.74200 6.03500 27.63700
O  36.88200 6.18000 26.42900
C  35.33900 5.77400 28.17200
N  41.94400 7.86600 27.64100
C  41.08600 7.31900 26.79300
C  41.60500 7.47500 25.30300
C  42.76400 8.55100 25.45500
C  42.96000 8.49700 26.96500
C  41.95500 6.16600 24.63000
C  42.59700 9.98000 24.87100
C  41.33600 10.73900 25.13600
N  43.32500 8.89800 29.91400
C  44.23200 9.31500 28.89500
C  45.35000 10.03000 29.57700
C  44.97500 10.13000 30.91400
C  43.81800 9.38700 31.09500
C  46.52700 10.53800 28.81100
C  45.33200 10.75800 32.17700
O  46.32100 11.51700 32.41800
C  44.28500 10.29500 33.20400
C  45.02900 9.64300 34.36600
O  45.98900 8.89300 34.29600
O  44.48000 10.11500 35.51200
C  44.98500 9.74300 36.88900
H  38.66700 6.26300 32.74200
H  39.32000 6.50100 26.19900
H  44.77000 9.39800 26.82900
H  42.33900 8.00800 35.06000
H  39.44100 7.58400 34.49200
H  39.84800 5.81400 35.66800
H  41.56300 5.77400 35.40900
H  40.39400 5.08800 34.20800
H  40.21200 9.89300 34.26500
H  41.78200 10.57200 34.60200
H  41.17000 8.92400 36.71600
H  39.90400 10.27100 36.35300
H  36.68700 4.41700 30.67500
H  35.62600 5.81600 30.67800
H  36.72500 5.49300 31.98400
H  35.14400 6.61200 28.84100
H  35.25200 4.87200 28.77800
H  34.59800 5.71400 27.37500
H  40.79200 7.80300 24.65500
H  43.66400 8.11700 25.02000
H  43.02100 6.20700 24.40700
H  41.27400 6.03300 23.78900
H  41.73200 5.35000 25.31800
H  42.96100 10.14300 23.85600
H  43.37000 10.52900 25.40800
H  41.01800 11.23100 24.21700
H  41.43600 11.66000 25.71100
H  40.58200 10.13600 25.64300
H  46.84900 9.77600 28.10200
H  47.35500 10.90300 29.41900
H  46.11600 11.32400 28.17700
H  43.85200 11.21400 33.59800
H  46.04700 9.51200 36.80100
H  44.31500 9.06400 37.41600
H  44.95700 10.67200 37.45800

