158

Mg 23.95800 -5.26100 44.98000
C  25.69300 -2.69700 43.17900
C  21.19400 -4.55400 43.15000
C  22.74000 -8.24700 45.88800
C  27.10900 -6.24000 46.35400
N  23.52700 -3.78900 43.45700
C  24.35300 -2.84400 42.85800
C  23.59400 -2.06200 41.77900
C  22.08000 -2.42700 42.07500
C  22.23200 -3.69300 42.98600
C  21.24400 -1.25800 42.71900
C  24.05800 -2.42500 40.30200
C  24.21900 -1.26300 39.37600
H  24.43800 -1.38100 37.82800
N  22.12100 -6.19900 44.73900
C  21.10600 -5.76500 43.96200
C  19.96200 -6.73300 44.07300
C  20.34300 -7.73600 44.98600
C  21.78700 -7.47000 45.24800
C  18.59300 -6.57200 43.38100
C  19.41400 -8.75000 45.55000
O  18.25600 -8.83400 45.14700
C  19.95600 -9.70600 46.52300
N  24.80200 -6.97100 46.08300
C  24.01700 -8.03500 46.30300
C  24.90100 -9.12500 46.93800
C  26.21400 -8.43100 47.31700
C  26.06100 -7.15500 46.50800
C  24.35500 -9.81900 48.22300
C  27.43900 -9.33200 47.17100
C  28.37900 -9.15900 48.32400
N  25.95700 -4.57000 44.97800
C  27.11500 -5.07200 45.58200
C  28.23900 -4.15900 45.26100
C  27.73100 -3.27100 44.33100
C  26.33700 -3.52900 44.18600
C  29.65600 -4.23000 45.80400
C  28.17100 -2.23400 43.37000
O  29.24500 -1.92700 42.94000
C  26.78800 -1.69200 42.66800
C  26.50800 -0.33000 43.17100
O  26.57600 0.01700 44.34600
O  26.21500 0.49300 42.11000
C  25.91000 1.86300 42.51600
H  20.30400 -4.36600 42.54500
H  22.26800 -9.21300 46.07900
H  28.07500 -6.38400 46.84200
H  23.78200 -0.99600 41.90600
H  21.56800 -2.82900 41.20200
H  20.29800 -1.19000 42.18000
H  21.74800 -0.29300 42.65700
H  20.90600 -1.39200 43.74600
H  23.37800 -3.18000 39.90900
H  25.02500 -2.92500 40.34800
H  25.01600 -0.65700 39.80600
H  23.29600 -0.69100 39.47400
H  18.54900 -5.63000 42.83300
H  17.76100 -6.48800 44.08000
H  18.36100 -7.38500 42.69300
H  19.05200 -10.05000 47.02600
H  20.55100 -9.11000 47.21600
H  20.48700 -10.48800 45.98000
H  24.94600 -9.83300 46.11000
H  26.12600 -8.16200 48.37000
H  25.06400 -9.87000 49.04900
H  24.05500 -10.83000 47.94500
H  23.55500 -9.22900 48.67000
H  27.93400 -9.04000 46.24500
H  27.09200 -10.36600 47.17700
H  29.15100 -9.92900 48.31200
H  27.93500 -9.26100 49.31400
H  28.94600 -8.23400 48.22400
H  30.06700 -5.22300 45.62400
H  29.61400 -3.95900 46.85900
H  30.17800 -3.44200 45.26200
H  26.75400 -1.70700 41.57900
H  24.94000 1.84200 43.01100
H  25.77000 2.46900 41.62100
H  26.60800 2.32800 43.21200
Mg 36.48900 50.03400 24.67100
C  36.61600 48.21100 27.75900
C  34.55600 52.44900 26.45500
C  35.62300 51.45900 21.77900
C  37.87400 47.27500 23.05600
N  35.64500 50.21400 26.91700
C  35.89100 49.43800 27.97200
C  35.44300 49.92100 29.30500
C  34.56900 51.23200 28.87800
C  34.89900 51.31200 27.30800
C  33.07700 51.46000 29.16100
C  36.59500 50.28600 30.33400
C  36.65100 49.65600 31.70900
H  35.25500 49.45100 32.26900
N  35.37400 51.77500 24.21400
C  34.67200 52.63300 25.07300
C  34.23900 53.75900 24.26400
C  34.52900 53.52900 22.86800
C  35.14500 52.16500 22.87400
C  33.65600 54.90800 24.94800
C  34.25800 54.38300 21.62300
O  34.59400 54.06900 20.46600
C  33.60500 55.81800 21.74800
N  36.76200 49.46000 22.68300
C  36.44100 50.31100 21.67200
C  36.98400 49.66900 20.34200
C  37.93200 48.49200 20.79500
C  37.56800 48.36800 22.26500
C  35.73800 49.32200 19.44300
C  39.47200 48.58600 20.28200
C  40.50800 49.03300 21.38000
N  37.18100 48.12400 25.24100
C  37.70400 47.14200 24.46600
C  38.10000 46.03600 25.23000
C  37.72000 46.38800 26.54900
C  37.13000 47.69200 26.50200
C  38.67700 44.71600 24.78700
C  37.72000 45.85700 27.91200
O  38.09700 44.76200 28.40000
C  37.05300 47.08200 28.78900
C  36.02100 46.65800 29.73900
O  34.83000 46.72300 29.56000
O  36.63400 45.92500 30.74500
C  35.75300 45.31900 31.80000
H  34.13200 53.25900 27.05300
H  35.42200 51.91300 20.80600
H  38.40700 46.43100 22.61400
H  34.70700 49.22800 29.71200
H  35.03200 52.04700 29.43500
H  32.79300 50.54300 29.67600
H  32.50200 51.54200 28.23900
H  32.91300 52.29600 29.84100
H  36.60000 51.35900 30.52600
H  37.56000 50.09800 29.86400
H  37.28800 50.14200 32.44800
H  37.12500 48.67400 31.68200
H  34.09300 55.86500 24.66300
H  33.98800 54.92800 25.98600
H  32.57200 54.84800 24.85700
H  34.26400 56.42700 22.36700
H  32.61600 55.74600 22.19900
H  33.49900 56.28200 20.76700
H  37.62900 50.37100 19.81400
H  37.43100 47.57600 20.48200
H  34.78000 49.38000 19.96100
H  35.80800 48.26700 19.18000
H  35.66600 49.87700 18.50800
H  39.57400 49.38700 19.54900
H  39.80100 47.65600 19.81900
H  41.40000 48.47000 21.10300
H  40.20100 48.86600 22.41200
H  40.73500 50.09100 21.24800
H  38.41200 43.88400 25.44000
H  39.74300 44.86500 24.61600
H  38.31900 44.32700 23.83400
H  37.88700 47.37300 29.42700
H  35.46700 44.33000 31.44200
H  34.87700 45.92400 32.03600
H  36.41300 45.33200 32.66800

