158

Mg 24.75300 1.58600 29.98600
C  26.56900 1.56500 32.97600
C  21.84300 1.74800 31.92500
C  22.99000 1.17900 27.19500
C  27.72600 0.90400 28.15900
N  24.35000 1.90600 32.18100
C  25.24000 1.93800 33.21600
C  24.56100 2.00100 34.58900
C  23.03200 1.84800 34.23500
C  23.06200 1.79900 32.68000
C  22.21400 0.70000 34.86400
C  25.04300 3.24600 35.50500
C  26.04500 3.05700 36.74900
H  25.73900 3.89500 38.02100
N  22.68900 1.50700 29.61200
C  21.64300 1.69900 30.54100
C  20.38800 1.76300 29.80400
C  20.76400 1.66400 28.38500
C  22.21300 1.51200 28.30500
C  19.10700 2.08800 30.48200
C  19.79200 1.64700 27.21400
O  20.15800 1.82700 26.03100
C  18.27700 1.60700 27.42200
N  25.32400 1.16200 27.94300
C  24.38200 1.13300 26.98000
C  25.03900 0.81700 25.61500
C  26.53600 0.77300 25.94800
C  26.58200 0.92400 27.42400
C  24.32100 -0.46000 25.06100
C  27.39800 1.82700 25.26300
C  27.12000 3.36200 25.50800
N  26.71400 1.16200 30.37400
C  27.82900 1.00200 29.55400
C  28.98300 0.92500 30.37700
C  28.51400 1.15300 31.64800
C  27.14900 1.27500 31.69100
C  30.39000 0.94300 29.96700
C  28.99500 1.37300 32.95800
O  30.12300 1.27200 33.40200
C  27.80900 1.51700 33.91000
C  27.68700 0.51100 34.91400
O  26.90500 -0.43700 34.83800
O  28.58400 0.71200 35.89000
C  28.42300 -0.17600 37.01600
H  20.99400 1.80900 32.60900
H  22.28800 0.94100 26.39400
H  28.62900 0.79600 27.55500
H  24.96100 1.08700 35.02900
H  22.48200 2.73600 34.54500
H  21.82500 0.07400 34.06100
H  21.31800 1.14700 35.29600
H  22.87200 0.07400 35.46600
H  24.12900 3.65600 35.93500
H  25.57200 3.93000 34.84100
H  26.97700 3.42500 36.32200
H  26.27500 2.01100 36.95400
H  18.78700 2.97700 29.93900
H  19.27300 2.37700 31.52000
H  18.45300 1.21600 30.50000
H  17.87200 2.59800 27.62300
H  18.04200 0.85700 28.17800
H  17.77500 1.31100 26.50100
H  24.74200 1.60100 24.91700
H  26.95000 -0.19100 25.65200
H  23.72700 -0.95100 25.83100
H  25.21200 -1.03700 24.81400
H  23.84000 -0.17200 24.12600
H  27.15800 1.72500 24.20500
H  28.40900 1.48500 25.48400
H  27.88900 3.80800 26.13800
H  26.22800 3.55000 26.10700
H  27.06500 3.86200 24.54200
H  30.75300 -0.07500 29.82100
H  30.91400 1.35200 30.83100
H  30.57700 1.40600 28.99800
H  28.16100 2.48000 34.28000
H  28.89600 -1.12700 36.76800
H  27.43100 -0.45300 37.37400
H  28.93600 0.29700 37.85400
Mg 53.87300 24.24000 45.05500
C  51.28600 26.34900 43.89900
C  51.89500 21.44200 43.92000
C  56.57600 22.39100 45.21000
C  55.75100 27.13600 45.91000
N  51.81900 23.92500 44.09100
C  50.97500 24.92200 43.72500
C  49.76400 24.40700 43.08800
C  49.69900 22.96300 43.71500
C  51.22300 22.70200 43.87000
C  48.83200 22.76500 45.00500
C  49.89600 24.41600 41.57000
C  48.53400 24.60100 40.92300
H  48.25600 23.94700 39.59900
N  54.12000 22.08200 44.79700
C  53.24800 21.21000 44.26200
C  53.93400 19.91400 44.30800
C  55.24200 20.15800 44.88700
C  55.37500 21.60500 44.94700
C  53.31300 18.55700 43.82700
C  56.29500 19.12900 45.18400
O  55.97700 17.94800 45.13400
C  57.76500 19.30800 45.57900
N  55.93200 24.71400 45.17500
C  56.83600 23.77900 45.29200
C  58.26200 24.31200 45.54400
C  57.97300 25.68900 46.13400
C  56.44900 25.89500 45.78500
C  59.24700 23.32200 46.27900
C  58.99700 26.86700 45.71400
C  60.22400 27.00400 46.64000
N  53.60000 26.36500 44.96900
C  54.44100 27.37500 45.45500
C  53.70000 28.68100 45.32300
C  52.45100 28.37800 44.70300
C  52.48000 26.92200 44.53900
C  54.23900 30.06800 45.78400
C  51.11800 28.77700 44.25400
O  50.66800 29.88400 44.24200
C  50.36300 27.52700 43.58200
C  50.23700 27.73000 42.08700
O  51.18400 27.80400 41.27800
O  48.86300 27.80800 41.73900
C  48.49100 28.21700 40.37800
H  51.26400 20.65200 43.50900
H  57.49900 21.83200 45.37400
H  56.22400 28.06000 46.25000
H  48.88700 24.92000 43.48300
H  49.28300 22.27500 42.97900
H  48.45200 21.74900 44.89600
H  47.99500 23.46300 45.01600
H  49.33900 22.78400 45.97000
H  50.34100 23.48000 41.23300
H  50.55700 25.21600 41.23500
H  48.42300 25.65500 40.66400
H  47.69300 24.39100 41.58300
H  53.94300 17.99000 43.14100
H  52.33700 18.82300 43.42100
H  53.14200 17.85500 44.64300
H  58.29400 18.35400 45.57600
H  57.92000 19.84100 46.51700
H  58.25500 19.93900 44.83800
H  58.67300 24.53800 44.56000
H  58.02700 25.60500 47.21900
H  59.82100 23.86800 47.02900
H  59.97300 22.96900 45.54600
H  58.74100 22.54400 46.85000
H  58.42000 27.76100 45.95200
H  59.22400 26.91500 44.64900
H  60.32600 28.04400 46.94700
H  60.96000 26.74200 45.87900
H  60.27500 26.26700 47.44200
H  55.32300 30.01000 45.69200
H  54.05600 30.27100 46.84000
H  53.84100 30.85400 45.14300
H  49.40100 27.41800 44.08300
H  49.35100 28.35200 39.72200
H  47.95000 29.16300 40.38700
H  47.95000 27.44400 39.83100

