158

Mg 47.86400 25.00700 28.57100
C  48.75400 26.97200 31.19500
C  46.87400 22.55800 30.83400
C  47.02900 23.02600 25.99600
C  49.09100 27.39600 26.26900
N  47.60100 24.84100 30.74600
C  48.01200 25.83300 31.61300
C  47.71300 25.46900 33.07700
C  47.30900 23.97000 32.93500
C  47.26000 23.74800 31.37800
C  48.19100 22.97300 33.62800
C  46.66200 26.39700 33.76100
C  47.11900 27.10600 35.04500
H  46.05600 27.62200 35.96700
N  47.10900 23.00400 28.44600
C  46.68800 22.18100 29.46800
C  46.21800 20.89300 28.96200
C  46.37100 21.05400 27.52100
C  46.91900 22.39500 27.24800
C  45.63400 19.78300 29.83200
C  46.09200 19.97200 26.49900
O  46.34400 20.08700 25.28700
C  45.46200 18.69300 26.98000
N  48.25900 25.08700 26.33900
C  47.62600 24.20000 25.51800
C  47.47500 24.74500 24.10300
C  48.25000 26.13800 24.15700
C  48.58900 26.20500 25.66100
C  47.93200 23.83800 23.01000
C  47.51800 27.35000 23.56000
C  48.12700 27.99900 22.31600
N  48.85500 26.74400 28.65600
C  49.26500 27.59900 27.68100
C  49.91100 28.70700 28.32400
C  49.58300 28.58600 29.71000
C  49.01700 27.35200 29.85700
C  50.62300 29.95400 27.72200
C  49.71600 29.22000 30.98700
O  50.22600 30.31400 31.29000
C  49.33400 28.13700 32.02600
C  50.53100 27.75300 32.93900
O  51.57000 27.27000 32.51900
O  50.24600 27.99400 34.22500
C  51.24000 27.52100 35.24700
H  46.47500 21.74300 31.44200
H  46.54900 22.40400 25.23700
H  49.39000 28.17500 25.56500
H  48.68500 25.59300 33.55500
H  46.33800 23.83200 33.41100
H  47.70200 22.54600 34.50300
H  49.14400 23.39200 33.95000
H  48.41000 22.15900 32.93700
H  45.76900 25.86000 34.08100
H  46.30800 27.14700 33.05400
H  47.72100 27.95500 34.72100
H  47.72600 26.39100 35.59900
H  46.22600 18.88400 29.65700
H  44.63600 19.62000 29.42400
H  45.44500 19.95700 30.89100
H  45.39100 17.94800 26.18700
H  44.48600 18.99000 27.36500
H  46.06900 18.20200 27.74000
H  46.40600 24.93500 24.00200
H  49.20800 26.01400 23.65100
H  47.00800 23.55100 22.50700
H  48.44400 22.99700 23.47700
H  48.72400 24.17400 22.34100
H  47.30600 28.07700 24.34400
H  46.50800 27.02200 23.31500
H  49.19100 27.81400 22.16900
H  47.96500 29.07700 22.32400
H  47.55500 27.63400 21.46300
H  51.41300 29.61200 27.05300
H  51.00900 30.55500 28.54500
H  49.85900 30.37300 27.06600
H  48.53100 28.70200 32.50000
H  50.82100 26.61300 35.68100
H  51.17700 28.23400 36.06800
H  52.27700 27.33900 34.96400
Mg 41.99200 40.71500 27.49700
C  41.08000 43.27400 29.86900
C  43.22700 38.93700 30.07900
C  43.02200 38.61500 25.27500
C  41.49800 43.13600 24.96400
N  42.18800 41.16000 29.73200
C  41.53900 42.07700 30.47100
C  41.59700 41.78900 31.98000
C  42.45400 40.42300 32.01000
C  42.65800 40.18600 30.52000
C  43.78400 40.40500 32.78400
C  40.18300 41.66200 32.64200
C  39.89300 42.52900 33.80800
H  39.22400 41.88200 34.98100
N  42.75600 38.91600 27.65500
C  43.28200 38.32500 28.80100
C  43.74400 37.01600 28.50200
C  43.67100 36.85200 27.07400
C  43.17200 38.15200 26.59600
C  44.24600 36.03500 29.60100
C  44.17900 35.72100 26.21700
O  44.14600 35.63700 25.03600
C  44.84800 34.65600 26.85900
N  42.28400 40.91000 25.42400
C  42.67800 39.84600 24.70800
C  42.66600 40.06000 23.16000
C  42.07500 41.47400 23.05300
C  41.97600 41.91400 24.52500
C  43.98200 39.83400 22.45200
C  40.67900 41.45400 22.33700
C  39.38800 41.06300 23.08100
N  41.43000 42.81400 27.37300
C  41.23100 43.63400 26.28300
C  41.01000 45.04100 26.75300
C  40.83200 44.90000 28.14100
C  41.13800 43.54200 28.46200
C  40.88900 46.16100 25.78800
C  40.38400 45.59200 29.39800
O  40.12100 46.73500 29.63600
C  40.50500 44.53500 30.56100
C  41.51000 45.10000 31.49800
O  42.72200 45.06000 31.45500
O  40.79500 45.70200 32.47200
C  41.52500 46.08200 33.67900
H  43.72600 38.31400 30.82500
H  43.20600 37.90500 24.46500
H  41.19600 43.73200 24.10000
H  42.15100 42.55000 32.53000
H  41.85200 39.56100 32.29800
H  43.91500 41.40200 33.20700
H  44.69200 40.14900 32.23800
H  43.80000 39.72500 33.63600
H  39.99200 40.65500 33.01200
H  39.50000 41.92900 31.83500
H  39.20800 43.29800 33.45200
H  40.74200 43.07700 34.21900
H  45.33100 35.95000 29.54000
H  43.94600 35.00300 29.42000
H  43.89900 36.26900 30.60800
H  44.04800 34.19700 27.44000
H  45.67700 35.11600 27.39600
H  45.35000 34.00300 26.14500
H  41.97900 39.27500 22.84500
H  42.63500 42.19600 22.45800
H  44.87900 39.72000 23.05900
H  44.19100 40.62800 21.73500
H  43.96000 38.89600 21.89800
H  40.72700 40.65200 21.60100
H  40.47100 42.31300 21.69800
H  39.57400 40.65800 24.07600
H  38.77800 40.25300 22.68100
H  38.87200 42.00700 23.25300
H  39.99400 46.07700 25.17100
H  41.73300 46.01200 25.11500
H  40.91000 47.21600 26.06300
H  39.54000 44.37500 31.04300
H  41.78200 45.20900 34.28000
H  40.91700 46.72500 34.31600
H  42.47300 46.60800 33.57000

