158

Mg 8.04900 2.92700 27.68900
C  9.48200 1.30400 30.54600
C  6.42100 4.92800 29.85200
C  6.73300 4.28100 25.04800
C  9.86000 0.59300 25.73000
N  7.88700 3.04800 30.00200
C  8.67600 2.36200 30.94600
C  8.46300 2.93200 32.34800
C  7.37400 4.03100 32.11000
C  7.14000 3.94500 30.55900
C  6.07400 3.78600 32.85600
C  9.81900 3.35300 33.09300
C  9.59900 4.35400 34.28900
H  10.49100 4.38600 35.51800
N  6.66700 4.34700 27.48300
C  6.11300 5.06800 28.45300
C  5.35400 6.20600 27.88400
C  5.46100 6.00500 26.48000
C  6.25800 4.78200 26.24400
C  4.62500 7.26800 28.68200
C  4.92100 6.98900 25.44100
O  5.13000 6.83000 24.23500
C  3.97000 8.23800 25.76800
N  8.10200 2.29300 25.69800
C  7.60200 3.14300 24.79000
C  7.98000 2.85000 23.38000
C  8.99200 1.72400 23.55800
C  9.01200 1.53200 25.06500
C  6.71900 2.44500 22.61900
C  10.36900 1.93900 22.94000
C  10.99700 0.68300 22.24200
N  9.27900 1.19500 28.04400
C  10.01100 0.37200 27.14900
C  10.90700 -0.50400 27.81600
C  10.63100 -0.15300 29.15200
C  9.69500 0.88900 29.24400
C  11.97800 -1.34100 27.21600
C  11.04900 -0.55100 30.45900
O  11.84300 -1.39400 30.91100
C  10.29100 0.46200 31.37000
C  9.58300 -0.32400 32.43100
O  8.49500 -0.85800 32.24300
O  10.41000 -0.45300 33.55000
C  9.72700 -1.07800 34.68400
H  6.00600 5.76600 30.41600
H  6.46100 4.87100 24.17100
H  10.50200 0.11600 24.98600
H  7.97700 2.18700 32.97900
H  7.80000 5.03200 32.17900
H  5.45500 3.03000 32.37400
H  5.49700 4.71000 32.81900
H  6.22300 3.36800 33.85200
H  10.42000 3.83400 32.32100
H  10.43400 2.59200 33.57400
H  8.54600 4.31600 34.56600
H  9.71100 5.32400 33.80500
H  5.08300 8.24700 28.54500
H  4.46900 7.15700 29.75500
H  3.62500 7.23400 28.24800
H  4.46500 8.92200 26.45700
H  3.03500 7.86600 26.18600
H  3.80100 8.82900 24.86800
H  8.44100 3.72200 22.91600
H  8.53700 0.76700 23.30400
H  5.79000 2.71400 23.12200
H  6.70100 1.42800 22.22500
H  6.63600 3.06100 21.72400
H  11.05300 2.27400 23.72100
H  10.41700 2.75200 22.21500
H  11.15800 0.82000 21.17300
H  10.34900 -0.16400 22.46900
H  12.00400 0.49700 22.61500
H  12.81400 -1.23200 27.90700
H  12.23200 -1.01800 26.20700
H  11.59200 -2.36000 27.19600
H  11.00900 1.08800 31.89900
H  9.08100 -1.91400 34.41300
H  9.14700 -0.31800 35.20700
H  10.53800 -1.54000 35.24700
Mg -11.68700 15.66300 41.35600
C  -8.88000 13.91200 41.09000
C  -10.19600 18.46300 39.98100
C  -14.69500 17.30400 41.29400
C  -13.45700 12.73700 42.48200
N  -9.77200 16.02900 40.56400
C  -8.73000 15.20600 40.57000
C  -7.50400 15.95200 40.07800
C  -7.97100 17.46100 39.84100
C  -9.43700 17.35100 40.19900
C  -7.15100 18.56600 40.58700
C  -7.02000 15.13700 38.84500
C  -5.47800 15.10500 38.64500
H  -5.04100 16.06700 37.56200
N  -12.30900 17.64200 40.76400
C  -11.57900 18.63500 40.18700
C  -12.38100 19.79500 39.84500
C  -13.68300 19.47000 40.26800
C  -13.65300 18.09500 40.82100
C  -11.91400 20.97900 39.02800
C  -14.91100 20.45200 40.11800
O  -14.74100 21.54200 39.58400
C  -16.36500 19.98900 40.46900
N  -13.84900 15.08700 41.73800
C  -14.87300 15.95400 41.71100
C  -16.20400 15.25700 42.08900
C  -15.67700 14.02300 42.91800
C  -14.23000 13.90000 42.30800
C  -17.23700 16.07700 42.82100
C  -16.49500 12.68900 42.83200
C  -17.14800 12.13700 44.10200
N  -11.29600 13.69600 41.56800
C  -12.08700 12.62200 42.09200
C  -11.20000 11.46300 42.11900
C  -9.89500 11.97400 41.84200
C  -10.07500 13.31200 41.41900
C  -11.56600 10.09800 42.55000
C  -8.57900 11.62400 41.83100
O  -7.97800 10.52600 42.05400
C  -7.81300 12.87600 41.28200
C  -6.68500 13.24100 42.13700
O  -6.74900 13.34400 43.32500
O  -5.45300 13.22100 41.35900
C  -4.32800 13.42100 42.35600
H  -9.72500 19.39300 39.65600
H  -15.70100 17.72900 41.27100
H  -13.90900 11.85800 42.94800
H  -6.66900 15.83900 40.77000
H  -7.82400 17.73900 38.79700
H  -7.15000 19.47300 39.98200
H  -6.14900 18.15900 40.72200
H  -7.59600 18.71400 41.57100
H  -7.39900 15.59300 37.93100
H  -7.38400 14.11400 38.74700
H  -5.16600 14.12500 38.28500
H  -4.83200 15.36100 39.48500
H  -12.12900 21.91200 39.54900
H  -12.56400 21.01200 38.15400
H  -10.86000 21.05000 38.75900
H  -17.10200 20.77700 40.31900
H  -16.48800 19.71700 41.51800
H  -16.41200 19.17000 39.75100
H  -16.71500 14.88500 41.20200
H  -15.40000 14.27600 43.94200
H  -18.15000 16.17100 42.23300
H  -16.86200 17.09300 42.94800
H  -17.56100 15.54400 43.71400
H  -15.90400 11.89000 42.38300
H  -17.27400 12.87400 42.09200
H  -16.50200 11.42600 44.61800
H  -18.00900 11.56700 43.75300
H  -17.45600 12.96700 44.73900
H  -10.74600 9.39300 42.68200
H  -12.28900 9.62800 41.88400
H  -12.11400 10.15000 43.49200
H  -7.38500 12.70900 40.29300
H  -3.37400 13.43000 41.82800
H  -4.10300 12.67200 43.11600
H  -4.45000 14.35900 42.89800

