158

Mg 49.34100 44.88300 42.76800
C  46.03800 45.39400 41.33100
C  49.32900 41.82100 41.09200
C  52.73400 44.98700 42.77900
C  49.31400 48.28900 43.61400
N  47.88700 43.81200 41.14900
C  46.55800 44.15500 40.90100
C  45.86900 42.93800 40.30400
C  46.83600 41.72500 40.48300
C  48.14000 42.47500 40.85600
C  46.32900 40.62300 41.44300
C  45.32700 43.11200 38.83100
C  44.27000 42.15200 38.50900
H  44.64200 41.11000 37.51400
N  50.81300 43.53000 42.17700
C  50.57400 42.28500 41.57300
C  51.84000 41.59400 41.55300
C  52.77600 42.44300 42.16100
C  52.13800 43.69100 42.47700
C  51.95700 40.20300 41.03800
C  54.23000 42.13200 42.42900
O  54.71400 41.02100 42.13200
C  55.23100 43.11300 43.07300
N  50.82700 46.54100 42.88400
C  52.14500 46.17200 43.07500
C  52.97400 47.33300 43.65800
C  51.90200 48.44000 43.89600
C  50.57300 47.69800 43.49300
C  53.82900 46.89500 44.96300
C  52.05300 49.83700 43.21200
C  52.28200 51.05500 44.07100
N  47.99100 46.44000 42.70700
C  48.07800 47.75000 43.20200
C  46.74900 48.34300 43.22400
C  45.96500 47.52100 42.43600
C  46.79900 46.33200 42.15400
C  46.45600 49.65100 43.68600
C  44.63300 47.25600 41.99400
O  43.55800 47.79400 42.28900
C  44.71900 46.02100 41.04900
C  43.52400 45.08100 41.24300
O  42.74500 44.79000 40.35300
O  43.63000 44.42200 42.45000
C  42.67200 43.35400 42.78400
H  49.23900 40.75900 40.85400
H  53.79700 45.21600 42.87700
H  49.15600 49.28400 44.03600
H  44.93300 42.90300 40.86100
H  47.16300 41.35100 39.51300
H  46.84000 40.75700 42.39700
H  46.68600 39.64200 41.13100
H  45.25500 40.47500 41.56100
H  46.19200 42.92200 38.19600
H  44.97100 44.14100 38.77400
H  43.43500 42.77600 38.18900
H  44.06100 41.69900 39.47800
H  52.77700 40.15800 40.32100
H  51.06200 39.76500 40.59600
H  52.08300 39.48600 41.84900
H  55.37100 43.85900 42.29100
H  56.21800 42.67400 43.22100
H  54.88700 43.51200 44.02700
H  53.60700 47.74200 42.87000
H  51.74300 48.63500 44.95700
H  54.65000 46.29900 44.56500
H  53.10500 46.35100 45.56900
H  54.31900 47.73400 45.45700
H  51.17400 50.01100 42.59200
H  52.84300 49.79600 42.46100
H  52.90100 50.75000 44.91500
H  51.37900 51.50600 44.48100
H  52.85300 51.77800 43.48800
H  45.44300 49.58200 44.08300
H  46.54700 50.32700 42.83600
H  47.12400 49.92900 44.50200
H  44.58700 46.26800 39.99600
H  42.00700 43.78400 43.53400
H  43.14300 42.44700 43.16200
H  41.96500 43.06400 42.00700
Mg 42.32100 41.18700 25.89700
C  41.66900 43.74100 28.38600
C  42.99900 38.92900 28.43500
C  42.97400 39.05700 23.53800
C  41.89500 43.75900 23.58100
N  42.49000 41.43000 28.14500
C  41.96700 42.42600 28.95400
C  41.80800 41.98500 30.43400
C  42.25300 40.51400 30.37700
C  42.54400 40.20600 28.88400
C  43.32000 40.06300 31.34400
C  40.38300 42.32100 31.15000
C  39.98300 41.62500 32.44700
H  39.45600 42.43700 33.62000
N  43.00500 39.28000 25.99700
C  43.19000 38.52900 27.11700
C  43.67700 37.24300 26.75400
C  43.60600 37.16800 25.33800
C  43.24100 38.54600 24.87400
C  44.10100 36.22600 27.74800
C  43.79800 36.02500 24.35300
O  43.48900 36.18300 23.19200
C  44.19200 34.66800 24.79800
N  42.61700 41.46600 23.83800
C  42.69900 40.38100 23.10300
C  42.54200 40.75400 21.64600
C  42.03400 42.24300 21.71800
C  42.28700 42.52100 23.13400
C  43.88200 40.57800 20.85400
C  40.50900 42.39000 21.38700
C  39.55300 41.67400 22.37100
N  41.93300 43.32900 25.86300
C  41.90700 44.23300 24.88700
C  41.73100 45.52900 25.33800
C  41.54700 45.41200 26.74000
C  41.68700 44.04600 26.99600
C  41.55500 46.70300 24.52800
C  41.22200 46.14800 27.96500
O  41.04800 47.31500 28.20400
C  41.21100 45.03300 29.09600
C  42.07600 45.42900 30.19100
O  43.28000 45.68600 30.04100
O  41.40100 45.55600 31.35800
C  42.31500 45.74200 32.48300
H  42.94200 38.13900 29.18600
H  42.98900 38.31500 22.73700
H  41.63100 44.44300 22.77200
H  42.53900 42.53500 31.02700
H  41.44600 39.82400 30.62200
H  44.28800 39.92400 30.86200
H  43.04900 39.08300 31.73500
H  43.30300 40.71500 32.21700
H  39.72400 42.23900 30.28500
H  40.51600 43.36100 31.44900
H  40.61400 40.81700 32.81500
H  39.10900 41.02600 32.18900
H  43.30000 35.57000 28.08900
H  44.39200 36.61700 28.72200
H  44.90800 35.58000 27.40400
H  43.48500 34.26400 25.52300
H  45.22400 34.69700 25.14800
H  44.35400 33.98500 23.96400
H  41.78300 40.22600 21.07000
H  42.64200 42.94800 21.15100
H  44.54700 39.89700 21.38500
H  44.41900 41.52200 20.76300
H  43.76300 40.45500 19.77800
H  40.30100 41.95700 20.40800
H  40.26600 43.44500 21.51000
H  40.05000 41.58300 23.33700
H  39.25200 40.70800 21.96500
H  38.71300 42.35100 22.53000
H  42.18500 47.53500 24.84500
H  40.54500 47.08400 24.68000
H  41.64800 46.65100 23.44300
H  40.21700 44.88900 29.52000
H  42.89000 46.66700 32.49800
H  42.92900 44.84600 32.57500
H  41.75900 45.78400 33.41900

