158

Mg 1.68300 -1.39800 44.18100
C  5.05900 -0.94300 43.24300
C  0.92200 1.03800 41.88000
C  -1.40000 -2.42700 44.40800
C  2.81500 -4.16000 46.12800
N  2.87600 -0.14300 42.60700
C  4.21200 -0.07100 42.45700
C  4.65000 0.90200 41.37300
C  3.27200 1.70000 41.10300
C  2.24700 0.84900 41.92000
C  3.30500 3.22500 41.27100
C  5.39200 0.28100 40.10400
C  6.87700 0.62000 40.11000
H  7.48600 0.91400 38.72200
N  -0.03100 -0.72600 43.33400
C  -0.16600 0.28300 42.43200
C  -1.57900 0.53700 42.31900
C  -2.27900 -0.30900 43.13200
C  -1.22100 -1.26700 43.66300
C  -2.11700 1.50300 41.23100
C  -3.82700 -0.29800 43.34200
O  -4.51100 0.41000 42.62100
C  -4.45400 -1.19800 44.29900
N  0.84200 -3.32300 44.85400
C  -0.45900 -3.37800 45.07100
C  -0.84200 -4.60800 45.68100
C  0.52900 -5.24700 46.32500
C  1.49700 -4.21300 45.66100
C  -1.94800 -4.52300 46.75500
C  0.87400 -6.68100 45.75900
C  1.00000 -7.72500 46.92900
N  3.52900 -2.37000 44.61200
C  3.77500 -3.39400 45.52100
C  5.20400 -3.67100 45.53400
C  5.75500 -2.61300 44.72300
C  4.69000 -1.95500 44.15800
C  5.92200 -4.87100 46.12600
C  6.94200 -2.08000 44.21700
O  8.09800 -2.50100 44.35400
C  6.55400 -0.89300 43.26900
C  7.04800 0.32300 43.91800
O  6.76900 0.71300 45.04100
O  7.85200 1.02100 42.98300
C  8.25000 2.38300 43.32700
H  0.68100 1.98300 41.38900
H  -2.43500 -2.66600 44.66000
H  3.24600 -4.93300 46.76800
H  5.32600 1.65600 41.77800
H  3.01200 1.56300 40.05400
H  2.70300 3.56100 42.11600
H  2.98700 3.68100 40.33300
H  4.29900 3.50600 41.61800
H  4.94800 0.79100 39.24900
H  5.29000 -0.80400 40.10200
H  7.53100 -0.15900 40.50200
H  7.02100 1.53600 40.68300
H  -2.66700 0.93500 40.48000
H  -1.34600 2.10500 40.74900
H  -2.71200 2.25600 41.74700
H  -5.43600 -0.85400 44.62400
H  -3.87900 -1.32200 45.21700
H  -4.53100 -2.14000 43.75700
H  -1.17400 -5.26000 44.87400
H  0.47000 -5.34000 47.41000
H  -1.63800 -4.65300 47.79200
H  -2.79800 -5.19600 46.64800
H  -2.41300 -3.54400 46.64100
H  1.84800 -6.54300 45.29100
H  0.15700 -6.94300 44.98200
H  2.04400 -8.03600 46.94000
H  0.42700 -8.60600 46.63900
H  0.61800 -7.30800 47.86100
H  5.87800 -5.54200 45.26800
H  5.27500 -5.18900 46.94300
H  6.94300 -4.75700 46.49200
H  7.00000 -1.00900 42.28100
H  7.39900 3.01700 43.07700
H  9.07800 2.68100 42.68400
H  8.55700 2.58000 44.35400
Mg 6.50100 54.22500 41.17700
C  5.94700 50.81800 41.21400
C  9.88000 53.59600 40.30300
C  7.02800 57.53700 40.76500
C  3.19700 54.70400 41.92700
N  7.66800 52.34600 40.65800
C  7.29900 51.08500 40.83200
C  8.47300 50.08700 40.47200
C  9.73300 51.00100 40.59500
C  9.06100 52.45600 40.55600
C  10.52800 50.79900 41.93400
C  8.32500 49.43800 39.03200
C  8.54700 50.08700 37.68500
H  7.58900 49.73700 36.49200
N  8.19400 55.43700 40.57100
C  9.47800 55.01300 40.28500
C  10.34900 56.08700 40.10300
C  9.56400 57.28600 40.19800
C  8.17300 56.83200 40.46800
C  11.88200 55.90700 40.06300
C  10.12500 58.73300 40.09900
O  11.32100 58.94800 39.84400
C  9.22200 59.86900 40.42300
N  5.21300 55.84600 41.14000
C  5.69700 57.18000 41.04900
C  4.57000 58.17400 41.33900
C  3.40300 57.22800 41.83400
C  3.94000 55.81000 41.56200
C  4.83400 59.26300 42.41100
C  2.09500 57.52900 41.18000
C  0.82200 57.59300 42.11400
N  4.83400 53.03800 41.52600
C  3.63600 53.36300 42.01700
C  2.81400 52.19200 42.33200
C  3.73700 51.13800 42.01800
C  4.92500 51.73800 41.52000
C  1.50200 52.12200 42.95600
C  3.91200 49.71700 42.04100
O  3.14600 48.89600 42.43700
C  5.32200 49.43100 41.41700
C  5.05300 48.79200 40.10300
O  4.52700 49.35200 39.15900
O  5.31600 47.44000 40.18800
C  4.78000 46.62900 39.09100
H  10.93100 53.29900 40.27900
H  7.17900 58.59900 40.96800
H  2.15400 54.89200 42.19100
H  8.41500 49.27100 41.19300
H  10.44500 51.01900 39.76900
H  10.34000 51.73900 42.45300
H  11.60100 50.65800 41.80700
H  10.17700 49.87700 42.39700
H  7.29200 49.09400 39.01200
H  8.98300 48.56900 39.05400
H  9.49200 49.70500 37.29800
H  8.75800 51.13000 37.92300
H  12.33600 56.18800 41.01300
H  12.47200 56.40100 39.29100
H  12.22800 54.87600 39.98800
H  8.30400 59.91700 39.83900
H  9.75700 60.79800 40.22500
H  9.04400 59.97300 41.49400
H  4.31500 58.65600 40.39500
H  3.48700 57.26200 42.92000
H  5.67900 59.04100 43.06300
H  3.91800 59.45800 42.97000
H  5.04000 60.18700 41.86900
H  1.90600 56.72000 40.47500
H  2.21000 58.47100 40.64500
H  0.93300 56.95400 42.99000
H  -0.04900 57.29800 41.52900
H  0.71500 58.63900 42.40500
H  1.03700 51.14100 43.05000
H  0.68200 52.63000 42.44700
H  1.64200 52.58400 43.93300
H  5.83700 48.72100 42.06400
H  3.82500 46.14700 39.30100
H  5.42600 45.79900 38.80400
H  4.70800 47.24100 38.19200

