158

Mg 49.87600 45.99100 41.85700
C  46.66800 47.22200 41.12300
C  49.11800 43.05600 40.45700
C  53.05000 45.15900 42.44500
C  50.64800 49.35600 42.75300
N  48.08500 45.26200 40.91200
C  46.88800 45.85800 40.71000
C  45.91700 45.09400 39.82400
C  46.61700 43.69700 39.83500
C  48.03500 43.98500 40.46100
C  45.98100 42.51000 40.61900
C  45.78200 45.58100 38.30800
C  44.46200 45.25800 37.66700
H  44.53700 44.76800 36.21600
N  50.93700 44.24300 41.57900
C  50.42100 43.13400 40.98200
C  51.50100 42.12600 40.86900
C  52.68000 42.75900 41.44200
C  52.25800 44.08400 41.91600
C  51.43200 40.74900 40.22300
C  54.06700 42.15500 41.42900
O  54.29900 41.07400 40.90600
C  55.29800 42.82700 42.01000
N  51.59700 47.05900 42.45300
C  52.76300 46.47500 42.63400
C  53.91100 47.58000 42.70800
C  53.13100 48.90100 42.78800
C  51.70500 48.41400 42.64100
C  54.90100 47.39100 43.95800
C  53.51200 50.11500 41.90700
C  54.53600 51.11400 42.53700
N  48.84800 47.83300 42.15100
C  49.32000 49.05400 42.46900
C  48.28200 49.99100 42.51600
C  47.16600 49.32400 42.01600
C  47.59300 47.96100 41.77400
C  48.43200 51.46900 42.84100
C  45.73600 49.50500 41.62600
O  45.04300 50.51800 41.68600
C  45.41300 48.06900 40.92300
C  44.13700 47.52200 41.54200
O  43.88700 47.35800 42.70500
O  43.31600 47.17600 40.51000
C  41.98800 46.60700 40.73200
H  48.96900 42.14400 39.87600
H  54.09800 44.85500 42.40900
H  50.97100 50.39400 42.85800
H  44.98900 44.88200 40.35500
H  46.74100 43.28800 38.83200
H  45.87600 41.67800 39.92300
H  45.07700 42.92600 41.06300
H  46.54000 42.10200 41.46100
H  46.70500 45.33600 37.78100
H  45.79900 46.67000 38.33900
H  43.73100 46.06600 37.68400
H  44.07800 44.43300 38.26600
H  50.38800 40.52300 40.00500
H  51.61100 39.95500 40.94800
H  52.19700 40.61000 39.46000
H  55.17200 43.17800 43.03500
H  55.77300 43.61700 41.42900
H  56.02800 42.02300 42.10000
H  54.49400 47.67700 41.79200
H  53.18200 49.24500 43.82100
H  54.96600 48.21700 44.66600
H  55.84900 47.11100 43.49800
H  54.36700 46.59100 44.47100
H  52.60400 50.64300 41.61600
H  53.92000 49.61000 41.03200
H  55.40300 50.95500 41.89600
H  54.79300 50.91800 43.57800
H  54.30300 52.17700 42.47800
H  48.91200 51.96300 41.99600
H  48.98400 51.57400 43.77500
H  47.48400 52.00800 42.84200
H  45.19600 48.24200 39.86900
H  41.93300 45.62300 40.26500
H  41.35200 47.35900 40.26600
H  41.75400 46.42200 41.78000
Mg 16.91500 52.20300 25.67800
C  18.36700 50.59100 28.38700
C  14.44700 53.29600 27.91800
C  15.46100 53.79500 23.20500
C  19.27600 50.85200 23.59900
N  16.43800 51.74400 27.96500
C  17.29000 51.25100 28.82500
C  16.87300 51.42700 30.24800
C  15.45100 52.04400 30.03000
C  15.41200 52.34900 28.51800
C  14.23400 51.11400 30.49100
C  17.82800 52.44400 31.03900
C  18.19700 52.11400 32.52400
H  17.27600 52.64200 33.63200
N  15.23000 53.43200 25.60300
C  14.39700 53.80100 26.64100
C  13.46400 54.70900 26.15500
C  13.72200 54.87000 24.73000
C  14.89800 54.09600 24.49200
C  12.45700 55.42600 27.11000
C  13.05900 55.76400 23.71600
O  13.27200 55.75700 22.49600
C  11.93100 56.67500 24.25200
N  17.38900 52.51800 23.72800
C  16.58000 53.07900 22.84700
C  17.18300 53.13600 21.43800
C  18.57200 52.30200 21.62700
C  18.43400 51.87200 23.08200
C  16.20900 52.59500 20.31300
C  19.87800 53.01700 21.30200
C  19.95400 54.46300 21.86800
N  18.46800 50.86800 25.86000
C  19.37700 50.36100 24.96000
C  20.36600 49.53300 25.59800
C  19.97700 49.58700 26.96400
C  18.85000 50.40400 27.03300
C  21.59300 48.93500 24.90500
C  20.43800 49.22600 28.30300
O  21.37100 48.53100 28.70900
C  19.49400 50.00700 29.26500
C  18.80200 48.97700 30.15600
O  17.96600 48.12800 29.81500
O  19.29500 49.12600 31.40000
C  19.08900 48.02900 32.38900
H  13.80600 53.73200 28.68800
H  14.98200 54.21200 22.31600
H  19.92100 50.47000 22.80600
H  16.81500 50.45300 30.73400
H  15.39700 53.03400 30.48200
H  13.60800 51.66200 31.19500
H  14.55200 50.25500 31.08200
H  13.59400 50.82000 29.65900
H  17.32300 53.41000 31.03100
H  18.76100 52.53000 30.48200
H  19.16800 52.54600 32.76700
H  18.36700 51.03800 32.52100
H  12.65300 56.49700 27.06300
H  12.50600 55.27300 28.18800
H  11.41100 55.31500 26.82400
H  12.46100 57.26900 24.99600
H  11.18600 56.01700 24.69800
H  11.42000 57.21700 23.45700
H  17.53900 54.09600 21.06400
H  18.42800 51.46200 20.94700
H  15.24800 53.02800 20.59100
H  16.12000 51.52200 20.48200
H  16.54300 52.85900 19.30900
H  20.02800 53.02800 20.22200
H  20.73900 52.45800 21.66700
H  19.11300 54.87300 22.42700
H  20.10300 55.17900 21.06000
H  20.87700 54.51300 22.44700
H  21.71500 47.95000 25.35500
H  22.47600 49.53700 25.12100
H  21.46700 48.86600 23.82500
H  20.02200 50.78700 29.81400
H  18.13000 47.51600 32.31700
H  19.07900 48.57600 33.33200
H  19.91600 47.32600 32.29400

