158

Mg 1.87900 -2.48500 43.63300
C  5.19800 -1.75000 42.85700
C  0.81500 0.31000 42.06200
C  -1.18100 -3.60600 44.12400
C  3.08900 -5.79300 44.67100
N  2.89500 -1.13400 42.30600
C  4.25500 -0.87400 42.23100
C  4.55500 0.37800 41.33800
C  3.15800 1.05200 41.27500
C  2.20500 0.00900 41.92700
C  3.06400 2.53900 41.86600
C  5.16400 -0.02000 39.96200
C  6.46200 0.77500 39.54700
H  6.65100 1.36800 38.12900
N  0.04600 -1.64600 43.32700
C  -0.19000 -0.45500 42.68500
C  -1.60800 -0.30500 42.57800
C  -2.27400 -1.40700 43.27800
C  -1.10800 -2.30500 43.61800
C  -2.15300 0.86600 41.88000
C  -3.73100 -1.51100 43.53400
O  -4.51100 -0.66600 43.10400
C  -4.26200 -2.71900 44.32100
N  1.08400 -4.40400 44.37800
C  -0.17800 -4.52500 44.50300
C  -0.61900 -5.99500 44.86300
C  0.69200 -6.75400 45.02200
C  1.69900 -5.64300 44.64200
C  -1.64300 -6.14100 46.09400
C  0.82100 -8.13500 44.27700
C  1.52300 -9.30800 44.93500
N  3.80600 -3.59500 43.64200
C  4.06600 -4.90200 44.10700
C  5.51200 -5.04300 44.15100
C  6.06400 -3.81400 43.67700
C  4.97400 -3.00800 43.42000
C  6.27700 -6.19200 44.68700
C  7.26100 -2.94200 43.48500
O  8.45400 -3.16800 43.65700
C  6.72700 -1.61900 42.89500
C  7.11600 -0.57400 43.86100
O  6.83200 -0.64100 45.04500
O  7.83000 0.36400 43.17600
C  8.38700 1.55200 43.88200
H  0.46000 1.31100 41.80800
H  -2.20400 -3.98500 44.16200
H  3.53900 -6.75400 44.93000
H  5.22400 1.07100 41.84700
H  2.74100 1.24500 40.28700
H  2.63700 3.17800 41.09300
H  4.00300 2.97300 42.21300
H  2.39500 2.61600 42.72400
H  4.42700 0.07900 39.16500
H  5.30200 -1.10100 39.92900
H  7.18500 -0.03700 39.62400
H  6.66500 1.53000 40.30600
H  -1.47500 1.41200 41.22400
H  -2.51400 1.60500 42.59600
H  -3.05000 0.62400 41.30900
H  -5.27100 -2.55200 44.69600
H  -3.65800 -2.91300 45.20700
H  -4.35000 -3.50600 43.57100
H  -1.14200 -6.37000 43.98300
H  0.82600 -6.89800 46.09500
H  -1.36500 -7.08200 46.56900
H  -2.70200 -6.07000 45.84400
H  -1.46500 -5.42600 46.89700
H  1.41100 -7.88000 43.39600
H  -0.22000 -8.33600 44.02300
H  0.91600 -10.21300 44.89800
H  1.73900 -9.14400 45.99000
H  2.41100 -9.49600 44.33200
H  7.24100 -5.71500 44.86300
H  6.46500 -6.94900 43.92500
H  5.77500 -6.54900 45.58600
H  7.24100 -1.43400 41.95200
H  9.33100 1.87400 43.44400
H  8.49500 1.25600 44.92500
H  7.64600 2.35100 43.92800
Mg 25.74900 1.04700 28.80000
C  27.64500 0.63900 31.57000
C  23.04300 1.22200 30.83100
C  23.83900 1.12400 26.05800
C  28.61200 0.02300 26.85200
N  25.40900 0.95000 30.97300
C  26.32000 0.82300 31.96600
C  25.69400 0.80500 33.36700
C  24.11800 1.00400 33.08200
C  24.15100 1.14200 31.54000
C  23.19700 -0.11800 33.66400
C  26.27600 1.96300 34.26600
C  25.56300 2.01000 35.61300
H  26.42700 1.77900 36.83100
N  23.74800 1.10100 28.50700
C  22.77300 1.27100 29.46300
C  21.48400 1.44300 28.81100
C  21.69200 1.41600 27.38900
C  23.17300 1.27500 27.27200
C  20.18400 1.44200 29.58100
C  20.68300 1.56200 26.24300
O  20.98200 1.42200 25.05100
C  19.22800 1.93600 26.54500
N  26.13500 0.45100 26.79700
C  25.23700 0.81100 25.88300
C  25.88000 0.94100 24.50600
C  27.30700 0.55700 24.73300
C  27.38600 0.42800 26.20900
C  25.14800 0.02300 23.36700
C  28.39300 1.57200 24.11000
C  29.14300 1.16000 22.77500
N  27.74100 0.51900 29.05900
C  28.73800 0.09200 28.21100
C  29.92100 -0.19400 29.00100
C  29.50200 0.04200 30.34500
C  28.19300 0.46000 30.31700
C  31.27500 -0.58700 28.49200
C  29.99700 0.01000 31.69800
O  31.09900 -0.30900 32.12000
C  28.78300 0.33800 32.63700
C  28.45100 -0.90900 33.41200
O  27.93500 -1.97700 33.01600
O  28.94600 -0.69700 34.73000
C  28.51500 -1.57000 35.79500
H  22.16800 1.40500 31.45700
H  23.29800 1.10500 25.10900
H  29.54600 -0.27100 26.36800
H  25.92000 -0.21100 33.69200
H  23.90600 1.94200 33.59600
H  22.94100 -0.84800 32.89600
H  22.31500 0.39500 34.05000
H  23.71100 -0.66500 34.45300
H  26.06700 2.85000 33.66800
H  27.35300 1.93100 34.43000
H  24.84000 1.19400 35.65100
H  24.98000 2.92700 35.69300
H  19.38400 1.10400 28.92300
H  19.90100 2.46600 29.82500
H  20.27500 0.93400 30.54200
H  18.78100 1.04300 26.98200
H  18.68900 2.18900 25.63200
H  19.21600 2.76800 27.25000
H  25.77400 2.00700 24.30600
H  27.53600 -0.40900 24.28500
H  24.38100 -0.56200 23.87400
H  25.84000 -0.56200 22.76000
H  24.66200 0.65700 22.62600
H  29.21800 1.62700 24.82100
H  27.91000 2.52900 23.91000
H  28.48300 0.34800 22.47000
H  30.16500 0.84100 22.98100
H  29.03500 1.92300 22.00400
H  32.02900 -0.30400 29.22500
H  31.49200 -0.08100 27.55200
H  31.33700 -1.66400 28.33500
H  28.93000 1.12600 33.37600
H  28.56700 -2.59700 35.43300
H  27.46400 -1.35100 35.98200
H  29.09400 -1.45500 36.71200

