158

Mg 54.60300 24.25400 44.73400
C  51.98100 26.31700 43.53500
C  52.97000 21.65400 43.42800
C  57.49800 22.51400 44.86800
C  56.25600 27.11400 45.88600
N  52.86400 24.13500 43.29200
C  51.86300 25.04100 43.00600
C  50.77900 24.40400 42.12300
C  50.87700 22.90000 42.52900
C  52.35300 22.88000 43.08200
C  49.94900 22.41600 43.62000
C  51.14600 24.67800 40.60500
C  49.93400 24.58000 39.79400
H  50.19500 25.07700 38.32300
N  55.14700 22.38300 44.18800
C  54.33400 21.38500 43.67200
C  55.01100 20.14800 43.63100
C  56.33500 20.37600 43.95200
C  56.39600 21.83700 44.35000
C  54.21500 18.85400 43.29900
C  57.35200 19.28100 44.05500
O  57.11800 18.09500 43.91300
C  58.71700 19.51600 44.50700
N  56.64600 24.73900 45.06400
C  57.64700 23.88400 45.20100
C  58.96600 24.41400 45.69500
C  58.52600 26.00500 45.79200
C  57.03000 25.94900 45.57500
C  59.51400 23.73100 46.94900
C  59.26700 27.05900 44.86400
C  58.55300 27.38200 43.50400
N  54.17800 26.25500 44.93900
C  54.89800 27.27800 45.51200
C  54.02000 28.42800 45.62600
C  52.84200 28.03700 44.86300
C  53.06600 26.74300 44.48700
C  54.33000 29.73600 46.29800
C  51.54100 28.51300 44.37900
O  50.92700 29.59800 44.49400
C  50.95700 27.39300 43.54500
C  50.42200 27.93500 42.25800
O  51.10300 28.44100 41.39900
O  49.10300 27.71800 42.19700
C  48.49000 27.98700 40.88700
H  52.28800 20.92300 42.98900
H  58.26200 21.78800 45.15200
H  56.69400 28.07100 46.17800
H  49.75800 24.73400 42.31000
H  50.81800 22.14100 41.74800
H  49.33400 23.18500 44.08700
H  50.39200 21.88400 44.46200
H  49.29800 21.75300 43.05000
H  51.76200 23.84500 40.26800
H  51.76300 25.54600 40.37100
H  49.10000 25.17000 40.17500
H  49.59300 23.55300 39.66200
H  54.23300 18.01700 43.99700
H  54.82500 18.53200 42.45500
H  53.24200 19.05700 42.85100
H  58.83000 19.86300 45.53400
H  59.10700 20.24500 43.79600
H  59.31200 18.61700 44.34600
H  59.75200 24.28700 44.95100
H  58.59200 26.43000 46.79400
H  59.81100 24.45400 47.71000
H  60.31900 23.02600 46.74500
H  58.73900 23.19100 47.49300
H  60.26900 26.70500 44.62300
H  59.50400 27.96000 45.43000
H  58.05700 28.34800 43.41300
H  57.73300 26.69900 43.28300
H  59.44700 27.30700 42.88500
H  54.46100 29.63800 47.37500
H  53.51700 30.44700 46.14800
H  55.24400 30.14600 45.86800
H  50.06400 26.96300 43.99800
H  49.12700 27.73700 40.03800
H  47.92700 28.90400 40.71500
H  47.59600 27.38800 40.71800
Mg 30.28700 57.63400 40.58800
C  27.53900 55.68200 40.01400
C  32.30200 55.16600 39.38200
C  32.87400 59.76700 40.65000
C  28.10500 60.41500 41.16400
N  29.93400 55.64400 39.90300
C  28.70400 55.01000 39.69900
C  28.89400 53.70800 38.93800
C  30.43700 53.41100 39.22900
C  30.96200 54.86300 39.53300
C  30.83200 52.41700 40.25300
C  28.59400 53.84100 37.42900
C  27.43600 53.13400 36.74100
H  26.75500 53.88600 35.56600
N  32.35300 57.43300 40.14200
C  32.99100 56.34800 39.72300
C  34.32200 56.54000 39.48800
C  34.52700 57.91700 39.94200
C  33.20000 58.46000 40.25700
C  35.29500 55.50300 38.84900
C  35.91300 58.50000 39.87900
O  36.90500 57.93800 39.40200
C  36.11500 59.83700 40.29100
N  30.51000 59.86500 40.79500
C  31.72200 60.44100 40.99300
C  31.54800 61.84100 41.38500
C  29.99100 61.93300 41.78300
C  29.49400 60.68700 41.17500
C  32.47100 62.29800 42.49800
C  29.23500 63.17800 41.23100
C  28.66500 63.94900 42.38200
N  28.25300 57.99400 40.73200
C  27.51200 59.15500 40.95000
C  26.13600 58.88500 40.83300
C  26.07400 57.45500 40.54000
C  27.37000 57.00700 40.47500
C  25.09700 59.90500 40.93500
C  25.20600 56.33100 40.31000
O  23.99400 56.32800 40.15600
C  26.09800 55.18200 39.83900
C  25.81300 53.98100 40.71500
O  25.82300 53.95000 41.91300
O  25.41000 52.91300 39.93400
C  24.84100 51.75800 40.66100
H  32.80600 54.34600 38.86600
H  33.70100 60.47800 40.59400
H  27.42500 61.18600 41.53300
H  28.26700 52.96900 39.43600
H  30.87000 53.15500 38.26200
H  31.22100 51.50900 39.79100
H  29.94700 52.21200 40.85500
H  31.49200 52.83300 41.01500
H  29.49100 53.52500 36.89700
H  28.35900 54.88900 37.24200
H  26.71400 52.75500 37.46400
H  27.96100 52.25200 36.37500
H  35.79300 55.99300 38.01200
H  34.77400 54.57100 38.63000
H  36.02400 55.17300 39.58900
H  35.69900 60.00600 41.28500
H  35.97200 60.59900 39.52500
H  37.18600 59.78100 40.48500
H  31.66700 62.40800 40.46200
H  29.87600 61.78700 42.85700
H  33.16900 62.98900 42.02600
H  33.11400 61.48800 42.84400
H  31.86700 62.75100 43.28400
H  28.42700 63.10200 40.50300
H  29.97800 63.85100 40.80200
H  27.70800 63.57400 42.74500
H  28.52300 64.97700 42.04800
H  29.33800 63.88600 43.23700
H  24.15400 59.56600 40.50500
H  25.32900 60.76100 40.30200
H  24.88600 60.14600 41.97800
H  25.81900 54.82400 38.84800
H  23.76800 51.62400 40.52200
H  24.98500 51.80900 41.74000
H  25.28300 50.85700 40.23400

