158

Mg 41.32700 7.93200 29.51300
C  43.11400 9.73500 32.05900
C  39.07800 6.99200 31.89800
C  39.76200 6.42900 27.15900
C  44.10000 8.58500 27.42100
N  41.16300 8.30800 31.77000
C  41.91200 9.16200 32.50200
C  41.35200 9.20900 33.94300
C  40.18900 8.12100 33.95600
C  40.14600 7.71500 32.51100
C  40.33400 6.87200 34.92500
C  40.88800 10.70000 34.37100
C  40.15100 10.80700 35.79500
H  40.50000 11.88800 36.82200
N  39.60000 6.88200 29.51100
C  38.84900 6.57500 30.58600
C  37.77800 5.74000 30.17800
C  37.81800 5.78200 28.76100
C  39.07700 6.41200 28.35900
C  36.77200 5.22800 31.18400
C  36.85100 5.11000 27.75900
O  37.01500 5.27400 26.53800
C  35.64200 4.28000 28.32300
N  41.91000 7.54400 27.58000
C  41.02800 6.82300 26.81500
C  41.65800 6.47600 25.38700
C  42.94900 7.37900 25.44000
C  42.99600 7.89400 26.87400
C  41.89400 4.92100 25.19400
C  42.94700 8.58600 24.44500
C  41.83900 9.56000 24.62200
N  43.27500 8.83200 29.67600
C  44.26000 9.05600 28.73700
C  45.42100 9.82400 29.37400
C  44.90400 10.19400 30.53700
C  43.65700 9.53500 30.74300
C  46.63800 10.38500 28.74200
C  45.25300 10.99900 31.65900
O  46.15700 11.75900 31.92500
C  44.09400 10.77100 32.68700
C  44.67500 10.27600 33.98900
O  45.16100 9.23400 34.11100
O  44.56500 11.22500 34.95000
C  45.25100 11.02700 36.23100
H  38.33300 6.87500 32.68800
H  39.24800 5.89100 26.35900
H  44.87800 8.91500 26.72900
H  42.22900 8.87100 34.49300
H  39.23400 8.62100 34.11300
H  41.37300 6.75800 35.23100
H  40.17200 5.97100 34.33300
H  39.58700 6.88600 35.71900
H  40.24000 11.04400 33.56500
H  41.74700 11.37100 34.40600
H  40.40000 9.87100 36.29500
H  39.07000 10.85000 35.66300
H  36.57100 4.17800 30.96900
H  35.89500 5.87200 31.12700
H  37.11200 5.26300 32.22000
H  35.05700 4.93600 28.96900
H  36.02500 3.46400 28.93400
H  34.97300 3.97500 27.51700
H  40.89100 6.77000 24.67100
H  43.90000 6.85000 25.38900
H  41.32700 4.39900 25.96500
H  42.91000 4.64900 25.48300
H  41.68500 4.45100 24.23300
H  42.94500 8.03200 23.50600
H  43.86800 9.16900 24.40900
H  41.16500 9.40200 25.46400
H  41.33500 9.55000 23.65600
H  42.20500 10.57500 24.77800
H  46.45500 11.30600 28.18800
H  46.95500 9.58600 28.07200
H  47.34800 10.56600 29.54900
H  43.62500 11.69700 33.02200
H  44.52400 10.66100 36.95500
H  45.77800 11.93500 36.52400
H  46.09300 10.33400 36.20700
Mg 29.94900 58.58900 38.96900
C  27.06500 57.17200 38.05300
C  31.66000 55.72100 38.22200
C  32.83500 60.37300 38.81700
C  28.25200 61.63300 39.64200
N  29.47000 56.68000 38.20000
C  28.18300 56.33600 37.81000
C  28.21300 54.84700 37.28500
C  29.59200 54.36300 37.73200
C  30.31600 55.63600 38.00200
C  29.59800 53.37300 38.99500
C  28.04500 54.73100 35.68900
C  26.67600 54.10100 35.36900
H  25.81500 54.92900 34.33500
N  31.96800 58.08300 38.57200
C  32.45100 56.81700 38.36500
C  33.86400 56.78900 38.23600
C  34.33900 58.10900 38.42300
C  33.08900 58.90600 38.58100
C  34.63000 55.44800 38.08500
C  35.71300 58.59600 38.44000
O  36.63700 57.77400 38.42800
C  36.09700 60.03400 38.48400
N  30.42000 60.68400 39.08400
C  31.73200 61.09300 39.05200
C  31.78100 62.57400 39.21600
C  30.31400 63.02800 39.46900
C  29.61600 61.71900 39.38800
C  32.77600 63.19100 40.22100
C  29.87300 64.16000 38.59400
C  29.65500 65.47200 39.41200
N  28.04300 59.25500 38.98300
C  27.48600 60.43700 39.34100
C  26.07300 60.29200 39.34600
C  25.86400 59.03900 38.79600
C  27.08600 58.45400 38.61600
C  25.10100 61.39800 39.60700
C  24.79900 58.05000 38.37200
O  23.56700 58.21200 38.39900
C  25.57600 56.76200 37.93700
C  25.21900 55.65500 38.86900
O  25.69400 55.56800 39.97800
O  24.41900 54.60200 38.37900
C  24.29800 53.41300 39.34200
H  32.05700 54.70500 38.17100
H  33.64300 61.10400 38.74600
H  27.67300 62.53000 39.87300
H  27.48200 54.20000 37.76800
H  30.14100 53.86600 36.93200
H  30.02300 54.05200 39.73400
H  30.15900 52.45500 38.82200
H  28.56900 53.05000 39.15400
H  28.86400 54.11900 35.31100
H  28.01000 55.73100 35.25700
H  26.11900 53.94100 36.29200
H  26.82700 53.13700 34.88300
H  34.20700 54.70100 38.75700
H  35.60300 55.61800 38.54700
H  34.76600 54.98600 37.10700
H  37.17300 60.05600 38.30900
H  35.78100 60.36400 39.47400
H  35.48000 60.55600 37.75300
H  32.07500 62.85200 38.20400
H  30.26600 63.29500 40.52400
H  32.45100 63.68700 41.13600
H  33.28800 64.07400 39.84000
H  33.56100 62.47800 40.47400
H  28.90400 63.95800 38.13800
H  30.60400 64.33400 37.80400
H  28.98100 66.09100 38.81900
H  30.61600 65.96300 39.56300
H  29.12600 65.23200 40.33400
H  24.80900 61.98200 38.73400
H  25.62700 62.08700 40.26800
H  24.27800 60.97700 40.18500
H  25.32000 56.46300 36.92100
H  23.81700 52.54800 38.88500
H  23.66700 53.71300 40.17900
H  25.18900 53.13600 39.90500

