158

Mg 17.28600 -0.76100 27.10900
C  15.93800 1.10200 29.82000
C  19.25400 -2.45600 29.21200
C  18.41700 -2.40500 24.43300
C  15.44200 1.37000 24.91100
N  17.56800 -0.60600 29.22900
C  16.92600 0.17900 30.15900
C  17.24600 -0.20200 31.56900
C  18.48700 -1.20200 31.37500
C  18.54000 -1.40600 29.83500
C  19.81300 -0.70200 31.98300
C  16.02600 -0.85200 32.28000
C  16.14300 -0.96300 33.85900
H  17.30300 -0.33100 34.57900
N  18.61000 -2.30900 26.85500
C  19.25000 -2.90100 27.88600
C  20.02800 -3.94700 27.37500
C  19.76900 -4.04200 25.96800
C  18.84700 -2.90900 25.68500
C  20.72100 -4.88800 28.28800
C  20.33400 -5.01700 24.90100
O  20.01400 -4.93600 23.76400
C  21.44200 -5.94800 25.32800
N  16.97500 -0.57500 24.92700
C  17.56300 -1.37600 24.09700
C  17.25900 -1.01500 22.60100
C  16.20700 0.18600 22.72300
C  16.15800 0.29500 24.26400
C  18.51200 -0.49300 21.79800
C  14.74300 0.03200 22.14700
C  14.13400 1.27900 21.53400
N  15.92800 0.82500 27.26700
C  15.27700 1.58900 26.26600
C  14.47600 2.61500 26.92600
C  14.69100 2.45500 28.31700
C  15.50900 1.37400 28.46300
C  13.66300 3.74900 26.14700
C  14.28200 2.93900 29.63900
O  13.49500 3.89100 29.97900
C  15.08600 2.05900 30.62700
C  15.89500 2.96900 31.51200
O  16.81200 3.65600 31.08700
O  15.34600 2.94700 32.81100
C  15.90400 3.93300 33.72800
H  19.96600 -2.85700 29.93600
H  18.73800 -2.89400 23.51100
H  14.84900 2.00600 24.25000
H  17.49000 0.76700 32.00400
H  18.15800 -2.15700 31.78400
H  19.80300 0.33600 32.31400
H  20.51200 -0.72200 31.14700
H  20.16200 -1.26900 32.84600
H  15.98800 -1.88000 31.92100
H  15.07200 -0.46300 31.92300
H  16.22200 -2.03100 34.06500
H  15.21800 -0.62400 34.32500
H  20.43500 -5.93000 28.14700
H  20.71900 -4.59300 29.33800
H  21.78500 -4.94500 28.05700
H  21.01600 -6.91900 25.58200
H  22.21100 -5.59000 26.01200
H  21.85600 -6.25900 24.36900
H  16.86000 -1.79800 21.95700
H  16.55800 1.12800 22.30100
H  18.78700 -1.26100 21.07500
H  19.35400 -0.23000 22.43900
H  18.26800 0.36300 21.16800
H  14.06000 -0.17800 22.97000
H  14.67100 -0.77200 21.41400
H  14.98400 1.84000 21.14500
H  13.60900 1.83400 22.31100
H  13.34500 1.10200 20.80200
H  14.22000 4.35300 25.43200
H  13.24900 4.37400 26.93800
H  12.83200 3.21800 25.68100
H  14.43800 1.49300 31.29600
H  16.33500 4.83300 33.28800
H  16.66100 3.47400 34.36400
H  15.13400 4.20800 34.44900
Mg 16.73400 51.68100 26.27400
C  18.79700 50.06900 28.43600
C  14.82200 52.55600 29.02700
C  14.69700 53.34600 24.16200
C  18.72000 50.59900 23.49100
N  16.97800 51.53200 28.51100
C  17.94500 50.82100 29.16800
C  17.78600 50.85300 30.68200
C  16.26600 51.28100 30.73100
C  15.97500 51.83800 29.33800
C  15.26200 50.18100 31.21600
C  18.74500 51.91200 31.28000
C  19.02800 51.76300 32.81300
H  18.19500 50.92500 33.74000
N  14.88900 52.66100 26.55700
C  14.31600 53.00200 27.76600
C  13.23100 53.76700 27.49200
C  13.09800 53.93900 26.07700
C  14.24900 53.26500 25.51500
C  12.19800 54.17800 28.56200
C  11.94500 54.61700 25.30600
O  11.84000 54.63500 24.11200
C  10.98800 55.44800 25.98900
N  16.79200 51.93600 24.16200
C  15.84100 52.67900 23.58100
C  16.00100 52.75900 22.01900
C  17.41100 52.04600 21.82800
C  17.69700 51.56100 23.24600
C  14.92500 52.00300 21.15600
C  18.44500 53.10000 21.40200
C  18.45500 53.46700 19.85000
N  18.43800 50.56300 25.97000
C  19.03700 50.08000 24.76200
C  19.95900 49.05700 25.06100
C  19.89400 48.98800 26.52400
C  19.03400 50.01000 27.02300
C  20.82600 48.35300 24.06300
C  20.49800 48.44400 27.69900
O  21.36500 47.60500 27.83400
C  19.78200 49.11200 29.03400
C  19.10200 48.10500 29.84000
O  18.02500 47.63400 29.57800
O  19.97200 47.76200 30.84600
C  19.38300 46.80700 31.83700
H  14.19400 52.76700 29.89600
H  14.00900 53.77900 23.43300
H  19.26600 50.21300 22.62800
H  18.02300 49.93300 31.21500
H  16.20100 52.08600 31.46300
H  14.54700 49.87900 30.45100
H  14.68500 50.59200 32.04400
H  15.87900 49.30800 31.43000
H  18.35500 52.91700 31.11700
H  19.72700 51.85700 30.81200
H  19.05500 52.73600 33.30400
H  20.08000 51.48700 32.88900
H  11.17400 53.86500 28.35600
H  12.29100 55.25200 28.72700
H  12.49400 53.69600 29.49400
H  10.76200 56.32400 25.38000
H  11.49300 55.87600 26.85500
H  10.11500 54.83300 26.20500
H  15.94100 53.80500 21.71900
H  17.44600 51.41500 20.93900
H  14.28300 51.46000 21.84800
H  15.45200 51.26400 20.55200
H  14.43400 52.80000 20.59800
H  19.45100 52.74500 21.62400
H  18.28600 53.97300 22.03600
H  19.47200 53.20000 19.56300
H  18.37300 54.53500 19.64700
H  17.67200 52.98000 19.27000
H  21.35700 47.55700 24.58500
H  21.46500 49.10500 23.60000
H  20.09000 47.93300 23.37600
H  20.57300 49.59000 29.61300
H  18.42900 46.34200 31.58700
H  19.38800 47.42500 32.73600
H  20.11500 46.00800 31.95000

