158

Mg 41.80000 8.86200 29.64500
C  43.62300 10.02800 32.39200
C  39.52800 7.40000 31.76500
C  40.08700 7.82200 27.03700
C  44.19700 10.26900 27.55700
N  41.60500 8.66300 31.84600
C  42.43000 9.31500 32.76600
C  41.94500 8.93800 34.21000
C  40.81300 7.95000 33.94600
C  40.64000 7.94400 32.40400
C  41.13100 6.45200 34.45400
C  41.51300 10.32600 34.93100
C  40.91400 10.11900 36.36000
H  41.15300 11.32900 37.31000
N  40.05100 7.68400 29.37100
C  39.23700 7.25200 30.38000
C  38.12300 6.54800 29.80500
C  38.19900 6.76400 28.37200
C  39.49500 7.39600 28.21900
C  37.07000 5.80100 30.56600
C  37.16000 6.31700 27.30200
O  37.44800 6.39600 26.11600
C  35.71700 5.70200 27.65400
N  42.12700 9.05900 27.51800
C  41.22300 8.54100 26.64200
C  41.78600 8.67100 25.18100
C  42.90900 9.71600 25.37700
C  43.08100 9.82400 26.92200
C  42.33500 7.37100 24.63300
C  42.61100 11.10400 24.69000
C  41.33200 11.77600 25.03400
N  43.58700 9.92100 29.87200
C  44.48100 10.45200 28.89600
C  45.56200 11.20800 29.56000
C  45.26700 10.93700 30.93400
C  44.11200 10.17200 31.10200
C  46.72900 11.96600 29.00300
C  45.79300 11.19700 32.30700
O  46.84400 11.74100 32.73600
C  44.62800 10.68100 33.28200
C  45.27300 9.66500 34.15800
O  45.97400 8.70700 33.81700
O  44.79700 9.84100 35.50100
C  45.20000 8.87600 36.50700
H  38.89400 6.98700 32.55300
H  39.51900 7.47000 26.17300
H  44.97500 10.64800 26.89100
H  42.70600 8.50800 34.86000
H  39.87900 8.11600 34.48300
H  41.17700 5.75800 33.61400
H  40.41300 6.04900 35.16900
H  42.06000 6.40100 35.02200
H  40.80900 10.91200 34.34100
H  42.32400 11.03000 35.11900
H  41.14200 9.18600 36.87500
H  39.83500 10.09200 36.20800
H  37.33900 5.85000 31.62100
H  37.02200 4.78400 30.17800
H  36.07100 6.19100 30.37300
H  35.78600 4.85200 28.33300
H  35.28100 5.43100 26.69200
H  35.24700 6.60000 28.05500
H  41.01600 9.14200 24.57100
H  43.83600 9.37700 24.91600
H  42.12200 6.57300 25.34400
H  43.37000 7.34400 24.29200
H  41.78100 7.13400 23.72400
H  42.64600 10.90300 23.61900
H  43.48000 11.71600 24.92900
H  41.48800 12.79700 25.38200
H  40.94200 11.24900 25.90500
H  40.57400 11.73700 24.25200
H  47.64300 11.38400 29.12000
H  46.78400 12.91800 29.53100
H  46.37600 12.23000 28.00600
H  44.21600 11.50500 33.86400
H  46.05800 8.24100 36.28500
H  44.35000 8.20300 36.62600
H  45.38400 9.60000 37.30000
Mg 54.55000 24.43100 44.87100
C  52.16500 26.76200 43.77900
C  52.62400 21.89200 43.80300
C  57.28000 22.40000 45.18600
C  56.48900 27.18900 46.04500
N  52.67400 24.42300 43.84200
C  51.87400 25.41800 43.41100
C  50.71200 24.84900 42.66800
C  50.64600 23.41700 43.23100
C  52.08800 23.21000 43.63600
C  49.56700 23.20100 44.34300
C  50.75600 25.00900 41.11400
C  49.30600 24.75200 40.39800
H  49.39600 24.41800 38.91500
N  54.90700 22.43500 44.48700
C  53.96400 21.54500 44.08200
C  54.54600 20.28900 43.98600
C  55.88300 20.33500 44.37400
C  56.10500 21.76500 44.70300
C  53.69600 19.08200 43.70700
C  56.80000 19.18600 44.55800
O  56.43700 18.10500 44.23000
C  58.23900 19.29600 45.05600
N  56.60200 24.75400 45.48000
C  57.53000 23.77300 45.45300
C  58.87500 24.32300 45.97600
C  58.58800 25.76700 46.36000
C  57.12200 25.94900 45.91500
C  59.58300 23.53600 47.11000
C  59.51300 26.82300 45.63800
C  60.08700 27.83600 46.52800
N  54.34400 26.51200 45.08600
C  55.16000 27.48000 45.70000
C  54.51400 28.73800 45.59500
C  53.35900 28.51000 44.88200
C  53.27200 27.12600 44.58900
C  54.95400 30.06400 46.21800
C  52.16400 29.16400 44.38200
O  51.78900 30.31100 44.41200
C  51.40500 27.97900 43.61300
C  51.26800 28.30400 42.17000
O  52.22900 28.62800 41.50000
O  50.02700 28.04100 41.64400
C  49.97000 28.34900 40.18300
H  52.01100 21.02400 43.55000
H  58.25500 21.90800 45.22100
H  57.00200 27.99900 46.56900
H  49.81000 25.37600 42.98000
H  50.42200 22.75100 42.39800
H  50.13100 22.81000 45.19000
H  48.81000 22.46600 44.07200
H  49.06400 24.09900 44.70300
H  51.41700 24.29500 40.62400
H  51.26800 25.94900 40.90800
H  48.73000 25.67400 40.47400
H  48.68300 24.00600 40.89200
H  54.20300 18.30700 43.13400
H  52.86900 19.37600 43.06000
H  53.30400 18.74300 44.66600
H  58.67800 19.90800 44.26700
H  58.58000 18.26500 45.14500
H  58.38100 19.85300 45.98200
H  59.48100 24.21500 45.07600
H  58.50700 25.82000 47.44500
H  60.02400 24.19900 47.85300
H  60.32000 22.93300 46.57800
H  58.93800 22.78900 47.57300
H  59.02400 27.29800 44.78700
H  60.39100 26.23500 45.37200
H  60.11400 28.72400 45.89700
H  61.02900 27.53700 46.98800
H  59.42000 27.99500 47.37500
H  54.47300 30.12400 47.19400
H  54.41000 30.73400 45.55300
H  56.00600 30.31400 46.35900
H  50.39000 27.80200 43.96900
H  50.67200 27.70400 39.65400
H  50.36000 29.33100 39.91200
H  48.93600 28.28900 39.84500

