158

Mg 47.34800 25.31800 27.72400
C  48.11700 27.50600 30.34300
C  47.07200 22.78600 29.97200
C  46.77200 23.20400 25.13900
C  48.14200 27.89800 25.50900
N  47.66100 25.23900 29.89800
C  47.82700 26.21700 30.81400
C  47.65600 25.83700 32.27500
C  47.46400 24.29700 32.05800
C  47.43000 24.04100 30.58200
C  48.60000 23.47600 32.79500
C  46.57300 26.59500 33.01800
C  46.31000 25.99200 34.49500
H  45.85500 26.94300 35.57300
N  46.95900 23.28500 27.59700
C  46.92600 22.39100 28.59600
C  46.56800 21.10300 28.15300
C  46.37900 21.17400 26.68900
C  46.76900 22.62100 26.39100
C  46.22200 19.97300 29.11200
C  45.92900 20.03100 25.66400
O  45.72100 20.36500 24.51700
C  45.62200 18.54800 26.10100
N  47.61000 25.47300 25.65700
C  47.06400 24.51900 24.80600
C  47.20400 24.87100 23.35300
C  47.53600 26.42500 23.41200
C  47.73400 26.63400 24.95900
C  48.17900 24.07700 22.46800
C  46.43900 27.31900 22.71500
C  46.93800 28.54400 21.96700
N  48.10200 27.32400 27.83700
C  48.34200 28.25300 26.83500
C  48.77800 29.46900 27.42300
C  48.62300 29.25100 28.82900
C  48.28500 27.88900 29.01500
C  49.11700 30.79300 26.74400
C  48.69600 29.88700 30.16400
O  49.05700 31.02100 30.45600
C  48.39800 28.76300 31.14200
C  49.50100 28.67700 32.16800
O  50.60400 28.19700 32.13000
O  49.00000 29.15400 33.32200
C  49.86200 29.10100 34.51300
H  46.85500 22.15200 30.83500
H  46.54900 22.47600 24.35600
H  48.36700 28.76300 24.88100
H  48.66100 25.94400 32.68300
H  46.51600 23.98400 32.49500
H  49.08500 22.64900 32.27600
H  48.12700 23.12000 33.71000
H  49.45400 24.10500 33.04600
H  45.61200 26.51700 32.51000
H  46.84400 27.64300 33.14700
H  47.13800 25.39700 34.88100
H  45.48700 25.28100 34.41600
H  45.15700 19.84800 28.91600
H  46.41800 20.33200 30.12200
H  46.90700 19.15900 28.87400
H  44.66900 18.45100 26.62300
H  46.46000 18.23700 26.72500
H  45.60700 17.87000 25.24800
H  46.24600 24.66200 22.87600
H  48.46400 26.66600 22.89300
H  49.07400 24.52800 22.04100
H  47.64900 23.64000 21.62200
H  48.59500 23.24800 23.04200
H  45.68600 27.62100 23.44300
H  45.94700 26.70300 21.96100
H  46.53700 28.59300 20.95400
H  48.01700 28.67400 22.05200
H  46.57100 29.46600 22.41700
H  48.33800 31.51200 27.00000
H  49.37200 30.72000 25.68700
H  50.04500 31.05700 27.25200
H  47.51300 29.10400 31.67800
H  49.51200 29.75000 35.31600
H  50.87100 29.45300 34.29500
H  49.93300 28.06400 34.83900
Mg 34.97800 49.37500 26.74500
C  35.42600 46.82800 29.13200
C  34.00000 51.49000 29.29100
C  34.38900 51.60000 24.50000
C  35.80000 46.96800 24.36000
N  34.78300 49.20600 28.96500
C  35.05600 48.08400 29.73400
C  35.01000 48.37700 31.20300
C  34.18400 49.71800 31.19600
C  34.30500 50.24300 29.71000
C  32.70100 49.50100 31.55700
C  36.47000 48.54600 31.85700
C  36.55400 47.94600 33.25300
H  36.33500 48.98900 34.39300
N  34.30100 51.36100 26.84900
C  34.06300 52.10800 28.03000
C  33.91300 53.50800 27.61100
C  34.00500 53.55300 26.18900
C  34.25900 52.14100 25.76800
C  33.71100 54.64800 28.58700
C  34.03400 54.75000 25.27500
O  34.43900 54.72400 24.08100
C  33.63100 56.12600 25.90900
N  34.68900 49.16900 24.69400
C  34.56200 50.30200 23.95700
C  34.75400 49.97800 22.45600
C  35.60500 48.71800 22.60000
C  35.42200 48.27100 23.98200
C  33.40200 49.75700 21.69100
C  37.12900 48.91400 22.39200
C  37.85200 47.95200 21.52800
N  35.58100 47.36100 26.72900
C  35.87100 46.54300 25.67500
C  36.24300 45.19000 26.12900
C  36.09400 45.30500 27.53800
C  35.66800 46.61100 27.77600
C  36.62200 44.03700 25.30900
C  36.20700 44.62800 28.83000
O  36.55100 43.49500 29.09800
C  35.79000 45.62000 29.89200
C  34.59300 45.10900 30.61800
O  33.48300 44.95200 30.18300
O  35.07400 44.63800 31.83000
C  34.16300 43.77100 32.54700
H  33.64200 52.19600 30.04300
H  34.49000 52.38700 23.75000
H  36.15600 46.28300 23.58700
H  34.53900 47.59000 31.79300
H  34.58700 50.40800 31.93700
H  32.05400 49.78600 30.72700
H  32.47400 50.15100 32.40100
H  32.54200 48.46100 31.84200
H  36.72400 49.60200 31.76400
H  37.09400 47.87900 31.26300
H  37.56400 47.54900 33.35100
H  35.85200 47.13800 33.46200
H  34.48600 55.41200 28.51600
H  33.73700 54.26300 29.60700
H  32.68400 54.99600 28.48100
H  32.58400 56.08000 26.20900
H  33.69100 56.82200 25.07200
H  34.33800 56.44800 26.67300
H  35.41600 50.73300 22.03400
H  35.32700 47.95100 21.87700
H  32.65500 49.70800 22.48400
H  33.45500 48.82600 21.12700
H  33.19700 50.54400 20.96500
H  37.68300 48.88800 23.33100
H  37.44100 49.86300 21.95600
H  38.17600 48.49000 20.63700
H  37.37100 46.99900 21.30700
H  38.70300 47.60800 22.11600
H  36.09200 44.07200 24.35700
H  36.44400 43.07400 25.78900
H  37.68700 44.03200 25.07700
H  36.60000 45.78000 30.60300
H  33.49400 44.35300 33.18100
H  34.78800 43.14100 33.18000
H  33.66600 43.15700 31.79500

