158

Mg 25.08600 -7.25900 46.79300
C  27.53300 -4.93600 46.09700
C  22.88500 -5.63700 44.68500
C  23.01000 -9.87900 47.25400
C  27.48900 -9.01800 48.76100
N  25.21100 -5.38400 45.71400
C  26.27900 -4.66600 45.45200
C  25.98100 -3.38400 44.64500
C  24.37500 -3.44500 44.59900
C  24.10100 -4.90000 45.00400
C  23.71700 -2.44600 45.58200
C  26.61800 -3.36500 43.24500
C  27.12300 -2.08500 42.66500
H  26.63600 -1.64600 41.24700
N  23.27000 -7.72800 46.02000
C  22.46000 -6.94500 45.13500
C  21.34600 -7.73900 44.80300
C  21.25500 -8.82900 45.62900
C  22.50400 -8.89600 46.35900
C  20.38700 -7.11900 43.84900
C  20.07100 -9.84400 45.77100
O  19.07400 -9.66400 45.10300
C  19.91200 -11.09000 46.67100
N  25.23600 -9.26100 47.73300
C  24.23400 -10.02500 47.86700
C  24.51800 -11.18900 48.88700
C  25.92000 -10.82600 49.38400
C  26.29200 -9.63100 48.55700
C  23.47300 -11.43200 50.03100
C  26.89400 -12.10400 49.38800
C  27.82300 -12.29200 48.11700
N  27.08300 -7.06900 47.38900
C  27.96200 -7.83500 48.15600
C  29.28500 -7.25700 48.16300
C  29.16600 -6.12700 47.34100
C  27.77400 -6.06600 46.95600
C  30.56500 -7.78400 48.81700
C  29.91300 -5.00600 46.80100
O  31.07300 -4.68200 46.97800
C  28.89400 -4.20000 45.97500
C  28.92500 -2.73100 46.36100
O  29.04400 -2.30100 47.52100
O  28.79200 -1.96600 45.22800
C  28.60300 -0.55500 45.39800
H  22.18400 -5.04400 44.09200
H  22.34700 -10.73300 47.40400
H  28.30400 -9.45000 49.34400
H  26.32300 -2.52000 45.21500
H  24.07000 -3.21400 43.57800
H  23.19100 -3.01200 46.35100
H  22.94800 -1.89400 45.04200
H  24.39500 -1.71800 46.02600
H  25.90600 -3.80100 42.54400
H  27.54300 -3.93300 43.33800
H  28.21300 -2.08900 42.67300
H  26.90100 -1.24500 43.32400
H  19.73300 -6.41500 44.36200
H  19.78900 -7.86500 43.32600
H  20.85700 -6.47200 43.10800
H  19.75100 -10.80800 47.71100
H  20.73400 -11.77300 46.45300
H  18.99100 -11.62100 46.42900
H  24.48100 -12.15400 48.38200
H  25.81700 -10.38000 50.37400
H  22.48400 -11.01300 49.84500
H  23.78800 -11.00200 50.98200
H  23.22700 -12.48800 50.14400
H  26.43800 -13.09500 49.40100
H  27.52600 -11.99400 50.26900
H  27.42500 -11.72000 47.27900
H  27.77600 -13.35900 47.90100
H  28.83300 -12.01600 48.42000
H  31.44100 -7.48300 48.24300
H  30.57400 -8.87000 48.72600
H  30.62700 -7.44500 49.85100
H  29.35100 -4.33100 44.99300
H  29.03100 -0.16900 46.32300
H  27.55800 -0.26900 45.27700
H  29.09800 -0.08600 44.54700
Mg 40.67000 41.33800 27.74900
C  39.74300 43.88300 29.92600
C  41.36100 39.39500 30.64600
C  42.07100 39.02100 25.75600
C  40.58200 43.50700 25.09200
N  40.59400 41.64900 30.00000
C  40.07100 42.74200 30.61800
C  39.96600 42.56100 32.15900
C  40.62800 41.13100 32.36000
C  40.92100 40.68700 30.92800
C  41.69200 41.05700 33.49000
C  38.53200 42.68400 32.61800
C  38.02700 41.86200 33.83700
H  37.31000 42.58500 34.97700
N  41.46500 39.42900 28.15200
C  41.70400 38.83600 29.37100
C  42.19300 37.41100 29.21500
C  42.33400 37.29100 27.75400
C  41.92600 38.54900 27.18400
C  42.41300 36.50900 30.23000
C  42.73300 36.02500 26.98100
O  42.66500 35.98000 25.74200
C  42.98500 34.76000 27.73300
N  41.09000 41.21500 25.67400
C  41.66100 40.11400 25.07800
C  41.67800 40.22200 23.52700
C  41.15600 41.69000 23.41000
C  40.92100 42.19600 24.77500
C  43.07200 39.92800 22.93600
C  39.88800 41.55400 22.50900
C  38.49700 41.15400 23.04800
N  40.26900 43.36700 27.46200
C  40.20700 44.09400 26.30600
C  39.80000 45.41400 26.58900
C  39.63400 45.41600 28.00600
C  39.91400 44.12800 28.49500
C  39.63900 46.54000 25.56700
C  39.31800 46.21600 29.14700
O  39.06800 47.42500 29.26700
C  39.41800 45.29900 30.43000
C  40.47800 45.79800 31.37000
O  41.67600 45.68500 31.18000
O  39.80300 46.34700 32.42200
C  40.63600 46.67600 33.59000
H  41.39600 38.71200 31.49800
H  42.57000 38.31600 25.08700
H  40.56400 44.00300 24.11900
H  40.61200 43.32400 32.59300
H  39.89500 40.41900 32.73800
H  41.41200 40.27700 34.19700
H  41.90800 42.00300 33.98800
H  42.66300 40.75300 33.09700
H  37.95900 42.52200 31.70500
H  38.29300 43.74100 32.74300
H  38.93000 41.46900 34.30300
H  37.36700 41.01100 33.66800
H  42.23400 36.73400 31.28100
H  43.49500 36.40900 30.30800
H  42.02400 35.49800 30.11200
H  42.11200 34.43400 28.30000
H  43.90300 34.86000 28.31200
H  43.18000 33.94300 27.03900
H  40.96900 39.45100 23.22300
H  41.88900 42.25500 22.83400
H  42.97600 39.02600 22.33300
H  43.78900 39.83300 23.75100
H  43.41500 40.79700 22.37500
H  40.16300 40.86400 21.71100
H  39.74700 42.46600 21.92800
H  38.10400 40.22600 22.63200
H  37.87200 41.99600 22.75000
H  38.54700 41.08000 24.13400
H  38.74100 47.12600 25.76100
H  39.73900 46.21600 24.53100
H  40.44600 47.26300 25.68700
H  38.46300 45.39900 30.94600
H  41.24700 45.78600 33.74200
H  39.99900 46.87000 34.45300
H  41.28200 47.53100 33.39100

