158

Mg 26.33000 50.01200 26.77200
C  24.04100 51.12900 29.21400
C  28.45200 49.23800 29.21800
C  28.31800 48.74600 24.34000
C  24.21500 51.31300 24.27200
N  26.13700 50.02300 28.95700
C  25.11900 50.38300 29.75100
C  25.42300 50.13900 31.21300
C  27.00300 49.89800 31.23200
C  27.25900 49.67700 29.67300
C  27.96800 51.04200 31.85500
C  24.57800 49.01900 31.87700
C  24.12200 49.16200 33.35700
H  24.99500 49.94200 34.42400
N  28.16700 49.09600 26.77000
C  28.92800 48.89600 27.90200
C  30.13000 48.07900 27.56500
C  30.06400 47.90100 26.16000
C  28.85200 48.65400 25.61100
C  31.17800 47.66300 28.63200
C  30.92200 47.02300 25.25400
O  30.80000 46.98800 24.05500
C  31.93500 46.10400 25.89500
N  26.40900 50.19700 24.63800
C  27.23200 49.44700 23.87000
C  26.83000 49.38900 22.34900
C  25.41900 50.03400 22.35200
C  25.36000 50.63400 23.83000
C  27.95300 50.01200 21.40400
C  24.24100 49.14600 21.94800
C  23.25700 49.75400 20.91700
N  24.64900 51.11500 26.70100
C  23.82300 51.55500 25.63800
C  22.65900 52.17300 26.19500
C  22.73900 52.01900 27.57800
C  23.90000 51.30800 27.81900
C  21.58000 52.72600 25.41700
C  21.92700 52.36200 28.81100
O  20.83000 52.87400 28.91500
C  22.82800 51.68900 29.92700
C  23.23600 52.66200 30.89900
O  23.97600 53.64600 30.76500
O  22.60500 52.42100 32.16500
C  23.07400 53.21400 33.26400
H  29.01100 48.88800 30.08800
H  28.73100 48.04200 23.61500
H  23.48400 51.60100 23.51400
H  25.17400 51.04100 31.77300
H  27.25900 48.90600 31.60200
H  28.68300 51.33800 31.08800
H  28.51800 50.52400 32.64100
H  27.46100 51.90900 32.27900
H  25.14400 48.09400 31.76400
H  23.65000 48.84100 31.33300
H  24.04600 48.23200 33.92100
H  23.21600 49.76400 33.42500
H  31.07100 48.30100 29.50900
H  32.14600 47.62300 28.13300
H  30.93300 46.64200 28.92600
H  32.86500 46.64100 26.08600
H  32.22100 45.30800 25.20700
H  31.40000 45.77300 26.78500
H  26.79900 48.31900 22.14300
H  25.51500 50.88300 21.67500
H  28.91900 50.02500 21.90900
H  27.64500 51.03500 21.18700
H  28.02000 49.45900 20.46700
H  23.71200 48.82000 22.84400
H  24.71300 48.26100 21.52100
H  22.21600 49.66700 21.22800
H  23.28100 49.32200 19.91600
H  23.43300 50.82500 20.81400
H  20.70300 52.84700 26.05300
H  21.27800 52.16700 24.53200
H  21.85100 53.75900 25.19700
H  22.28200 50.86200 30.38100
H  24.15900 53.32000 33.26300
H  22.68600 52.90800 34.23600
H  22.80500 54.25500 33.08200
Mg 16.29100 51.82000 26.21900
C  18.02200 50.33400 29.02200
C  13.99600 52.92200 28.44800
C  14.81100 53.29800 23.68000
C  18.80900 50.55800 24.18500
N  16.01400 51.51100 28.48500
C  16.90500 51.09000 29.40900
C  16.46000 51.44400 30.89000
C  15.03300 51.99600 30.63700
C  15.00200 52.14300 29.10200
C  13.95600 50.98300 31.10400
C  17.46800 52.53900 31.41200
C  17.68600 52.43200 32.88600
H  16.82800 51.51700 33.73100
N  14.59700 53.02300 26.03800
C  13.79800 53.30700 27.05600
C  12.64700 54.16300 26.45300
C  12.77200 54.08000 25.02900
C  14.08600 53.45100 24.84600
C  11.66900 54.89000 27.30800
C  11.98200 54.72900 23.90000
O  12.38500 54.73700 22.73800
C  10.63200 55.37600 24.22600
N  16.71500 51.88200 24.18700
C  15.97600 52.62300 23.29500
C  16.50000 52.44300 21.83600
C  17.89200 51.76700 22.08100
C  17.79900 51.40500 23.58400
C  15.58700 51.63100 20.83400
C  19.05100 52.76000 21.73700
C  20.33800 52.14800 21.11900
N  17.93700 50.64600 26.47500
C  18.88800 50.22000 25.53900
C  19.89600 49.37300 26.15900
C  19.53300 49.43300 27.54300
C  18.40200 50.22000 27.67700
C  21.14000 48.86900 25.48200
C  19.98600 48.97700 28.77900
O  20.92200 48.30400 29.10700
C  19.10500 49.70800 29.81500
C  18.75700 48.71900 30.86500
O  18.14200 47.70100 30.57000
O  19.29400 49.06200 32.06400
C  19.11800 48.04800 33.15000
H  13.25500 53.35700 29.12100
H  14.44500 53.73300 22.74800
H  19.59900 50.26700 23.48900
H  16.39100 50.50100 31.43100
H  14.85000 52.96600 31.10000
H  13.37100 51.48600 31.87400
H  14.32600 50.02600 31.47200
H  13.29700 50.76400 30.26500
H  17.23200 53.59500 31.27600
H  18.38000 52.35500 30.84400
H  17.49200 53.41600 33.31300
H  18.74800 52.22900 33.02400
H  11.93900 55.94500 27.25100
H  11.67700 54.52200 28.33400
H  10.68400 54.68200 26.89100
H  9.97700 55.54000 23.37000
H  10.71200 56.30200 24.79600
H  10.16200 54.56200 24.77700
H  16.56000 53.39300 21.30500
H  18.08600 50.89900 21.45200
H  16.09100 51.54500 19.87100
H  14.63400 52.13100 20.66300
H  15.30000 50.67800 21.27900
H  19.40000 53.16200 22.68800
H  18.87100 53.59700 21.06300
H  20.34900 51.05800 21.08500
H  21.17500 52.55600 21.68600
H  20.43100 52.53000 20.10300
H  22.01000 49.51500 25.60400
H  20.93700 48.79500 24.41400
H  21.42500 47.90000 25.89300
H  19.72100 50.47600 30.28300
H  18.07300 48.01600 33.45900
H  19.78400 48.39800 33.93800
H  19.49200 47.05300 32.90600

