158

Mg -0.96800 17.80700 27.37000
C  -1.85900 15.56600 29.85100
C  -1.84000 20.37000 29.37900
C  -0.85500 19.67800 24.60900
C  -0.62900 14.90900 25.15200
N  -1.72800 17.92200 29.44600
C  -1.79400 16.88100 30.32700
C  -2.22000 17.41100 31.75700
C  -2.14000 19.00800 31.53500
C  -1.87700 19.16500 30.00600
C  -3.44400 19.72900 32.02000
C  -1.63200 16.96000 33.07900
C  -2.56200 16.85600 34.31500
H  -1.96100 16.29200 35.58300
N  -1.23000 19.75800 27.00200
C  -1.45900 20.67100 28.00000
C  -1.40700 21.98800 27.45600
C  -1.31500 21.81500 25.99400
C  -1.13300 20.33700 25.79800
C  -1.37700 23.23100 28.31000
C  -1.17200 22.85400 24.84700
O  -1.01500 22.58200 23.65500
C  -1.08000 24.30000 25.29700
N  -0.80000 17.27900 25.18400
C  -0.67000 18.28500 24.26200
C  -0.64000 17.76200 22.84000
C  -0.21300 16.30800 23.05700
C  -0.57500 16.15500 24.54400
C  -1.92300 18.05400 21.99000
C  1.27500 15.97900 22.72200
C  2.42600 16.24600 23.71300
N  -1.15900 15.73700 27.39300
C  -0.97100 14.69200 26.46000
C  -1.25000 13.46100 27.09700
C  -1.66700 13.71300 28.38500
C  -1.55100 15.14300 28.54600
C  -1.27900 12.13100 26.44700
C  -2.06400 13.14100 29.66500
O  -2.05400 11.95700 30.04800
C  -2.30000 14.36100 30.63200
C  -1.44000 14.01600 31.91200
O  -0.21700 14.18200 32.05200
O  -2.26500 13.37400 32.87200
C  -1.45200 12.79600 33.96400
H  -1.84400 21.14500 30.14800
H  -0.88200 20.27500 23.69500
H  -0.30300 14.12700 24.46300
H  -3.23800 17.02200 31.80100
H  -1.29300 19.46300 32.04700
H  -3.15800 20.59800 32.61400
H  -4.08400 19.09600 32.63500
H  -4.11200 20.08500 31.23600
H  -0.95300 17.77600 33.32400
H  -1.01100 16.06400 33.10900
H  -3.21000 16.03000 34.02200
H  -3.12300 17.78100 34.44900
H  -0.54100 23.90700 28.13200
H  -1.37300 23.10700 29.39300
H  -2.32200 23.74800 28.14800
H  -1.00300 24.96700 24.43900
H  -0.11500 24.57500 25.72300
H  -1.91000 24.68600 25.88900
H  0.21700 18.19400 22.32400
H  -0.76500 15.57900 22.46400
H  -2.32100 17.07400 21.72800
H  -1.68600 18.64800 21.10700
H  -2.70200 18.59100 22.53200
H  1.61900 16.60100 21.89600
H  1.42800 14.93100 22.46300
H  2.06400 16.71600 24.62700
H  3.24600 16.87700 23.37000
H  2.93300 15.29500 23.87700
H  -0.71400 11.43700 27.06900
H  -0.83300 12.04800 25.45500
H  -2.31500 11.79300 26.46500
H  -3.37900 14.37400 30.78700
H  -0.53100 13.29500 34.26700
H  -1.21300 11.77000 33.68600
H  -2.08800 12.62400 34.83200
Mg 9.17600 48.70800 26.16600
C  6.81000 48.96600 28.82000
C  11.39300 50.41800 28.18900
C  11.30100 48.72500 23.60700
C  6.50300 47.93700 23.95900
N  9.08100 49.67700 28.18000
C  8.10000 49.56200 29.19400
C  8.56500 50.10800 30.55600
C  9.88600 50.75400 30.08600
C  10.15600 50.33900 28.74100
C  9.89800 52.30200 30.20600
C  8.88700 48.97800 31.63400
C  7.99900 49.16800 32.87400
H  8.60800 49.70100 34.15100
N  11.15500 49.30000 25.95100
C  11.88000 49.94700 26.94600
C  13.24900 50.07200 26.45200
C  13.26700 49.64700 25.10800
C  11.86600 49.14500 24.81500
C  14.36100 50.72500 27.21000
C  14.33900 49.46200 24.09800
O  14.16500 48.95300 23.00300
C  15.73000 49.70300 24.44000
N  8.94600 48.43500 24.08700
C  9.96200 48.49000 23.20900
C  9.60000 48.04600 21.76900
C  8.06500 47.69300 21.96400
C  7.80500 48.06900 23.37200
C  9.71500 49.13800 20.77000
C  7.75600 46.21800 21.70400
C  8.25800 45.13700 22.63600
N  7.12200 48.40000 26.28300
C  6.19300 48.11300 25.35000
C  4.88300 47.95300 26.01400
C  5.04800 48.13600 27.38300
C  6.44500 48.54500 27.52200
C  3.61400 47.58600 25.28700
C  4.49200 48.10700 28.74700
O  3.35000 47.92700 29.17700
C  5.59700 48.61700 29.68900
C  5.83200 47.45700 30.58100
O  6.46300 46.45100 30.30800
O  5.14300 47.66400 31.77700
C  5.39900 46.58200 32.65800
H  12.07800 50.92800 28.87000
H  11.85700 48.77600 22.66900
H  5.64100 47.85300 23.29400
H  7.97700 50.89200 31.03300
H  10.71600 50.45800 30.72800
H  10.86800 52.63500 30.57400
H  9.04900 52.62000 30.81100
H  9.71700 52.82900 29.26900
H  9.95600 49.00800 31.84700
H  8.71200 48.03900 31.10800
H  7.61000 48.17000 33.07900
H  7.15800 49.84300 32.71600
H  14.97000 51.34400 26.55100
H  14.89300 50.06800 27.89900
H  14.01100 51.61100 27.73900
H  15.83300 49.27200 25.43600
H  15.87500 50.78100 24.49400
H  16.49700 49.36000 23.74600
H  10.09100 47.12800 21.44500
H  7.29300 48.30100 21.49200
H  10.12600 49.98100 21.32600
H  8.74000 49.45900 20.40500
H  10.37400 48.86600 19.94600
H  8.22500 46.10000 20.72700
H  6.68000 46.19000 21.53300
H  8.61900 45.39800 23.63100
H  9.02300 44.59700 22.07700
H  7.50100 44.36300 22.76200
H  3.58000 47.91300 24.24700
H  2.80900 48.01300 25.88500
H  3.52000 46.50300 25.36800
H  5.34900 49.50700 30.26800
H  4.60100 45.84900 32.54700
H  5.30100 46.83800 33.71300
H  6.39400 46.14100 32.59100

