158

Mg 2.75100 -3.40600 45.19500
C  5.88200 -2.08900 44.10700
C  1.10500 -1.22600 43.12200
C  -0.06800 -5.43400 45.28400
C  4.52200 -5.95300 46.94000
N  3.44000 -1.92600 43.68400
C  4.73100 -1.42800 43.49300
C  4.67200 -0.10000 42.69500
C  3.16400 0.14000 42.41200
C  2.50700 -1.08800 43.20700
C  2.61900 1.62200 42.68800
C  5.55800 -0.21400 41.43900
C  6.59500 1.00300 41.20400
H  6.32500 1.97100 40.03700
N  0.73000 -3.33300 44.32500
C  0.24300 -2.33100 43.55500
C  -1.15000 -2.48700 43.29300
C  -1.47800 -3.70800 43.99400
C  -0.23800 -4.22400 44.54700
C  -1.94600 -1.69800 42.35100
C  -2.90900 -4.34600 44.00300
O  -3.82500 -3.74600 43.44700
C  -3.24200 -5.74100 44.64800
N  2.30300 -5.45200 46.02300
C  1.08000 -6.01400 45.88700
C  0.93000 -7.17300 46.92800
C  2.49900 -7.48400 47.20400
C  3.13900 -6.24300 46.70600
C  0.11600 -6.93100 48.20300
C  2.99100 -8.82500 46.65200
C  2.46700 -10.08900 47.42400
N  4.73800 -3.82500 45.66600
C  5.30900 -4.95100 46.39800
C  6.82800 -4.80200 46.34200
C  7.02700 -3.69900 45.54300
C  5.77800 -3.17300 45.02200
C  7.79300 -5.57000 47.07700
C  8.07000 -2.85700 44.94800
O  9.26100 -2.85100 45.15600
C  7.36500 -1.87700 43.95400
C  7.82300 -0.50400 44.36200
O  8.79200 0.02500 43.78200
O  7.15800 0.05000 45.39500
C  7.69300 1.23300 46.01200
H  0.66600 -0.50700 42.42800
H  -0.93000 -6.10400 45.27000
H  5.04400 -6.71300 47.52500
H  5.06300 0.68700 43.34100
H  2.95400 -0.13700 41.37900
H  3.47100 2.04400 43.22000
H  1.70800 1.57600 43.28400
H  2.45300 2.04800 41.69800
H  4.99900 -0.20400 40.50300
H  6.21200 -1.08500 41.44400
H  7.55100 0.54800 40.94300
H  6.69100 1.54100 42.14700
H  -1.42500 -0.78200 42.07300
H  -2.92500 -1.41700 42.73900
H  -2.16000 -2.17000 41.39200
H  -2.98400 -5.70700 45.70600
H  -2.71900 -6.50100 44.06800
H  -4.29400 -6.02700 44.61300
H  0.49600 -8.04100 46.43100
H  2.55500 -7.52700 48.29200
H  0.77300 -7.12300 49.05100
H  -0.81600 -7.49500 48.24200
H  -0.26300 -5.91300 48.11300
H  4.08000 -8.80500 46.69600
H  2.84300 -8.87500 45.57300
H  1.85300 -10.69900 46.76100
H  1.88100 -9.68300 48.24900
H  3.23600 -10.73300 47.85200
H  8.82600 -5.34000 46.81700
H  7.54700 -6.62700 47.17500
H  7.74400 -5.21800 48.10700
H  7.71100 -2.18700 42.96800
H  7.46600 1.22600 47.07800
H  7.15800 2.10600 45.64000
H  8.76900 1.20300 45.83600
Mg 48.96700 35.21600 28.48400
C  46.68000 33.87800 30.95000
C  49.12700 38.01600 30.61800
C  50.15500 37.03700 25.96200
C  48.20800 32.58100 26.44300
N  48.01400 35.78800 30.63000
C  47.24300 35.04200 31.47000
C  47.27900 35.56900 32.89600
C  47.71100 37.08400 32.61200
C  48.37200 36.98700 31.18400
C  46.51100 37.98700 32.61600
C  48.11400 34.66800 33.84600
C  49.09500 35.44700 34.96400
H  48.55500 36.54500 35.85300
N  49.73000 37.13400 28.34800
C  49.70100 38.08700 29.30700
C  50.46500 39.18100 28.88200
C  50.75700 39.01100 27.50900
C  50.16700 37.70800 27.19100
C  50.87300 40.18100 29.86200
C  51.36400 39.80700 26.46400
O  51.45500 39.45800 25.29600
C  52.16400 41.03800 26.85900
N  49.12500 34.90000 26.47400
C  49.70500 35.77100 25.62700
C  49.67200 35.22400 24.14800
C  49.16500 33.72900 24.32900
C  48.80800 33.69000 25.83800
C  48.85700 36.03500 23.06400
C  50.27800 32.64300 24.15800
C  49.98000 31.44300 23.25500
N  47.81800 33.57000 28.62500
C  47.68000 32.54600 27.74700
C  46.90700 31.46000 28.24300
C  46.44900 32.03400 29.41100
C  47.05900 33.29100 29.66600
C  46.52700 30.23000 27.57500
C  45.52400 31.69300 30.53000
O  44.89400 30.71000 30.78200
C  45.53800 32.96600 31.46900
C  45.71700 32.61700 32.91300
O  46.63400 31.95800 33.33500
O  44.65100 33.03100 33.68500
C  44.48600 32.64000 35.07400
H  49.01400 38.93300 31.19900
H  50.58900 37.54500 25.09800
H  48.06400 31.66600 25.86500
H  46.23500 35.69700 33.18400
H  48.42200 37.51200 33.31900
H  45.92200 37.60300 31.78300
H  46.80800 39.03000 32.50300
H  46.09200 37.90800 33.62000
H  48.81500 34.08500 33.24800
H  47.49600 34.12400 34.56100
H  49.95300 35.91800 34.48400
H  49.46400 34.71600 35.68400
H  51.15600 39.64800 30.76900
H  50.08400 40.86900 30.16800
H  51.63200 40.89700 29.54800
H  52.43500 41.78600 26.11400
H  53.02300 40.79000 27.48300
H  51.43300 41.64400 27.39400
H  50.73700 35.26200 23.92000
H  48.21500 33.45200 23.87400
H  49.57200 36.22300 22.26300
H  48.32600 36.93600 23.36900
H  48.20400 35.23700 22.71100
H  50.48700 32.24300 25.15000
H  51.17500 33.05400 23.69500
H  49.08400 31.66400 22.67500
H  49.51300 30.57900 23.72700
H  50.76300 31.26200 22.51900
H  46.67600 29.41400 28.28300
H  47.13900 30.05400 26.69000
H  45.47300 30.42200 27.37200
H  44.60600 33.52900 31.43700
H  44.78100 33.49000 35.68800
H  45.17400 31.82500 35.29800
H  43.45500 32.40400 35.33800

