158

Mg 35.90700 49.62800 25.63400
C  35.76300 47.96400 28.61500
C  34.14100 52.23900 27.07200
C  35.57400 50.91400 22.51400
C  37.02200 46.63700 24.02400
N  35.16500 50.09900 27.65200
C  35.20900 49.29200 28.74200
C  34.76000 50.01200 29.93000
C  34.17100 51.33400 29.46200
C  34.50100 51.17800 27.96900
C  32.70100 51.59900 29.85900
C  35.86800 50.15700 30.97600
C  35.31500 50.37900 32.38400
H  33.82800 50.27900 32.68500
N  35.10200 51.36400 24.92600
C  34.35300 52.29800 25.64300
C  33.97300 53.35400 24.70000
C  34.32100 52.93800 23.40400
C  34.91900 51.57800 23.58300
C  33.17400 54.53400 25.12800
C  34.11300 53.69200 22.11100
O  34.41900 53.27000 20.99700
C  33.38900 55.02000 22.06900
N  36.42100 48.91800 23.54100
C  36.18900 49.67400 22.49200
C  36.68100 49.06800 21.16400
C  37.30100 47.73500 21.66700
C  36.81800 47.71300 23.15700
C  35.52200 48.94600 20.09600
C  38.84200 47.50000 21.60600
C  39.74300 48.63300 22.24400
N  36.33100 47.76300 26.17200
C  36.84100 46.66200 25.48500
C  37.01400 45.55500 26.36100
C  36.66000 46.02600 27.61100
C  36.22900 47.35900 27.43900
C  37.46300 44.18900 25.94000
C  36.49600 45.68600 29.01200
O  36.62600 44.59400 29.55700
C  35.95700 46.93700 29.72200
C  34.72500 46.56700 30.37600
O  33.71100 46.11000 29.90700
O  34.88200 46.64900 31.77200
C  33.83800 45.97700 32.52800
H  33.65200 53.10300 27.52600
H  35.36400 51.27900 21.50700
H  37.36500 45.76700 23.46000
H  33.97400 49.33100 30.25800
H  34.71000 52.17500 29.89800
H  32.61500 52.45100 30.53400
H  32.29700 50.78700 30.46400
H  31.95500 51.77600 29.08500
H  36.52100 50.96200 30.64000
H  36.53900 49.29800 30.96100
H  35.65400 51.36300 32.70900
H  35.80100 49.78100 33.15400
H  33.36100 54.54000 26.20100
H  32.11600 54.31900 24.97900
H  33.45300 55.55700 24.87500
H  33.30600 55.44100 21.06700
H  33.91600 55.76200 22.66900
H  32.34100 54.95000 22.36200
H  37.37600 49.73100 20.64800
H  36.73600 46.93900 21.18400
H  34.60500 49.20700 20.62500
H  35.37500 47.95300 19.67100
H  35.68800 49.61300 19.25000
H  39.04800 47.34300 20.54700
H  39.06600 46.53500 22.06100
H  39.17900 49.36400 22.82400
H  40.43300 49.10100 21.54200
H  40.25700 48.12600 23.06000
H  38.37700 43.85700 26.43200
H  37.84000 44.22500 24.91800
H  36.64900 43.48500 26.11500
H  36.65800 47.10600 30.53900
H  33.78700 46.58900 33.42800
H  33.92100 44.92200 32.78900
H  32.84800 46.17200 32.11600
Mg 16.54600 51.31300 24.72500
C  18.20600 50.30100 27.69500
C  14.06900 52.54100 26.68000
C  14.93400 52.19400 21.81500
C  19.06400 49.98100 23.00400
N  16.17000 51.46200 26.95800
C  17.03400 51.03800 27.97000
C  16.52300 51.43900 29.34900
C  15.06400 51.82900 28.91600
C  15.05600 51.93900 27.43300
C  13.83500 50.92700 29.44300
C  17.33200 52.58500 29.99900
C  17.42400 52.60000 31.55300
H  16.31100 51.84900 32.23300
N  14.79300 52.32000 24.27200
C  13.90100 52.73800 25.21400
C  12.80400 53.32100 24.59400
C  13.03100 53.25600 23.17500
C  14.26200 52.61300 23.00700
C  11.60500 53.92800 25.29400
C  12.26600 53.81700 21.99100
O  12.70100 53.78000 20.90300
C  10.97700 54.47300 22.14700
N  16.87300 51.02200 22.73100
C  16.12300 51.45300 21.71800
C  16.73900 51.07300 20.36300
C  18.17000 50.65700 20.69200
C  18.02100 50.53800 22.23200
C  16.08600 50.04800 19.41000
C  19.29700 51.63100 20.31200
C  20.35500 51.05100 19.31900
N  18.22000 50.22000 25.18200
C  19.21000 49.76500 24.34700
C  20.27700 49.11400 25.02500
C  19.91000 49.34000 26.35500
C  18.66400 49.96600 26.39700
C  21.61100 48.61400 24.57500
C  20.32200 49.16200 27.75600
O  21.33600 48.59100 28.18500
C  19.16100 49.69800 28.67200
C  18.61100 48.56800 29.46600
O  18.15200 47.48200 29.10200
O  18.74300 48.95400 30.77000
C  18.42400 47.91700 31.83900
H  13.29400 52.95600 27.32800
H  14.51100 52.43500 20.83700
H  19.92400 49.59800 22.45000
H  16.54600 50.59600 30.03900
H  14.92300 52.83200 29.32000
H  13.30700 51.56500 30.15200
H  14.26500 50.16400 30.09100
H  13.33200 50.51500 28.56900
H  16.96000 53.57100 29.71900
H  18.36700 52.68100 29.67300
H  17.42700 53.63900 31.88400
H  18.38800 52.22500 31.89700
H  10.76600 53.23500 25.22700
H  11.37600 54.90100 24.86000
H  11.91300 54.16600 26.31200
H  10.36000 53.93800 22.86900
H  10.32500 54.34000 21.28400
H  11.04900 55.54800 22.31000
H  16.71800 51.96700 19.73900
H  18.38900 49.66000 20.31000
H  15.01600 50.04300 19.61900
H  16.44900 49.02900 19.54400
H  16.10000 50.40300 18.37900
H  19.85800 51.83800 21.22300
H  18.95000 52.58200 19.90700
H  21.32700 50.94500 19.80100
H  20.38100 51.67000 18.42200
H  19.95000 50.07500 19.04900
H  22.25100 49.42200 24.22000
H  21.50300 47.96200 23.70900
H  22.02900 47.93500 25.31800
H  19.51800 50.48000 29.34200
H  19.15400 47.10800 31.80700
H  17.40500 47.54900 31.72000
H  18.59800 48.43200 32.78400

