158

Mg 1.35900 8.51300 27.48100
C  2.12500 10.18200 30.34500
C  2.02100 5.50800 29.20500
C  1.28300 6.72600 24.55100
C  1.75800 11.41200 25.60200
N  1.84300 7.96100 29.59100
C  2.04800 8.80600 30.63700
C  2.05400 8.05100 31.98600
C  2.15400 6.50800 31.52900
C  2.09400 6.67100 29.98800
C  3.41000 5.73600 31.95700
C  0.78400 8.46300 32.90300
C  1.05600 9.00700 34.28100
H  2.26000 8.54100 35.09500
N  1.44100 6.47400 26.97800
C  1.72000 5.40600 27.83300
C  1.51100 4.15200 27.10400
C  1.09700 4.47000 25.74800
C  1.29000 5.92900 25.70800
C  1.82800 2.79300 27.72700
C  0.65800 3.57000 24.59800
O  0.20800 4.04800 23.55800
C  0.69600 2.13400 24.87600
N  1.46200 9.01000 25.31700
C  1.45300 8.10000 24.30400
C  1.85700 8.77000 22.94000
C  1.69600 10.31900 23.31500
C  1.61600 10.28800 24.82700
C  3.26800 8.18600 22.53700
C  0.58600 11.12000 22.58500
C  -0.88700 10.73300 23.10800
N  1.78000 10.46200 27.86900
C  1.86600 11.56000 27.02800
C  2.14000 12.74000 27.81700
C  2.22100 12.28000 29.15300
C  2.03800 10.87300 29.11400
C  2.37300 14.10300 27.19700
C  2.51800 12.66100 30.55600
O  2.79300 13.71800 31.12500
C  2.29500 11.35800 31.40000
C  3.48600 11.28400 32.27000
O  4.60500 10.93100 31.93800
O  3.21800 11.80400 33.50200
C  4.44700 12.00200 34.33100
H  2.05300 4.56800 29.76000
H  1.27700 6.14900 23.62400
H  1.76800 12.36200 25.06300
H  2.88300 8.30000 32.64800
H  1.23600 6.01400 31.84800
H  4.28700 6.37300 32.06500
H  3.73500 5.05200 31.17300
H  3.17800 5.00600 32.73300
H  0.09900 7.61700 32.96600
H  0.23500 9.25400 32.39300
H  0.14100 8.92400 34.86600
H  1.24400 10.07800 34.20300
H  0.92400 2.22600 27.94900
H  2.48300 2.83800 28.59700
H  2.37600 2.31800 26.91300
H  0.33900 1.39300 24.16100
H  0.06100 1.79300 25.69400
H  1.74300 1.83400 24.93600
H  1.10700 8.46000 22.21200
H  2.54900 10.95200 23.07000
H  3.27100 7.71500 21.55400
H  3.54700 7.40600 23.24600
H  3.99600 8.99600 22.58200
H  0.64000 10.73700 21.56600
H  0.82800 12.18000 22.66200
H  -1.57700 10.66600 22.26700
H  -1.21900 11.61000 23.66400
H  -0.97500 9.84200 23.72900
H  1.63800 14.22600 26.40100
H  3.40200 14.31200 26.90400
H  2.09300 14.72300 28.04800
H  1.35600 11.58000 31.90600
H  4.71800 13.04500 34.49800
H  5.34000 11.44500 34.04900
H  4.14000 11.66600 35.32200
Mg 48.47400 33.63100 26.72600
C  46.48500 32.23400 29.35400
C  48.80600 36.46400 28.63600
C  50.01000 34.94600 24.17600
C  47.48400 30.90100 24.73500
N  47.69500 34.24000 28.75300
C  47.10100 33.42900 29.71300
C  47.19200 34.14200 31.08500
C  47.57000 35.62400 30.67900
C  48.10300 35.42600 29.22700
C  46.35800 36.63700 30.75600
C  48.33200 33.52500 31.97100
C  48.15800 33.63900 33.56700
H  47.07900 34.46800 34.30600
N  49.26400 35.44100 26.36700
C  49.40400 36.42000 27.29200
C  50.17500 37.49000 26.70300
C  50.61300 37.03400 25.38000
C  49.98800 35.77000 25.25300
C  50.44300 38.77300 27.57700
C  51.35100 37.80500 24.29900
O  51.64000 37.27700 23.17600
C  51.84300 39.10700 24.52300
N  48.41200 33.18400 24.65600
C  49.30900 33.82600 23.88900
C  49.58500 33.10000 22.59100
C  48.86200 31.76300 22.83700
C  48.21500 31.92300 24.15600
C  49.11000 33.80200 21.31800
C  49.90100 30.54300 22.74600
C  49.93500 29.93200 21.37500
N  47.28000 31.96000 26.94400
C  46.97900 30.89500 26.04800
C  46.12700 29.82300 26.72100
C  45.90900 30.38800 27.99400
C  46.65200 31.65100 28.09600
C  45.58200 28.62800 26.09400
C  45.26100 30.11900 29.30600
O  44.64400 29.16800 29.71100
C  45.46400 31.42900 30.21700
C  45.93600 31.06500 31.63900
O  46.99800 30.60100 31.93700
O  44.93200 31.35500 32.55600
C  45.14200 30.64900 33.81300
H  48.98200 37.30300 29.31200
H  50.80600 35.08400 23.44200
H  47.42500 29.98200 24.14800
H  46.31300 34.15700 31.72900
H  48.35200 36.06800 31.29600
H  46.69600 37.55500 31.23700
H  45.54900 36.27200 31.38900
H  45.95800 36.87500 29.77100
H  49.35100 33.82900 31.73600
H  48.36400 32.46900 31.70300
H  49.17100 33.97800 33.78600
H  48.17100 32.62000 33.95200
H  49.57400 39.02100 28.18600
H  50.74800 39.64300 26.99600
H  51.29400 38.62100 28.24100
H  51.04600 39.78800 24.82300
H  52.23100 39.52300 23.59400
H  52.48800 38.96100 25.39000
H  50.67100 33.00700 22.62500
H  48.07900 31.45900 22.14200
H  48.04300 33.69600 21.12200
H  49.53000 33.56200 20.34100
H  49.19400 34.88100 21.44500
H  49.70300 29.72000 23.43300
H  50.93800 30.82500 22.92700
H  50.85400 30.25400 20.88600
H  49.06700 30.15500 20.75500
H  50.07800 28.85200 21.42900
H  46.34600 28.29900 25.38900
H  44.67200 28.92500 25.57300
H  45.30600 27.79700 26.74400
H  44.50700 31.94700 30.27300
H  45.87400 31.19000 34.41200
H  45.44700 29.62000 33.62500
H  44.19100 30.72200 34.34100

