158

Mg 2.07100 -1.87200 43.51900
C  5.46200 -0.79600 43.21800
C  0.97100 1.03400 42.13200
C  -1.14500 -3.04900 43.65900
C  3.17500 -4.92400 44.82800
N  3.11700 -0.16300 42.78600
C  4.49400 0.12900 42.86600
C  4.75000 1.54300 42.38500
C  3.29500 2.12000 42.10500
C  2.34800 0.96100 42.45900
C  2.90300 3.47100 42.83100
C  5.75600 1.60500 41.13500
C  6.40500 3.01600 41.08100
H  6.19700 3.77400 39.76600
N  0.15600 -1.03100 43.10300
C  -0.05100 0.15500 42.45800
C  -1.49600 0.38400 42.40800
C  -2.10600 -0.78400 42.94300
C  -1.00100 -1.72600 43.25000
C  -2.15900 1.69200 41.94500
C  -3.67400 -1.01700 43.09100
O  -4.45400 -0.13200 42.71300
C  -4.29300 -2.20500 43.71200
N  1.13500 -3.80700 43.95800
C  -0.15300 -4.04500 43.97500
C  -0.57500 -5.44400 44.48300
C  0.79600 -5.95200 44.92400
C  1.79800 -4.82200 44.54500
C  -1.70000 -5.41400 45.61500
C  1.20600 -7.31300 44.27900
C  1.57300 -8.44500 45.26200
N  3.92000 -2.79600 43.90200
C  4.18600 -3.93700 44.57300
C  5.61300 -4.09600 44.79800
C  6.19400 -2.88700 44.20900
C  5.13200 -2.13300 43.67500
C  6.27800 -5.30300 45.40800
C  7.43700 -2.23400 43.82300
O  8.60900 -2.61100 43.84300
C  6.99600 -0.80800 43.29600
C  7.54200 0.25800 44.14200
O  7.47700 0.21500 45.35600
O  7.98600 1.36900 43.48800
C  8.39200 2.50900 44.28600
H  0.62700 1.90500 41.57000
H  -2.16600 -3.43600 43.69900
H  3.57900 -5.75100 45.41600
H  5.14700 2.09600 43.23600
H  3.17900 2.32800 41.04100
H  2.23500 4.11300 42.25800
H  3.79800 4.01000 43.14300
H  2.30700 3.23100 43.71100
H  5.22800 1.52700 40.18400
H  6.53100 0.83800 41.13300
H  7.46900 2.90200 41.28900
H  5.93500 3.65100 41.83300
H  -2.60400 1.50200 40.96800
H  -1.40600 2.48000 41.95400
H  -2.86800 1.88500 42.75100
H  -5.26900 -1.86000 44.05200
H  -3.82300 -2.66900 44.57900
H  -4.57000 -2.95300 42.96800
H  -1.04200 -5.88700 43.60400
H  0.85800 -6.01100 46.01100
H  -1.29900 -5.45900 46.62700
H  -2.18700 -6.38800 45.65200
H  -2.34200 -4.54100 45.49700
H  2.16200 -7.15200 43.78100
H  0.34700 -7.53600 43.64500
H  2.51000 -8.93100 44.99100
H  0.85300 -9.26300 45.26700
H  1.53600 -8.06700 46.28400
H  7.25300 -4.99500 45.78600
H  6.36000 -6.12500 44.69800
H  5.61900 -5.58600 46.22900
H  7.51000 -0.68900 42.34200
H  8.88000 3.29600 43.71100
H  9.06200 2.27400 45.11400
H  7.47500 3.00100 44.61300
Mg 48.44600 34.67400 26.41600
C  46.22100 33.63300 29.03900
C  48.78900 37.74500 28.09100
C  50.12500 35.83600 23.82500
C  47.61800 31.73400 24.79800
N  47.68700 35.50100 28.34600
C  46.91600 34.85300 29.30100
C  46.95700 35.71200 30.59800
C  47.56400 37.10100 30.09300
C  48.15500 36.75000 28.79500
C  46.56100 38.28900 30.04000
C  47.86400 35.04600 31.67400
C  47.46200 35.15200 33.15400
H  46.36900 36.11000 33.47000
N  49.38600 36.52700 26.00300
C  49.44400 37.65100 26.84600
C  50.35400 38.65300 26.22700
C  50.93400 38.01500 25.06200
C  50.18200 36.77000 24.89100
C  50.68800 39.95100 26.84700
C  52.05300 38.46800 24.13000
O  52.49700 37.67300 23.29800
C  52.69400 39.73900 24.28800
N  48.85200 33.80200 24.56500
C  49.51000 34.57700 23.65400
C  49.59300 33.73200 22.36400
C  49.00500 32.36300 22.71700
C  48.49800 32.60400 24.08900
C  48.92700 34.37100 21.13100
C  49.94600 31.20200 22.66800
C  49.57000 30.16100 21.65000
N  47.15200 32.98800 26.73200
C  46.88300 31.92100 25.97600
C  45.87800 31.09100 26.52400
C  45.57300 31.77100 27.74700
C  46.32400 32.89000 27.80600
C  45.17800 29.80600 25.92900
C  44.70800 31.72900 28.96300
O  43.87400 30.86900 29.26600
C  45.09400 33.04600 29.82300
C  45.43500 32.39400 31.10200
O  46.54100 32.07900 31.42500
O  44.36800 32.36800 31.95500
C  44.53200 31.86800 33.30200
H  48.93900 38.67300 28.64700
H  50.76900 36.03800 22.96700
H  47.40200 30.81700 24.24600
H  45.98000 35.84000 31.06400
H  48.39100 37.53000 30.65900
H  45.51400 38.01700 30.17400
H  46.54200 38.65600 29.01400
H  46.78100 39.08800 30.74800
H  48.86700 35.47200 31.66400
H  47.94400 33.99900 31.38000
H  48.25700 35.53100 33.79600
H  47.12000 34.17500 33.49500
H  49.82300 40.31900 27.39900
H  50.96700 40.76100 26.17200
H  51.55000 39.85600 27.50700
H  52.92300 39.89000 25.34300
H  51.94000 40.41100 23.87600
H  53.68600 39.78400 23.83900
H  50.67000 33.59900 22.26700
H  48.07000 32.28400 22.16300
H  49.57000 35.17800 20.78000
H  48.05600 34.86700 21.55900
H  48.52800 33.68500 20.38300
H  49.77000 30.58300 23.54800
H  51.00700 31.42500 22.55700
H  50.38100 30.00100 20.94000
H  48.75500 30.45000 20.98600
H  49.33700 29.21800 22.14400
H  45.49000 29.71600 24.88900
H  44.09600 29.93300 25.97100
H  45.39600 28.96100 26.58200
H  44.23700 33.70600 29.95700
H  43.48200 31.70700 33.54600
H  45.06900 32.70400 33.75100
H  45.03300 30.90000 33.32000

