158

Mg 47.84000 34.05900 27.08300
C  45.91100 32.97500 29.93600
C  48.74600 36.84300 28.85500
C  49.05400 35.44500 24.25700
C  46.74900 31.24500 25.41600
N  47.37800 34.76900 29.09000
C  46.56700 34.25800 30.09600
C  46.61100 35.11000 31.36900
C  47.13800 36.41700 30.74600
C  47.82600 35.98800 29.45300
C  46.05400 37.52500 30.57000
C  47.50800 34.56600 32.56100
C  46.91800 34.91500 33.90100
H  47.87200 35.42000 35.00400
N  48.78600 35.90600 26.58000
C  49.20600 36.78400 27.54800
C  50.07400 37.76600 26.85200
C  50.26200 37.43300 25.49200
C  49.32300 36.22300 25.36900
C  50.66900 38.99700 27.52600
C  51.15500 38.05400 24.37500
O  51.11000 37.61600 23.20800
C  52.15700 39.18600 24.77800
N  47.74300 33.49200 25.20100
C  48.37300 34.20500 24.22600
C  48.09600 33.61500 22.82500
C  47.43500 32.27300 23.14200
C  47.21600 32.35900 24.68600
C  47.23100 34.48100 21.93200
C  48.47600 31.15300 22.80700
C  49.66200 30.74700 23.70200
N  46.74100 32.40600 27.51700
C  46.37600 31.27400 26.75800
C  45.55500 30.37500 27.48900
C  45.33100 31.02900 28.70200
C  46.05700 32.22800 28.69000
C  44.99700 29.08900 27.00600
C  44.55000 30.91400 30.01300
O  43.80800 29.99600 30.43200
C  44.82000 32.19900 30.70800
C  44.96600 32.00200 32.19500
O  45.97600 31.70800 32.73200
O  43.74800 31.92700 32.73100
C  43.81200 31.68900 34.23500
H  49.08400 37.65300 29.50500
H  49.52500 35.69600 23.30400
H  46.35900 30.38600 24.86400
H  45.58400 35.27800 31.69400
H  47.95300 36.84700 31.32700
H  45.99900 37.89400 29.54600
H  46.19900 38.43000 31.15900
H  45.10200 37.03100 30.76800
H  48.50000 35.01300 32.49000
H  47.75700 33.50800 32.48000
H  46.42500 34.00300 34.24000
H  46.05900 35.57800 33.79700
H  51.75500 38.92200 27.55800
H  50.27400 38.92500 28.53900
H  50.36700 39.95300 27.09600
H  52.92300 39.34300 24.01900
H  52.63900 38.83600 25.69100
H  51.79500 40.20100 24.94200
H  49.10200 33.51000 22.41900
H  46.50000 32.11000 22.60500
H  47.24200 35.50100 22.31800
H  46.22400 34.07000 21.86500
H  47.65400 34.47200 20.92800
H  49.01900 31.41900 21.90000
H  47.88000 30.25000 22.67800
H  49.74000 31.42900 24.54900
H  50.62800 30.89100 23.21900
H  49.42300 29.76500 24.11000
H  44.62600 28.43900 27.79800
H  45.68000 28.55100 26.34800
H  44.12600 29.24000 26.36800
H  43.91800 32.80600 30.63800
H  42.92600 32.20200 34.60900
H  44.61600 32.09400 34.85100
H  43.89100 30.61600 34.40900
Mg 30.67200 58.54300 40.58300
C  28.06300 56.49100 39.42800
C  32.99800 55.98600 39.81200
C  33.20700 60.80900 40.68700
C  28.37400 61.16500 40.71200
N  30.47400 56.43600 39.81800
C  29.32600 55.83000 39.32000
C  29.65300 54.44600 38.78800
C  31.17200 54.29200 39.36200
C  31.57000 55.68500 39.73900
C  31.32200 53.23400 40.49100
C  29.48200 54.27700 37.22100
C  28.34000 53.39400 36.69100
H  27.46100 54.02800 35.58900
N  32.86400 58.36700 40.35200
C  33.62000 57.20400 40.14100
C  34.96400 57.52500 40.20900
C  35.09900 58.95500 40.38600
C  33.67100 59.46500 40.50600
C  36.03200 56.50700 39.90300
C  36.37500 59.75400 40.34000
O  37.45300 59.20600 40.28100
C  36.31800 61.26000 40.35700
N  30.75200 60.59800 40.82500
C  31.88400 61.29100 40.95300
C  31.64600 62.86000 41.12400
C  30.11200 62.90400 41.15100
C  29.70300 61.45600 40.85900
C  32.22000 63.44600 42.47200
C  29.49800 63.92600 40.20100
C  28.31300 64.76900 40.78900
N  28.62300 58.82300 40.27700
C  27.81500 59.92500 40.36400
C  26.42900 59.54300 40.13000
C  26.51500 58.26200 39.80600
C  27.89300 57.82900 39.75300
C  25.23000 60.56400 40.16200
C  25.68900 57.12800 39.39900
O  24.46100 57.04500 39.37500
C  26.69100 55.94600 39.18100
C  26.20100 54.79600 40.03800
O  26.73800 54.31000 41.01900
O  25.01600 54.35400 39.56000
C  24.45900 53.12400 40.18800
H  33.62500 55.10900 39.63500
H  33.97400 61.58600 40.71900
H  27.73600 62.02500 40.93000
H  28.96100 53.79700 39.32300
H  31.85000 54.06500 38.54000
H  32.04400 52.55000 40.04500
H  30.47200 52.56900 40.64400
H  31.61800 53.64900 41.45500
H  30.36100 53.85400 36.73400
H  29.27000 55.21100 36.70100
H  27.62600 53.19500 37.49000
H  28.79900 52.46700 36.34700
H  35.64500 55.56100 39.52500
H  36.51000 56.24000 40.84600
H  36.81700 56.85700 39.23200
H  35.71100 61.71500 39.57400
H  37.33300 61.62200 40.19100
H  35.97200 61.41600 41.37800
H  31.92500 63.40800 40.22400
H  29.72600 63.15100 42.14000
H  33.16000 62.98200 42.77000
H  31.50300 63.24800 43.26900
H  32.54200 64.46300 42.24900
H  29.16700 63.34300 39.34100
H  30.21900 64.67200 39.86300
H  28.71200 65.70700 41.17500
H  27.81600 64.27000 41.62100
H  27.56900 64.93300 40.01000
H  24.34000 60.06800 39.77500
H  25.44900 61.37300 39.46400
H  25.08800 60.81300 41.21300
H  26.58600 55.72400 38.11900
H  23.91300 53.53700 41.03600
H  25.25900 52.47200 40.54200
H  23.78200 52.55900 39.54800

