158

Mg 24.65400 -7.91000 48.04800
C  27.19600 -6.01500 46.98600
C  22.70100 -6.65300 45.47600
C  22.50600 -10.33200 48.62300
C  27.07600 -9.78900 50.13700
N  24.99400 -6.58100 46.31000
C  26.05800 -5.70400 46.29400
C  25.77600 -4.67500 45.16200
C  24.25600 -4.73000 44.96600
C  23.90900 -6.04600 45.66200
C  23.48000 -3.46000 45.28300
C  26.53300 -4.93500 43.79800
C  26.88300 -3.66600 42.99200
H  26.18900 -3.50200 41.64200
N  22.82200 -8.35600 47.29400
C  22.11700 -7.69600 46.21400
C  20.86100 -8.31300 46.04400
C  20.85900 -9.51600 46.80700
C  22.08600 -9.44000 47.63100
C  19.82100 -7.60600 45.15400
C  19.83000 -10.49100 46.71600
O  18.79500 -10.32600 46.08600
C  19.94200 -11.82800 47.46200
N  24.79300 -9.87800 49.30300
C  23.63500 -10.60700 49.39800
C  23.91600 -11.86400 50.20100
C  25.34500 -11.67600 50.81500
C  25.76500 -10.37100 50.07200
C  22.80700 -12.39500 51.18900
C  26.41000 -12.78900 50.56200
C  27.31600 -12.94400 51.77100
N  26.73200 -7.94000 48.54400
C  27.54900 -8.75600 49.29900
C  28.89300 -8.21100 49.30900
C  28.75600 -7.12000 48.41200
C  27.44800 -7.04300 47.92500
C  30.08200 -8.80600 50.06300
C  29.55000 -6.01400 47.81600
O  30.74100 -5.83800 47.83600
C  28.51200 -5.22200 46.84200
C  28.27700 -3.88900 47.40100
O  27.35200 -3.50400 48.16000
O  29.26100 -3.02200 46.82200
C  29.17000 -1.67300 47.13000
H  22.03000 -6.24400 44.71800
H  21.85400 -11.18800 48.80600
H  27.79800 -10.04200 50.91600
H  25.95400 -3.73500 45.68400
H  24.10200 -4.83100 43.89200
H  24.16400 -2.80400 45.82000
H  22.63600 -3.77800 45.89400
H  23.11900 -2.89500 44.42200
H  25.97300 -5.60900 43.14900
H  27.46900 -5.43000 44.05400
H  27.96900 -3.57300 42.96100
H  26.41000 -2.86900 43.56600
H  19.82500 -6.56000 45.46200
H  18.80500 -7.89500 45.42400
H  19.95000 -7.72000 44.07800
H  20.83600 -12.34200 47.10900
H  19.01100 -12.35600 47.25600
H  19.95800 -11.71800 48.54700
H  23.94300 -12.66400 49.46100
H  25.22400 -11.53400 51.88900
H  22.08400 -11.61200 51.41700
H  23.20800 -12.67900 52.16200
H  22.27200 -13.25700 50.78900
H  26.96800 -12.45700 49.68600
H  25.92200 -13.73700 50.33200
H  26.58800 -12.78400 52.56600
H  28.13400 -12.24700 51.95400
H  27.65700 -13.97900 51.76500
H  29.77600 -8.74100 51.10700
H  30.93800 -8.15100 49.90100
H  30.22600 -9.86100 49.82900
H  28.99100 -5.25500 45.86400
H  30.16600 -1.24600 47.24700
H  28.65400 -1.44300 48.06200
H  28.78700 -1.07700 46.30200
Mg 41.23700 40.30200 26.89300
C  40.62200 43.14600 29.02300
C  42.02700 38.44800 29.72300
C  42.17500 37.90700 24.83100
C  40.85300 42.52700 24.14600
N  41.40200 40.76100 29.11600
C  41.00400 41.98500 29.78000
C  41.05000 41.74900 31.22200
C  41.51500 40.31100 31.46500
C  41.64900 39.78000 30.01200
C  42.68200 40.02500 32.46300
C  39.84200 42.27500 31.97300
C  39.59400 41.61500 33.36400
H  38.83800 42.51100 34.33500
N  41.84800 38.42700 27.23500
C  42.09200 37.86000 28.46400
C  42.50500 36.50500 28.25400
C  42.49000 36.33500 26.82400
C  42.24800 37.59300 26.20900
C  42.88900 35.55400 29.35600
C  42.87000 34.99200 26.04600
O  42.98400 34.89200 24.81600
C  43.08000 33.73000 26.81700
N  41.27400 40.19700 24.81900
C  41.83000 39.15400 24.19600
C  41.82600 39.35500 22.67600
C  41.08600 40.71500 22.46700
C  41.03100 41.18600 23.92000
C  43.18600 39.24500 22.00000
C  39.59700 40.64400 22.03300
C  38.59800 39.90200 22.95000
N  40.82300 42.41300 26.60400
C  40.75800 43.17200 25.40400
C  40.37300 44.47200 25.76700
C  40.25100 44.51300 27.13800
C  40.60400 43.27600 27.59300
C  40.08300 45.52100 24.84400
C  39.93300 45.39000 28.31500
O  39.42300 46.51300 28.39800
C  40.31100 44.59300 29.53400
C  41.49600 45.14300 30.22100
O  42.69300 44.97700 29.91000
O  41.10100 45.80700 31.33100
C  42.21000 46.26800 32.20400
H  42.15200 37.78000 30.57800
H  42.36200 37.12500 24.09300
H  40.68100 43.14500 23.26300
H  41.81000 42.43500 31.59500
H  40.69100 39.75600 31.91500
H  43.48000 39.69300 31.79900
H  42.32100 39.33100 33.22200
H  42.92400 40.91600 33.04200
H  38.99500 42.04600 31.32600
H  39.87600 43.36100 32.06600
H  40.46300 41.11600 33.79100
H  39.02900 40.77100 32.96700
H  42.44200 34.56400 29.44400
H  42.57800 35.82700 30.36400
H  43.97200 35.55300 29.48000
H  43.91200 33.83100 27.51400
H  43.33800 32.98200 26.06700
H  42.17700 33.46200 27.36600
H  41.28000 38.55900 22.16900
H  41.63700 41.36700 21.78900
H  44.07500 39.23000 22.63100
H  43.38900 40.08100 21.33100
H  43.24300 38.27600 21.50400
H  39.60100 40.09100 21.09400
H  39.13600 41.63100 22.05500
H  39.10000 39.04700 23.40200
H  37.82900 39.45100 22.32300
H  38.06400 40.62800 23.56300
H  40.96500 45.98800 24.40600
H  39.65900 46.37800 25.36600
H  39.43300 45.17500 24.04100
H  39.49800 44.47400 30.25100
H  42.58200 45.45000 32.82000
H  41.87900 47.05400 32.88400
H  42.91700 46.88700 31.65200

