158

Mg 1.03700 8.28300 26.83400
C  1.80900 10.50900 29.35400
C  1.44500 5.70300 29.29700
C  0.72400 6.00900 24.44600
C  1.06800 10.88500 24.57000
N  1.52100 8.15600 29.05200
C  1.61900 9.23600 29.84000
C  1.38000 8.77100 31.32100
C  1.58400 7.26000 31.29000
C  1.47600 7.03200 29.81200
C  2.95700 6.77600 31.81700
C  -0.04400 9.31400 31.72600
C  -0.19100 9.31000 33.28500
H  0.98500 8.78300 34.18600
N  1.05600 6.16600 26.81500
C  1.17500 5.28900 27.87700
C  1.05300 3.91000 27.47100
C  1.01900 4.02700 26.01400
C  0.90900 5.46000 25.68500
C  1.09100 2.74600 28.41400
C  1.19000 2.93400 24.95900
O  1.26700 3.14100 23.76900
C  1.38400 1.50700 25.43700
N  1.10800 8.44500 24.74000
C  0.73900 7.34800 23.97500
C  0.39100 7.76500 22.52800
C  0.30800 9.36200 22.64300
C  0.86500 9.59600 24.05500
C  1.39000 7.31400 21.42400
C  -1.04400 10.03000 22.34000
C  -0.92500 11.16500 21.25800
N  1.48600 10.29500 26.92000
C  1.50600 11.19800 25.94900
C  1.93900 12.51600 26.47500
C  2.08200 12.32500 27.90400
C  1.79700 10.92100 28.03300
C  2.29200 13.78900 25.65900
C  2.49000 12.85700 29.16300
O  2.96300 13.93600 29.45400
C  2.16800 11.68400 30.18500
C  3.32300 11.51400 31.04900
O  4.35500 10.91700 30.80400
O  3.14700 12.24500 32.21300
C  4.18600 12.29600 33.28600
H  1.34600 4.91000 30.04100
H  0.39700 5.29500 23.68700
H  0.97000 11.67600 23.82300
H  2.10700 9.30600 31.93300
H  0.84800 6.70400 31.87100
H  2.80400 6.09500 32.65500
H  3.56800 7.65400 32.02900
H  3.47900 6.20300 31.05100
H  -0.72800 8.52300 31.41800
H  -0.41800 10.25900 31.33200
H  -1.03900 8.67900 33.55200
H  -0.42200 10.35900 33.47000
H  1.10100 3.08200 29.45100
H  2.03900 2.21900 28.31100
H  0.25900 2.06600 28.23200
H  0.43500 0.99400 25.59400
H  2.09200 1.58700 26.26100
H  1.92700 0.92700 24.69100
H  -0.58600 7.38600 22.22900
H  1.12700 9.74600 22.03500
H  2.34800 7.10400 21.89800
H  1.64500 8.00000 20.61700
H  0.90800 6.45900 20.95000
H  -1.25900 10.61400 23.23500
H  -1.85100 9.34900 22.06900
H  -0.88200 12.05900 21.88000
H  -1.71000 11.26200 20.50800
H  -0.02600 11.04200 20.65300
H  3.14000 14.33300 26.07700
H  1.51500 14.54900 25.57800
H  2.44000 13.51700 24.61400
H  1.31000 12.08200 30.72600
H  4.08400 13.20900 33.87200
H  5.17600 12.23600 32.83300
H  4.03600 11.49200 34.00600
Mg 35.88400 48.35500 24.44900
C  36.07700 46.57000 27.41300
C  34.70200 51.10400 26.26000
C  35.37500 49.95900 21.58300
C  36.90100 45.42900 22.75500
N  35.11700 48.66200 26.54500
C  35.50300 47.85800 27.60100
C  35.28000 48.53200 28.97400
C  34.62700 49.88100 28.55000
C  34.91600 49.91900 27.03400
C  33.10500 50.16100 28.92700
C  36.65400 48.75000 29.73400
C  36.74500 48.55000 31.17900
H  35.45400 48.67200 31.97700
N  35.19700 50.31100 23.97800
C  34.83400 51.27800 24.86100
C  34.51500 52.48300 24.16700
C  34.60900 52.14000 22.75900
C  35.07600 50.77100 22.65600
C  34.10900 53.83300 24.88900
C  34.35500 52.95900 21.46200
O  34.44500 52.64000 20.29200
C  33.87100 54.31200 21.79800
N  35.99600 47.72200 22.42100
C  35.81600 48.60100 21.48500
C  36.20500 47.99000 20.07900
C  36.52600 46.45800 20.40100
C  36.48400 46.54800 21.95800
C  35.11200 48.15700 19.01200
C  37.76900 45.89900 19.81400
C  39.06200 46.41300 20.30300
N  36.44400 46.37200 24.92100
C  36.86000 45.38700 24.17300
C  37.32100 44.32100 25.04400
C  37.01700 44.73300 26.35500
C  36.42500 46.00900 26.19100
C  37.78500 42.99800 24.62600
C  37.01600 44.40100 27.70500
O  37.38400 43.36600 28.26100
C  36.42600 45.57000 28.56200
C  35.39600 44.99400 29.39900
O  34.18200 44.95800 29.20600
O  35.93400 44.66500 30.56800
C  35.00200 44.66800 31.67100
H  34.37600 51.98900 26.81200
H  35.01300 50.39600 20.65000
H  37.26200 44.52700 22.25600
H  34.63500 47.84300 29.51900
H  35.15300 50.72600 28.99500
H  32.66000 50.81400 28.17600
H  33.26200 50.74100 29.83600
H  32.50700 49.25300 28.99900
H  37.10300 49.72600 29.55200
H  37.41700 48.16800 29.21800
H  37.50100 49.22700 31.57500
H  37.10900 47.52500 31.25700
H  34.96400 54.47300 24.67200
H  34.06900 53.60600 25.95400
H  33.17700 54.33300 24.62700
H  34.73100 54.85300 22.19200
H  33.00600 54.27900 22.46100
H  33.47200 54.80900 20.91400
H  37.13700 48.41200 19.70300
H  35.66600 45.80000 20.27100
H  34.39100 48.93900 19.24900
H  34.61500 47.20500 18.82600
H  35.64000 48.37900 18.08500
H  37.50100 46.14300 18.78600
H  37.78600 44.82300 19.98500
H  39.62700 46.77600 19.44500
H  39.80400 45.69900 20.66300
H  39.04800 47.19400 21.06400
H  38.84600 42.94600 24.87200
H  37.68400 42.81200 23.55700
H  37.22600 42.16200 25.04700
H  37.19000 45.98300 29.22100
H  34.41600 43.75400 31.57000
H  34.40000 45.57600 31.69000
H  35.54700 44.67100 32.61500

