158

Mg 9.04200 4.24300 27.93500
C  10.23200 2.41300 30.55000
C  7.09100 6.19000 29.99200
C  7.92300 6.00700 25.14200
C  10.46000 1.82200 25.74800
N  8.67100 4.29200 30.04700
C  9.37100 3.49800 30.94400
C  8.93400 3.94100 32.42300
C  7.80000 5.03200 32.21300
C  7.84700 5.17400 30.63600
C  6.38900 4.58100 32.72000
C  10.16300 4.41600 33.29300
C  9.83500 5.08800 34.70900
H  10.28200 4.37900 36.00300
N  7.65700 5.93000 27.63700
C  7.05900 6.64200 28.58200
C  6.33300 7.74500 28.02200
C  6.51700 7.70500 26.63200
C  7.43800 6.55100 26.37400
C  5.58800 8.72100 28.83100
C  5.94800 8.65100 25.61700
O  6.24400 8.62600 24.44000
C  4.93500 9.70000 25.95100
N  9.02700 3.88200 25.82100
C  8.61400 4.74200 24.89700
C  9.05700 4.35600 23.47200
C  9.57400 2.99600 23.69800
C  9.73000 2.87300 25.22500
C  7.91300 4.40500 22.45600
C  10.79600 2.61500 22.83100
C  10.65100 1.36600 21.93900
N  10.05800 2.51200 28.05400
C  10.65700 1.68300 27.10700
C  11.45900 0.66100 27.71900
C  11.46400 0.99300 29.08300
C  10.54800 2.08100 29.24400
C  12.17600 -0.55900 26.99600
C  11.94500 0.55500 30.38100
O  12.70100 -0.30400 30.68400
C  11.20500 1.49500 31.36900
C  10.51100 0.73600 32.46000
O  9.42000 0.13500 32.40800
O  11.27700 0.81600 33.56600
C  10.60300 0.33200 34.73600
H  6.53400 6.63900 30.81800
H  7.70500 6.71800 24.34200
H  10.87000 1.13000 25.01000
H  8.41100 3.07100 32.82200
H  7.99100 6.04600 32.56300
H  6.41900 3.55000 33.07100
H  5.65900 4.68300 31.91700
H  6.05000 5.25400 33.50900
H  10.69900 5.03900 32.57700
H  10.81900 3.55000 33.37700
H  8.79300 5.39500 34.79200
H  10.29500 6.07600 34.75500
H  5.74400 9.75200 28.51400
H  5.85900 8.70000 29.88700
H  4.54300 8.42800 28.73600
H  4.57600 10.05900 24.98600
H  5.44900 10.48200 26.51100
H  4.16800 9.24500 26.57700
H  9.94400 4.95900 23.28000
H  8.73800 2.36700 23.39100
H  7.17300 5.18600 22.63200
H  7.45700 3.47800 22.10900
H  8.39500 4.73100 21.53400
H  11.64200 2.48700 23.50600
H  10.93900 3.45900 22.15700
H  11.34700 0.56200 22.17900
H  10.62200 1.63400 20.88300
H  9.68900 0.87800 22.09900
H  12.95500 -1.03300 27.59300
H  12.47700 -0.16600 26.02500
H  11.38500 -1.30100 26.88100
H  11.99700 2.12800 31.77100
H  9.74100 0.87300 35.12600
H  11.22900 0.48000 35.61500
H  10.34800 -0.72700 34.71600
Mg -9.39000 39.16400 40.39300
C  -8.00900 36.09400 39.08500
C  -6.32100 40.54300 39.72600
C  -10.96000 42.20400 40.29400
C  -12.60600 37.71900 40.03700
N  -7.34900 38.27900 39.65500
C  -7.01800 37.09000 39.22000
C  -5.56800 36.92800 38.85700
C  -5.02200 38.36800 39.39400
C  -6.29200 39.11800 39.68200
C  -4.05400 38.46600 40.56900
C  -5.22900 36.60600 37.38900
C  -5.75700 37.30100 36.10200
H  -6.58300 36.43200 35.10200
N  -8.66900 41.13200 40.23200
C  -7.39300 41.47700 39.97800
C  -7.31700 42.89900 39.80500
C  -8.58800 43.37400 40.21400
C  -9.47600 42.22400 40.29900
C  -6.15300 43.58800 39.41400
C  -8.92200 44.80500 40.49200
O  -8.12100 45.62900 40.12500
C  -10.16300 45.29800 41.24100
N  -11.57500 39.85000 40.29600
C  -11.92700 41.14600 40.32000
C  -13.38500 41.35400 40.50300
C  -13.96800 39.91400 40.31900
C  -12.65500 39.11000 40.27900
C  -13.74300 42.18000 41.74200
C  -14.77500 39.77500 39.00900
C  -14.14800 39.14400 37.77600
N  -10.14500 37.21200 39.98600
C  -11.45700 36.84400 39.85500
C  -11.55300 35.46500 39.58700
C  -10.19800 35.14900 39.28100
C  -9.41400 36.26800 39.46200
C  -12.84700 34.62800 39.55000
C  -9.31000 34.04100 38.95500
O  -9.56400 32.87000 38.76000
C  -7.81800 34.60700 38.78000
C  -6.95800 33.87000 39.67400
O  -7.18800 33.83800 40.88800
O  -5.79800 33.50300 38.98800
C  -4.76600 32.68200 39.62300
H  -5.34100 41.01400 39.62800
H  -11.53900 43.12900 40.32700
H  -13.61400 37.30000 40.05200
H  -5.11100 36.23500 39.56300
H  -4.52800 38.93700 38.60700
H  -3.30900 37.69400 40.37600
H  -4.41200 38.21100 41.56600
H  -3.61700 39.45000 40.74100
H  -5.24900 35.51600 37.39900
H  -4.14800 36.73600 37.33100
H  -4.98500 37.86400 35.57800
H  -6.52600 37.97000 36.48800
H  -6.39400 44.19400 38.54100
H  -5.37700 42.89200 39.09400
H  -5.82500 44.20700 40.24900
H  -10.72300 44.62400 41.88800
H  -10.84500 45.76900 40.53300
H  -9.80900 46.02400 41.97200
H  -13.69500 42.03000 39.70600
H  -14.61800 39.62000 41.14300
H  -14.47700 41.76200 42.43200
H  -14.11300 43.19100 41.56800
H  -12.86600 42.38400 42.35600
H  -15.06300 40.78200 38.70600
H  -15.58000 39.10800 39.31700
H  -13.09000 39.40500 37.79600
H  -14.60700 39.61600 36.90700
H  -14.16600 38.07600 37.55900
H  -12.61800 33.59800 39.27800
H  -13.50800 34.99200 38.76400
H  -13.28000 34.70600 40.54800
H  -7.40000 34.45200 37.78500
H  -5.29500 32.09300 40.37100
H  -3.95300 33.20300 40.12800
H  -4.42100 31.96500 38.87800

