158

Mg -1.73300 34.56600 26.33300
C  -3.28900 32.62600 28.86600
C  -0.67200 36.74900 28.73900
C  -0.74400 36.59000 23.89700
C  -3.45600 32.55800 23.98100
N  -2.21700 34.87200 28.59700
C  -2.60000 33.79700 29.37800
C  -2.35600 34.15000 30.83300
C  -1.68000 35.62700 30.73600
C  -1.44500 35.73600 29.27900
C  -2.46200 36.75400 31.37600
C  -1.40500 33.11200 31.53900
C  -2.04700 32.47600 32.76000
H  -1.11100 32.15900 33.97000
N  -0.79700 36.47800 26.28000
C  -0.35800 37.19400 27.33900
C  0.61900 38.19800 26.91000
C  0.55700 38.15600 25.46700
C  -0.33400 37.03400 25.17900
C  1.41800 39.04400 27.92100
C  1.37900 38.98800 24.37000
O  1.46000 38.76400 23.18300
C  2.17900 40.15800 24.84400
N  -2.18700 34.63100 24.15700
C  -1.61700 35.53700 23.41600
C  -1.81500 35.29600 21.85500
C  -2.39500 33.82200 21.95600
C  -2.69200 33.66300 23.46500
C  -2.49600 36.43900 21.02200
C  -1.47000 32.73800 21.40800
C  -0.14400 32.42300 22.17700
N  -3.09000 32.90300 26.30700
C  -3.60200 32.14500 25.33500
C  -4.21100 30.98600 25.82900
C  -4.16400 31.19900 27.21100
C  -3.44700 32.31300 27.48000
C  -5.05200 30.00800 25.11300
C  -4.54300 30.61100 28.47400
O  -5.18300 29.64700 28.75200
C  -3.92700 31.44700 29.58800
C  -4.92100 31.89700 30.57200
O  -5.77200 32.78000 30.43100
O  -4.74500 31.29200 31.76500
C  -5.60600 31.65400 32.92500
H  -0.19900 37.18800 29.62000
H  -0.49900 37.31200 23.11500
H  -3.88500 31.86300 23.25600
H  -3.32300 34.11300 31.33500
H  -0.68500 35.66400 31.17900
H  -3.30800 36.32900 31.91600
H  -2.90200 37.41400 30.62900
H  -1.85500 37.35200 32.05600
H  -0.44400 33.54200 31.82000
H  -1.23100 32.37300 30.75700
H  -2.50000 31.53700 32.44200
H  -2.85400 33.01800 33.25400
H  2.46200 39.08000 27.60900
H  1.42000 38.53400 28.88400
H  1.03000 40.06100 27.98800
H  1.50400 40.72900 25.48200
H  2.56200 40.64700 23.94800
H  2.94400 39.79300 25.53000
H  -0.77000 35.25600 21.54900
H  -3.35600 33.79300 21.44100
H  -1.95400 36.64600 20.09900
H  -2.46300 37.37500 21.58100
H  -3.53600 36.20800 20.78900
H  -1.21200 32.83200 20.35300
H  -1.99700 31.79300 21.53900
H  -0.17800 31.42600 22.61700
H  0.05300 33.04400 23.05100
H  0.62300 32.46300 21.40300
H  -5.00400 29.97900 24.02400
H  -6.10500 30.23300 25.27900
H  -4.76800 29.04600 25.53900
H  -3.27600 30.79900 30.17400
H  -4.94600 32.11400 33.66000
H  -6.10700 30.71300 33.15500
H  -6.33100 32.42900 32.67500
Mg -4.93300 24.93900 25.46700
C  -3.35800 26.41000 28.21500
C  -6.40000 22.74600 27.60800
C  -6.37100 23.49100 22.73000
C  -2.93200 26.89300 23.23700
N  -4.59400 24.39000 27.67400
C  -4.14600 25.29100 28.58300
C  -4.73800 24.93700 30.05000
C  -5.33400 23.47800 29.87200
C  -5.48100 23.50600 28.29500
C  -4.48700 22.33400 30.44100
C  -5.64100 26.07000 30.59300
C  -5.40400 26.63300 32.04600
H  -5.10300 25.51200 33.09300
N  -6.20000 23.37300 25.18600
C  -6.76100 22.59700 26.20200
C  -7.87900 21.82000 25.69300
C  -7.81500 21.98800 24.34500
C  -6.68400 22.95200 24.03100
C  -8.83300 20.96900 26.52200
C  -8.78200 21.41600 23.23900
O  -8.59800 21.63800 22.07000
C  -9.93600 20.52200 23.61000
N  -4.65600 25.11700 23.30900
C  -5.39700 24.45000 22.39700
C  -5.18300 24.96400 20.92600
C  -4.01900 25.98900 21.07100
C  -3.82900 26.04600 22.62200
C  -4.98000 23.72100 20.07800
C  -4.11000 27.38100 20.30600
C  -5.37700 28.19000 20.74600
N  -3.43000 26.21600 25.62000
C  -2.76000 27.02200 24.66200
C  -1.89000 28.00700 25.31300
C  -2.03400 27.73900 26.72600
C  -3.02200 26.71500 26.85400
C  -1.07700 29.11700 24.73300
C  -1.64200 28.19100 28.07600
O  -0.87000 29.03600 28.44200
C  -2.52500 27.36700 29.08100
C  -1.62000 26.55600 29.98100
O  -1.27900 25.39700 29.83200
O  -1.21200 27.31100 31.06900
C  -0.57800 26.65600 32.17200
H  -6.93100 22.05000 28.25900
H  -6.99000 23.26400 21.85900
H  -2.24400 27.47700 22.62100
H  -3.88000 24.94900 30.72200
H  -6.31400 23.45100 30.34800
H  -3.50500 22.66900 30.77500
H  -4.49300 21.58800 29.64700
H  -5.06600 21.96500 31.28700
H  -6.70300 25.82300 30.61100
H  -5.44100 26.90800 29.92600
H  -6.32900 27.10900 32.37200
H  -4.52000 27.27100 32.03700
H  -9.81800 21.39500 26.71100
H  -8.38400 20.77200 27.49600
H  -8.98000 19.99300 26.05900
H  -10.61500 20.96300 24.34000
H  -9.61300 19.57600 24.04600
H  -10.41400 20.20000 22.68500
H  -6.07500 25.41800 20.49300
H  -3.06700 25.57700 20.73800
H  -4.42400 22.97500 20.64500
H  -4.31100 24.02200 19.27100
H  -5.91200 23.30900 19.69100
H  -4.14500 27.07000 19.26200
H  -3.14600 27.84300 20.51900
H  -6.11400 28.22600 19.94500
H  -5.26100 29.25200 20.96100
H  -5.79800 27.64800 21.59400
H  -1.23000 30.04300 25.28600
H  -1.38100 29.37900 23.72000
H  -0.02200 28.85900 24.83100
H  -3.10300 28.06700 29.68400
H  -0.15300 25.70100 31.86300
H  -1.31000 26.65400 32.97900
H  0.24400 27.32700 32.42300

