158

Mg -1.71100 17.58600 26.54800
C  -2.43700 15.10700 28.98100
C  -2.62900 19.87900 28.89000
C  -1.83700 19.92400 24.09800
C  -2.05500 15.05100 24.15100
N  -2.31300 17.54600 28.67200
C  -2.42400 16.41900 29.51500
C  -2.79100 16.75100 30.96100
C  -2.85500 18.36000 30.82900
C  -2.66600 18.61600 29.40900
C  -4.06000 19.12200 31.45800
C  -1.68200 16.27000 31.90800
C  -1.28400 17.12400 33.15900
H  -0.78100 16.43000 34.43700
N  -2.09500 19.68500 26.53900
C  -2.41000 20.42700 27.62100
C  -2.57600 21.74700 27.30000
C  -2.42600 21.78600 25.85900
C  -2.09900 20.43500 25.42100
C  -2.88400 22.86200 28.33800
C  -2.71000 22.98300 24.84100
O  -2.63400 22.76500 23.60600
C  -3.01800 24.28100 25.39500
N  -1.82100 17.52800 24.41900
C  -1.68900 18.63600 23.62400
C  -1.54800 18.14800 22.14600
C  -1.55600 16.61800 22.21300
C  -1.87200 16.36900 23.68100
C  -2.67000 18.66000 21.21500
C  -0.22000 15.85300 21.98400
C  -0.38400 14.55400 21.12600
N  -1.86100 15.49100 26.55100
C  -2.06600 14.60700 25.48800
C  -2.19000 13.21700 25.96700
C  -2.39500 13.40000 27.34800
C  -2.24900 14.78900 27.64200
C  -2.19700 12.03000 25.11900
C  -2.66400 12.65500 28.51600
O  -2.82800 11.46900 28.67800
C  -2.56400 13.78900 29.70000
C  -1.44000 13.39800 30.61300
O  -0.27200 13.65500 30.54300
O  -1.88000 12.46600 31.53500
C  -1.00100 12.16200 32.66800
H  -2.83700 20.59000 29.69200
H  -1.57500 20.65700 23.33200
H  -2.02400 14.31200 23.34700
H  -3.71400 16.31900 31.34800
H  -1.97500 18.78100 31.31700
H  -4.72900 18.31100 31.74500
H  -4.61400 19.87800 30.90100
H  -3.75500 19.58300 32.39800
H  -0.72400 16.16300 31.40000
H  -2.11600 15.34500 32.28800
H  -2.10300 17.74900 33.51500
H  -0.46500 17.77800 32.86000
H  -3.84200 23.33700 28.12500
H  -2.04400 23.55500 28.38800
H  -2.85300 22.44300 29.34300
H  -3.10800 24.98900 24.57200
H  -2.26000 24.56600 26.12400
H  -3.98000 24.32500 25.90600
H  -0.58700 18.55800 21.83800
H  -2.35500 16.20900 21.59400
H  -3.26000 19.47600 21.63200
H  -3.32900 17.83500 20.94600
H  -2.04700 19.01200 20.39300
H  0.24500 15.57900 22.93100
H  0.52600 16.45400 21.46500
H  -1.41200 14.19600 21.07100
H  0.29000 13.71700 21.30900
H  -0.18400 14.66900 20.06100
H  -3.25600 11.87000 24.91500
H  -1.74700 11.17000 25.61500
H  -1.62000 12.22300 24.21500
H  -3.40700 13.66000 30.37900
H  -0.22000 12.90500 32.83200
H  -0.55900 11.16700 32.63800
H  -1.61100 12.30500 33.56000
Mg 6.59800 53.96900 41.79200
C  5.71200 50.72300 41.16600
C  9.71700 53.43600 40.42100
C  7.13300 57.35200 41.81100
C  3.20900 54.67200 42.74400
N  7.53100 52.31800 40.81900
C  7.02800 51.05900 40.60600
C  8.11200 50.09000 40.10100
C  9.44800 50.90500 40.35500
C  8.89600 52.29300 40.51800
C  10.32400 50.49900 41.58100
C  7.92500 49.60900 38.65600
C  6.95800 50.46800 37.77000
H  7.51900 51.39400 36.71400
N  8.13900 55.18000 41.31000
C  9.38800 54.72900 40.82400
C  10.28200 55.88800 40.60100
C  9.54700 57.00900 41.04000
C  8.22600 56.56900 41.40300
C  11.59600 55.87100 39.93100
C  10.18200 58.38200 41.23800
O  11.27100 58.73900 40.88400
C  9.43900 59.50900 41.92500
N  5.28700 55.75500 42.07500
C  5.81600 56.97400 42.10700
C  4.77900 58.08700 42.43400
C  3.42300 57.26400 42.44700
C  3.95600 55.79200 42.36800
C  5.05700 58.80000 43.79200
C  2.49100 57.65000 41.27200
C  0.96600 57.73400 41.53500
N  4.81300 52.98000 41.81700
C  3.51700 53.32200 42.39200
C  2.76200 52.12100 42.59000
C  3.53400 51.12500 41.99800
C  4.77700 51.74100 41.62100
C  1.42100 51.97800 43.21800
C  3.57200 49.70300 41.74400
O  2.75200 48.80900 41.99900
C  5.02700 49.37200 41.30300
C  4.97000 48.55400 40.04800
O  4.63200 48.87800 38.94400
O  5.28800 47.30400 40.38200
C  5.32500 46.25100 39.38000
H  10.72700 53.21000 40.07400
H  7.25900 58.43400 41.73600
H  2.22500 54.93300 43.14100
H  8.10200 49.25600 40.80300
H  10.14600 50.85400 39.51800
H  11.32700 50.27900 41.21600
H  9.95600 49.60000 42.07600
H  10.43800 51.30500 42.30700
H  7.67500 48.56000 38.81300
H  8.90700 49.54900 38.18700
H  6.25100 50.99800 38.40800
H  6.44500 49.66700 37.23800
H  11.48900 54.99300 39.29400
H  12.49700 55.70400 40.52000
H  11.64300 56.73600 39.26900
H  8.72200 59.97900 41.25200
H  10.23500 60.22800 42.11900
H  8.97300 59.19400 42.85800
H  4.80500 58.76500 41.58100
H  2.81400 57.35500 43.34700
H  4.24300 58.57800 44.48300
H  5.26300 59.85100 43.59100
H  5.94400 58.29900 44.18000
H  2.54200 56.84000 40.54500
H  2.79900 58.54900 40.73900
H  0.42900 57.53000 40.60900
H  0.72400 58.74500 41.86400
H  0.70200 56.99300 42.28900
H  1.40300 50.95700 43.60000
H  0.53200 52.00600 42.58800
H  1.30900 52.78600 43.94000
H  5.48700 48.85900 42.14700
H  4.42600 45.64400 39.48500
H  6.24100 45.66700 39.47200
H  5.42800 46.65700 38.37300

