158

Mg 0.29000 7.66900 26.21800
C  0.87100 9.23600 29.16300
C  0.44600 4.70300 27.85600
C  0.01200 6.00500 23.22100
C  0.36400 10.63500 24.40300
N  0.56000 7.07900 28.22000
C  0.68500 7.83700 29.32800
C  0.79300 7.06900 30.70400
C  0.90900 5.63500 30.10200
C  0.57700 5.82000 28.63200
C  2.36200 5.00900 30.37000
C  -0.55200 7.23200 31.53100
C  -0.34400 7.57600 33.01700
H  0.88300 6.92800 33.74000
N  0.31400 5.55900 25.56800
C  0.33100 4.51400 26.43500
C  0.14700 3.35000 25.74200
C  0.06000 3.70200 24.30500
C  0.12700 5.15500 24.31900
C  0.08800 2.00600 26.47200
C  0.03800 2.73500 23.10000
O  0.00200 3.28800 21.98500
C  0.04000 1.22200 23.22600
N  0.39100 8.25200 24.05900
C  0.15700 7.38000 23.05700
C  -0.01000 8.04000 21.61700
C  -0.20400 9.50400 22.12100
C  0.23200 9.47500 23.58000
C  1.14800 7.79500 20.53600
C  -1.64400 10.00500 21.96800
C  -1.98500 10.69200 20.65600
N  0.63200 9.56200 26.66800
C  0.62400 10.67300 25.85000
C  0.96000 11.84500 26.66100
C  1.06200 11.34700 28.01300
C  0.76400 9.97200 27.90500
C  1.10400 13.22300 26.17700
C  1.33900 11.69300 29.38200
O  1.70500 12.69900 29.84700
C  1.11500 10.30500 30.21000
C  2.31600 10.15300 31.05000
O  3.42000 9.86700 30.71900
O  1.87600 10.51700 32.31400
C  2.90100 11.02600 33.20400
H  0.63200 3.78600 28.42000
H  -0.26500 5.50800 22.28800
H  0.41800 11.51200 23.75500
H  1.69400 7.41700 31.20700
H  0.18200 4.92500 30.49500
H  2.23500 3.94900 30.59200
H  2.85000 5.55700 31.17700
H  3.02000 4.99800 29.50100
H  -1.16900 6.33500 31.58300
H  -1.19300 7.97600 31.05800
H  -1.25500 7.20900 33.49000
H  -0.15400 8.63800 33.16900
H  1.13000 1.83600 26.74300
H  -0.20600 1.25400 25.73900
H  -0.62200 2.00600 27.29900
H  0.92000 0.91600 23.79100
H  0.24400 0.80000 22.24200
H  -0.85800 0.80700 23.68400
H  -0.91800 7.70100 21.11800
H  0.55900 10.09200 21.61100
H  1.62500 6.81800 20.61200
H  1.86500 8.60900 20.64200
H  0.68500 7.89700 19.55500
H  -1.92500 10.68900 22.76800
H  -2.22500 9.09900 22.14200
H  -2.84200 10.14000 20.27200
H  -1.18700 10.54700 19.92800
H  -2.31900 11.72400 20.76900
H  0.79900 13.20800 25.13100
H  2.11300 13.59000 26.36500
H  0.38800 13.89700 26.64900
H  0.21400 10.47200 30.80000
H  2.41800 11.83600 33.75100
H  3.78100 11.38600 32.67000
H  3.13700 10.32400 34.00400
Mg 46.39300 24.62200 28.53200
C  46.90800 26.60900 31.11400
C  45.70100 21.93200 30.70400
C  46.29200 22.51200 25.77100
C  47.74100 27.07400 26.44900
N  46.25500 24.28100 30.63200
C  46.51500 25.29300 31.53500
C  46.16800 24.81200 33.00600
C  45.90500 23.31000 32.85700
C  45.98000 23.14900 31.33100
C  46.87700 22.34700 33.58900
C  45.00900 25.59200 33.67600
C  44.62300 25.09800 35.11400
H  44.72800 26.24000 36.15000
N  46.04300 22.56800 28.29400
C  45.76100 21.66000 29.32100
C  45.52900 20.42200 28.73500
C  45.80900 20.51700 27.35800
C  46.02800 21.91600 27.04500
C  45.02800 19.16900 29.47300
C  45.92100 19.45700 26.28900
O  46.16300 19.69800 25.09100
C  45.72100 17.96600 26.64800
N  47.05500 24.70900 26.37100
C  46.78800 23.76900 25.48900
C  46.88700 24.29400 23.98400
C  47.19800 25.80000 24.25400
C  47.42400 25.85200 25.74000
C  47.82500 23.53600 23.03300
C  45.88800 26.74200 23.89100
C  44.47800 26.37700 24.38600
N  47.17200 26.48000 28.65600
C  47.75300 27.38700 27.81200
C  48.04100 28.61800 28.44900
C  47.74600 28.41900 29.77000
C  47.21800 27.09400 29.82000
C  48.76300 29.78200 27.85600
C  47.74400 28.96000 31.07300
O  48.12100 30.03800 31.47400
C  47.16700 27.85000 32.04900
C  48.13700 27.69100 33.13900
O  49.26800 27.19700 33.03600
O  47.73800 28.40200 34.23400
C  48.72200 28.51200 35.32500
H  45.57900 21.14900 31.45700
H  46.17900 21.95300 24.83900
H  47.99000 27.83500 25.70700
H  47.08500 24.98900 33.56800
H  44.92000 23.03800 33.23900
H  46.79800 21.44600 32.98100
H  46.60900 22.07300 34.61000
H  47.87900 22.76800 33.50300
H  44.21900 25.34300 32.96700
H  45.13500 26.67000 33.57300
H  45.34700 24.34600 35.42800
H  43.58200 24.78000 35.16600
H  44.82400 19.41900 30.51400
H  45.74300 18.34700 29.48600
H  44.11300 18.81800 28.99600
H  46.05000 17.24600 25.89900
H  44.69400 17.74700 26.93800
H  46.34800 17.73700 27.50900
H  45.88200 24.28900 23.56000
H  48.12600 26.13100 23.78900
H  47.18500 23.44500 22.15600
H  47.97900 22.56800 23.50800
H  48.71700 24.09300 22.74400
H  45.79300 26.75600 22.80600
H  46.06900 27.78600 24.14800
H  44.56200 25.62700 25.17300
H  43.92100 25.93400 23.56000
H  44.01900 27.25600 24.83700
H  49.15400 30.36000 28.69400
H  48.10100 30.43600 27.28900
H  49.48600 29.45200 27.11100
H  46.31800 28.41200 32.43700
H  49.63900 27.98600 35.06200
H  48.36300 27.96500 36.19700
H  48.94000 29.55500 35.55400

