158

Mg -0.06800 7.76000 27.37500
C  0.83800 9.88600 29.89900
C  0.20100 5.14700 29.46600
C  -0.44900 5.73000 24.66400
C  0.01000 10.63200 25.25400
N  0.43800 7.52600 29.41100
C  0.71900 8.50000 30.25300
C  0.77400 7.92900 31.71100
C  0.81100 6.42000 31.51900
C  0.50200 6.36100 30.06100
C  2.13000 5.71600 31.92000
C  -0.44700 8.37600 32.57500
C  -0.73100 7.67700 33.90000
H  0.32900 6.90500 34.68000
N  -0.18800 5.68600 27.10100
C  -0.09700 4.83500 28.13100
C  -0.47200 3.49400 27.61300
C  -0.49000 3.61000 26.18700
C  -0.33600 5.06900 25.87400
C  -0.85000 2.38500 28.56200
C  -0.64300 2.47500 25.14800
O  -0.54100 2.65900 23.94000
C  -1.03300 0.99900 25.61000
N  -0.21300 8.18800 25.30900
C  -0.38500 7.14000 24.43800
C  -0.39600 7.70900 23.01900
C  -0.73600 9.26700 23.17000
C  -0.36800 9.42000 24.70100
C  1.02800 7.48400 22.31000
C  -2.26000 9.77100 22.87600
C  -2.37000 10.62000 21.61300
N  0.28900 9.88200 27.59700
C  0.37500 10.85700 26.64800
C  0.88600 12.17800 27.24800
C  1.05100 11.80000 28.57700
C  0.62500 10.45500 28.70900
C  1.20600 13.45900 26.43200
C  1.56400 12.18300 29.83900
O  2.00600 13.26300 30.24300
C  1.20400 11.05100 30.83300
C  2.22700 10.84200 31.85600
O  3.38000 10.65200 31.61800
O  1.73800 11.21300 33.05200
C  2.61700 11.54500 34.21300
H  0.12700 4.27200 30.11600
H  -0.66400 5.17700 23.74700
H  0.10800 11.42700 24.51200
H  1.60600 8.32500 32.29300
H  -0.01400 5.95100 32.05600
H  1.96600 5.24200 32.88800
H  2.85200 6.53200 31.95300
H  2.48400 4.92900 31.25500
H  -1.38400 8.13600 32.07300
H  -0.38000 9.45200 32.73200
H  -1.63300 7.10600 33.68300
H  -1.03200 8.54600 34.48500
H  -1.86600 2.18300 28.22600
H  -0.87000 2.40700 29.65200
H  -0.19800 1.52400 28.41100
H  -0.18000 0.66900 26.20300
H  -1.14800 0.35800 24.73500
H  -1.98300 1.06800 26.13800
H  -1.26300 7.35600 22.46000
H  0.03600 9.76000 22.57900
H  1.74100 8.29300 22.46600
H  0.87100 7.21900 21.26500
H  1.53700 6.65200 22.79800
H  -2.62600 10.38100 23.70200
H  -2.99600 8.97600 22.75900
H  -1.54800 10.27500 20.98600
H  -2.45200 11.65400 21.94800
H  -3.28600 10.38000 21.07400
H  1.68100 13.03500 25.54700
H  1.80300 14.01000 27.15800
H  0.27800 13.95500 26.14900
H  0.25300 11.34900 31.27600
H  2.13300 11.32900 35.16600
H  2.95200 12.57400 34.08300
H  3.50400 10.92400 34.08600
Mg 40.35200 10.17700 29.32000
C  42.13900 11.31900 32.25000
C  38.07100 8.64700 31.46300
C  38.89300 8.74100 26.66200
C  43.06800 11.05200 27.53100
N  40.08200 10.08300 31.55600
C  40.87100 10.67300 32.56100
C  40.33000 10.36300 33.98400
C  39.06500 9.38700 33.69700
C  39.04600 9.35200 32.11000
C  39.17600 7.96000 34.33900
C  39.98800 11.66700 34.65600
C  39.91500 11.38900 36.17700
H  40.68600 12.26100 37.16800
N  38.59200 9.02600 29.08900
C  37.79900 8.50900 30.06500
C  36.61200 7.86600 29.50900
C  36.78700 8.07800 28.07200
C  38.14300 8.63500 27.88800
C  35.54200 7.12300 30.32300
C  35.87100 7.65600 26.89500
O  36.25000 7.84700 25.74600
C  34.45900 7.20800 27.28100
N  40.97800 9.76300 27.41600
C  40.22000 9.18700 26.45700
C  41.02600 9.14800 25.09600
C  42.28900 9.96000 25.37600
C  42.10500 10.28600 26.84000
C  41.14100 7.73100 24.58800
C  42.37100 11.27500 24.60900
C  41.30200 12.41700 24.69200
N  42.18900 11.07900 29.69900
C  43.12400 11.48800 28.86000
C  44.20300 12.23700 29.54100
C  43.81600 12.15800 30.90300
C  42.61600 11.50500 30.93200
C  45.45400 12.86000 29.04600
C  44.22000 12.47400 32.21500
O  45.24200 13.02700 32.60900
C  43.14200 11.98800 33.18400
C  43.81000 11.00300 34.15800
O  44.03700 9.82500 33.94600
O  44.21600 11.65400 35.27000
C  44.77400 10.73000 36.29600
H  37.32500 8.33400 32.19600
H  38.43600 8.37600 25.74000
H  43.84000 11.43600 26.86100
H  41.22600 9.85300 34.33700
H  38.11400 9.82500 34.00000
H  39.66200 8.14800 35.29600
H  39.70700 7.27600 33.67700
H  38.17200 7.58600 34.53700
H  38.96400 11.92500 34.38300
H  40.67500 12.50500 34.54300
H  40.19700 10.34900 36.34100
H  38.85300 11.37500 36.41900
H  35.62300 7.17900 31.40800
H  35.48100 6.11500 29.91100
H  34.59200 7.65400 30.26600
H  33.93900 7.84900 27.99200
H  34.57500 6.23700 27.76200
H  33.83200 7.10900 26.39500
H  40.45500 9.72800 24.37100
H  43.12500 9.26200 25.34800
H  40.86200 6.98800 25.33600
H  42.17200 7.42200 24.41700
H  40.43200 7.51200 23.78900
H  42.35900 10.97400 23.56200
H  43.37800 11.67400 24.72700
H  40.85500 12.44200 23.69900
H  41.69700 13.43000 24.77500
H  40.50000 12.22500 25.40500
H  45.47900 12.72500 27.96500
H  46.36800 12.33400 29.32200
H  45.53800 13.91100 29.32300
H  42.60600 12.83300 33.61500
H  44.12900 9.90800 36.60700
H  44.86500 11.33700 37.19700
H  45.72200 10.34300 35.92300

