158

Mg -1.50400 17.72300 26.93300
C  -1.88400 15.28300 29.47000
C  -2.09800 20.13000 29.31900
C  -1.53300 19.90200 24.45700
C  -1.62000 15.04900 24.57300
N  -1.97900 17.69400 29.07700
C  -1.94300 16.61500 29.93600
C  -2.24400 17.06900 31.40600
C  -2.52700 18.58900 31.24700
C  -2.19200 18.82100 29.77700
C  -3.98200 18.97100 31.71200
C  -1.18900 16.65100 32.43300
C  -1.23300 17.31100 33.84800
H  -0.68300 16.60700 35.06700
N  -1.62100 19.74700 26.87400
C  -1.81500 20.60100 27.98200
C  -1.73600 22.00400 27.46900
C  -1.43200 21.92900 26.07000
C  -1.53700 20.50000 25.74300
C  -1.98800 23.15600 28.38700
C  -1.11900 22.99400 25.16200
O  -0.74400 22.73900 24.03300
C  -1.28100 24.44500 25.54500
N  -1.60800 17.41500 24.84200
C  -1.61300 18.55800 24.01500
C  -1.52500 18.21500 22.55500
C  -1.37400 16.61800 22.58200
C  -1.54800 16.32700 24.04900
C  -2.80800 18.67600 21.75400
C  -0.04300 16.17600 21.93300
C  1.15000 15.57700 22.82500
N  -1.67000 15.57900 26.91500
C  -1.67100 14.63900 25.88200
C  -1.80500 13.26500 26.48700
C  -1.90800 13.51000 27.87100
C  -1.79700 14.88300 28.09400
C  -1.77100 11.96000 25.66700
C  -2.02600 12.83300 29.12100
O  -2.03400 11.59800 29.29900
C  -2.04300 13.89700 30.28100
C  -1.02000 13.46500 31.16000
O  0.16900 13.72300 31.10100
O  -1.56700 12.63100 32.06900
C  -0.56000 11.97800 32.98900
H  -2.22400 20.90900 30.07400
H  -1.58100 20.61100 23.62800
H  -1.57900 14.41900 23.68200
H  -3.16500 16.56000 31.69400
H  -1.78800 19.19900 31.76600
H  -4.37300 19.69500 30.99800
H  -3.92700 19.55300 32.63200
H  -4.67500 18.14900 31.89100
H  -0.21900 16.76400 31.94900
H  -1.40800 15.60800 32.66300
H  -2.24300 17.71000 33.94400
H  -0.56600 18.16800 33.75500
H  -1.06500 23.66200 28.66800
H  -2.46500 22.81800 29.30800
H  -2.65700 23.80400 27.82100
H  -2.27600 24.72700 25.89100
H  -0.90000 25.15600 24.81200
H  -0.60000 24.58500 26.38400
H  -0.64700 18.66500 22.09300
H  -2.21500 16.17400 22.04900
H  -3.62600 18.92500 22.42900
H  -3.14300 18.01200 20.95700
H  -2.45500 19.56300 21.22800
H  0.33700 16.93300 21.24700
H  -0.32900 15.37200 21.25500
H  0.78600 15.26000 23.80200
H  1.82600 16.39500 23.07700
H  1.73500 14.84700 22.26600
H  -1.92100 11.02800 26.21100
H  -0.90600 11.87200 25.00900
H  -2.67600 12.02000 25.06200
H  -3.04500 13.85300 30.70600
H  -0.20100 11.21500 32.29800
H  -1.05100 11.60900 33.89000
H  0.27600 12.61100 33.28500
Mg 17.92800 -1.91200 28.01300
C  16.69600 0.06600 30.69100
C  19.89000 -3.63900 30.20300
C  19.45900 -3.37800 25.45600
C  16.49700 0.47400 25.75100
N  18.35700 -1.67700 30.24000
C  17.66200 -0.90700 31.12100
C  17.99900 -1.39300 32.57700
C  19.22200 -2.34600 32.33400
C  19.11700 -2.59600 30.86400
C  20.60500 -1.80000 32.68600
C  16.85400 -2.16000 33.33500
C  16.31100 -1.44900 34.62300
H  17.19000 -0.85800 35.62100
N  19.36100 -3.41800 27.78000
C  20.02100 -4.02400 28.84100
C  20.73300 -5.17000 28.32200
C  20.60400 -5.18700 26.94800
C  19.79000 -3.96900 26.67500
C  21.41100 -6.07100 29.25000
C  21.12300 -6.00300 25.86800
O  20.64400 -6.02100 24.73100
C  22.25300 -6.85600 26.14400
N  17.94100 -1.53600 25.92100
C  18.76100 -2.26800 25.10600
C  18.81700 -1.72300 23.73500
C  17.78500 -0.57000 23.79900
C  17.33200 -0.54400 25.22900
C  20.16100 -1.26800 23.09900
C  16.53500 -0.64400 22.81400
C  16.38700 0.53400 21.78600
N  16.70500 -0.17700 28.14400
C  16.05000 0.60300 27.15500
C  15.17200 1.46500 27.80700
C  15.33500 1.34000 29.13800
C  16.36900 0.29000 29.34100
C  14.45700 2.59800 27.01400
C  14.93000 1.87800 30.43200
O  14.14700 2.79600 30.67400
C  15.67400 0.91700 31.54400
C  16.38400 1.77600 32.48900
O  17.44000 2.36300 32.27100
O  15.58900 1.95600 33.60300
C  16.13600 3.01400 34.52100
H  20.29300 -4.38800 30.88800
H  19.89700 -3.88600 24.59400
H  16.10400 1.24100 25.08100
H  18.18000 -0.46900 33.12700
H  19.18700 -3.35400 32.74600
H  20.71600 -0.74600 32.94100
H  21.24600 -2.02700 31.83500
H  20.86500 -2.17500 33.67600
H  17.16500 -3.15700 33.64900
H  15.94800 -2.25200 32.73500
H  15.95500 -2.34700 35.12900
H  15.37700 -0.90200 34.50000
H  22.30600 -5.64900 29.70700
H  21.73000 -6.95800 28.70200
H  20.78300 -6.41800 30.07000
H  22.63200 -7.20200 25.18300
H  21.78300 -7.69400 26.66000
H  23.03900 -6.26500 26.61500
H  18.44600 -2.55500 23.13600
H  18.29800 0.34900 23.51600
H  20.01400 -1.12700 22.02800
H  20.90100 -2.05400 23.25100
H  20.40200 -0.27200 23.47100
H  15.59200 -0.68700 23.35800
H  16.50200 -1.62600 22.34300
H  15.47000 0.46400 21.20000
H  17.28300 0.58700 21.16700
H  16.35200 1.44900 22.37600
H  13.80400 2.18100 26.24800
H  15.25500 3.22100 26.61000
H  13.82800 3.27800 27.58800
H  14.95200 0.36900 32.14900
H  15.38200 3.22600 35.27900
H  16.35100 3.95800 34.02000
H  17.05100 2.68600 35.01500

