158

Mg 7.39100 2.89800 27.37600
C  8.83400 1.56900 30.21200
C  5.40900 4.83600 29.51000
C  5.73500 3.94700 24.78800
C  9.10200 0.49700 25.50900
N  7.15400 3.21900 29.70100
C  7.99200 2.66100 30.56500
C  7.77100 3.26800 31.95000
C  6.46600 4.24100 31.78800
C  6.30900 4.10500 30.22100
C  5.26300 3.86000 32.63900
C  8.98300 3.94500 32.56900
C  8.72900 4.29400 34.10800
H  9.99700 3.97700 34.92600
N  5.95000 4.35900 27.19000
C  5.14800 4.94800 28.11700
C  4.23300 5.88100 27.47900
C  4.31500 5.65100 26.06200
C  5.39500 4.66800 26.00700
C  3.24200 6.76100 28.26700
C  3.41400 6.27700 24.90200
O  3.68000 5.98200 23.73300
C  2.29900 7.30000 25.23200
N  7.60000 2.41000 25.45900
C  6.70800 2.98900 24.60200
C  6.90700 2.35300 23.19900
C  7.89800 1.22700 23.34200
C  8.17200 1.36300 24.84600
C  5.58600 1.86000 22.49000
C  9.24100 1.34400 22.47700
C  9.65000 0.01100 21.74400
N  8.65600 1.25200 27.72000
C  9.35700 0.44100 26.85600
C  10.28500 -0.40300 27.52600
C  10.11900 -0.03500 28.89500
C  9.04800 0.94200 28.93000
C  11.36200 -1.25400 27.00600
C  10.60300 -0.21100 30.19300
O  11.41500 -0.99600 30.66800
C  9.72700 0.80400 31.09700
C  9.25000 0.06100 32.24600
O  8.25900 -0.65700 32.24100
O  10.01500 0.28800 33.36900
C  9.43900 0.08000 34.68900
H  4.90500 5.65400 30.02900
H  5.21700 4.30500 23.89600
H  9.73000 -0.21300 24.96700
H  7.44700 2.44900 32.59200
H  6.68900 5.28100 32.02600
H  4.94300 4.69900 33.25700
H  5.57400 3.04200 33.28900
H  4.44300 3.58700 31.97400
H  9.05600 4.95900 32.17700
H  9.94900 3.49900 32.33200
H  7.82500 3.82600 34.49900
H  8.55000 5.36500 34.19700
H  2.27800 6.62400 27.77800
H  3.59500 7.76600 28.03500
H  3.14300 6.64000 29.34600
H  2.65700 8.15000 25.81400
H  1.46300 6.81200 25.73300
H  1.88700 7.65800 24.28900
H  7.24600 3.18500 22.58200
H  7.52600 0.20800 23.22800
H  4.72900 1.86900 23.16300
H  5.63500 0.90500 21.96700
H  5.47600 2.68800 21.79100
H  10.04100 1.66400 23.14500
H  9.12100 2.13000 21.73200
H  8.79000 -0.54500 21.37000
H  10.25700 -0.48900 22.49900
H  10.34000 0.23000 20.92900
H  11.60000 -0.70600 26.09400
H  11.07600 -2.26500 26.71800
H  12.25100 -1.37100 27.62500
H  10.45700 1.49200 31.52100
H  8.93300 0.99300 35.00300
H  10.20400 -0.34800 35.33700
H  8.61500 -0.62800 34.76200
Mg 40.11100 10.50000 30.02800
C  42.02100 11.39100 32.90700
C  37.89900 8.99800 32.26500
C  38.65000 9.08100 27.39800
C  42.79400 11.72300 28.07100
N  40.06600 10.10400 32.31200
C  40.87600 10.70700 33.27400
C  40.28000 10.59900 34.68400
C  38.99400 9.70100 34.40400
C  38.96600 9.62600 32.86900
C  38.81800 8.35600 35.22200
C  39.92400 12.02600 35.28300
C  39.45700 12.14200 36.74700
H  40.24700 12.99900 37.75700
N  38.56400 9.10900 29.90300
C  37.69800 8.74800 30.92500
C  36.66000 7.94300 30.34800
C  36.90000 7.87900 28.93300
C  38.07000 8.73900 28.66600
C  35.73900 7.03500 31.15000
C  36.06100 7.25700 27.80300
O  36.35600 7.32000 26.63700
C  34.91200 6.35300 28.23500
N  40.61800 10.46000 28.02300
C  39.70500 9.94600 27.11200
C  40.12200 10.25400 25.68500
C  41.41300 11.17100 25.89600
C  41.67700 11.12700 27.40100
C  40.23800 8.91300 24.77400
C  41.23000 12.53000 25.30500
C  40.10000 13.40900 25.91000
N  41.97300 11.40100 30.37900
C  42.89700 11.87700 29.47000
C  44.03600 12.47600 30.15300
C  43.60900 12.34600 31.49200
C  42.42600 11.65400 31.60300
C  45.31800 13.00400 29.52200
C  44.13300 12.57700 32.82400
O  45.16900 13.03200 33.20600
C  43.13800 11.99500 33.78800
C  43.75300 10.99800 34.65400
O  43.78900 9.78600 34.46800
O  44.26800 11.59200 35.75200
C  44.90100 10.79500 36.73700
H  37.12300 8.54200 32.88200
H  38.11400 8.90700 26.46300
H  43.52500 12.25900 27.46200
H  40.98700 10.22800 35.42500
H  38.10300 10.27600 34.65700
H  37.79000 8.15700 35.52500
H  39.40300 8.41500 36.13900
H  39.24900 7.53900 34.64500
H  39.28100 12.56900 34.59000
H  40.86400 12.57300 35.20100
H  39.31400 11.17500 37.22900
H  38.43900 12.46600 36.53100
H  35.76000 6.01800 30.75700
H  34.71100 7.35000 30.97400
H  36.00600 6.89300 32.19700
H  34.29300 6.15000 27.36100
H  34.29100 6.79000 29.01700
H  35.28900 5.38300 28.55900
H  39.37400 10.88000 25.19700
H  42.21800 10.73300 25.30600
H  39.97000 7.99900 25.30500
H  41.24800 8.73000 24.40700
H  39.52300 9.01800 23.95800
H  41.03500 12.41000 24.23900
H  42.14100 13.07200 25.55400
H  40.52300 14.35900 26.23600
H  39.46900 12.98100 26.68900
H  39.47100 13.71000 25.07200
H  45.10300 13.17100 28.46600
H  46.14100 12.31100 29.69700
H  45.60600 13.94100 29.99900
H  42.88100 12.82200 34.45000
H  45.20000 11.40900 37.58700
H  45.87000 10.46900 36.35800
H  44.28100 9.93500 36.98900

