158

Mg 55.52700 23.42800 44.34500
C  53.10400 25.51100 43.24000
C  53.60400 20.74600 43.36100
C  58.20500 21.38700 44.65300
C  57.58300 26.15800 45.07500
N  53.57300 23.15400 43.35400
C  52.71300 24.19600 43.07400
C  51.39300 23.63100 42.47200
C  51.48500 22.17500 42.93500
C  52.92900 21.95600 43.21700
C  50.62700 21.83100 44.23400
C  51.20600 23.81800 40.94700
C  49.81700 24.52200 40.60000
H  49.17100 24.34000 39.26800
N  55.90800 21.39100 44.06200
C  54.95100 20.47000 43.73700
C  55.44800 19.18400 43.83200
C  56.84400 19.25700 44.14900
C  57.08000 20.70200 44.29800
C  54.61300 17.93200 43.54700
C  57.79500 18.13000 44.41100
O  57.43400 16.97200 44.36600
C  59.22800 18.37200 44.89400
N  57.66900 23.72500 44.71300
C  58.52200 22.71500 44.91900
C  59.78300 23.15700 45.59400
C  59.68400 24.76600 45.42300
C  58.25200 24.95300 45.06300
C  60.08400 22.71500 46.94500
C  60.56800 25.41600 44.38700
C  61.99100 25.73700 44.79800
N  55.44000 25.44600 44.29700
C  56.31300 26.44600 44.65400
C  55.57100 27.68700 44.71700
C  54.34300 27.34700 44.16300
C  54.35300 26.00700 43.84000
C  56.10900 29.00200 45.17100
C  53.07900 27.95800 43.82000
O  52.73300 29.10300 43.89300
C  52.28000 26.80800 43.11300
C  52.17600 27.27600 41.70900
O  53.10100 27.11800 40.94300
O  50.98500 27.90200 41.36300
C  50.95500 28.37300 39.95300
H  52.90600 19.90900 43.29600
H  59.12600 20.84400 44.87500
H  58.17500 26.99700 45.44700
H  50.56700 24.19400 42.90600
H  51.16800 21.60900 42.05900
H  51.13400 21.22400 44.98500
H  49.71900 21.25700 44.05100
H  50.41900 22.79600 44.69700
H  51.15900 22.88600 40.38300
H  52.13500 24.32800 40.69400
H  49.85100 25.61200 40.62300
H  49.01700 24.18600 41.25900
H  55.05800 16.95700 43.35100
H  54.01200 18.10300 42.65500
H  53.82400 17.74600 44.27600
H  59.83500 18.88100 44.14600
H  59.75300 17.43100 45.06200
H  59.31200 18.79000 45.89700
H  60.61700 22.79400 44.99300
H  59.77200 25.18900 46.42400
H  60.95800 23.30100 47.22800
H  60.14200 21.63100 47.04700
H  59.23100 23.11000 47.49600
H  60.15500 26.35900 44.02900
H  60.64800 24.79700 43.49400
H  62.32700 26.76600 44.67100
H  62.71800 25.02400 44.41100
H  62.06400 25.64900 45.88200
H  57.02200 29.33500 44.67700
H  56.36600 28.83400 46.21700
H  55.40500 29.79700 44.92300
H  51.26700 26.67300 43.49300
H  50.08100 29.02400 39.93800
H  50.78700 27.57900 39.22400
H  51.81500 28.94600 39.60600
Mg 16.58000 53.28400 26.29600
C  18.29500 51.57300 28.80100
C  14.55600 54.50300 28.61700
C  14.75600 54.75200 23.87500
C  18.70900 51.91200 24.10900
N  16.39300 52.90400 28.46000
C  17.22900 52.28000 29.34600
C  16.88800 52.54600 30.79000
C  15.51100 53.20100 30.65200
C  15.49200 53.63000 29.14000
C  14.23300 52.40400 30.96700
C  17.90300 53.48100 31.43900
C  18.03000 53.41100 32.95400
H  16.95100 52.69500 33.74900
N  15.01000 54.60200 26.24300
C  14.26700 54.98200 27.32600
C  13.31700 56.01100 26.92500
C  13.32200 55.96900 25.47400
C  14.41700 55.07700 25.12200
C  12.57400 56.84100 27.90500
C  12.49400 56.70000 24.48400
O  12.49600 56.48700 23.30300
C  11.46500 57.69900 24.95100
N  16.55200 53.13600 24.30600
C  15.79800 53.99200 23.49800
C  16.34800 53.94500 22.06600
C  17.72700 53.11800 22.11300
C  17.72100 52.72700 23.62100
C  15.37800 53.44600 20.98800
C  19.06600 53.80500 21.61400
C  19.55900 55.08500 22.40400
N  18.11800 51.69700 26.32500
C  18.99400 51.34000 25.30400
C  20.14000 50.55100 25.80800
C  19.81000 50.49300 27.19200
C  18.59800 51.25000 27.44000
C  21.30500 50.08700 25.04700
C  20.32800 50.09800 28.50200
O  21.31900 49.48900 28.85100
C  19.32900 50.74300 29.55000
C  18.75800 49.74900 30.55800
O  18.12600 48.70800 30.29400
O  19.15400 50.08400 31.83600
C  18.96500 49.10800 32.94600
H  13.71400 54.71500 29.27900
H  14.33900 55.19700 22.96900
H  19.39500 51.70500 23.28500
H  16.81900 51.60200 31.33000
H  15.49900 54.12600 31.22900
H  13.63500 52.85500 31.75900
H  14.52700 51.43500 31.37200
H  13.55900 52.16600 30.14500
H  17.75700 54.54000 31.22700
H  18.83300 53.18900 30.95100
H  18.04200 54.38100 33.45200
H  18.97800 52.92100 33.17200
H  11.65300 57.29000 27.53200
H  13.08100 57.74500 28.24300
H  12.29600 56.25000 28.77700
H  10.92400 58.13200 24.10900
H  12.02800 58.50200 25.42700
H  10.81200 57.08700 25.57300
H  16.60300 54.98000 21.83900
H  17.61800 52.16400 21.59800
H  15.15500 54.38400 20.48100
H  14.44100 53.14800 21.45900
H  15.90100 52.78300 20.29800
H  18.86400 54.06000 20.57400
H  19.79100 52.99300 21.68000
H  18.86600 55.91500 22.26500
H  20.51200 55.36400 21.95500
H  19.70400 54.94100 23.47500
H  21.49000 49.03900 25.28300
H  22.17800 50.69500 25.28000
H  21.27400 50.03500 23.95800
H  19.94300 51.38200 30.18600
H  18.35600 48.26300 32.62600
H  18.38200 49.62600 33.70800
H  19.95000 48.83500 33.32500

