158

Mg 45.43100 4.65000 47.54200
C  43.43100 7.47900 47.43000
C  42.71200 2.77800 46.40500
C  47.34400 1.86700 47.70600
C  48.12500 6.53600 48.28300
N  43.37700 5.12700 46.82500
C  42.73500 6.29500 46.93400
C  41.20600 6.19500 46.55400
C  41.03800 4.65000 46.70100
C  42.50100 4.14000 46.54800
C  40.37300 4.06700 47.98400
C  40.93100 6.77500 45.14500
C  39.70100 7.68900 45.05800
H  38.62200 7.34600 44.02800
N  45.04000 2.56300 47.11800
C  43.87600 1.98700 46.71700
C  44.09800 0.53700 46.47100
C  45.42500 0.25200 46.74000
C  46.02000 1.59400 47.26700
C  42.94900 -0.38000 46.24200
C  46.09900 -1.07000 46.41500
O  45.47500 -1.98900 45.90700
C  47.60400 -1.24700 46.54900
N  47.45400 4.27800 47.77500
C  47.96000 3.01500 47.94600
C  49.42000 3.05200 48.44500
C  49.75400 4.62000 48.54300
C  48.36400 5.17500 48.21000
C  49.72700 2.28100 49.77500
C  50.84400 5.13300 47.57300
C  51.75900 6.30600 48.19900
N  45.75600 6.63900 47.77400
C  46.91400 7.28000 48.15900
C  46.58400 8.66400 48.49400
C  45.22600 8.80300 48.21100
C  44.78000 7.55500 47.78000
C  47.56400 9.69000 49.06400
C  44.12700 9.67800 48.24000
O  43.97900 10.83300 48.72700
C  42.88900 8.84400 47.65800
C  41.84500 8.96300 48.78300
O  42.04200 8.71800 49.95800
O  40.71100 9.39900 48.28200
C  39.67800 9.75900 49.26300
H  41.81400 2.22200 46.12500
H  47.85600 0.90900 47.81800
H  48.95800 7.14000 48.65000
H  40.66800 6.70300 47.35400
H  40.49500 4.25500 45.84300
H  40.07500 4.87100 48.65600
H  41.04000 3.40500 48.53700
H  39.43800 3.62900 47.63600
H  40.81400 5.90100 44.50300
H  41.78700 7.39100 44.87100
H  40.18000 8.64700 44.85500
H  39.22700 7.77000 46.03700
H  43.03600 -0.98000 45.33600
H  41.96500 0.08300 46.16900
H  42.83100 -1.01200 47.12200
H  47.87600 -2.26200 46.26000
H  47.93200 -1.22800 47.58800
H  48.09000 -0.45200 45.98300
H  49.98000 2.62900 47.61100
H  50.10100 4.85200 49.54900
H  48.79000 2.05400 50.28500
H  50.33000 2.75400 50.55100
H  50.20300 1.31200 49.62700
H  50.44200 5.38200 46.59100
H  51.50200 4.27600 47.42700
H  52.70700 6.54200 47.71400
H  51.95200 6.00500 49.22900
H  51.15700 7.20200 48.04500
H  48.21000 9.26800 49.83400
H  46.96200 10.48800 49.49700
H  48.24300 10.16100 48.35400
H  42.44200 9.27200 46.76100
H  39.40500 10.79300 49.05100
H  39.85200 9.71200 50.33800
H  38.81400 9.11500 49.10100
Mg 50.26400 45.76800 41.13400
C  47.34000 47.41200 39.87900
C  48.89300 42.79500 40.35400
C  53.41700 44.36900 41.21200
C  51.66500 48.85200 41.78800
N  48.45000 45.24700 40.03800
C  47.29500 45.99600 39.77300
C  46.17200 45.15800 39.15300
C  46.55100 43.72400 39.66800
C  48.09600 43.89900 40.02900
C  45.76300 43.40400 40.92200
C  46.16600 45.24400 37.59400
C  44.75600 45.24400 37.05700
H  44.53300 44.28200 35.89000
N  51.05300 43.80000 40.77800
C  50.26500 42.70600 40.60400
C  51.05300 41.54600 40.55600
C  52.41100 41.94600 40.74000
C  52.35500 43.41600 40.91700
C  50.38500 40.15500 40.54100
C  53.57600 40.96800 40.85900
O  53.41400 39.75800 40.68300
C  54.89900 41.55600 41.28100
N  52.32400 46.51600 41.31700
C  53.40100 45.76100 41.36200
C  54.70800 46.59300 41.74200
C  54.07100 47.97200 41.86900
C  52.58900 47.77500 41.76500
C  55.45500 46.18100 42.97700
C  54.65400 48.99700 40.91700
C  55.64800 49.98300 41.39900
N  49.69600 47.73100 40.96300
C  50.31000 48.88500 41.26800
C  49.50400 50.07400 41.00300
C  48.36800 49.53400 40.37900
C  48.51200 48.06200 40.43700
C  49.88500 51.51700 41.40800
C  47.12900 49.92700 39.75500
O  46.66800 51.05100 39.49100
C  46.39800 48.49400 39.38200
C  45.16800 48.39400 40.16700
O  45.04500 48.30000 41.37900
O  44.11100 48.19700 39.23600
C  42.76000 47.88200 39.72200
H  48.38600 41.82800 40.38500
H  54.43300 43.97400 41.14500
H  52.21900 49.72700 42.13300
H  45.20000 45.48600 39.52200
H  46.24200 42.98500 38.92900
H  46.40500 43.24800 41.78900
H  45.19300 42.49300 40.73900
H  45.05700 44.18800 41.19400
H  46.66200 44.39400 37.12600
H  46.73000 46.03500 37.09900
H  44.60500 46.21000 36.57500
H  43.94800 45.12300 37.77900
H  50.48500 39.76400 39.52900
H  49.32900 40.23800 40.79900
H  50.92200 39.57300 41.29000
H  54.60700 42.04300 42.21200
H  55.35000 42.23200 40.55500
H  55.60200 40.77600 41.57500
H  55.43900 46.59600 40.93400
H  54.35900 48.33800 42.85500
H  54.80000 46.28700 43.84200
H  56.31100 46.83500 43.14200
H  55.87100 45.18900 42.80200
H  53.88700 49.56300 40.38800
H  55.08400 48.50100 40.04600
H  56.56300 50.10500 40.82000
H  55.88900 49.85000 42.45400
H  55.15000 50.95300 41.38300
H  49.11400 51.67900 42.16100
H  49.87300 52.23300 40.58600
H  50.88600 51.54300 41.83900
H  46.12500 48.47000 38.32700
H  42.64000 46.84400 40.03200
H  41.92100 47.84000 39.02800
H  42.52000 48.55400 40.54600

