158

Mg 17.22000 -0.58600 27.72400
C  15.89800 1.39500 30.39900
C  19.31100 -2.10900 29.90500
C  18.64700 -1.94000 24.98100
C  15.17600 1.55600 25.51100
N  17.67300 -0.25600 29.80500
C  16.88300 0.44000 30.76500
C  17.33500 0.07500 32.15600
C  18.60700 -0.85400 32.04200
C  18.54800 -1.12500 30.48000
C  19.96900 -0.20400 32.37500
C  16.15200 -0.54900 33.04200
C  16.09200 -0.21200 34.58000
H  17.30200 0.58400 35.10200
N  18.74800 -1.76700 27.49600
C  19.43100 -2.38500 28.54400
C  20.33900 -3.31300 28.01900
C  20.21300 -3.28000 26.60700
C  19.15100 -2.26900 26.27200
C  21.22500 -4.07500 28.90000
C  20.96100 -4.04800 25.58000
O  20.80800 -3.93400 24.41900
C  21.91300 -5.07400 26.00300
N  16.91500 -0.19200 25.48300
C  17.62900 -1.02000 24.66800
C  17.11500 -0.75000 23.26800
C  15.95200 0.25200 23.41500
C  15.94600 0.50600 24.88000
C  18.29500 -0.27200 22.29400
C  14.56800 -0.22300 22.89100
C  14.58900 -0.41900 21.35800
N  15.86600 1.18800 27.84900
C  15.11000 1.87000 26.85700
C  14.12900 2.74900 27.54900
C  14.46700 2.62700 28.89500
C  15.54800 1.77300 29.00800
C  13.23100 3.81000 26.75700
C  14.14000 3.07800 30.24200
O  13.32200 3.94600 30.63800
C  15.01600 2.24200 31.25200
C  15.71400 3.22100 32.13000
O  16.82300 3.73900 31.89700
O  14.94500 3.46900 33.20500
C  15.50200 4.39200 34.19500
H  19.82700 -2.64100 30.70700
H  19.07100 -2.42400 24.09800
H  14.38000 1.97600 24.89300
H  17.65300 1.03300 32.56700
H  18.53300 -1.83200 32.51700
H  19.87700 0.81700 32.74700
H  20.62200 -0.18900 31.50200
H  20.37000 -0.78900 33.20300
H  16.21900 -1.63700 33.07700
H  15.20500 -0.36400 32.53600
H  16.10900 -1.16100 35.11600
H  15.21600 0.37400 34.85900
H  22.20800 -4.21700 28.45000
H  20.64500 -4.95700 29.16900
H  21.45000 -3.59300 29.85200
H  21.36100 -5.64300 26.75100
H  22.82100 -4.56700 26.33000
H  22.07400 -5.76800 25.17800
H  16.85700 -1.78500 23.04000
H  16.26600 1.09900 22.80400
H  19.20400 -0.02200 22.84100
H  17.90400 0.56300 21.71400
H  18.54200 -1.06100 21.58400
H  13.80200 0.45800 23.26500
H  14.24000 -1.11600 23.42300
H  13.98000 0.35700 20.89500
H  14.12600 -1.40200 21.27200
H  15.62300 -0.52200 21.02700
H  13.06600 3.52500 25.71800
H  13.57200 4.84300 26.82800
H  12.24200 3.83600 27.21400
H  14.28300 1.69000 31.84000
H  15.75300 5.39600 33.85500
H  16.35100 4.03000 34.77500
H  14.68900 4.59100 34.89300
Mg -1.95500 34.31100 27.74300
C  -3.83400 32.42800 29.91800
C  -0.47200 35.91900 30.48400
C  -0.51400 36.44900 25.57200
C  -3.77100 32.88300 25.05200
N  -2.20000 34.23100 29.94800
C  -3.03900 33.33200 30.62600
C  -2.65500 33.23300 32.09600
C  -1.73900 34.45700 32.25700
C  -1.39900 34.88400 30.82800
C  -2.22600 35.67200 33.12400
C  -2.06400 31.86100 32.52200
C  -2.54700 31.27300 33.89000
H  -1.88200 31.84300 35.21900
N  -0.54600 35.83600 27.94900
C  -0.06500 36.38200 29.13000
C  0.90100 37.37300 28.76500
C  0.88000 37.51900 27.34000
C  -0.10500 36.56700 26.88300
C  1.72500 38.19800 29.76700
C  1.80400 38.44300 26.44700
O  1.79300 38.47300 25.20800
C  2.92200 39.18800 27.07400
N  -2.15800 34.57500 25.53800
C  -1.35800 35.52200 24.96900
C  -1.60500 35.53800 23.50800
C  -2.58000 34.31100 23.30700
C  -2.81600 33.82800 24.69300
C  -2.20100 36.81600 22.83400
C  -2.09800 33.20800 22.25900
C  -3.11900 32.85700 21.16200
N  -3.43600 32.96300 27.43800
C  -4.00300 32.42400 26.32200
C  -5.06100 31.45800 26.73400
C  -4.90500 31.39900 28.06400
C  -3.98000 32.33100 28.50300
C  -5.89200 30.60300 25.82200
C  -5.43700 30.64200 29.22800
O  -6.23300 29.69500 29.19100
C  -4.77200 31.35100 30.51200
C  -5.96700 31.82500 31.27800
O  -6.86200 32.40100 30.74800
O  -5.94500 31.47300 32.56500
C  -6.94300 31.93500 33.53600
H  0.00400 36.39600 31.34400
H  -0.08800 37.23400 24.94400
H  -4.38800 32.49700 24.23800
H  -3.56800 33.39600 32.66900
H  -0.70600 34.35300 32.58800
H  -1.76600 35.55400 34.10500
H  -3.31200 35.65200 33.21500
H  -1.92700 36.63000 32.69900
H  -0.99400 32.06600 32.54100
H  -2.23700 31.05100 31.81300
H  -2.56700 30.19200 33.74700
H  -3.58800 31.54800 34.05800
H  1.46100 38.13600 30.82300
H  1.64500 39.23900 29.45400
H  2.78900 37.98400 29.66200
H  2.51500 39.98400 27.69800
H  3.42300 39.79100 26.31700
H  3.53300 38.49500 27.65100
H  -0.62900 35.32600 23.07000
H  -3.57000 34.60300 22.95800
H  -2.69600 37.50600 23.51700
H  -3.03900 36.45400 22.23800
H  -1.48200 37.21400 22.11700
H  -1.79000 32.30200 22.78100
H  -1.24500 33.57500 21.68900
H  -3.18100 31.78000 21.00300
H  -2.79700 33.48300 20.33000
H  -4.09300 33.28400 21.40200
H  -5.14700 30.04300 25.25700
H  -6.45100 31.25200 25.14800
H  -6.51900 29.96100 26.44100
H  -4.22900 30.63500 31.12800
H  -6.54000 32.61900 34.28300
H  -7.16200 31.01800 34.08300
H  -7.83600 32.26300 33.00400

