158

Mg 8.56500 5.01600 27.58700
C  9.86500 3.29900 30.35300
C  6.60500 6.91200 29.59900
C  7.49400 6.63400 24.85100
C  10.09600 2.59400 25.49400
N  8.06400 4.91500 29.75500
C  8.84900 4.23900 30.65800
C  8.41000 4.67700 32.04300
C  7.45700 5.89600 31.80800
C  7.38700 5.95200 30.27100
C  5.96300 5.81100 32.43600
C  9.42700 4.89600 33.12900
C  8.82700 4.80200 34.52800
H  9.76200 5.00600 35.76900
N  7.28600 6.61500 27.29400
C  6.47200 7.12000 28.22700
C  5.48400 8.16700 27.55400
C  5.96200 8.24200 26.16800
C  6.99800 7.19300 26.06200
C  4.34200 8.98800 28.35900
C  5.52900 9.12600 25.05300
O  6.00900 9.06600 23.91900
C  4.46300 10.12000 25.32400
N  8.81500 4.73500 25.46300
C  8.31200 5.58000 24.57100
C  8.65100 5.16300 23.14300
C  9.48100 3.85700 23.24600
C  9.49400 3.68700 24.79600
C  7.39000 4.98100 22.19200
C  10.98000 3.86200 22.68100
C  11.28400 2.68300 21.75100
N  9.81600 3.29300 27.79600
C  10.29400 2.36700 26.89800
C  11.03100 1.30000 27.58300
C  10.97400 1.68400 28.91700
C  10.19900 2.89000 29.00800
C  11.56400 0.07600 26.95300
C  11.38500 1.38300 30.33200
O  12.13700 0.50800 30.71400
C  10.72900 2.46000 31.24600
C  9.93700 1.53500 32.16000
O  8.82800 1.03100 32.00100
O  10.51800 1.65400 33.38100
C  9.98500 0.85500 34.49000
H  6.06700 7.59600 30.25900
H  7.00800 7.10300 23.99200
H  10.59600 1.88800 24.82800
H  7.83400 3.78800 32.29900
H  7.98000 6.74300 32.25300
H  6.01800 4.99200 33.15300
H  5.27500 5.68800 31.60000
H  5.75900 6.70700 33.02300
H  10.06300 5.75500 32.91700
H  10.10900 4.04600 33.15800
H  8.65100 3.74100 34.70600
H  7.91200 5.38800 34.60800
H  3.38700 9.16500 27.86300
H  4.60200 10.03000 28.55100
H  4.17000 8.67200 29.38800
H  4.76200 10.64300 26.23300
H  3.47800 9.66000 25.40200
H  4.50700 10.87800 24.54200
H  9.24400 5.98300 22.73700
H  8.86200 3.00100 22.97600
H  7.49000 4.13000 21.51800
H  7.40100 5.84600 21.53000
H  6.39800 4.95500 22.64400
H  11.68300 3.91200 23.51300
H  11.19300 4.72100 22.04500
H  11.42400 2.93100 20.69900
H  10.47300 1.95600 21.79000
H  12.15000 2.12900 22.11200
H  11.93800 -0.49600 27.80200
H  12.27800 0.55800 26.28500
H  10.79600 -0.35800 26.31200
H  11.55400 2.84100 31.84800
H  9.53200 1.46800 35.26900
H  10.90200 0.45600 34.92400
H  9.33000 0.03600 34.19200
Mg 44.77200 4.12300 47.21400
C  42.90600 7.10700 46.95500
C  41.88300 2.35300 47.42600
C  46.55400 1.45200 46.70100
C  47.64100 6.14300 46.73600
N  42.62700 4.68000 47.01400
C  42.18000 5.94100 46.84800
C  40.70600 5.78800 46.54400
C  40.25700 4.32300 46.99200
C  41.72600 3.75300 47.14100
C  39.46700 4.21500 48.30400
C  40.48200 6.08500 45.05100
C  39.37700 7.06600 44.64100
H  39.83400 8.10700 43.74000
N  44.31700 2.10000 47.12400
C  43.04100 1.58900 47.30800
C  43.10900 0.15300 47.17600
C  44.44800 -0.17200 46.90700
C  45.21500 1.16900 46.90900
C  41.93100 -0.86800 47.17400
C  44.93400 -1.57800 46.73400
O  44.23500 -2.50600 47.11700
C  46.35600 -1.92700 46.42500
N  46.93400 3.78000 47.06700
C  47.32800 2.57800 46.73300
C  48.81400 2.64200 46.34200
C  49.26000 4.14800 46.50600
C  47.84600 4.78300 46.74600
C  49.74600 1.57400 47.13700
C  49.95500 4.88100 45.29500
C  51.28600 5.56700 45.71600
N  45.25500 6.17500 47.11600
C  46.42600 6.86300 46.93000
C  46.23400 8.25800 47.08100
C  44.82200 8.45600 47.21500
C  44.28500 7.12600 47.06600
C  47.27400 9.31600 46.88400
C  43.82100 9.43400 47.32800
O  43.83200 10.63900 47.45700
C  42.48600 8.53200 47.06900
C  41.55600 8.73900 48.19600
O  41.33300 8.01800 49.15000
O  40.89200 9.95800 47.91700
C  39.91500 10.47700 48.85300
H  40.98400 1.75400 47.58700
H  47.06100 0.53900 46.37900
H  48.43000 6.83700 46.43800
H  40.07500 6.45900 47.12600
H  39.70200 3.89600 46.15700
H  40.13600 4.65300 49.04500
H  39.08300 3.22700 48.55700
H  38.55700 4.80000 48.17100
H  40.20000 5.12700 44.61600
H  41.37600 6.31900 44.47300
H  38.92500 7.55500 45.50400
H  38.63700 6.47000 44.10700
H  40.96700 -0.40600 47.38700
H  42.02800 -1.73200 47.83200
H  41.97800 -1.15700 46.12400
H  46.98500 -1.46300 47.18600
H  46.36300 -1.58000 45.39200
H  46.56800 -2.99300 46.50300
H  48.84100 2.33400 45.29700
H  49.88000 4.28900 47.39100
H  49.13600 0.78700 47.58000
H  50.24000 2.09400 47.95700
H  50.43100 1.03500 46.48300
H  49.33800 5.59000 44.74300
H  50.31700 4.08100 44.64900
H  51.28100 6.65600 45.76900
H  52.07300 5.25000 45.03200
H  51.48000 5.05100 46.65600
H  46.82700 10.30600 46.79600
H  47.85200 9.18700 45.96900
H  47.94900 9.15600 47.72500
H  41.94200 8.76700 46.15400
H  40.25700 11.28400 49.50100
H  39.40900 9.68000 49.39800
H  39.06200 10.81900 48.26700

