158

Mg 47.34200 34.42300 27.34800
C  46.08100 32.57600 30.18800
C  47.29400 37.12000 29.22200
C  47.95500 35.96300 24.53700
C  46.82100 31.44300 25.48000
N  46.76800 34.77000 29.45000
C  46.40900 33.90900 30.48000
C  46.59800 34.60600 31.87100
C  46.62900 36.08300 31.44600
C  46.91000 35.99100 29.91400
C  45.37500 36.87400 31.77600
C  47.94700 34.08500 32.47800
C  47.94600 33.99800 34.06000
H  47.15200 35.06000 34.81200
N  47.59100 36.30500 27.00900
C  47.67000 37.26200 27.90200
C  48.01400 38.50100 27.22300
C  48.21300 38.14700 25.80500
C  47.87100 36.70700 25.69800
C  48.06400 39.85600 27.97400
C  48.59100 38.99900 24.61200
O  48.81700 38.62200 23.49300
C  48.86700 40.48100 24.91100
N  47.45900 33.76100 25.20200
C  47.75800 34.65800 24.30300
C  48.25000 33.93300 22.97200
C  47.78600 32.43700 23.25600
C  47.34700 32.46800 24.69200
C  47.56800 34.54300 21.70100
C  48.93900 31.33900 23.20600
C  48.45400 29.87700 22.99500
N  46.65400 32.37100 27.66400
C  46.43100 31.35600 26.82000
C  45.89000 30.19300 27.51400
C  45.71200 30.60100 28.87200
C  46.10900 31.94400 28.85400
C  45.61400 28.86400 26.93400
C  45.32900 30.21200 30.21400
O  44.98500 29.08500 30.60000
C  45.43900 31.56400 31.08100
C  45.91600 31.34500 32.38600
O  47.08100 31.06400 32.80400
O  44.87800 31.45200 33.26200
C  45.13900 31.17300 34.66700
H  47.32500 37.98100 29.89200
H  48.26100 36.35900 23.56600
H  46.70900 30.45500 25.02900
H  45.70300 34.29900 32.41200
H  47.42500 36.57300 32.00700
H  45.22200 36.66500 32.83500
H  44.65000 36.43000 31.09400
H  45.79800 37.85800 31.57400
H  48.71700 34.81400 32.22500
H  48.25100 33.12100 32.07100
H  48.97700 34.11000 34.39400
H  47.58900 33.02300 34.39200
H  47.76300 40.68900 27.34000
H  49.08200 40.11500 28.26400
H  47.42000 39.93400 28.85100
H  49.51200 40.60600 25.78100
H  47.91000 40.98200 25.05500
H  49.35900 40.87500 24.02200
H  49.32300 34.08100 22.84900
H  46.95900 32.15600 22.60300
H  47.64200 35.62900 21.64300
H  46.49800 34.33900 21.65300
H  48.04900 34.24300 20.77000
H  49.30800 31.23800 24.22600
H  49.83700 31.58300 22.63800
H  48.85400 29.43800 22.08000
H  47.40200 30.06200 22.78000
H  48.59200 29.27200 23.89100
H  46.23100 28.67100 26.05600
H  44.58300 28.76300 26.59400
H  45.77100 28.05200 27.64300
H  44.42000 31.93400 31.19100
H  45.06800 32.18500 35.06600
H  46.00500 30.56900 34.93800
H  44.22300 30.70800 35.03200
Mg 0.46100 42.75900 26.11200
C  2.78200 42.56300 28.74100
C  -1.99300 41.80800 28.32200
C  -1.68000 42.56200 23.44900
C  3.08600 43.45100 24.04700
N  0.44200 42.05500 28.20100
C  1.48400 42.28600 29.13600
C  0.96500 42.23100 30.60300
C  -0.47000 41.60800 30.39600
C  -0.78100 41.84200 28.87700
C  -0.59600 40.12900 30.81700
C  1.07200 43.63400 31.32400
C  1.00900 43.78200 32.91100
H  0.60900 42.49600 33.76200
N  -1.51900 42.27600 25.92400
C  -2.37600 42.00300 26.96300
C  -3.70600 41.90800 26.46000
C  -3.67000 42.06400 25.01500
C  -2.23800 42.27000 24.68600
C  -4.91000 41.68000 27.30100
C  -4.80600 42.02800 24.03000
O  -4.59500 42.16300 22.84300
C  -6.18300 41.77100 24.56100
N  0.68600 42.82500 24.00200
C  -0.31900 42.87000 23.11200
C  0.10700 43.27800 21.67300
C  1.62600 43.56200 21.91200
C  1.84200 43.21400 23.41000
C  -0.21000 42.14500 20.70600
C  2.08600 44.96900 21.56300
C  1.70700 46.02900 22.57800
N  2.53400 43.03800 26.32600
C  3.42500 43.24500 25.36600
C  4.77900 43.27400 25.89400
C  4.62200 42.99400 27.26200
C  3.19500 42.87200 27.42800
C  6.04700 43.31200 25.10800
C  5.23700 42.81400 28.50400
O  6.41700 42.80000 28.76800
C  4.07100 42.54000 29.52400
C  4.30300 41.28900 30.30700
O  3.84200 40.15600 30.06700
O  5.21800 41.51500 31.28900
C  5.68200 40.36100 32.10200
H  -2.71800 41.65700 29.12400
H  -2.32700 42.62700 22.57200
H  3.82900 43.82600 23.34000
H  1.65700 41.58300 31.14100
H  -1.26700 42.14100 30.91400
H  0.38400 39.67100 30.94900
H  -0.98200 39.66500 29.90900
H  -1.25400 39.87500 31.64800
H  0.31300 44.34300 30.99600
H  1.99300 44.12100 31.00400
H  0.34200 44.57900 33.24100
H  1.91800 44.18400 33.35800
H  -5.61500 42.51000 27.27500
H  -4.61100 41.36000 28.30000
H  -5.47200 40.87500 26.82700
H  -6.29200 40.72800 24.85800
H  -6.90900 41.88600 23.75600
H  -6.46200 42.38100 25.42000
H  -0.50400 44.11500 21.33700
H  2.25400 42.86500 21.35800
H  0.33700 42.18000 19.76300
H  -1.28500 41.97400 20.66700
H  0.15700 41.24400 21.19700
H  1.55000 45.13500 20.62800
H  3.17300 45.05200 21.57900
H  1.07000 45.55900 23.32700
H  1.19100 46.85200 22.08400
H  2.66000 46.39900 22.95800
H  6.84900 43.86400 25.60000
H  5.74600 43.70900 24.13900
H  6.45500 42.31900 24.92100
H  4.15900 43.33400 30.26600
H  4.89300 39.62200 32.23700
H  5.84100 40.71100 33.12200
H  6.60900 39.91600 31.73900

