158

Mg 41.80300 9.94500 29.65100
C  43.63100 11.13300 32.24900
C  39.41800 8.73800 31.92100
C  39.96700 8.86400 27.09300
C  44.35500 10.84400 27.57100
N  41.70600 9.64700 31.90000
C  42.52500 10.37300 32.78300
C  41.86900 10.34200 34.17000
C  40.58100 9.50300 34.07200
C  40.54000 9.28900 32.55900
C  40.60300 8.14700 34.85300
C  41.40000 11.79300 34.73200
C  40.70900 11.79800 36.06300
H  41.22000 12.79500 37.11800
N  40.01100 8.81900 29.52800
C  39.12100 8.48000 30.56000
C  37.91100 7.93300 30.00900
C  38.04900 7.91000 28.61600
C  39.41000 8.51400 28.37500
C  36.78200 7.34700 30.87700
C  37.13500 7.34000 27.60000
O  37.38400 7.28700 26.42500
C  35.74000 6.86500 27.96700
N  42.16700 9.78400 27.62600
C  41.24500 9.41700 26.72000
C  41.56800 9.63100 25.22600
C  42.85500 10.43000 25.41300
C  43.18800 10.34100 26.98200
C  41.64400 8.29200 24.43700
C  42.76200 11.92300 24.92700
C  42.06600 12.96200 25.79100
N  43.63500 10.70200 29.83200
C  44.53800 11.09600 28.92700
C  45.65500 11.73200 29.56400
C  45.21600 11.93600 30.84300
C  44.12900 11.14900 30.93300
C  46.79200 12.32700 28.89900
C  45.61300 12.53100 32.08800
O  46.54600 13.27700 32.44500
C  44.48600 12.10100 33.05300
C  45.05000 11.50700 34.25900
O  45.53500 10.41200 34.33600
O  44.84800 12.42400 35.27500
C  45.39800 11.87200 36.52100
H  38.63100 8.54500 32.65200
H  39.23900 8.63600 26.31100
H  45.07600 11.23200 26.84800
H  42.58000 9.96800 34.90600
H  39.70600 10.13200 34.23700
H  39.79100 7.97500 35.55900
H  41.53200 8.05200 35.41500
H  40.47300 7.28000 34.20500
H  40.79100 12.19400 33.92200
H  42.34000 12.33200 34.84500
H  40.71200 10.80900 36.52100
H  39.64700 11.95800 35.87600
H  36.66900 6.27000 30.75000
H  35.85500 7.86000 30.62300
H  36.93500 7.51200 31.94400
H  35.25800 6.39200 27.11100
H  35.18500 7.75500 28.26200
H  35.74500 6.06100 28.70400
H  40.85800 10.25800 24.68700
H  43.63500 9.82400 24.95100
H  41.48900 7.44500 25.10600
H  42.54500 8.04800 23.87500
H  40.95400 8.21500 23.59700
H  42.27500 11.95300 23.95200
H  43.73900 12.33900 24.68400
H  42.93700 13.47800 26.19500
H  41.46700 12.52000 26.58700
H  41.50600 13.64000 25.14700
H  46.34600 13.08400 28.25400
H  47.36200 11.59500 28.32600
H  47.48200 12.90200 29.51600
H  43.94900 13.01500 33.30400
H  45.04000 10.85700 36.69400
H  45.12500 12.52000 37.35400
H  46.48000 11.88300 36.39100
Mg 1.56600 42.43800 25.82800
C  2.95000 42.36800 29.03800
C  -1.41200 41.23700 27.15300
C  0.40900 41.73600 22.65100
C  4.71700 43.25100 24.62100
N  0.88300 41.79000 27.86400
C  1.59500 41.89400 29.03200
C  0.67800 41.74400 30.28200
C  -0.66900 41.28400 29.64100
C  -0.38100 41.50000 28.10200
C  -1.19000 39.93400 30.02700
C  0.49100 43.05500 31.07200
C  0.48700 42.89700 32.61000
H  -0.80200 42.27100 33.24400
N  -0.17600 41.49600 24.99100
C  -1.29300 41.21200 25.73900
C  -2.34500 40.79700 24.82100
C  -1.79400 40.76100 23.48300
C  -0.41900 41.25200 23.69800
C  -3.78700 40.53400 25.27400
C  -2.40800 40.18400 22.11800
O  -1.73600 40.24200 21.10600
C  -3.86400 39.64000 22.14600
N  2.41600 42.40500 23.98400
C  1.75200 42.17700 22.78900
C  2.69100 42.47100 21.61300
C  3.78800 43.33900 22.26100
C  3.64600 43.01000 23.73100
C  3.20600 41.10900 21.04600
C  3.56800 44.86900 22.10600
C  4.24100 45.64800 20.95000
N  3.47900 42.79900 26.62100
C  4.68100 43.12600 26.05600
C  5.71100 43.35100 27.03900
C  5.05500 43.06100 28.24200
C  3.71100 42.77400 27.91700
C  7.04600 43.83400 26.86900
C  5.29500 42.90400 29.63200
O  6.29000 42.89500 30.30100
C  3.94100 42.43800 30.23100
C  4.03900 41.11100 30.91100
O  4.13600 39.98200 30.45700
O  4.03000 41.36000 32.25000
C  3.99000 40.16500 33.22600
H  -2.42800 41.11900 27.53400
H  0.12800 41.61900 21.60300
H  5.62800 43.64300 24.16400
H  1.20800 41.06300 30.94800
H  -1.41200 42.04000 29.89200
H  -0.44600 39.32200 30.53700
H  -1.44700 39.39500 29.11500
H  -2.12000 40.16400 30.54700
H  -0.32800 43.69900 30.75200
H  1.37500 43.67900 30.94600
H  0.54700 43.92600 32.96300
H  1.33400 42.28200 32.91500
H  -3.91600 39.47800 25.03600
H  -4.47000 41.22600 24.78100
H  -4.02000 40.75800 26.31500
H  -3.81000 38.65800 22.61700
H  -4.13400 39.56600 21.09300
H  -4.55800 40.32600 22.63100
H  2.11000 43.01000 20.86500
H  4.82300 43.12600 21.99300
H  2.50300 40.30200 21.25400
H  4.17700 40.78100 21.41800
H  3.29200 41.22200 19.96600
H  3.87600 45.43300 22.98600
H  2.51600 45.15200 22.05700
H  3.50000 45.99400 20.23000
H  4.94400 45.01800 20.40500
H  4.81800 46.47700 21.35800
H  7.06900 44.89500 27.11700
H  7.49000 43.78100 25.87500
H  7.63600 43.33200 27.63700
H  3.51700 43.10800 30.97900
H  4.27800 39.20600 32.79600
H  2.92700 40.09100 33.45300
H  4.62400 40.26900 34.10600

