158

Mg 0.92600 7.64700 25.74900
C  1.75200 9.46000 28.50100
C  0.62500 4.84600 27.70300
C  -0.01900 6.00000 22.95500
C  1.45600 10.52700 23.70000
N  1.29200 7.24500 27.78700
C  1.50000 8.13300 28.79300
C  1.54400 7.39900 30.19000
C  1.55400 5.92700 29.74500
C  1.11700 5.99800 28.29700
C  2.82800 5.11400 29.85800
C  0.28600 7.86800 30.95500
C  0.33500 8.02900 32.52100
H  1.52500 7.38900 33.23000
N  0.38500 5.64500 25.39000
C  0.23700 4.64600 26.38800
C  -0.44400 3.50600 25.80800
C  -0.55200 3.84400 24.38300
C  -0.09600 5.18500 24.18300
C  -0.76600 2.26700 26.61500
C  -1.20400 2.94900 23.26300
O  -1.31700 3.28000 22.09800
C  -1.57900 1.51700 23.52900
N  0.93100 8.20200 23.59600
C  0.54600 7.25100 22.64100
C  0.46600 7.94300 21.22200
C  1.07500 9.31400 21.46100
C  1.15100 9.40100 22.97700
C  1.19700 7.11800 20.16700
C  0.22800 10.50100 20.87200
C  -0.94400 11.03300 21.75700
N  1.54000 9.59000 26.00500
C  1.56200 10.65600 25.12500
C  1.83500 11.83300 25.95200
C  1.88300 11.46500 27.25300
C  1.67100 10.06100 27.24300
C  2.09300 13.23000 25.39600
C  2.10300 11.84800 28.58100
O  2.40100 12.93300 28.96700
C  1.92800 10.57600 29.44100
C  3.07900 10.65000 30.41600
O  4.20600 10.33700 30.19200
O  2.58100 11.23700 31.56300
C  3.51500 11.16500 32.63000
H  0.49700 4.04700 28.43600
H  -0.41500 5.61100 22.01500
H  1.65700 11.30000 22.95500
H  2.44800 7.85200 30.59800
H  0.70900 5.54800 30.32000
H  3.32800 4.84100 28.92800
H  2.77400 4.16400 30.39000
H  3.51100 5.66600 30.50400
H  -0.42600 7.04700 30.87100
H  0.10800 8.87000 30.56600
H  -0.61300 7.71400 32.95500
H  0.35700 9.09100 32.76600
H  -1.79500 1.97000 26.41100
H  -0.53800 2.39200 27.67400
H  -0.10900 1.42600 26.39900
H  -2.30600 1.41000 24.33400
H  -0.64800 0.97000 23.68100
H  -2.06700 1.19500 22.61000
H  -0.60000 7.93300 20.99300
H  2.10400 9.32900 21.10000
H  0.62000 6.19600 20.08900
H  2.20400 6.84900 20.48500
H  1.15800 7.69700 19.24400
H  -0.24200 10.25400 19.92000
H  0.99900 11.25500 20.71200
H  -1.87100 10.94000 21.19200
H  -0.62700 12.07200 21.84900
H  -1.13200 10.49400 22.68600
H  1.92400 13.18900 24.32000
H  3.02700 13.67500 25.74000
H  1.25000 13.85600 25.69000
H  0.97500 10.73200 29.94600
H  3.81200 10.14400 32.87300
H  3.08500 11.39800 33.60500
H  4.34100 11.83200 32.38600
Mg 25.95700 0.66000 29.21100
C  27.73400 0.59600 32.15100
C  23.15000 0.81600 31.05200
C  24.21600 0.60700 26.38600
C  28.96300 -0.03300 27.42300
N  25.50300 0.58600 31.42900
C  26.39500 0.74400 32.46100
C  25.73400 0.91500 33.78900
C  24.17000 0.94200 33.37600
C  24.27900 0.83800 31.85200
C  23.25100 -0.15300 34.10800
C  26.23600 2.24800 34.42200
C  26.84000 2.08600 35.84300
H  26.26900 2.93500 36.95800
N  23.97300 0.78400 28.80500
C  22.93700 0.76000 29.71300
C  21.68000 0.83400 28.96700
C  21.96200 0.76100 27.57600
C  23.40000 0.74000 27.53700
C  20.39800 1.09300 29.71500
C  21.01200 0.84600 26.40600
O  21.37500 0.95900 25.23400
C  19.56600 0.76100 26.63000
N  26.46300 0.22800 27.14800
C  25.53800 0.38300 26.16500
C  26.24800 0.36900 24.85600
C  27.79000 0.36600 25.16700
C  27.74100 0.15500 26.64600
C  25.82200 -0.81000 23.91400
C  28.56800 1.68700 24.79800
C  28.69700 2.04600 23.23300
N  27.98500 0.28200 29.60700
C  29.04800 -0.02600 28.86100
C  30.14100 -0.35700 29.71100
C  29.77000 -0.05500 31.05700
C  28.41900 0.30100 30.91700
C  31.48200 -0.61100 29.26000
C  30.19300 0.09500 32.41600
O  31.30300 -0.03700 32.99900
C  28.86200 0.45900 33.25700
C  28.49900 -0.65100 34.05600
O  27.93200 -1.67800 33.69600
O  29.01900 -0.41700 35.32400
C  29.16400 -1.55500 36.26200
H  22.32600 0.95600 31.75500
H  23.73100 0.62000 25.40700
H  29.91900 -0.16700 26.91400
H  25.81000 0.02300 34.41100
H  23.68100 1.86100 33.70000
H  22.31600 0.24400 34.50200
H  23.77100 -0.53700 34.98600
H  22.98400 -1.03900 33.53200
H  25.40700 2.95400 34.37900
H  27.06400 2.67600 33.85800
H  27.89200 2.35800 35.76300
H  26.77200 1.09900 36.30200
H  19.64200 0.30800 29.67800
H  19.97700 2.01400 29.31300
H  20.49600 1.25700 30.78800
H  19.07500 0.50100 25.69200
H  19.16800 1.69000 27.03700
H  19.35000 -0.10200 27.26000
H  25.97600 1.29600 24.35100
H  28.30600 -0.51400 24.78300
H  26.66200 -1.43100 23.60000
H  25.43600 -0.41700 22.97400
H  24.93600 -1.27900 24.34200
H  29.57300 1.75500 25.21400
H  28.03100 2.48300 25.31400
H  28.01200 1.46600 22.61500
H  29.72900 1.89900 22.91200
H  28.32200 3.06500 23.13800
H  31.53600 -0.69300 28.17500
H  31.96900 -1.42000 29.80500
H  32.08600 0.27400 29.46000
H  28.95700 1.33400 33.89900
H  29.18300 -2.54800 35.81400
H  28.33000 -1.64100 36.95900
H  30.12000 -1.33400 36.73700

