158

Mg 42.19500 41.53800 27.37400
C  41.40700 43.95100 29.84300
C  42.86100 39.23900 29.91200
C  42.94100 39.31200 25.06100
C  41.80300 44.09300 25.00500
N  42.26100 41.66700 29.57400
C  41.70900 42.66200 30.35400
C  41.74300 42.26900 31.78900
C  42.43800 40.93300 31.82700
C  42.50100 40.56200 30.35100
C  43.85000 40.85400 32.48300
C  40.27900 42.24800 32.33800
C  40.03100 43.04400 33.61400
H  39.48500 42.37000 34.95600
N  42.76100 39.54300 27.48700
C  42.98700 38.79100 28.58900
C  43.31800 37.44400 28.15900
C  43.29900 37.38000 26.74700
C  42.95800 38.74700 26.37800
C  43.59400 36.31500 29.13000
C  43.51100 36.24900 25.87300
O  43.58700 36.43100 24.70600
C  43.82100 34.87200 26.35800
N  42.32400 41.72200 25.43900
C  42.68100 40.62600 24.62600
C  42.66500 40.96000 23.12900
C  42.08800 42.41600 23.05700
C  42.14200 42.81800 24.60000
C  43.96500 40.67200 22.30600
C  40.67700 42.61300 22.55100
C  39.54800 41.90300 23.36400
N  41.66400 43.64500 27.38900
C  41.55000 44.49200 26.31900
C  41.05600 45.77000 26.80000
C  40.92400 45.60700 28.23800
C  41.37400 44.31300 28.45600
C  40.77300 46.95800 25.88700
C  40.53300 46.24000 29.48600
O  40.15700 47.35900 29.82600
C  40.87600 45.15900 30.61900
C  41.98200 45.66500 31.54500
O  43.18400 45.43900 31.43300
O  41.40200 46.31100 32.56100
C  42.29400 46.77800 33.69400
H  43.16700 38.55300 30.70400
H  43.19200 38.66100 24.22100
H  41.48600 44.80600 24.24000
H  42.30000 42.96300 32.41800
H  41.77400 40.19700 32.28100
H  43.70200 39.90000 32.98900
H  43.89700 41.73400 33.12400
H  44.63300 40.69200 31.74100
H  40.07900 41.22700 32.66500
H  39.54100 42.46400 31.56600
H  39.22700 43.75100 33.40900
H  40.82700 43.76300 33.81300
H  44.65000 36.16900 29.35600
H  43.13400 35.34200 28.95400
H  43.07200 36.58900 30.04700
H  43.81300 34.16900 25.52400
H  42.91300 34.61900 26.90600
H  44.71300 34.93000 26.98200
H  41.97000 40.30700 22.59900
H  42.81200 43.04300 22.53600
H  44.37200 41.59400 21.89200
H  43.68800 40.01700 21.47900
H  44.70600 40.21000 22.95800
H  40.64600 42.11300 21.58300
H  40.43300 43.67300 22.62400
H  39.82100 41.78300 24.41200
H  39.23800 40.95700 22.91900
H  38.65000 42.51100 23.25800
H  40.41700 46.57100 24.93200
H  41.75400 47.40400 25.72800
H  39.97200 47.60800 26.23700
H  40.00600 44.98700 31.25300
H  42.62200 45.95300 34.32600
H  41.77600 47.46500 34.36300
H  43.10100 47.36300 33.25300
Mg -11.03900 16.81600 40.93700
C  -7.44400 16.81200 40.93900
C  -10.74900 20.26300 40.35100
C  -14.37900 16.99600 40.69800
C  -11.12800 13.44500 41.15500
N  -9.23000 18.38200 40.45100
C  -7.89100 18.09600 40.58500
C  -7.01400 19.39000 40.30200
C  -8.12000 20.49200 40.61700
C  -9.43800 19.70300 40.46000
C  -8.04200 21.19000 41.99600
C  -6.39300 19.41500 38.84900
C  -4.82200 19.03500 38.77200
H  -4.38800 17.98100 37.66200
N  -12.36800 18.38200 40.53700
C  -12.06300 19.66300 40.29500
C  -13.30000 20.39400 40.07300
C  -14.37900 19.48700 40.09600
C  -13.73700 18.21800 40.47200
C  -13.28400 21.83300 39.52900
C  -15.84600 19.73900 39.64800
O  -16.12200 20.78400 39.20800
C  -16.91000 18.73700 39.90000
N  -12.48700 15.43400 40.82300
C  -13.80500 15.72100 40.90400
C  -14.63300 14.45200 40.92200
C  -13.62100 13.36600 41.19800
C  -12.31800 14.11600 41.09100
C  -15.90000 14.36300 41.94700
C  -13.73500 12.18500 40.19200
C  -13.48700 10.79000 40.77200
N  -9.63400 15.37500 40.97100
C  -9.80700 14.02500 41.10200
C  -8.53800 13.39100 41.25100
C  -7.58300 14.49000 41.12900
C  -8.31000 15.65000 41.01900
C  -8.26900 11.88300 41.45500
C  -6.14600 14.69000 41.21200
O  -5.17900 13.91600 41.33300
C  -5.96900 16.24900 41.10200
C  -5.26700 16.75000 42.29300
O  -4.03600 16.99000 42.26700
O  -6.13300 16.88300 43.38900
C  -5.41400 17.32600 44.62100
H  -10.62300 21.34800 40.34300
H  -15.45500 16.97000 40.88600
H  -11.09200 12.37700 41.38200
H  -6.23100 19.54700 41.04400
H  -8.05300 21.24100 39.82900
H  -8.84300 20.87600 42.66500
H  -8.13200 22.26600 41.85100
H  -7.04200 21.14300 42.42800
H  -6.60700 20.42800 38.51100
H  -6.85300 18.66100 38.20900
H  -4.60100 18.63700 39.76300
H  -4.37600 20.02300 38.66200
H  -13.13500 21.71300 38.45600
H  -12.47700 22.43000 39.95400
H  -14.22400 22.32800 39.77000
H  -17.91800 19.11200 39.72400
H  -16.72200 18.57600 40.96100
H  -16.63800 17.83600 39.35000
H  -14.91200 14.37200 39.87200
H  -13.57500 13.07300 42.24600
H  -16.78200 14.23500 41.31900
H  -15.97800 15.33700 42.43100
H  -15.84700 13.58000 42.70300
H  -13.02000 12.44100 39.41100
H  -14.73900 12.14300 39.77000
H  -14.44100 10.38600 41.10800
H  -12.75200 10.73800 41.57600
H  -13.11300 10.16200 39.96300
H  -7.38900 11.77400 42.09100
H  -8.24200 11.43200 40.46300
H  -9.09400 11.51400 42.06500
H  -5.27200 16.52500 40.31100
H  -4.57100 16.64700 44.74900
H  -5.98000 17.27200 45.55100
H  -5.08200 18.35800 44.50300

