158

Mg 25.73600 1.89900 29.29100
C  27.50700 1.59000 32.13000
C  22.78700 2.00300 31.04500
C  24.03700 1.76000 26.25900
C  28.62200 1.09900 27.46500
N  25.28100 1.93200 31.41500
C  26.16500 1.81300 32.40800
C  25.47900 2.04200 33.76800
C  23.86800 2.11200 33.39900
C  23.92200 2.09400 31.86900
C  22.97300 1.10500 34.04900
C  26.10200 3.17600 34.63100
C  26.55800 2.91600 36.16000
H  25.96700 3.81100 37.25600
N  23.68200 1.93300 28.75700
C  22.67700 2.07400 29.59200
C  21.46300 2.23100 28.82600
C  21.80400 1.98900 27.46800
C  23.22500 1.91400 27.44000
C  20.09000 2.41600 29.45100
C  20.91400 1.80700 26.27200
O  21.30200 1.50400 25.14400
C  19.38400 1.90000 26.29900
N  26.36200 1.79400 27.17900
C  25.45300 1.69600 26.14700
C  26.10300 1.59500 24.77100
C  27.63100 1.40100 25.17100
C  27.55900 1.49800 26.65800
C  25.51300 0.51600 23.85900
C  28.57600 2.46500 24.49900
C  29.64300 1.87000 23.55500
N  27.76400 1.43200 29.62600
C  28.81400 1.00100 28.82900
C  29.96900 0.75700 29.61200
C  29.50400 0.90700 30.92600
C  28.20500 1.32800 30.85700
C  31.36200 0.51500 29.09700
C  29.88000 1.02900 32.34600
O  30.98400 0.89100 32.90100
C  28.66500 1.49700 33.18900
C  28.38700 0.56800 34.31100
O  27.78400 -0.45800 34.21100
O  29.02800 0.83500 35.47600
C  28.89300 -0.13000 36.57600
H  21.91200 2.06500 31.69500
H  23.49300 1.74000 25.31300
H  29.53700 1.02400 26.87300
H  25.62900 1.11100 34.31400
H  23.51700 3.10800 33.66800
H  22.57700 0.30000 33.42900
H  22.13100 1.63300 34.49600
H  23.47500 0.54300 34.83600
H  25.43900 4.03800 34.69800
H  26.96100 3.47100 34.02800
H  27.62900 3.02200 36.33300
H  26.24200 1.91200 36.44300
H  19.47400 3.02000 28.78500
H  20.10100 2.82800 30.46000
H  19.77900 1.37100 29.47500
H  19.11300 1.56700 25.29700
H  19.04300 2.93500 26.31400
H  18.87400 1.33400 27.07800
H  25.99300 2.56400 24.28400
H  28.06000 0.41500 24.99300
H  24.87100 -0.13700 24.45000
H  26.29000 -0.13700 23.46100
H  24.90800 1.05100 23.12700
H  29.13100 2.99300 25.27500
H  28.04800 3.24500 23.95100
H  30.45600 1.26300 23.95300
H  30.21300 2.67700 23.09400
H  29.15000 1.23600 22.81800
H  31.43800 0.74400 28.03400
H  31.59300 -0.53200 29.28900
H  32.00200 1.16800 29.69000
H  28.89000 2.48000 33.60200
H  28.90800 -1.18400 36.29500
H  28.10800 0.07700 37.30300
H  29.85600 0.07800 37.04200
Mg 40.79500 9.30200 29.24300
C  42.54600 10.63700 32.15500
C  38.61800 7.83500 31.34500
C  39.19200 8.36800 26.56300
C  43.48900 10.40300 27.34400
N  40.62400 9.26200 31.39400
C  41.36400 9.90200 32.40300
C  40.71400 9.77800 33.83800
C  39.65200 8.68300 33.51000
C  39.62500 8.57800 31.98400
C  40.05700 7.35500 34.23700
C  40.21700 11.20500 34.39500
C  40.39100 11.28800 35.97900
H  40.80300 12.64000 36.73800
N  39.15400 8.19400 28.96100
C  38.32100 7.64000 29.96100
C  37.21500 7.00300 29.38800
C  37.29100 7.37600 27.99500
C  38.57900 7.98000 27.72600
C  36.16400 6.36200 30.18200
C  36.24100 7.17900 26.87600
O  36.40000 7.51900 25.71700
C  34.87700 6.61400 27.26700
N  41.34600 9.35200 27.27100
C  40.39500 8.91700 26.32500
C  40.99900 9.01600 24.89100
C  42.36500 9.58400 25.16900
C  42.43700 9.81600 26.66000
C  40.88600 7.81100 23.99000
C  42.71900 10.79500 24.28200
C  42.14000 12.07800 24.90000
N  42.54100 10.43600 29.56500
C  43.55300 10.76800 28.66400
C  44.62100 11.47600 29.36000
C  44.25700 11.43000 30.71300
C  42.95800 10.86000 30.85000
C  45.95800 11.85200 28.74600
C  44.73000 11.78700 32.06100
O  45.79700 12.23600 32.36500
C  43.63200 11.39300 33.04200
C  44.07600 10.39000 34.03100
O  44.47400 9.24600 33.73400
O  43.81700 10.93600 35.28800
C  43.92700 9.94800 36.43900
H  37.96100 7.23400 31.97700
H  38.71900 7.93500 25.67900
H  44.36200 10.61200 26.72300
H  41.50900 9.36400 34.45700
H  38.67800 8.88600 33.95500
H  40.51300 6.77100 33.43800
H  39.19800 6.86900 34.69900
H  40.81500 7.55400 34.99400
H  39.13200 11.29600 34.34400
H  40.75300 12.09600 34.06800
H  41.09500 10.50700 36.26900
H  39.39400 11.06100 36.35700
H  36.55700 6.16300 31.17900
H  35.98100 5.33400 29.86800
H  35.23200 6.92700 30.20300
H  34.24500 6.28600 26.44200
H  34.44900 7.28100 28.01500
H  35.10600 5.70400 27.82200
H  40.44700 9.79400 24.36400
H  43.06500 8.78200 24.93500
H  41.80700 7.57600 23.45800
H  40.08100 7.97300 23.27300
H  40.59700 6.92700 24.55800
H  42.40900 10.70800 23.24000
H  43.79600 10.93400 24.18500
H  41.10400 11.91400 25.19700
H  42.09700 12.87200 24.15400
H  42.80000 12.42500 25.69500
H  46.08100 11.36600 27.77800
H  46.77800 11.37900 29.28600
H  46.12100 12.92900 28.71800
H  43.04500 12.20500 33.47100
H  43.46300 10.41600 37.30700
H  44.97200 9.74400 36.67400
H  43.38300 9.07100 36.08900

