158

Mg 1.25500 8.12000 25.15100
C  1.79500 10.01800 28.03800
C  1.19700 5.29800 27.01200
C  1.07700 6.48300 22.25700
C  1.81800 11.23300 23.26900
N  1.83900 7.72500 27.27200
C  1.74000 8.65200 28.26300
C  1.72400 8.03100 29.67700
C  1.77600 6.50700 29.26900
C  1.53300 6.48100 27.72000
C  3.10100 5.73400 29.54700
C  0.44600 8.36100 30.51100
C  0.70300 8.34800 32.06900
H  1.97700 7.77000 32.61700
N  1.11300 6.14700 24.68100
C  1.09800 5.11400 25.60000
C  1.14800 3.86200 24.92800
C  0.93400 4.16000 23.49300
C  1.00700 5.62700 23.40000
C  1.19400 2.56500 25.72900
C  0.79600 3.24500 22.29000
O  0.99400 3.61700 21.12600
C  0.50100 1.75600 22.50100
N  1.48100 8.79900 23.04000
C  1.36600 7.87100 22.08500
C  1.23500 8.55500 20.73600
C  1.51100 10.09700 21.05200
C  1.68100 10.08800 22.54400
C  2.11100 7.91400 19.59300
C  0.39800 10.96200 20.50200
C  -0.97000 11.02300 21.22200
N  1.79400 10.22700 25.51900
C  1.80400 11.33600 24.68600
C  1.91000 12.51300 25.50700
C  1.92800 12.00400 26.84800
C  1.86200 10.64700 26.77500
C  1.91900 13.94200 25.11000
C  1.91900 12.44300 28.27900
O  1.85800 13.51500 28.83000
C  1.76300 11.13800 29.08900
C  2.98700 11.25200 29.91800
O  4.13100 11.09000 29.47400
O  2.59900 11.38100 31.22300
C  3.78000 11.72000 32.08600
H  1.11500 4.37600 27.59200
H  0.97200 5.88200 21.35100
H  1.69000 12.17200 22.72500
H  2.66800 8.39500 30.08300
H  1.08500 5.90500 29.85700
H  3.02700 4.98000 30.33000
H  3.87500 6.37700 29.96800
H  3.39700 5.13000 28.68900
H  -0.24800 7.55800 30.26300
H  -0.07500 9.26400 30.19200
H  -0.14100 7.75100 32.41600
H  0.55900 9.38400 32.37500
H  1.31400 1.59200 25.25300
H  0.19700 2.55600 26.16900
H  1.95400 2.54400 26.51000
H  1.22000 1.25600 23.14900
H  0.52200 1.17700 21.57800
H  -0.44200 1.45000 22.95200
H  0.20700 8.34800 20.43600
H  2.44100 10.40000 20.57100
H  2.96300 7.36600 19.99400
H  2.44000 8.73900 18.96000
H  1.50900 7.25400 18.96800
H  0.25600 10.49100 19.52900
H  0.78900 11.96500 20.33100
H  -1.72100 11.21800 20.45600
H  -0.90300 11.71300 22.06300
H  -1.24800 10.09100 21.71600
H  0.96500 14.31700 25.48000
H  2.00400 14.02700 24.02600
H  2.80400 14.45300 25.48800
H  0.84400 11.32400 29.64500
H  4.24500 10.80600 32.45500
H  3.57800 12.24800 33.01800
H  4.46800 12.34500 31.51700
Mg 41.49300 7.85900 29.10300
C  43.53300 9.32200 31.41500
C  39.59800 6.45200 31.64000
C  39.46400 6.41300 26.77100
C  43.70700 8.95300 26.50400
N  41.61000 7.86700 31.29000
C  42.47900 8.67900 32.02900
C  42.15600 8.63200 33.54500
C  40.90600 7.64900 33.59200
C  40.67200 7.27900 32.06900
C  41.00700 6.36500 34.49800
C  41.76200 10.11300 33.95800
C  40.82700 10.31300 35.24300
H  41.22000 11.47700 36.18300
N  39.70200 6.61300 29.22600
C  39.06600 6.15800 30.33800
C  37.87500 5.43400 29.93300
C  37.83400 5.48700 28.49000
C  39.04300 6.19500 28.09500
C  37.06900 4.67400 30.95200
C  36.72500 4.98300 27.53500
O  36.79000 5.12700 26.33700
C  35.54000 4.24700 28.07900
N  41.68900 7.60600 26.93800
C  40.64300 7.03400 26.23700
C  40.86200 7.23600 24.68500
C  42.14200 8.19800 24.62500
C  42.44000 8.38500 26.11300
C  41.11800 5.88200 23.92100
C  41.84700 9.48600 23.80500
C  41.18700 10.58600 24.49100
N  43.28300 8.98600 28.95700
C  44.11400 9.20100 27.85600
C  45.36000 9.80100 28.34500
C  45.10300 9.97800 29.75800
C  43.83200 9.42000 30.03100
C  46.65300 10.17700 27.61000
C  45.65700 10.45800 30.94400
O  46.74200 10.97100 31.27600
C  44.69100 10.10300 32.06200
C  45.36900 9.19500 33.06200
O  45.81500 8.06800 32.87600
O  45.42300 9.83500 34.30100
C  46.05400 9.03600 35.42000
H  39.03800 6.11800 32.51600
H  38.82400 6.14700 25.92600
H  44.47700 9.23800 25.78500
H  42.97200 8.24900 34.15800
H  39.97100 8.10000 33.92300
H  41.32600 5.51100 33.90200
H  40.01400 6.17900 34.90900
H  41.65100 6.47300 35.37100
H  41.25600 10.61400 33.13200
H  42.68400 10.63200 34.21800
H  40.86700 9.37800 35.80200
H  39.79100 10.36000 34.90800
H  37.43000 4.96100 31.94000
H  36.91300 3.60800 30.78300
H  36.04500 5.04400 30.92000
H  35.35400 4.63200 29.08200
H  35.80900 3.19400 28.15500
H  34.74700 4.22500 27.33200
H  39.95800 7.68900 24.27700
H  42.88100 7.70300 23.99400
H  40.45900 5.92900 23.05400
H  40.93000 5.01800 24.55800
H  42.12400 5.68300 23.55300
H  41.24100 9.18400 22.95100
H  42.81200 9.80800 23.41200
H  41.82600 11.46900 24.50700
H  40.99900 10.32900 25.53400
H  40.20200 10.77300 24.06300
H  46.55700 10.01600 26.53600
H  47.61300 9.74700 27.89600
H  46.76000 11.25600 27.72000
H  44.35700 11.00200 32.58000
H  47.12500 9.23900 35.39200
H  45.83200 7.97200 35.34500
H  45.83200 9.39900 36.42300

