158

Mg 44.62600 5.16500 47.74800
C  42.68800 8.16500 47.15600
C  41.81300 3.33600 47.53300
C  46.59000 2.43000 47.85600
C  47.49300 7.23900 47.97700
N  42.53800 5.72700 47.32100
C  41.94600 6.93800 47.03100
C  40.49700 6.80100 46.66400
C  40.23600 5.45300 47.39000
C  41.60900 4.73900 47.36500
C  39.57600 5.53900 48.76800
C  40.31700 6.69400 45.12300
C  40.10200 8.04200 44.39700
H  39.08500 7.92800 43.21200
N  44.28800 3.12200 47.61900
C  43.03800 2.59700 47.55800
C  43.13100 1.09800 47.69700
C  44.50900 0.85300 47.71500
C  45.18400 2.18100 47.76700
C  41.98900 0.03100 47.53600
C  45.03400 -0.56000 47.75000
O  44.36200 -1.60700 47.70500
C  46.53700 -0.87700 47.80300
N  46.72400 4.91500 47.66600
C  47.22800 3.63700 47.86500
C  48.76300 3.65900 48.20800
C  49.05000 5.22200 48.24900
C  47.67100 5.82700 47.94500
C  49.26600 2.93600 49.39100
C  50.13900 5.64200 47.32300
C  51.04400 6.71900 47.97100
N  45.03100 7.29200 47.48600
C  46.23900 7.95400 47.76000
C  46.00700 9.35900 47.79800
C  44.56100 9.50300 47.69000
C  44.07800 8.19300 47.38100
C  47.09700 10.38500 48.03500
C  43.46600 10.46400 47.74300
O  43.37900 11.61600 48.15100
C  42.21900 9.58900 47.20600
C  41.17200 9.70900 48.30300
O  41.07000 9.15000 49.36700
O  40.20600 10.58500 47.85700
C  39.02800 10.76100 48.71200
H  40.85400 2.81900 47.59700
H  47.22300 1.57800 48.11700
H  48.40000 7.81600 48.16900
H  39.87800 7.63500 46.99600
H  39.59600 4.83000 46.76500
H  40.18400 5.04800 49.52700
H  38.64400 4.97300 48.77300
H  39.43700 6.56500 49.11000
H  39.65100 5.89400 44.79800
H  41.32000 6.43200 44.78600
H  41.06800 8.35200 43.99900
H  39.76700 8.79100 45.11300
H  41.99900 -0.70600 46.73400
H  41.08900 0.63100 47.40000
H  41.80800 -0.48900 48.47700
H  46.56600 -1.96500 47.87100
H  47.10700 -0.29600 48.52700
H  46.93900 -0.62800 46.82100
H  49.39600 3.25700 47.41700
H  49.20500 5.55300 49.27600
H  49.82600 2.04700 49.10100
H  48.43200 2.65400 50.03300
H  49.92400 3.52600 50.03000
H  49.76100 6.03700 46.38000
H  50.81800 4.82500 47.07700
H  52.08500 6.54400 47.70000
H  51.03500 6.73000 49.06100
H  50.82700 7.69800 47.54300
H  47.72600 9.93300 48.80200
H  46.62700 11.31600 48.35300
H  47.70400 10.59300 47.15400
H  41.93500 9.94500 46.21600
H  39.06600 11.73400 49.20200
H  38.84400 9.97900 49.44800
H  38.10800 10.70200 48.13000
Mg 41.55100 9.45800 29.69400
C  43.27300 10.87700 32.39100
C  39.09300 8.53200 31.85900
C  40.07400 8.10100 27.08000
C  44.33900 10.16000 27.65300
N  41.32700 9.61800 31.91900
C  42.08200 10.26400 32.81700
C  41.42600 10.34300 34.14800
C  40.32600 9.25000 34.08200
C  40.21100 9.09400 32.51700
C  40.59300 7.91300 34.87700
C  40.83800 11.73200 34.59000
C  40.21100 11.83900 36.05000
H  40.85800 12.68100 37.20800
N  39.77700 8.46600 29.50100
C  38.81500 8.29400 30.44300
C  37.54000 7.82900 29.87200
C  37.92900 7.51600 28.54100
C  39.25300 8.07900 28.32900
C  36.28200 7.53400 30.68900
C  37.05200 6.95100 27.42600
O  37.40900 6.88800 26.23300
C  35.60900 6.60900 27.71700
N  42.24700 8.92100 27.57700
C  41.39500 8.38800 26.75500
C  41.92500 8.61100 25.28300
C  43.27600 9.30100 25.50500
C  43.25000 9.51300 27.05600
C  42.05500 7.30200 24.42800
C  43.48700 10.67800 24.78600
C  42.65000 11.96700 25.18000
N  43.42500 10.31600 29.93800
C  44.41200 10.56100 28.99600
C  45.55200 11.23500 29.65700
C  45.10100 11.46500 30.95500
C  43.76500 10.86300 31.10300
C  46.80000 11.76000 28.88900
C  45.42300 12.10700 32.24100
O  46.40300 12.79400 32.54500
C  44.23200 11.68900 33.22800
C  44.93300 10.93500 34.37400
O  45.58700 9.93300 34.31800
O  44.70800 11.62100 35.53600
C  45.01600 10.98400 36.76500
H  38.24300 8.43300 32.53700
H  39.55200 7.75400 26.18500
H  45.18600 10.46400 27.03500
H  42.06600 10.01100 34.96500
H  39.36000 9.59000 34.45500
H  40.33100 7.00400 34.33600
H  40.01600 8.02700 35.79400
H  41.62800 7.91800 35.22000
H  40.14200 11.98100 33.78900
H  41.72300 12.36700 34.55000
H  40.16300 10.86100 36.52900
H  39.20900 12.24400 35.90500
H  36.42600 7.81500 31.73300
H  36.19600 6.44800 30.68100
H  35.45800 8.05300 30.20000
H  34.91700 7.39600 28.01800
H  35.64900 5.81500 28.46200
H  35.15200 6.13000 26.85100
H  41.30700 9.42600 24.90800
H  44.18300 8.75000 25.25600
H  42.94900 6.80900 24.81000
H  42.19500 7.61300 23.39300
H  41.20900 6.70300 24.76400
H  43.27200 10.50500 23.73200
H  44.54100 10.91300 24.93200
H  43.45700 12.67500 25.37000
H  42.10700 11.82000 26.11300
H  41.97100 12.33100 24.41000
H  46.86200 11.22900 27.94000
H  47.71700 11.50900 29.42300
H  46.67200 12.83900 28.80400
H  43.89600 12.66700 33.57200
H  45.59100 10.06400 36.65900
H  44.09800 10.69500 37.27600
H  45.53200 11.73700 37.36100

