158

Mg 17.06700 51.24900 25.92500
C  18.94700 50.16400 28.52800
C  14.39600 51.81300 28.00500
C  15.15300 52.26800 23.32800
C  19.54200 50.23600 23.60000
N  16.72700 51.06200 28.05900
C  17.70000 50.64000 28.97000
C  17.15400 50.88000 30.37600
C  15.55500 50.93200 30.17000
C  15.54200 51.31600 28.70000
C  14.86700 49.53700 30.38900
C  17.76500 52.11700 31.25100
C  18.14800 51.85400 32.73500
H  17.23700 52.48900 33.82500
N  15.13400 52.20100 25.75000
C  14.15000 52.30600 26.73300
C  12.98800 52.88100 26.21200
C  13.15200 52.99600 24.80900
C  14.59400 52.54500 24.57100
C  11.78600 53.21800 27.10600
C  12.34400 53.63300 23.76700
O  12.86100 53.91500 22.66900
C  10.89600 54.04200 23.96400
N  17.29300 51.14000 23.76100
C  16.38700 51.67400 22.90200
C  16.78700 51.57500 21.47600
C  18.27800 51.14900 21.57100
C  18.41900 50.83200 23.05000
C  15.90100 50.68800 20.62500
C  19.45700 52.04300 21.10800
C  20.27700 51.50200 19.96300
N  18.91000 50.34500 25.98900
C  19.80300 49.96200 24.99700
C  20.89500 49.35100 25.62100
C  20.68600 49.56700 26.97100
C  19.39900 50.05800 27.18800
C  22.08200 48.99500 24.86100
C  21.24300 49.31700 28.30100
O  22.25300 48.69900 28.69900
C  20.18000 49.78100 29.32300
C  19.83600 48.62400 30.21300
O  19.19400 47.68800 29.85000
O  20.24300 48.73600 31.50900
C  19.80400 47.67300 32.46200
H  13.58600 51.72100 28.73200
H  14.58600 52.48800 22.42100
H  20.28300 50.00200 22.83300
H  17.31500 49.98500 30.97800
H  15.17600 51.66300 30.88400
H  14.55300 49.47700 31.43100
H  15.49200 48.72300 30.02300
H  13.96000 49.46600 29.78700
H  16.97200 52.86000 31.33200
H  18.66200 52.55000 30.80800
H  19.14800 52.21900 32.96800
H  18.09200 50.78000 32.91300
H  11.20500 54.07300 26.75800
H  12.18600 53.38800 28.10500
H  11.18100 52.32000 27.23000
H  10.43700 53.27300 24.58500
H  10.50900 54.04600 22.94500
H  10.79300 55.04900 24.36800
H  16.74900 52.55400 20.99900
H  18.52000 50.21800 21.05900
H  15.51400 51.36600 19.86300
H  14.97600 50.49200 21.16600
H  16.34200 49.80100 20.17000
H  20.15100 52.20000 21.93400
H  19.00000 52.97100 20.76400
H  19.73300 50.72800 19.42200
H  21.26400 51.10900 20.20800
H  20.39100 52.36000 19.30100
H  22.90500 48.74700 25.53100
H  22.30500 49.76200 24.11900
H  21.91900 48.11000 24.24600
H  20.52100 50.65800 29.87300
H  20.35400 46.79100 32.13300
H  18.75200 47.44100 32.29700
H  20.03300 47.93500 33.49500
Mg -12.27900 16.00600 41.69000
C  -9.46000 14.04700 40.96000
C  -10.48200 18.74600 40.39900
C  -15.12600 17.55200 41.20500
C  -13.93000 13.07900 42.69300
N  -10.19000 16.30000 40.69900
C  -9.20100 15.39000 40.57200
C  -7.89900 15.99300 39.89000
C  -8.24500 17.45900 39.82600
C  -9.71800 17.53100 40.33400
C  -7.29900 18.38500 40.69000
C  -7.66100 15.34700 38.51000
C  -6.23000 14.93300 38.13900
H  -5.51800 15.67100 37.04900
N  -12.77000 17.95000 41.10600
C  -11.88800 18.86400 40.59100
C  -12.66300 20.05500 40.38200
C  -14.00900 19.70300 40.45900
C  -14.05300 18.35700 40.93800
C  -12.00300 21.33100 40.03200
C  -15.26500 20.62700 40.12400
O  -15.05800 21.77900 39.72300
C  -16.74600 20.08200 40.16300
N  -14.19500 15.43300 42.04500
C  -15.23500 16.24800 41.74400
C  -16.59800 15.53100 41.80600
C  -16.25400 14.07300 42.39400
C  -14.71500 14.18500 42.41600
C  -17.84700 16.26800 42.61000
C  -16.87600 12.99600 41.59600
C  -17.57500 11.91500 42.54800
N  -11.80500 13.97600 41.92700
C  -12.59000 12.93800 42.43300
C  -11.75800 11.73200 42.52900
C  -10.55400 12.10500 41.88900
C  -10.65100 13.48100 41.47100
C  -12.11000 10.35300 43.00200
C  -9.28500 11.61700 41.51600
O  -8.87500 10.50600 41.61100
C  -8.55700 12.83100 40.84100
C  -7.27900 13.05800 41.50200
O  -7.11300 13.13600 42.72100
O  -6.25500 13.05800 40.64000
C  -4.86300 13.33300 41.06500
H  -9.99500 19.66900 40.07700
H  -16.14400 17.94000 41.13200
H  -14.52500 12.27800 43.13600
H  -7.05300 15.90800 40.57200
H  -8.05600 17.81600 38.81400
H  -6.69600 18.89700 39.94000
H  -6.75000 17.91700 41.50700
H  -7.96200 19.15200 41.09100
H  -7.96500 16.00300 37.69500
H  -8.22200 14.42300 38.37100
H  -6.27900 13.87300 37.89000
H  -5.61100 15.10500 39.01900
H  -11.71000 21.38000 38.98300
H  -11.11000 21.43700 40.64800
H  -12.62300 22.20000 40.24900
H  -17.53700 20.66300 39.68800
H  -16.96600 19.98700 41.22600
H  -16.75900 19.13000 39.63400
H  -17.01900 15.41700 40.80700
H  -16.43600 13.96500 43.46400
H  -17.83000 15.87100 43.62500
H  -18.70100 15.94900 42.01300
H  -17.70800 17.34600 42.52600
H  -16.04200 12.57900 41.03300
H  -17.54300 13.33000 40.80100
H  -16.90400 11.45500 43.27300
H  -17.96300 11.15700 41.86700
H  -18.42800 12.37900 43.04400
H  -12.74100 10.44200 43.88600
H  -11.24400 9.77300 43.32300
H  -12.69400 9.99200 42.15500
H  -8.44100 12.66500 39.77100
H  -4.52600 12.52000 41.70800
H  -4.81000 14.25700 41.64100
H  -4.24600 13.50300 40.18200

