158

Mg 47.78000 34.66800 27.12800
C  46.02300 33.30700 29.71200
C  48.26000 37.51300 29.21000
C  48.80300 36.57300 24.53200
C  46.62800 32.33100 24.92700
N  47.07600 35.34800 29.05100
C  46.70400 34.45200 30.02600
C  46.92900 34.91700 31.47600
C  47.20100 36.45400 31.22500
C  47.51600 36.47100 29.76400
C  45.95900 37.43400 31.55000
C  48.22500 34.23400 32.06200
C  48.41400 34.28100 33.61100
H  47.75800 35.41500 34.45500
N  48.49800 36.70100 26.96300
C  48.69500 37.62000 27.89800
C  49.37900 38.77800 27.38200
C  49.72300 38.47200 26.03100
C  49.00200 37.21300 25.74500
C  49.57300 40.01800 28.24400
C  50.53700 39.27200 24.99100
O  50.67400 38.94200 23.77000
C  51.34300 40.45300 25.52500
N  47.42300 34.64700 24.96200
C  48.13900 35.43200 24.16400
C  48.33500 34.79400 22.68200
C  47.70400 33.40200 22.90900
C  47.20200 33.42200 24.38700
C  47.64400 35.65600 21.61900
C  48.71700 32.17200 22.70600
C  49.72800 31.72500 23.86000
N  46.63200 33.07400 27.24900
C  46.25500 32.21000 26.25200
C  45.51300 31.11600 26.91600
C  45.26000 31.59400 28.21800
C  45.99700 32.73700 28.41500
C  45.01700 29.84900 26.37300
C  44.60900 31.27400 29.43600
O  43.95700 30.32900 29.76900
C  44.94300 32.47600 30.41100
C  45.26500 31.92500 31.81300
O  46.03100 31.03300 32.10700
O  44.39900 32.44800 32.70900
C  44.39200 32.11700 34.13700
H  48.56500 38.27100 29.93500
H  49.22900 36.98600 23.61500
H  46.32600 31.43900 24.37300
H  46.02800 34.76200 32.07000
H  48.06600 36.83400 31.76900
H  45.22700 37.46700 30.74300
H  46.22900 38.48600 31.64700
H  45.33100 37.06600 32.36200
H  49.14500 34.65400 31.65600
H  48.14400 33.19400 31.74400
H  49.48400 34.27500 33.82000
H  47.97800 33.38500 34.05300
H  48.90700 40.03600 29.10700
H  49.57100 40.99000 27.75000
H  50.44800 39.93200 28.88800
H  52.06200 40.70600 24.74500
H  51.82300 40.18100 26.46500
H  50.62100 41.25900 25.65500
H  49.41000 34.71700 22.51400
H  46.86000 33.15000 22.26700
H  47.10800 36.52200 22.00800
H  46.95800 35.05100 21.02500
H  48.38500 36.12400 20.97200
H  49.42300 32.41500 21.91200
H  48.01300 31.37900 22.45400
H  49.66800 30.63700 23.84300
H  49.54000 32.14300 24.85000
H  50.77400 31.96100 23.66600
H  44.85200 28.99700 27.03300
H  45.70200 29.59000 25.56600
H  44.05500 30.06800 25.91200
H  44.03900 33.08500 30.45500
H  45.39900 32.35000 34.48400
H  44.03700 31.11200 34.36600
H  43.76200 32.87500 34.60200
Mg 26.55400 50.39700 27.16700
C  24.44300 51.68700 29.65600
C  28.81100 49.58600 29.69300
C  28.57200 49.62700 24.82300
C  24.20200 51.53900 24.85000
N  26.61300 50.59700 29.40700
C  25.58600 51.07100 30.24200
C  25.90000 50.75400 31.70300
C  27.34500 50.23000 31.71600
C  27.66200 50.11600 30.18500
C  28.40400 51.23100 32.26300
C  24.86100 49.55400 32.05500
C  23.82700 49.92100 33.19300
H  24.01100 48.98100 34.44100
N  28.46900 49.85500 27.20700
C  29.22000 49.46400 28.32200
C  30.50500 48.97600 27.87700
C  30.49400 49.07700 26.46300
C  29.17000 49.55900 26.09600
C  31.55800 48.52900 28.88400
C  31.64600 48.63600 25.50300
O  31.58800 48.79100 24.31800
C  32.88000 48.02500 26.11000
N  26.42500 50.56100 25.06300
C  27.32900 50.07000 24.34400
C  27.01400 49.97700 22.85900
C  25.57100 50.72100 22.83300
C  25.33600 50.96400 24.32400
C  28.09500 50.67400 21.83900
C  24.44100 49.87600 22.13800
C  23.85600 50.52000 20.89100
N  24.67400 51.37400 27.21500
C  23.91300 51.80200 26.17300
C  22.77400 52.51700 26.68200
C  22.91800 52.51800 28.12100
C  24.14800 51.83800 28.32500
C  21.67100 53.13900 25.91700
C  22.40500 52.96800 29.38100
O  21.40000 53.63800 29.59300
C  23.31800 52.34800 30.47500
C  23.73500 53.52400 31.34900
O  24.48700 54.44100 31.08400
O  23.06300 53.41500 32.55100
C  23.17700 54.51600 33.60200
H  29.45400 49.19500 30.48400
H  29.14500 49.10800 24.05200
H  23.49100 51.92800 24.11800
H  25.68300 51.65300 32.28000
H  27.47000 49.29800 32.26700
H  27.96800 51.82600 33.06500
H  28.82900 51.92400 31.53600
H  29.19100 50.55900 32.60400
H  25.49900 48.73100 32.37600
H  24.23200 49.17900 31.24800
H  22.86200 49.94000 32.68800
H  24.10800 50.96400 33.33900
H  31.37900 49.08500 29.80500
H  32.60600 48.68600 28.63200
H  31.44100 47.47900 29.15000
H  32.47100 47.13900 26.59700
H  33.36400 48.61900 26.88500
H  33.60000 47.63600 25.39100
H  26.78500 48.94200 22.60400
H  25.69000 51.73400 22.44800
H  28.70800 51.41900 22.34700
H  27.56200 51.06600 20.97400
H  28.59900 49.76500 21.50900
H  23.62500 49.81800 22.85900
H  24.72500 48.85400 21.88600
H  23.92700 49.97400 19.95000
H  24.24100 51.53700 20.80900
H  22.81000 50.73400 21.11100
H  21.95500 54.17200 25.71700
H  20.78100 53.14200 26.54700
H  21.37800 52.59100 25.02100
H  22.70600 51.72600 31.12800
H  23.58000 55.43500 33.17800
H  23.81900 54.18200 34.41800
H  22.20600 54.68600 34.06700

