158

Mg -2.39100 16.80000 25.95100
C  -3.10000 14.42100 28.32400
C  -3.02500 19.30600 28.18300
C  -2.48900 18.90000 23.32100
C  -2.77500 14.06600 23.48500
N  -2.93300 16.87900 27.99100
C  -3.11900 15.77200 28.82300
C  -3.34000 16.15600 30.30600
C  -3.34600 17.74100 30.23900
C  -3.05500 18.02400 28.73100
C  -4.64800 18.38900 30.82700
C  -2.31800 15.49100 31.34900
C  -1.73200 16.24200 32.61000
H  -1.37300 15.38300 33.80600
N  -2.55000 18.76500 25.79200
C  -2.66700 19.66000 26.84300
C  -2.60000 20.99500 26.38700
C  -2.33800 20.93200 24.99500
C  -2.47500 19.43400 24.63500
C  -2.78400 22.24500 27.18800
C  -1.95500 22.06700 24.06500
O  -1.80100 21.98200 22.86700
C  -1.58100 23.44500 24.56400
N  -2.59700 16.53900 23.69300
C  -2.56800 17.61800 22.89600
C  -2.81400 17.20100 21.42800
C  -2.93700 15.65700 21.52000
C  -2.70000 15.36000 22.98800
C  -3.86200 18.01000 20.64000
C  -1.96000 14.85100 20.54600
C  -2.76500 14.52100 19.26300
N  -2.95400 14.73000 25.85800
C  -2.80300 13.76300 24.86800
C  -2.91600 12.44700 25.38200
C  -3.14900 12.63900 26.73300
C  -3.11000 14.03800 26.97800
C  -2.84400 11.16100 24.74200
C  -3.30200 11.99800 27.95300
O  -3.49700 10.82400 28.22200
C  -3.17300 13.05300 29.06400
C  -2.09700 12.65000 29.94900
O  -0.92400 12.90000 29.76700
O  -2.71500 11.97200 30.99200
C  -1.72900 11.41800 31.96700
H  -3.16100 20.12500 28.89200
H  -2.48600 19.73200 22.61300
H  -2.71400 13.20000 22.82200
H  -4.29500 15.72000 30.59900
H  -2.49300 18.13500 30.79100
H  -4.35600 19.16900 31.52900
H  -5.24700 17.62200 31.31800
H  -5.09200 18.93700 29.99600
H  -1.43500 15.16000 30.80300
H  -2.73600 14.59700 31.81100
H  -2.41900 17.07100 32.77800
H  -0.77600 16.62800 32.25500
H  -1.97400 22.97400 27.19100
H  -3.05800 22.11600 28.23500
H  -3.57200 22.74700 26.62600
H  -2.46700 24.04500 24.77500
H  -1.01900 24.00700 23.81800
H  -0.87000 23.37900 25.38800
H  -1.83200 17.39700 20.99600
H  -3.98400 15.47200 21.27900
H  -4.59900 17.39800 20.12000
H  -3.55000 18.87700 20.05800
H  -4.42400 18.52500 21.42000
H  -1.45800 13.99300 20.99300
H  -1.17000 15.49500 20.15800
H  -3.70000 14.13700 19.67200
H  -2.31500 13.70800 18.69300
H  -2.89100 15.47300 18.74700
H  -3.84700 10.88900 24.41600
H  -2.59500 10.41400 25.49600
H  -2.21200 11.13500 23.85400
H  -4.10000 13.04900 29.63800
H  -2.29900 11.41000 32.89600
H  -0.80800 11.96400 32.16900
H  -1.48100 10.39900 31.66800
Mg 37.09700 49.80900 25.05900
C  37.27900 47.95700 28.11400
C  35.49300 52.33700 26.94200
C  36.42800 51.50600 22.32300
C  38.36100 47.21200 23.43500
N  36.51100 50.14700 27.29500
C  36.85100 49.29800 28.29500
C  36.48600 49.91900 29.67300
C  35.67200 51.20300 29.32500
C  35.81200 51.24000 27.74100
C  34.17400 51.28400 29.76900
C  37.68500 50.13900 30.61700
C  37.54400 50.19000 32.13700
H  36.07600 50.03500 32.80400
N  36.23600 51.78800 24.67000
C  35.68100 52.69700 25.57600
C  35.24100 53.87500 24.93500
C  35.29800 53.56900 23.48300
C  36.00100 52.23800 23.40400
C  34.60900 55.06800 25.72400
C  34.91500 54.43500 22.25200
O  35.15300 54.14800 21.07500
C  34.35800 55.78300 22.52200
N  37.34500 49.41100 23.11100
C  37.08400 50.26800 22.13200
C  37.41500 49.62100 20.71800
C  38.11400 48.26200 21.11400
C  37.99200 48.30600 22.63700
C  36.17800 49.54700 19.83700
C  39.53300 48.30800 20.54200
C  40.53700 48.97800 21.55600
N  37.61600 47.95800 25.62600
C  38.22800 46.98700 24.79300
C  38.54700 45.77000 25.58100
C  38.14900 46.13300 26.90300
C  37.65100 47.43700 26.86400
C  39.08500 44.51800 25.01600
C  38.02700 45.66600 28.26100
O  38.27400 44.54900 28.68800
C  37.55500 46.84900 29.09700
C  36.24500 46.41200 29.81900
O  35.18300 46.24400 29.27300
O  36.49200 46.02200 31.09400
C  35.18200 45.62800 31.83600
H  35.10700 53.10600 27.61500
H  36.26300 51.93100 21.33100
H  38.79400 46.41200 22.83100
H  35.92600 49.07900 30.08200
H  36.17300 52.07800 29.74000
H  34.06900 52.07000 30.51700
H  33.98500 50.32900 30.25900
H  33.48400 51.42100 28.93600
H  38.10800 51.06800 30.23400
H  38.50100 49.45500 30.38700
H  37.97600 51.12300 32.50000
H  38.10100 49.33800 32.52700
H  34.44000 54.90400 26.78800
H  33.62500 55.23900 25.28700
H  35.12000 55.99700 25.47100
H  35.14000 56.45900 22.87000
H  33.63500 55.56000 23.30600
H  33.83200 56.34700 21.75100
H  38.21400 50.21100 20.26800
H  37.56600 47.41700 20.69900
H  35.31900 50.17800 20.06400
H  35.90000 48.50200 19.70200
H  36.46200 49.89800 18.84500
H  39.64000 48.77300 19.56200
H  39.81300 47.26700 20.37900
H  40.16200 49.94100 21.90200
H  41.50800 49.08500 21.07200
H  40.67700 48.14000 22.23800
H  38.29600 43.84600 24.67800
H  39.74100 44.05700 25.75500
H  39.64400 44.77600 24.11600
H  38.18500 47.20300 29.91300
H  34.47100 46.44100 31.69100
H  35.47300 45.38800 32.85900
H  34.89700 44.67400 31.39200

