158

Mg 16.76600 -2.08400 27.06800
C  15.86800 0.21400 29.78700
C  18.91200 -3.58300 29.31200
C  18.17900 -3.76800 24.49700
C  15.33000 0.30100 24.84000
N  17.41500 -1.62900 29.23300
C  16.79100 -0.79500 30.17100
C  17.14900 -1.18300 31.57300
C  18.34200 -2.14100 31.36400
C  18.22900 -2.49100 29.91500
C  19.69800 -1.57000 31.78700
C  15.87400 -1.69300 32.42700
C  15.89300 -1.27100 33.89700
H  17.10700 -0.58300 34.52200
N  18.10500 -3.68200 26.92500
C  18.95000 -4.07700 27.97400
C  19.60900 -5.27900 27.51400
C  19.50900 -5.25800 26.06800
C  18.57200 -4.19700 25.80800
C  20.48500 -6.14500 28.44500
C  20.11800 -6.15900 25.00000
O  19.79000 -6.05700 23.83100
C  21.08500 -7.39400 25.24100
N  16.69200 -1.85100 24.98100
C  17.44200 -2.64500 24.11200
C  17.30000 -2.05300 22.63500
C  16.24700 -0.89000 22.78500
C  16.02400 -0.85500 24.25400
C  18.62200 -1.59200 22.06500
C  14.90700 -1.05900 21.95300
C  14.69400 0.14700 21.10000
N  15.68500 -0.21700 27.20200
C  15.12700 0.60700 26.27000
C  14.36300 1.61500 26.89900
C  14.71200 1.50400 28.19800
C  15.48000 0.41000 28.39300
C  13.50600 2.61700 26.28700
C  14.44500 2.13500 29.52500
O  13.82600 3.16600 29.86700
C  15.20700 1.31000 30.58500
C  16.15200 2.16900 31.44000
O  17.30900 2.35900 31.11400
O  15.43400 2.76500 32.43500
C  16.23400 3.61600 33.41400
H  19.56700 -4.12200 30.00000
H  18.66000 -4.17200 23.60400
H  14.80000 0.93500 24.12600
H  17.56500 -0.29000 32.04000
H  18.14100 -3.04900 31.93200
H  19.82100 -0.54800 32.14400
H  20.32800 -1.59700 30.89700
H  20.13700 -2.24100 32.52500
H  15.88700 -2.78100 32.47800
H  14.97900 -1.46300 31.84900
H  15.77900 -2.14100 34.54500
H  15.07200 -0.60500 34.16400
H  21.42800 -6.45200 27.99300
H  19.90300 -7.05100 28.61900
H  20.63000 -5.70400 29.43100
H  22.01800 -6.85500 25.40600
H  21.16100 -7.95200 24.30700
H  20.78500 -7.95200 26.12800
H  17.06200 -2.91400 22.01000
H  16.80100 0.00400 22.49900
H  18.87500 -0.78000 22.74800
H  18.63900 -1.25700 21.02800
H  19.35700 -2.38800 22.18600
H  14.08200 -1.14100 22.66000
H  14.85000 -2.02000 21.44200
H  15.57100 0.77400 20.93900
H  13.91000 0.75800 21.54800
H  14.43400 -0.16500 20.08800
H  12.47600 2.38500 26.56000
H  13.62100 2.75800 25.21200
H  13.78800 3.51400 26.83800
H  14.44700 0.91800 31.26100
H  16.86100 2.82900 33.83300
H  15.54500 4.14500 34.07300
H  16.89500 4.27900 32.85700
Mg 35.27900 1.15600 28.74400
C  33.16200 2.77900 30.96700
C  37.73700 1.39000 31.22400
C  37.62800 0.45100 26.46500
C  32.94300 1.57200 26.19500
N  35.44500 1.95700 30.92500
C  34.37900 2.53500 31.57500
C  34.64900 2.62300 33.06500
C  36.23000 2.45500 33.03100
C  36.50000 1.82300 31.66900
C  36.81200 3.91800 33.25200
C  33.84000 1.42500 33.87600
C  33.10300 1.93400 35.15600
H  33.92100 2.92200 36.02100
N  37.42500 0.78100 28.84000
C  38.18700 0.89100 29.97000
C  39.46100 0.34200 29.65100
C  39.56100 0.11900 28.22000
C  38.20700 0.53300 27.73500
C  40.49800 0.20800 30.68800
C  40.73300 -0.43500 27.40700
O  40.65500 -0.69100 26.18900
C  41.99000 -0.69300 28.20700
N  35.31800 1.13000 26.59500
C  36.35600 0.62300 25.90100
C  36.02000 0.51700 24.44500
C  34.50400 0.59200 24.39200
C  34.18900 1.07100 25.77700
C  36.73800 1.58500 23.51500
C  33.78700 -0.78000 24.21400
C  32.81000 -0.78500 22.98200
N  33.46300 1.98000 28.56800
C  32.56200 1.97700 27.52300
C  31.32700 2.54300 27.93000
C  31.48600 2.82100 29.32000
C  32.77500 2.45100 29.65200
C  30.19300 2.66500 27.00500
C  30.84900 3.35500 30.47100
O  29.78000 3.75400 30.67300
C  31.86200 3.27800 31.61700
C  32.01000 4.48600 32.49800
O  32.86100 5.33800 32.42100
O  31.07800 4.39300 33.50800
C  31.27800 5.39600 34.58100
H  38.46300 1.48000 32.03400
H  38.30600 -0.01100 25.74500
H  32.09700 1.40200 25.52700
H  34.35400 3.59300 33.46300
H  36.69500 1.84300 33.80300
H  36.05100 4.60500 33.62200
H  37.09100 4.32700 32.28100
H  37.66100 3.94800 33.93500
H  34.62700 0.71700 34.13400
H  33.11500 1.00900 33.17600
H  32.75100 1.06900 35.71800
H  32.23800 2.48800 34.79000
H  41.18900 -0.62300 30.55200
H  40.04500 -0.17400 31.60300
H  40.97100 1.18600 30.78100
H  42.71700 -1.00100 27.45600
H  41.71500 -1.55600 28.81500
H  42.40000 0.18300 28.70800
H  36.38900 -0.44300 24.08200
H  34.15500 1.34000 23.67900
H  36.06700 2.29800 23.03700
H  37.28400 1.17500 22.66500
H  37.49200 2.26400 23.91300
H  33.23400 -1.07400 25.10600
H  34.45000 -1.63200 24.05900
H  33.15500 -1.38600 22.14100
H  32.61600 0.24700 22.69200
H  31.91200 -1.26100 23.37700
H  30.30100 3.62800 26.50700
H  29.28600 2.68000 27.60900
H  30.10600 1.77900 26.37700
H  31.54100 2.48600 32.29400
H  30.93000 6.35500 34.19600
H  32.31900 5.32300 34.89500
H  30.66300 5.14000 35.44300

