158

Mg 16.47600 51.83400 26.60100
C  18.32600 50.24200 29.08100
C  14.00600 52.46000 28.83900
C  14.53600 52.83400 23.96700
C  18.91300 50.82500 24.22700
N  16.24100 51.36700 28.61500
C  17.09800 50.75300 29.50000
C  16.64900 50.96000 30.99200
C  15.14700 51.25300 30.80100
C  15.10900 51.74000 29.36000
C  14.15100 50.17400 31.12000
C  17.38500 52.11200 31.81500
C  18.00600 51.78500 33.24600
H  17.08800 51.04000 34.27100
N  14.56000 52.62800 26.47500
C  13.72400 52.90700 27.53700
C  12.65800 53.71500 27.02100
C  12.82400 53.88200 25.59100
C  14.02200 53.10700 25.26200
C  11.56400 54.39700 27.92700
C  12.11400 54.84500 24.59100
O  12.50500 54.93100 23.44000
C  10.96000 55.68600 25.10200
N  16.63700 51.58100 24.43500
C  15.74600 52.21500 23.63200
C  16.23300 52.31300 22.17700
C  17.72300 51.92900 22.30900
C  17.76500 51.33800 23.69300
C  15.34600 51.44200 21.21100
C  18.82400 52.91200 21.81800
C  20.01300 52.33700 21.11500
N  18.18400 50.76400 26.59600
C  19.07600 50.50700 25.58300
C  20.24900 49.87400 26.18100
C  20.02100 49.81700 27.56000
C  18.74800 50.32700 27.70200
C  21.46400 49.54900 25.36900
C  20.64500 49.46400 28.80900
O  21.80700 49.13200 29.18200
C  19.43200 49.56100 29.85500
C  19.12000 48.15000 30.28700
O  18.39800 47.33300 29.74700
O  19.79400 47.97000 31.44400
C  19.51000 46.69800 32.06900
H  13.37000 52.86400 29.62900
H  13.85500 53.08100 23.15000
H  19.75300 50.76600 23.53000
H  16.76600 50.02000 31.52900
H  14.94400 52.12300 31.42600
H  13.52900 49.97200 30.24800
H  13.44000 50.45900 31.89500
H  14.57800 49.19300 31.33200
H  16.73900 52.98800 31.86800
H  18.15000 52.38600 31.08800
H  18.33000 52.70000 33.74000
H  18.93300 51.21200 33.25700
H  11.86000 55.42000 28.16100
H  11.40400 53.91400 28.89100
H  10.62000 54.43300 27.38400
H  10.13500 55.04800 25.41800
H  10.59500 56.29500 24.27500
H  11.39600 56.33300 25.86300
H  16.16600 53.29400 21.70700
H  17.80200 51.01500 21.72100
H  15.94100 50.82500 20.53800
H  14.69800 52.13100 20.66900
H  14.77000 50.73600 21.80900
H  19.23700 53.38600 22.70800
H  18.32800 53.74400 21.31700
H  20.28300 52.81800 20.17500
H  19.91900 51.28700 20.83900
H  20.80900 52.47200 21.84800
H  22.21700 49.27100 26.10600
H  21.84400 50.50500 25.00800
H  21.31700 48.84000 24.55400
H  19.73200 50.13300 30.73300
H  18.48300 46.39900 31.86200
H  19.47000 46.86700 33.14500
H  20.23100 45.90400 31.87100
Mg -11.18300 16.38400 41.24400
C  -8.15200 14.69000 40.97400
C  -9.62500 19.21400 40.09300
C  -14.19300 17.62700 40.42700
C  -12.70600 13.45300 42.16700
N  -9.16100 16.80000 40.38100
C  -8.10400 15.97200 40.46000
C  -6.79500 16.70100 39.96600
C  -7.20100 18.12900 40.02400
C  -8.75100 18.09700 40.14100
C  -6.50000 18.99900 41.13900
C  -6.36400 16.09400 38.60900
C  -5.02200 16.55700 38.07700
H  -5.01100 17.17300 36.71100
N  -11.80900 18.26800 40.52800
C  -11.04400 19.37600 40.25900
C  -11.84200 20.51300 40.07100
C  -13.17500 20.04900 40.05600
C  -13.12600 18.59300 40.32700
C  -11.23700 21.91700 39.96500
C  -14.41100 20.90700 39.83400
O  -14.21000 22.11700 39.67400
C  -15.89600 20.39000 39.82900
N  -13.09300 15.56700 41.09600
C  -14.17300 16.33100 40.84400
C  -15.49600 15.49700 40.89800
C  -15.02600 14.31200 41.79200
C  -13.52200 14.45000 41.75100
C  -16.77500 16.29700 41.33700
C  -15.54800 12.89800 41.40400
C  -15.98200 12.07000 42.60900
N  -10.53900 14.45700 41.66000
C  -11.25700 13.38200 42.05600
C  -10.33700 12.30700 42.33700
C  -9.05700 12.82100 41.97200
C  -9.25700 14.09400 41.42400
C  -10.59400 10.92600 42.84800
C  -7.64600 12.47700 41.95200
O  -7.03900 11.51800 42.27600
C  -7.04900 13.70600 41.18800
C  -6.04800 14.27800 42.12800
O  -6.35100 14.79500 43.17700
O  -4.78400 14.23400 41.60700
C  -3.76600 14.37100 42.63700
H  -9.02600 20.09400 39.85000
H  -15.16100 17.99400 40.08000
H  -13.29000 12.64700 42.61500
H  -6.04700 16.51000 40.73500
H  -6.92300 18.47000 39.02700
H  -5.95400 18.31300 41.78700
H  -7.32300 19.52600 41.62100
H  -5.72600 19.68000 40.78700
H  -7.18800 16.28800 37.92200
H  -6.30000 15.01400 38.73900
H  -4.43900 15.63700 38.03800
H  -4.55200 17.25500 38.77100
H  -11.26900 22.32400 38.95500
H  -10.21800 22.02800 40.33500
H  -11.69700 22.76400 40.47600
H  -16.54500 21.22300 39.56100
H  -16.13200 19.89800 40.77200
H  -15.96900 19.64800 39.03400
H  -15.75900 15.07600 39.92700
H  -15.35900 14.62200 42.78200
H  -17.45000 16.60700 40.53900
H  -16.51800 17.20700 41.88000
H  -17.36800 15.63100 41.96500
H  -14.81200 12.35400 40.81200
H  -16.47800 12.99400 40.84400
H  -15.53000 11.10700 42.37300
H  -16.99300 11.67100 42.68600
H  -15.69800 12.47900 43.57900
H  -11.52500 10.88800 43.41400
H  -9.74600 10.52600 43.40400
H  -10.80800 10.22800 42.03800
H  -6.56900 13.40600 40.25600
H  -2.89900 13.80300 42.30000
H  -3.92400 13.91900 43.61600
H  -3.47200 15.37900 42.92900

