158

Mg 0.38100 8.13100 25.54200
C  1.38800 10.11800 28.08800
C  0.89100 5.41200 27.54700
C  -0.14100 6.18000 22.82000
C  0.67500 10.85000 23.40700
N  1.26200 7.77500 27.53900
C  1.28600 8.74100 28.44700
C  1.42600 8.17000 29.84900
C  1.45000 6.64700 29.67600
C  1.12200 6.60700 28.18600
C  2.80600 5.98300 30.01900
C  0.26700 8.58100 30.73300
C  0.41600 8.28400 32.23100
H  1.64300 7.54700 32.74700
N  0.35900 6.10100 25.22700
C  0.63800 5.08800 26.24600
C  0.40400 3.71800 25.74400
C  -0.02700 3.93800 24.34500
C  0.01000 5.44300 24.03700
C  0.43400 2.38000 26.51000
C  -0.41700 2.94500 23.19100
O  -0.73100 3.36100 22.10600
C  -0.50600 1.48500 23.44700
N  0.31900 8.47200 23.38200
C  0.02200 7.52800 22.44600
C  -0.10900 8.11800 20.98700
C  0.17700 9.59800 21.23800
C  0.40700 9.72400 22.79300
C  0.86100 7.45000 19.92900
C  -0.97800 10.55500 20.78600
C  -2.20300 10.51100 21.79000
N  0.95500 10.11300 25.65500
C  0.86200 11.08800 24.75200
C  1.17900 12.36400 25.38200
C  1.26800 12.03500 26.78900
C  1.21700 10.62900 26.82500
C  1.32700 13.65800 24.74000
C  1.65900 12.54300 28.08600
O  2.00300 13.66500 28.47900
C  1.69800 11.33000 28.99100
C  3.04300 11.31300 29.63700
O  3.97100 10.55300 29.36800
O  2.98600 12.11600 30.65800
C  4.00000 11.96800 31.68800
H  0.87500 4.54600 28.21200
H  -0.33700 5.50500 21.98400
H  0.81400 11.77200 22.83900
H  2.27800 8.68300 30.29400
H  0.71500 6.12700 30.29000
H  3.52800 6.74600 30.30800
H  3.16900 5.59300 29.06800
H  2.74100 5.21000 30.78400
H  -0.59200 8.02200 30.36200
H  0.11000 9.65400 30.62400
H  -0.38800 7.60800 32.52200
H  0.36600 9.13000 32.91600
H  -0.43200 1.76400 26.26800
H  0.26700 2.38100 27.58700
H  1.33100 1.82400 26.23500
H  -1.37500 1.16300 24.02100
H  0.33100 1.13500 24.05100
H  -0.41800 0.96300 22.49400
H  -1.09600 7.84200 20.61600
H  1.05000 9.89200 20.65500
H  1.70800 6.94400 20.39300
H  1.15400 8.24200 19.24000
H  0.35400 6.65400 19.38300
H  -1.19200 10.26300 19.75800
H  -0.67800 11.60100 20.84800
H  -2.29100 11.35200 22.47700
H  -2.13200 9.54200 22.28400
H  -3.11600 10.46600 21.19600
H  0.39200 14.21300 24.68200
H  1.72200 13.39600 23.75800
H  1.94500 14.37500 25.28000
H  0.92700 11.63900 29.69700
H  4.91600 12.14300 31.12400
H  3.96100 10.94100 32.05000
H  3.78500 12.62100 32.53500
Mg -2.47700 34.68100 25.94600
C  -4.29200 32.94500 28.56900
C  -0.86100 36.44200 28.47200
C  -0.86300 36.28700 23.62800
C  -4.35300 32.84700 23.63500
N  -2.63600 34.73700 28.26600
C  -3.34800 33.89200 29.06300
C  -3.02000 34.11400 30.57500
C  -2.05400 35.37100 30.49400
C  -1.76800 35.53900 28.98200
C  -2.60100 36.75600 31.13600
C  -2.38300 32.89100 31.18300
C  -2.90700 32.59000 32.57000
H  -1.92600 32.41400 33.77700
N  -1.03200 36.19000 26.00300
C  -0.53800 36.81300 27.10600
C  0.44300 37.74900 26.65500
C  0.61900 37.56100 25.27500
C  -0.43700 36.62900 24.89500
C  1.06200 38.74400 27.60000
C  1.55100 38.22700 24.32700
O  1.55500 38.04300 23.14000
C  2.76300 38.99000 24.87100
N  -2.65300 34.58000 23.86200
C  -1.83900 35.39700 23.11400
C  -2.16600 35.22200 21.55500
C  -3.19100 34.05100 21.63200
C  -3.40200 33.75600 23.10600
C  -2.62200 36.57300 20.92700
C  -2.81100 32.87900 20.68100
C  -1.78100 31.92100 21.23600
N  -4.09000 33.28400 26.04500
C  -4.65800 32.54600 24.96600
C  -5.59200 31.59200 25.49700
C  -5.49900 31.75600 26.86800
C  -4.50900 32.68600 27.22100
C  -6.38100 30.70300 24.59100
C  -6.01900 31.35400 28.17800
O  -6.95800 30.68600 28.47700
C  -5.18500 31.97100 29.27900
C  -6.12700 32.64600 30.14200
O  -6.67500 33.74300 29.98900
O  -6.42700 31.91300 31.29400
C  -7.13900 32.49900 32.39100
H  -0.33300 36.93900 29.28900
H  -0.29400 36.66800 22.77800
H  -4.79800 32.23700 22.84600
H  -3.95200 34.48500 31.00300
H  -1.10500 35.12300 30.97000
H  -3.68300 36.88400 31.15900
H  -2.31100 37.65400 30.59100
H  -2.20300 36.98500 32.12500
H  -1.30300 33.03900 31.19000
H  -2.43700 32.00100 30.55600
H  -3.43600 31.64700 32.42900
H  -3.64000 33.28800 32.97400
H  0.65600 38.75500 28.61100
H  1.02900 39.78200 27.26800
H  2.07800 38.34900 27.59700
H  3.61000 38.92700 24.18800
H  3.05500 38.26600 25.63100
H  2.35300 39.83900 25.41700
H  -1.16300 34.98000 21.20200
H  -4.14900 34.29400 21.17100
H  -3.69800 36.65600 20.77100
H  -2.08400 36.61900 19.98000
H  -2.20200 37.42000 21.46800
H  -2.32600 33.28400 19.79300
H  -3.66300 32.31800 20.29700
H  -1.42700 32.40400 22.14600
H  -0.94900 31.82100 20.53900
H  -2.34600 31.01500 21.45700
H  -5.89600 30.39100 23.66600
H  -7.29800 31.24700 24.36400
H  -6.47600 29.75300 25.11700
H  -4.67900 31.19600 29.85400
H  -7.81800 33.22000 31.93600
H  -6.46900 33.15100 32.95200
H  -7.55700 31.80000 33.11600

