158

Mg 23.06500 -7.50300 46.22200
C  25.72900 -5.33600 44.86600
C  20.87100 -5.89200 44.27700
C  21.04600 -10.14300 46.58600
C  25.73100 -9.33600 47.75900
N  23.28500 -5.79000 44.78000
C  24.42600 -5.06000 44.35000
C  23.99500 -3.97900 43.25800
C  22.43200 -4.06700 43.27600
C  22.15500 -5.36600 44.07900
C  21.74600 -2.93900 43.93800
C  24.75900 -4.13300 41.84200
C  24.72200 -2.80700 40.98600
H  23.93300 -2.77800 39.64000
N  21.19700 -7.92600 45.56100
C  20.38100 -7.11500 44.84400
C  19.15700 -7.76600 44.44500
C  19.11900 -8.95400 45.26500
C  20.50300 -9.09800 45.79200
C  18.09400 -7.12900 43.56400
C  17.94700 -9.97200 45.39300
O  16.90000 -9.84200 44.68700
C  18.00000 -11.09000 46.36800
N  23.36600 -9.39900 46.98600
C  22.29600 -10.25900 47.13400
C  22.68600 -11.55800 47.91000
C  24.21600 -11.29000 48.18400
C  24.51200 -9.95100 47.50700
C  21.89300 -11.84100 49.18700
C  25.08200 -12.55200 47.88700
C  26.35300 -12.70800 48.70700
N  25.28100 -7.29700 46.49600
C  26.17000 -8.12200 47.19600
C  27.49200 -7.55400 47.06500
C  27.39100 -6.48300 46.17800
C  25.99700 -6.41800 45.77100
C  28.73500 -8.08000 47.64600
C  28.13300 -5.32000 45.62500
O  29.24900 -4.91100 45.87700
C  27.07900 -4.62200 44.62100
C  27.14900 -3.22700 45.09100
O  26.54400 -2.89700 46.11100
O  27.64900 -2.36500 44.12700
C  27.70300 -0.91700 44.50400
H  20.18100 -5.15800 43.85700
H  20.40800 -11.02200 46.69900
H  26.53200 -9.93200 48.20000
H  24.30100 -2.97700 43.55900
H  22.04000 -4.21300 42.26900
H  22.45400 -2.58900 44.68900
H  20.86400 -3.11000 44.55500
H  21.65700 -2.16500 43.17600
H  24.24900 -4.98000 41.38400
H  25.79400 -4.45800 41.94800
H  25.77500 -2.85800 40.70700
H  24.55100 -1.95700 41.64600
H  18.16300 -7.77300 42.68700
H  18.29600 -6.07200 43.38900
H  17.08400 -7.20200 43.96600
H  18.36300 -10.75300 47.33900
H  18.58700 -11.91300 45.96000
H  17.01800 -11.53800 46.52400
H  22.61900 -12.28000 47.09700
H  24.32900 -11.14100 49.25800
H  22.48000 -11.59500 50.07200
H  21.60800 -12.89100 49.12400
H  20.98800 -11.23500 49.13800
H  25.27100 -12.43000 46.82000
H  24.50600 -13.44900 48.11500
H  27.16200 -12.79900 47.98300
H  26.41200 -13.49100 49.46300
H  26.62300 -11.79400 49.23700
H  29.49600 -8.15600 46.87000
H  28.57600 -9.02100 48.17200
H  29.06900 -7.45400 48.47400
H  27.37600 -4.70400 43.57600
H  28.70300 -0.61900 44.81800
H  27.00100 -0.71300 45.31300
H  27.39600 -0.40100 43.59500
Mg 16.53900 51.39000 24.89700
C  18.05200 50.42000 27.88600
C  13.76600 52.37300 26.70800
C  14.99700 51.96100 21.98900
C  19.45500 50.40300 23.22500
N  16.03400 51.44100 27.02000
C  16.84900 51.04100 28.04600
C  16.19500 51.37800 29.42100
C  14.79000 51.92100 29.02800
C  14.86300 51.93200 27.50900
C  13.52300 51.13900 29.50900
C  17.16900 52.34800 30.27200
C  17.52500 51.87400 31.65400
H  16.39300 51.21700 32.51000
N  14.68100 52.19000 24.42500
C  13.61400 52.45700 25.31200
C  12.48900 52.88200 24.56300
C  12.83000 52.72200 23.15800
C  14.25400 52.31600 23.15500
C  11.20900 53.39500 25.19100
C  12.06100 53.02800 21.97000
O  12.45800 52.91500 20.78900
C  10.82200 53.79100 22.18200
N  17.10000 51.02700 22.90400
C  16.22800 51.41700 21.86500
C  16.90100 51.15800 20.51500
C  18.34700 50.80900 20.91300
C  18.36600 50.88000 22.45900
C  16.15300 49.98200 19.74100
C  19.47500 51.62500 20.22400
C  20.03200 50.98900 18.88600
N  18.33300 50.43800 25.35000
C  19.42700 50.11400 24.57300
C  20.49700 49.51000 25.42300
C  19.98500 49.66000 26.71700
C  18.71200 50.23200 26.64400
C  21.66900 48.77400 24.92700
C  20.35200 49.49700 28.11100
O  21.33500 49.05500 28.65600
C  19.09400 49.92000 28.93800
C  18.63000 48.71800 29.64800
O  17.92400 47.80500 29.13400
O  19.10200 48.83500 30.93600
C  18.87700 47.68200 31.76300
H  12.99800 52.83300 27.33400
H  14.51300 52.07400 21.01600
H  20.31400 50.06300 22.64200
H  16.19800 50.38000 29.85900
H  14.68600 52.94900 29.37300
H  12.95800 50.70100 28.68600
H  12.78700 51.74800 30.03300
H  13.82900 50.37300 30.22100
H  16.66300 53.30200 30.42300
H  18.13800 52.52400 29.80600
H  17.87700 52.76700 32.17100
H  18.35400 51.17400 31.55300
H  11.17300 53.10200 26.24000
H  10.27100 52.96800 24.83800
H  11.18500 54.47700 25.31200
H  9.94700 53.32600 22.63600
H  10.44500 54.03000 21.18700
H  11.12600 54.69900 22.70100
H  16.88300 52.03200 19.86500
H  18.55200 49.79500 20.57000
H  15.23300 49.59900 20.18200
H  16.80500 49.12900 19.55600
H  16.03600 50.41100 18.74600
H  20.14700 52.07900 20.95200
H  19.06100 52.56700 19.86400
H  19.63800 51.50200 18.00900
H  19.81200 49.92400 18.81200
H  21.11500 51.11000 18.86400
H  21.46900 47.78400 25.33900
H  22.53900 49.36600 25.21000
H  21.62000 48.65200 23.84500
H  19.42100 50.67200 29.65600
H  19.62800 47.69400 32.55300
H  18.89400 46.74500 31.20600
H  17.87600 47.79900 32.17900

