158

Mg 1.74200 -2.00100 44.65100
C  4.89100 -0.99200 43.70800
C  0.34800 0.36100 42.50300
C  -1.29900 -3.47600 44.98300
C  3.26000 -4.82300 46.26000
N  2.62000 -0.61000 42.99400
C  3.91300 -0.27100 42.92500
C  4.12500 0.95900 41.98000
C  2.66600 1.35600 41.72500
C  1.79300 0.33100 42.47800
C  2.33000 2.83000 42.12900
C  4.91600 0.65400 40.65500
C  6.22700 1.35300 40.56000
H  6.56200 2.09800 39.21300
N  -0.27000 -1.56600 43.99300
C  -0.60700 -0.55900 43.04900
C  -2.07700 -0.42700 43.02900
C  -2.62100 -1.52900 43.80500
C  -1.43200 -2.24500 44.32600
C  -2.90100 0.60400 42.36300
C  -3.99000 -1.92200 43.99600
O  -4.90000 -1.35500 43.45400
C  -4.43400 -3.02100 44.87100
N  1.11900 -3.82900 45.54600
C  -0.24500 -4.13000 45.67800
C  -0.48200 -5.39700 46.42600
C  0.94400 -5.81500 46.81100
C  1.87700 -4.71200 46.23100
C  -1.56000 -5.49900 47.56500
C  1.34100 -7.35400 46.47000
C  1.46900 -8.26700 47.69900
N  3.75500 -2.78100 45.01600
C  4.16100 -3.85500 45.73200
C  5.58900 -3.86100 45.69900
C  6.00300 -2.70200 44.96600
C  4.81400 -2.19000 44.54600
C  6.52000 -4.80800 46.40900
C  7.07400 -1.91400 44.49000
O  8.27200 -2.01300 44.69200
C  6.43300 -0.82200 43.53400
C  6.89900 0.52200 43.94400
O  7.75100 1.22200 43.42300
O  6.13200 0.96400 45.03800
C  6.51500 2.31100 45.46900
H  -0.10500 1.17500 41.93300
H  -2.18200 -4.05800 45.25600
H  3.76000 -5.68500 46.70600
H  4.63800 1.66000 42.63800
H  2.36000 1.29300 40.68100
H  1.62900 2.74600 42.96000
H  1.84900 3.38500 41.32400
H  3.20500 3.40700 42.42800
H  4.29500 0.92300 39.80100
H  5.07400 -0.42100 40.56000
H  7.00500 0.59200 40.62700
H  6.34400 2.07200 41.37100
H  -2.28300 1.46600 42.11200
H  -3.64700 0.91100 43.09600
H  -3.43100 0.19500 41.50300
H  -3.97300 -3.09700 45.85600
H  -4.30400 -4.01700 44.44800
H  -5.51000 -2.94200 45.02900
H  -0.72800 -6.08000 45.61300
H  1.01300 -5.67600 47.89000
H  -1.15300 -5.48400 48.57600
H  -2.15500 -6.41100 47.50500
H  -2.32500 -4.73100 47.45400
H  2.11600 -7.47800 45.71300
H  0.62000 -7.89700 45.86000
H  0.90900 -9.16400 47.43400
H  1.14100 -7.89300 48.66900
H  2.49100 -8.63800 47.77600
H  7.48200 -4.32000 46.56100
H  6.67500 -5.72400 45.83900
H  6.22300 -5.03200 47.43400
H  6.70300 -1.10700 42.51700
H  7.48900 2.18000 45.94000
H  5.75000 2.57000 46.20000
H  6.57400 3.01800 44.64200
Mg 53.32600 23.96100 44.37300
C  51.07500 26.35700 43.29500
C  51.38500 21.54100 42.94800
C  55.92500 21.85000 44.46000
C  55.39600 26.52200 45.43600
N  51.50000 23.96500 43.21500
C  50.75900 25.05100 42.83100
C  49.55700 24.55200 41.90900
C  49.43800 23.11500 42.38000
C  50.88400 22.79400 42.85400
C  48.32000 22.78400 43.40900
C  49.71600 24.85900 40.37400
C  51.16300 25.26000 39.88600
H  51.37100 25.83100 38.50200
N  53.57500 21.99500 43.92800
C  52.65200 21.15400 43.40800
C  53.06800 19.77100 43.43100
C  54.37100 19.78500 43.93900
C  54.69200 21.25500 44.11600
C  52.29800 18.56300 42.83800
C  55.24500 18.54800 44.19800
O  54.76200 17.41900 43.91600
C  56.51500 18.66100 44.97400
N  55.38600 24.21500 44.64800
C  56.22500 23.17300 44.79500
C  57.63500 23.58800 45.05200
C  57.49800 25.04800 45.50500
C  55.96200 25.29900 45.18700
C  58.52100 22.69700 46.07100
C  58.52600 26.10700 44.98000
C  58.35700 26.73500 43.65400
N  53.18000 25.99000 44.60900
C  54.09400 26.93500 45.15000
C  53.47400 28.22100 45.15900
C  52.24600 28.03700 44.55600
C  52.15400 26.70000 44.15700
C  54.02400 29.47600 45.80200
C  51.01500 28.61900 44.13100
O  50.54400 29.77700 44.36700
C  50.19800 27.52400 43.22800
C  49.95300 28.02000 41.85400
O  50.83700 28.57700 41.16900
O  48.59600 27.88800 41.53600
C  48.20400 28.39600 40.20900
H  50.74500 20.77000 42.51300
H  56.80500 21.20300 44.47200
H  56.12200 27.22000 45.85900
H  48.80800 25.26400 42.25700
H  49.22700 22.46600 41.53000
H  47.30400 22.83400 43.01800
H  48.32600 23.64300 44.08000
H  48.68000 21.94500 44.00500
H  48.87900 25.49500 40.08500
H  49.57400 23.90300 39.87100
H  51.83500 24.42900 40.09900
H  51.51800 26.04300 40.55600
H  51.91300 18.13900 43.76600
H  52.94100 17.82900 42.35200
H  51.53100 18.89600 42.13900
H  56.50500 17.78000 45.61600
H  56.61800 19.52200 45.63400
H  57.39800 18.67900 44.33500
H  57.94700 23.53800 44.00900
H  57.29500 25.13500 46.57200
H  58.80200 23.39200 46.86300
H  59.48800 22.35900 45.69900
H  57.95400 21.85200 46.46300
H  59.54300 25.90600 45.31600
H  58.18700 26.87000 45.68200
H  59.33100 26.83900 43.17700
H  57.66900 27.58000 43.65200
H  57.80700 26.04500 43.01400
H  54.15100 30.13000 44.94000
H  55.02000 29.49100 46.24400
H  53.27400 29.80300 46.52200
H  49.25400 27.40100 43.75800
H  48.22600 29.48600 40.20600
H  47.17300 28.05000 40.14500
H  48.76100 27.93500 39.39300

