158

Mg 0.28200 -0.80900 43.92000
C  3.51500 0.32800 43.02900
C  -1.05800 1.87500 42.10700
C  -2.77700 -2.25500 44.16300
C  1.79100 -3.65200 45.32300
N  1.18200 0.85400 42.67500
C  2.50400 1.16500 42.51800
C  2.72900 2.42100 41.69900
C  1.26100 3.03300 41.92000
C  0.37500 1.86900 42.34800
C  1.22800 4.14800 42.97900
C  3.19300 2.10500 40.23500
C  4.47200 2.93700 39.80900
H  4.21000 3.80600 38.62400
N  -1.63100 -0.22600 43.35800
C  -1.93400 0.89000 42.56500
C  -3.37200 0.98500 42.36400
C  -3.89700 -0.15500 42.98200
C  -2.75200 -0.97200 43.55200
C  -4.10400 2.05800 41.57900
C  -5.39100 -0.60000 43.01400
O  -6.27100 0.09000 42.51600
C  -5.91800 -1.96000 43.44600
N  -0.38300 -2.71800 44.46600
C  -1.72600 -3.00900 44.67200
C  -1.93800 -4.28200 45.36300
C  -0.52300 -4.81000 45.78700
C  0.37500 -3.66700 45.19100
C  -2.97400 -4.35600 46.47900
C  -0.10300 -6.23800 45.31300
C  0.04100 -7.23300 46.38400
N  2.27300 -1.50900 44.15800
C  2.71900 -2.70100 44.79400
C  4.15400 -2.76500 44.66100
C  4.47200 -1.53700 44.07100
C  3.28700 -0.85700 43.74100
C  5.18700 -3.75600 45.04900
C  5.58000 -0.80400 43.61300
O  6.79100 -1.10000 43.55600
C  4.96800 0.49000 42.87900
C  5.53300 1.74500 43.54700
O  5.14100 2.16300 44.62400
O  6.70000 2.18700 42.89900
C  7.65500 2.96600 43.64100
H  -1.45900 2.80000 41.68700
H  -3.67600 -2.84500 44.34900
H  2.24300 -4.59900 45.62500
H  3.45000 3.06300 42.20500
H  0.80900 3.37700 40.99000
H  0.26400 4.10200 43.48500
H  1.43100 5.13400 42.56200
H  2.04800 3.90800 43.65600
H  2.32600 2.34600 39.62000
H  3.27000 1.01700 40.24400
H  5.23100 2.21100 39.51700
H  4.89000 3.51900 40.63000
H  -3.56800 2.97300 41.32900
H  -4.88700 2.41300 42.24900
H  -4.54600 1.62100 40.68400
H  -6.98500 -2.15100 43.33800
H  -5.87500 -1.98600 44.53500
H  -5.38400 -2.77400 42.95400
H  -2.28300 -5.04400 44.66400
H  -0.40700 -4.77900 46.87100
H  -3.28100 -3.35900 46.79200
H  -2.46600 -4.83900 47.31400
H  -3.90300 -4.87000 46.23100
H  0.81500 -6.15000 44.73100
H  -0.72300 -6.58700 44.48700
H  0.03300 -6.67900 47.32200
H  0.99500 -7.75100 46.29100
H  -0.85700 -7.84600 46.30200
H  5.34000 -4.01000 46.09800
H  6.18000 -3.44700 44.72200
H  4.93200 -4.69100 44.55100
H  5.27200 0.54800 41.83400
H  7.62400 2.54500 44.64600
H  7.33100 4.00100 43.53200
H  8.60400 2.75100 43.15100
Mg -3.13700 34.89100 27.03900
C  -4.82400 32.96000 29.41200
C  -2.35400 37.14900 29.62600
C  -1.49500 36.71900 24.83100
C  -4.17200 32.78200 24.58500
N  -3.53900 35.10500 29.28100
C  -4.16800 34.07600 30.00800
C  -4.11900 34.36200 31.53800
C  -3.54300 35.89600 31.55800
C  -3.11400 36.06200 30.06600
C  -4.67700 36.94900 31.87000
C  -3.07800 33.27000 32.15900
C  -3.47400 32.96500 33.59700
H  -2.81300 33.77200 34.75800
N  -1.99000 36.67200 27.25200
C  -1.75900 37.44800 28.40900
C  -0.79400 38.45700 28.02000
C  -0.63200 38.37500 26.56300
C  -1.41100 37.21200 26.15300
C  -0.25400 39.56200 29.04300
C  0.16700 39.28100 25.71800
O  0.18400 39.23800 24.47000
C  0.96700 40.33000 26.40000
N  -2.94200 34.85400 24.98200
C  -2.14700 35.59500 24.30800
C  -1.91100 35.17000 22.83800
C  -2.59000 33.81100 22.91900
C  -3.31100 33.82200 24.24000
C  -2.59000 36.06200 21.72400
C  -1.60600 32.58900 22.91600
C  -1.75200 31.67200 21.64400
N  -4.28800 33.19200 27.00200
C  -4.62200 32.46100 25.89600
C  -5.59900 31.39600 26.25000
C  -5.61000 31.47100 27.68200
C  -4.81300 32.64300 28.04200
C  -6.20000 30.39000 25.43700
C  -6.16300 30.86600 28.91900
O  -6.91800 29.90500 29.07200
C  -5.60700 31.75800 30.08800
C  -6.78000 32.19700 30.90100
O  -7.68300 32.93300 30.61000
O  -6.76500 31.52600 32.06200
C  -7.87500 31.92000 33.03900
H  -1.98900 37.80900 30.41600
H  -0.83800 37.26500 24.15200
H  -4.49400 32.15000 23.75500
H  -5.12100 34.33400 31.96600
H  -2.70400 36.08700 32.22700
H  -5.49600 36.41000 32.34700
H  -5.06100 37.52900 31.03000
H  -4.30100 37.72300 32.53900
H  -2.02100 33.52800 32.22400
H  -3.03900 32.47900 31.40900
H  -3.23400 31.91100 33.73700
H  -4.49400 33.06400 33.96900
H  -0.79800 40.46800 28.78000
H  0.81200 39.77900 28.97300
H  -0.51900 39.26300 30.05700
H  0.31200 41.04500 26.89900
H  1.50500 40.87900 25.62700
H  1.74200 39.90000 27.03300
H  -0.86700 35.04000 22.55100
H  -3.37700 33.61200 22.19100
H  -3.46800 36.47400 22.22200
H  -2.88000 35.51900 20.82500
H  -1.94300 36.86500 21.37100
H  -1.65000 31.99900 23.83100
H  -0.56900 32.92500 22.88700
H  -0.91100 31.63200 20.95200
H  -2.54300 32.06500 21.00600
H  -2.05600 30.64600 21.85200
H  -6.35700 30.93200 24.50500
H  -7.10200 29.95500 25.86800
H  -5.47700 29.58000 25.33500
H  -4.93500 31.19300 30.73400
H  -8.85400 32.03300 32.57200
H  -7.50500 32.79700 33.57200
H  -8.13600 31.19000 33.80500

