158

Mg 2.31900 -1.07800 44.78700
C  5.57700 -0.46700 43.94500
C  1.36800 1.57800 42.96800
C  -0.80200 -2.38300 44.91400
C  3.53600 -4.20100 46.23400
N  3.40700 0.32000 43.50000
C  4.73200 0.48600 43.40700
C  5.14500 1.65600 42.46700
C  3.80900 2.51900 42.50400
C  2.74900 1.44700 43.00900
C  3.86000 3.81500 43.40300
C  5.56700 1.30500 41.00300
C  6.63700 2.16700 40.51900
H  6.33200 3.05900 39.35300
N  0.45600 -0.39500 44.18000
C  0.29800 0.71700 43.41300
C  -1.10200 0.83000 43.23100
C  -1.79800 -0.25300 43.82400
C  -0.71900 -1.10600 44.35100
C  -1.75500 2.03500 42.50700
C  -3.27600 -0.39000 43.93900
O  -4.06300 0.36300 43.43000
C  -3.85000 -1.50700 44.71800
N  1.49600 -3.03000 45.49700
C  0.15500 -3.23700 45.48200
C  -0.09800 -4.70800 45.82800
C  1.21300 -5.21500 46.46300
C  2.15800 -4.09500 46.08600
C  -1.39900 -5.02200 46.72000
C  1.63500 -6.62200 45.95700
C  1.98200 -7.65700 47.02600
N  4.14000 -2.11800 45.10700
C  4.43300 -3.36900 45.73500
C  5.82800 -3.60800 45.71700
C  6.28300 -2.49800 45.01200
C  5.24600 -1.58300 44.69100
C  6.72400 -4.81100 46.19300
C  7.47800 -1.84700 44.53200
O  8.64500 -2.20900 44.63400
C  7.07300 -0.57200 43.80800
C  7.79000 0.63300 44.45400
O  7.88400 0.87900 45.65800
O  8.49500 1.32500 43.47400
C  9.23500 2.53700 43.91500
H  1.06900 2.45700 42.39400
H  -1.74900 -2.91100 44.78500
H  3.96400 -5.14100 46.58800
H  5.87000 2.29400 42.97200
H  3.38900 2.77800 41.53200
H  2.82500 4.00300 43.68900
H  4.24800 4.66900 42.84800
H  4.26900 3.59600 44.38900
H  4.80600 1.41600 40.23100
H  5.64600 0.22600 40.86800
H  7.35200 1.41600 40.18400
H  7.14600 2.71300 41.31200
H  -2.84100 1.96600 42.45700
H  -1.19500 2.09700 41.57400
H  -1.50400 2.87000 43.16200
H  -4.91900 -1.33000 44.83200
H  -3.41900 -1.54800 45.71900
H  -3.77400 -2.47600 44.22500
H  -0.14100 -5.23300 44.87400
H  1.08900 -5.15900 47.54500
H  -1.92000 -5.93500 46.43100
H  -2.02900 -4.13500 46.78300
H  -1.06600 -5.22800 47.73700
H  2.53200 -6.40600 45.37700
H  0.87800 -7.01800 45.28000
H  3.03500 -7.88000 47.19800
H  1.44100 -8.55100 46.71200
H  1.75200 -7.30500 48.03100
H  6.24300 -5.20000 47.09000
H  7.69100 -4.45700 46.55300
H  6.83200 -5.61100 45.46200
H  7.40300 -0.63600 42.77200
H  9.70200 3.03600 43.06600
H  10.03600 2.27600 44.60600
H  8.57100 3.31800 44.28800
Mg -11.22300 39.93000 39.02300
C  -10.40100 36.40200 38.81800
C  -7.85200 40.48600 38.79500
C  -12.05800 42.99700 38.35600
C  -14.59300 38.87600 39.14700
N  -9.37900 38.52500 38.96000
C  -9.26100 37.18300 38.86500
C  -7.84600 36.71700 38.76400
C  -7.03700 38.06200 39.02000
C  -8.12800 39.12700 38.88400
C  -6.14900 37.98600 40.29600
C  -7.59400 36.06400 37.31100
C  -7.86900 36.88100 36.00200
H  -8.92000 36.49300 34.95200
N  -10.04900 41.62600 38.60400
C  -8.66800 41.66500 38.61300
C  -8.29000 43.05600 38.37100
C  -9.51300 43.79200 38.24700
C  -10.63200 42.82800 38.35200
C  -6.85100 43.57800 38.31700
C  -9.64400 45.30900 38.03800
O  -8.63300 46.06800 38.09300
C  -10.97400 45.98100 37.84000
N  -13.10100 40.81800 38.79400
C  -13.17400 42.15000 38.49400
C  -14.63900 42.65600 38.58800
C  -15.43900 41.37600 38.92100
C  -14.34700 40.27000 38.98000
C  -14.96800 43.90800 39.55700
C  -16.55100 41.00700 37.86500
C  -17.92200 40.65500 38.46400
N  -12.29400 38.13600 39.13300
C  -13.64400 37.79600 39.06400
C  -13.90500 36.48500 38.99600
C  -12.67000 35.84900 38.88500
C  -11.71200 36.90200 38.96100
C  -15.23400 35.81800 39.20000
C  -12.00200 34.53800 38.73500
O  -12.39200 33.37300 38.59900
C  -10.52900 34.94900 38.72700
C  -9.89300 34.18200 39.80100
O  -10.12800 34.25400 40.97600
O  -9.04700 33.29800 39.17400
C  -8.27500 32.55600 40.18600
H  -6.80600 40.79400 38.73300
H  -12.42500 43.99200 38.09600
H  -15.63000 38.53600 39.10000
H  -7.59000 35.95200 39.49700
H  -6.40800 38.23100 38.14700
H  -5.09900 38.00800 40.00600
H  -6.20300 37.03200 40.82100
H  -6.51600 38.75800 40.97200
H  -8.21000 35.16600 37.26800
H  -6.57000 35.70600 37.20400
H  -6.96000 36.85400 35.40200
H  -8.17500 37.91800 36.14100
H  -6.16800 42.78200 38.01900
H  -6.49900 43.93000 39.28600
H  -6.70800 44.46700 37.70300
H  -11.46200 45.81100 38.79900
H  -11.52200 45.75200 36.92500
H  -10.79000 47.05500 37.86700
H  -14.79600 42.89900 37.53700
H  -15.89900 41.36600 39.91000
H  -15.66100 43.59900 40.33900
H  -15.47400 44.68800 38.98800
H  -14.06700 44.33500 39.99800
H  -16.17700 40.08500 37.41900
H  -16.50400 41.73800 37.05800
H  -17.92000 40.93600 39.51700
H  -18.10300 39.58000 38.46400
H  -18.74300 41.11500 37.91300
H  -15.61000 35.77500 38.17800
H  -15.80600 36.45900 39.87000
H  -15.00700 34.82900 39.59800
H  -10.13200 34.47900 37.82700
H  -8.77300 31.59900 40.33800
H  -8.12600 32.98600 41.17600
H  -7.34600 32.15900 39.77700

