158

Mg 7.23700 3.18800 27.27400
C  8.80200 2.04900 30.16200
C  5.19400 5.26200 29.10900
C  5.93400 4.31000 24.43000
C  8.77800 0.58800 25.59700
N  7.03100 3.56600 29.42200
C  7.81300 3.05500 30.45400
C  7.35100 3.59900 31.78900
C  6.03600 4.34200 31.50400
C  6.01400 4.37000 29.91000
C  4.77300 3.69000 32.00200
C  8.39000 4.37100 32.60600
C  8.28600 4.16800 34.14800
H  9.38700 4.66300 35.10700
N  5.83700 4.81100 26.80800
C  5.11000 5.53100 27.73100
C  4.23600 6.46400 27.00300
C  4.39100 6.10900 25.62700
C  5.39100 5.02400 25.54100
C  3.47100 7.56600 27.76900
C  3.75400 6.75800 24.45300
O  3.83900 6.36000 23.29600
C  2.69900 7.88600 24.59900
N  7.26200 2.47100 25.33600
C  6.80400 3.22400 24.29700
C  7.13700 2.62600 22.94400
C  8.07400 1.42700 23.36200
C  8.04200 1.46500 24.87400
C  5.87000 2.25200 22.13700
C  9.54700 1.46400 22.79400
C  10.08800 0.31700 21.97100
N  8.49300 1.65000 27.70600
C  9.02400 0.70900 26.93400
C  9.91100 -0.11800 27.61800
C  9.87900 0.39000 28.89500
C  9.02000 1.47100 28.91000
C  10.73400 -1.23300 27.18600
C  10.41600 0.19100 30.27100
O  11.23000 -0.60500 30.65100
C  9.59900 1.22900 31.14200
C  8.67900 0.60200 32.13100
O  7.49700 0.35200 32.02000
O  9.41300 0.30800 33.23700
C  8.71500 -0.47400 34.32400
H  4.63300 5.94200 29.75200
H  5.54300 4.63500 23.46400
H  9.38200 -0.20100 25.14500
H  7.16900 2.82200 32.53100
H  6.07100 5.40100 31.75900
H  4.89200 2.67600 32.38400
H  4.15200 3.59200 31.11200
H  4.19900 4.15200 32.80500
H  8.23200 5.44400 32.49700
H  9.38000 4.15300 32.20600
H  8.18600 3.15900 34.54800
H  7.45100 4.80600 34.43600
H  3.79800 8.53600 27.39600
H  3.68800 7.57300 28.83700
H  2.40300 7.50200 27.56100
H  2.38500 8.34500 23.66200
H  3.30600 8.58700 25.17300
H  1.95700 7.46200 25.27600
H  7.75700 3.34000 22.40100
H  7.50300 0.59100 22.95700
H  4.93400 2.37200 22.68200
H  5.84100 1.20300 21.84300
H  5.76200 2.98700 21.33900
H  10.33300 1.68600 23.51600
H  9.53300 2.29900 22.09400
H  10.11000 0.55000 20.90600
H  9.51100 -0.58900 22.15700
H  11.12500 0.12100 22.24400
H  11.53200 -1.34300 27.92100
H  11.27200 -0.94400 26.28300
H  10.27400 -2.21900 27.11300
H  10.34800 1.76900 31.72100
H  8.04200 0.23700 34.80300
H  9.40400 -0.73500 35.12700
H  8.10700 -1.32000 34.00300
Mg 44.39600 4.89800 46.77700
C  42.43600 7.65700 47.02700
C  41.50400 3.07800 46.09300
C  46.22500 2.09000 45.97700
C  47.23800 6.84600 46.54300
N  42.21700 5.38600 46.72500
C  41.71100 6.59200 46.79000
C  40.16400 6.60600 46.64400
C  39.87800 5.07700 46.25500
C  41.27400 4.43300 46.43800
C  38.72100 4.54400 47.17500
C  39.59000 7.56600 45.50400
C  40.37300 7.82500 44.17000
H  39.81000 7.14800 42.89600
N  43.95900 2.82500 46.30900
C  42.69000 2.30600 46.02500
C  42.74600 0.91000 45.63400
C  44.12700 0.56400 45.56800
C  44.87100 1.84500 45.99800
C  41.54100 0.05500 45.42200
C  44.67700 -0.82400 45.29400
O  43.88300 -1.69700 45.08500
C  46.10200 -1.23100 45.22500
N  46.44900 4.49000 46.33400
C  46.96000 3.28300 46.10800
C  48.49600 3.35500 46.10800
C  48.79500 4.82700 46.49700
C  47.43900 5.44200 46.51300
C  49.09700 2.27800 47.04400
C  49.78200 5.60900 45.48000
C  51.28800 5.16300 45.53700
N  44.87600 6.90500 46.84200
C  46.03800 7.56000 46.73700
C  45.85400 8.97400 46.90300
C  44.44100 9.11200 47.05800
C  43.91000 7.79700 47.03000
C  46.81300 10.03600 46.91200
C  43.31000 10.02000 47.30000
O  43.28700 11.23000 47.67800
C  42.01000 9.12400 47.25000
C  41.18500 9.24800 48.42600
O  41.11600 8.43800 49.37900
O  40.38000 10.35400 48.32300
C  39.47800 10.72600 49.42700
H  40.56200 2.61600 45.79100
H  46.83900 1.21500 45.75700
H  48.08500 7.51900 46.69100
H  39.69000 6.86300 47.59100
H  39.55000 5.04900 45.21600
H  38.12900 5.42200 47.43700
H  39.14800 4.10200 48.07500
H  38.21200 3.83100 46.52700
H  39.49700 8.58500 45.87800
H  38.59200 7.20800 45.25300
H  41.37600 7.42600 44.31900
H  40.35200 8.91400 44.15000
H  41.53400 -0.01000 44.33400
H  40.55400 0.40100 45.72800
H  41.67900 -0.94400 45.83600
H  46.25900 -2.27000 44.93400
H  46.51200 -1.14300 46.23100
H  46.62400 -0.57200 44.53100
H  48.80000 3.02900 45.11300
H  49.15300 4.86800 47.52600
H  50.17900 2.27700 46.91200
H  48.74300 1.30100 46.71600
H  48.75400 2.27800 48.07900
H  49.70900 6.67300 45.70600
H  49.43300 5.44800 44.46000
H  51.79000 5.08000 44.57300
H  51.49800 4.27600 46.13500
H  51.84300 5.93200 46.07500
H  46.82600 10.57100 47.86100
H  46.49900 10.78700 46.18700
H  47.87200 9.91100 46.68600
H  41.43300 9.56900 46.43900
H  40.17200 11.15100 50.15100
H  38.90800 9.84100 49.70900
H  38.90400 11.61200 49.15400

