158

Mg 15.89200 -1.73400 28.25200
C  15.03400 0.23000 31.04800
C  17.95300 -3.54800 30.39100
C  17.20900 -3.26800 25.66200
C  14.19100 0.47100 26.24600
N  16.40000 -1.66500 30.46900
C  15.80500 -0.82300 31.39400
C  16.35100 -1.09100 32.81400
C  17.42300 -2.23800 32.49900
C  17.22900 -2.52200 31.03000
C  18.88300 -2.08500 33.03100
C  15.21300 -1.50800 33.71100
C  15.10500 -1.03800 35.15900
H  16.46200 -0.72700 35.77400
N  17.29600 -3.27700 28.03900
C  17.99200 -3.93200 29.03000
C  18.76300 -4.99500 28.41000
C  18.65500 -4.88000 27.00600
C  17.71600 -3.75500 26.82300
C  19.60700 -6.03700 29.22100
C  19.25500 -5.66400 25.87300
O  19.04600 -5.47600 24.66900
C  20.28100 -6.81300 26.13500
N  15.73600 -1.39300 26.20600
C  16.31300 -2.20400 25.29700
C  15.98400 -1.82800 23.81000
C  14.77800 -0.86300 24.05100
C  14.89100 -0.56300 25.58400
C  17.12000 -1.34900 22.84500
C  13.38900 -1.53600 23.74300
C  12.55900 -0.92400 22.54700
N  14.94800 0.02800 28.52300
C  14.20000 0.76300 27.62200
C  13.64800 1.90300 28.27000
C  13.90500 1.70800 29.61800
C  14.74200 0.54400 29.75900
C  12.85400 2.98700 27.65000
C  13.76400 2.31500 30.96600
O  13.15500 3.34100 31.29700
C  14.52800 1.40500 31.95400
C  15.51300 2.19600 32.61100
O  16.64600 2.31700 32.34400
O  14.87400 2.85100 33.68500
C  15.68000 3.88500 34.38700
H  18.48500 -4.20000 31.08700
H  17.51400 -3.75600 24.73400
H  13.76200 1.17900 25.53400
H  16.82200 -0.21000 33.25000
H  17.17600 -3.14900 33.04400
H  19.59900 -1.96400 32.21900
H  19.03400 -2.90600 33.73400
H  18.84900 -1.24100 33.72000
H  15.24000 -2.59700 33.72200
H  14.24200 -1.29600 33.26200
H  14.63800 -1.73100 35.85800
H  14.55900 -0.09600 35.12200
H  19.50800 -5.89800 30.29700
H  20.60800 -5.80800 28.85500
H  19.45000 -7.10800 29.09500
H  21.11800 -6.33000 26.63900
H  20.59800 -7.19500 25.16500
H  19.81700 -7.63900 26.67500
H  15.55600 -2.71500 23.34300
H  14.79600 0.00000 23.38700
H  17.11800 -0.28600 22.60200
H  17.06100 -1.94900 21.93700
H  18.07800 -1.54400 23.32700
H  12.73500 -1.48000 24.61300
H  13.55600 -2.59300 23.53600
H  11.78900 -0.23800 22.90000
H  12.17400 -1.68000 21.86400
H  13.25500 -0.39300 21.89800
H  13.31500 3.49900 26.80600
H  12.75200 3.82300 28.34200
H  11.90500 2.56900 27.31700
H  13.89400 0.94200 32.71100
H  15.11000 4.74100 34.74900
H  16.59400 4.24800 33.91700
H  16.01200 3.32100 35.25800
Mg 34.69100 2.75100 31.09100
C  32.50200 3.67500 33.71400
C  37.25500 2.85300 33.49700
C  36.90700 2.38400 28.63400
C  32.16100 3.14500 28.94900
N  34.89800 3.50400 33.34200
C  33.80900 3.54900 34.17300
C  34.26400 3.68900 35.61500
C  35.85000 3.62100 35.58800
C  36.01900 3.30000 34.02300
C  36.55200 5.01500 35.90700
C  33.71900 2.64000 36.53700
C  33.52900 3.13900 37.98100
H  34.35000 4.36400 38.49900
N  36.76700 2.44300 31.09500
C  37.63100 2.49700 32.17100
C  38.97100 2.28000 31.65200
C  38.88400 2.14000 30.22600
C  37.47900 2.36500 29.91100
C  40.12500 1.93900 32.63300
C  39.95100 1.77600 29.17300
O  39.69600 1.57900 27.99000
C  41.35800 1.68800 29.69600
N  34.57400 2.87500 29.10100
C  35.58600 2.63400 28.26100
C  35.15700 2.54000 26.79400
C  33.58700 2.59000 26.90700
C  33.43800 2.88100 28.37900
C  35.75800 3.68500 25.98600
C  32.91300 1.29300 26.40600
C  31.69500 1.47200 25.42900
N  32.67500 3.21400 31.23900
C  31.80400 3.46600 30.25300
C  30.49000 3.79500 30.74800
C  30.74000 3.88000 32.11700
C  32.05600 3.52500 32.36600
C  29.23900 3.88400 29.87800
C  30.15300 4.17500 33.36000
O  28.95700 4.46900 33.63400
C  31.23600 4.12600 34.42600
C  31.48800 5.42800 35.09900
O  32.03000 6.46300 34.66800
O  30.86700 5.38200 36.36500
C  30.68500 6.64300 37.07000
H  38.10100 2.77500 34.18200
H  37.48800 2.20600 27.72700
H  31.39000 3.03200 28.18400
H  34.00500 4.71200 35.88900
H  36.22000 2.89200 36.31000
H  37.11100 4.86300 36.83000
H  35.74600 5.74000 36.01800
H  37.27200 5.36100 35.16500
H  34.37400 1.77100 36.60600
H  32.74200 2.26900 36.22700
H  33.82600 2.35400 38.67700
H  32.45500 3.27300 38.11100
H  40.38100 0.88300 32.54800
H  40.04800 2.10500 33.70800
H  40.90700 2.63800 32.33700
H  41.73900 2.64200 30.06000
H  42.03000 1.21300 28.98200
H  41.22200 0.91400 30.45100
H  35.57400 1.68300 26.26600
H  33.14300 3.48400 26.46900
H  36.47500 3.34100 25.24100
H  36.25700 4.40900 26.63100
H  34.90700 4.17900 25.51600
H  32.74900 0.58300 27.21600
H  33.57000 0.82100 25.67600
H  31.74400 0.81000 24.56400
H  31.59800 2.50300 25.08900
H  30.77100 1.40400 26.00200
H  29.57500 4.35600 28.95500
H  28.37500 4.48500 30.16100
H  28.86100 2.92300 29.52800
H  30.99000 3.34800 35.14800
H  30.91100 7.48900 36.42000
H  31.31400 6.65500 37.96100
H  29.64500 6.79600 37.35600

