158

Mg 24.32200 -5.39600 45.89900
C  26.37000 -3.00400 44.26700
C  21.77700 -4.48800 43.78200
C  22.59400 -7.87900 47.30900
C  27.21700 -6.31900 47.86800
N  24.10100 -3.98400 44.10600
C  25.08200 -3.09400 43.68600
C  24.54600 -2.24000 42.48400
C  22.99700 -2.57100 42.45500
C  22.95700 -3.78200 43.45200
C  21.96300 -1.43800 42.74000
C  25.29700 -2.57800 41.13900
C  25.50100 -1.39900 40.18300
H  24.90000 -1.51600 38.79600
N  22.41600 -5.98300 45.63700
C  21.55300 -5.54900 44.64100
C  20.38900 -6.30800 44.73700
C  20.52200 -7.23900 45.78600
C  21.87000 -7.02700 46.35000
C  19.21600 -5.97600 43.80900
C  19.42000 -8.11100 46.21600
O  18.36500 -8.16700 45.61800
C  19.50700 -9.00300 47.42700
N  24.90200 -6.97300 47.30500
C  23.94800 -7.81200 47.76000
C  24.46400 -8.81100 48.70800
C  25.93600 -8.35800 48.94100
C  26.04100 -7.06700 48.02600
C  23.58600 -9.05300 49.94300
C  27.08000 -9.40900 48.67600
C  27.15300 -9.82800 47.19300
N  26.35000 -4.82600 46.10700
C  27.34700 -5.24800 46.99500
C  28.47600 -4.36600 46.76400
C  28.15100 -3.48200 45.72000
C  26.86800 -3.81700 45.37800
C  29.71300 -4.33500 47.56900
C  28.55300 -2.37800 44.92100
O  29.59100 -1.75400 44.99700
C  27.46300 -2.09700 43.87400
C  27.07700 -0.66300 44.01500
O  26.39300 -0.19100 44.90100
O  27.51700 0.14400 42.98500
C  27.29900 1.52800 43.18100
H  20.98100 -4.13200 43.12400
H  22.08200 -8.78500 47.63800
H  28.13200 -6.63000 48.37700
H  24.68900 -1.18100 42.69800
H  22.78200 -2.98100 41.46900
H  21.17900 -1.70500 43.44900
H  21.50000 -1.17500 41.78900
H  22.53600 -0.56100 43.04000
H  24.80100 -3.35200 40.55300
H  26.31700 -2.91200 41.32900
H  26.56200 -1.29700 39.95600
H  25.26100 -0.42400 40.60800
H  18.62600 -6.87200 43.61800
H  19.66000 -5.70000 42.85200
H  18.64400 -5.17600 44.27800
H  18.64300 -9.65700 47.54300
H  19.58800 -8.30900 48.26400
H  20.36300 -9.66700 47.31300
H  24.45000 -9.74700 48.15000
H  26.01100 -7.93200 49.94100
H  23.30600 -10.10700 49.96900
H  22.69900 -8.42000 49.91300
H  24.16900 -8.78100 50.82300
H  27.05600 -10.24300 49.37800
H  28.05700 -8.99000 48.91600
H  27.00100 -10.90700 47.17200
H  28.22600 -9.85800 47.00600
H  26.66700 -9.24100 46.41400
H  30.60400 -4.33400 46.94100
H  29.78900 -5.18300 48.24800
H  29.68300 -3.43600 48.18500
H  27.81200 -2.09500 42.84200
H  28.12800 1.87500 43.79800
H  26.30100 1.76100 43.54900
H  27.31600 1.95500 42.17800
Mg 26.89100 49.50000 26.39200
C  24.83500 50.59200 29.23500
C  29.01100 48.29000 28.69400
C  28.57800 48.62300 23.85700
C  24.41200 50.94000 24.36000
N  26.88900 49.54400 28.67300
C  25.96500 49.89300 29.61400
C  26.38700 49.54000 31.07100
C  27.84900 49.10300 30.82300
C  27.92600 48.98900 29.31000
C  28.81500 50.15400 31.46100
C  25.45600 48.46800 31.73500
C  24.93400 48.78300 33.17100
H  25.96600 49.42700 34.13700
N  28.56300 48.59400 26.34000
C  29.36700 48.16300 27.33800
C  30.64000 47.68000 26.73600
C  30.53500 47.91700 25.32100
C  29.21100 48.37300 25.11400
C  31.76300 47.12000 27.61700
C  31.54400 47.74400 24.23700
O  31.38200 47.98800 23.03800
C  32.97600 47.44300 24.61100
N  26.53000 49.73400 24.41700
C  27.37500 49.20200 23.56900
C  26.89300 49.29300 22.12100
C  25.51600 50.07500 22.22800
C  25.40400 50.27300 23.77300
C  27.86800 49.68100 20.98100
C  24.33000 49.26100 21.69700
C  23.08500 50.03800 21.38100
N  25.07900 50.74400 26.65300
C  24.13100 51.16000 25.68500
C  23.00200 51.71400 26.35900
C  23.20000 51.61000 27.76900
C  24.51700 50.94200 27.89500
C  21.77300 52.29900 25.74200
C  22.65000 51.69100 29.10000
O  21.63600 52.17400 29.54100
C  23.64900 51.05200 30.09700
C  24.05900 52.07900 30.98400
O  24.94300 52.93000 30.81400
O  23.28800 52.06700 32.14800
C  23.66100 53.11700 33.16800
H  29.75000 47.92200 29.40800
H  29.19900 48.35000 23.00100
H  23.68900 51.36400 23.65900
H  26.33300 50.45900 31.65600
H  28.10000 48.12900 31.24100
H  29.84800 49.87400 31.25900
H  28.67700 50.07300 32.53900
H  28.56500 51.14800 31.08800
H  25.98000 47.53000 31.91800
H  24.52400 48.39300 31.17400
H  24.61000 47.81300 33.54900
H  23.98000 49.31000 33.15900
H  31.64500 47.46000 28.64600
H  32.69800 47.64800 27.42800
H  31.68800 46.03300 27.60300
H  33.65700 47.24500 23.78300
H  32.86300 46.44100 25.02400
H  33.32600 48.16500 25.34800
H  26.50200 48.30300 21.88800
H  25.53600 51.10600 21.87600
H  28.75600 50.19800 21.34300
H  27.29100 50.38200 20.37900
H  28.07500 48.85100 20.30500
H  24.12900 48.59600 22.53700
H  24.61800 48.60100 20.87900
H  22.37700 49.53500 22.04000
H  22.73000 50.10900 20.35300
H  23.26500 51.04800 21.75000
H  21.33400 51.44300 25.22900
H  21.97400 53.09000 25.02000
H  21.07100 52.71800 26.46200
H  23.18500 50.18100 30.55900
H  23.68800 54.01000 32.54400
H  24.62200 52.99600 33.66900
H  22.84600 53.16200 33.89100

