158

Mg 25.45100 1.82600 29.44500
C  27.56500 1.90200 32.29400
C  22.74800 1.79400 31.66700
C  23.52500 1.86000 26.86300
C  28.23500 1.06800 27.50700
N  25.19800 1.94200 31.70600
C  26.19500 2.11900 32.65700
C  25.58600 2.49000 34.03100
C  24.03800 2.28700 33.80400
C  23.97900 2.01200 32.27500
C  23.36400 1.08700 34.61600
C  26.06000 3.79900 34.66300
C  26.48500 3.66500 36.20800
H  25.74000 4.61600 37.21700
N  23.41500 1.84800 29.28500
C  22.46800 1.79800 30.27000
C  21.13400 1.72200 29.69100
C  21.33900 1.79700 28.28100
C  22.79200 1.84100 28.08800
C  19.86900 1.60800 30.41300
C  20.27400 1.81900 27.19000
O  20.59700 1.86700 26.02900
C  18.77300 1.85600 27.50900
N  25.84600 1.42100 27.47600
C  24.82500 1.53800 26.53500
C  25.44800 1.59200 25.12600
C  26.98800 1.33400 25.31800
C  27.03300 1.29700 26.84300
C  24.70200 0.54400 24.16400
C  27.80800 2.53300 24.72000
C  29.18700 2.20600 24.21200
N  27.43700 1.50200 29.79200
C  28.48900 1.17900 28.90200
C  29.70000 1.12300 29.57600
C  29.39700 1.39900 30.88500
C  28.02400 1.57800 31.01000
C  31.07800 0.64500 29.04400
C  30.02000 1.54600 32.18300
O  31.19600 1.47500 32.51800
C  28.89700 2.01200 33.17300
C  28.88000 1.09900 34.34700
O  28.18300 0.15100 34.57400
O  29.69600 1.75500 35.23100
C  29.93000 1.16200 36.60500
H  21.94000 1.96400 32.38200
H  22.81300 2.07800 26.06500
H  29.16000 0.85500 26.96700
H  26.00000 1.73900 34.70400
H  23.57200 3.22700 34.09600
H  22.39300 0.84500 34.18400
H  23.25300 1.51000 35.61500
H  24.00300 0.20500 34.57300
H  25.18300 4.44400 34.71000
H  26.87700 4.19500 34.06100
H  27.56300 3.77200 36.09200
H  26.23700 2.65500 36.53700
H  19.06000 2.27800 30.12200
H  20.10500 1.93200 31.42600
H  19.55100 0.57400 30.27600
H  18.28200 1.67600 26.55300
H  18.49900 2.83400 27.90700
H  18.63600 0.98500 28.14900
H  25.40100 2.61600 24.75600
H  27.34500 0.37000 24.95400
H  23.95200 0.99100 23.51200
H  24.16200 -0.19800 24.75300
H  25.49700 0.11000 23.55700
H  27.80000 3.20500 25.57800
H  27.34600 3.01400 23.85800
H  29.81900 3.00900 24.59200
H  29.20600 2.10800 23.12700
H  29.61900 1.25400 24.52300
H  30.99900 -0.14600 28.29900
H  31.59500 0.17300 29.87900
H  31.64500 1.49400 28.66000
H  29.05900 3.03800 33.50300
H  29.01000 1.00600 37.16700
H  30.67200 1.76000 37.13400
H  30.30200 0.13800 36.59800
Mg -2.77400 33.98700 26.07400
C  -4.52100 32.50100 28.76900
C  -1.00800 35.97100 28.35600
C  -1.54700 35.80000 23.45700
C  -4.85400 32.37000 23.89600
N  -2.86200 34.31700 28.21600
C  -3.62400 33.50300 29.10600
C  -3.44000 34.02400 30.56300
C  -2.43800 35.19700 30.43100
C  -2.09500 35.17500 28.95500
C  -2.97800 36.57600 30.99000
C  -2.91500 32.82200 31.40700
C  -2.28800 33.21700 32.83100
H  -2.70100 32.40900 34.08000
N  -1.38800 35.57000 25.93600
C  -0.70000 36.19100 27.00300
C  0.25500 37.20200 26.34300
C  0.13300 37.05000 24.97600
C  -0.99200 36.10100 24.70400
C  1.16100 38.02000 27.21400
C  0.91100 37.81200 23.92800
O  0.68000 37.69900 22.76000
C  1.98300 38.68700 24.38500
N  -3.29300 34.23200 24.01200
C  -2.67100 35.04800 23.15600
C  -3.11600 34.86200 21.67900
C  -4.01200 33.53800 21.79000
C  -4.03000 33.34000 23.33900
C  -3.91700 36.07100 21.11600
C  -3.63900 32.27100 21.01100
C  -2.79700 31.22900 21.79800
N  -4.30500 32.62300 26.21200
C  -5.08700 32.05200 25.25200
C  -5.92800 31.05600 25.85100
C  -5.74200 31.24900 27.21400
C  -4.81200 32.22600 27.41200
C  -6.71600 30.04000 25.08800
C  -6.18500 30.75900 28.54300
O  -6.88500 29.82300 28.82900
C  -5.42200 31.58200 29.59400
C  -6.41700 32.24300 30.47200
O  -7.27800 33.01100 30.12200
O  -6.24800 31.79300 31.81400
C  -7.31500 32.14100 32.77000
H  -0.39100 36.55100 29.04500
H  -1.14100 36.27800 22.56300
H  -5.45000 31.75000 23.22400
H  -4.40300 34.37900 30.93100
H  -1.49400 35.10100 30.96700
H  -2.71500 37.43000 30.36600
H  -2.42900 36.86700 31.88600
H  -4.02100 36.57800 31.30900
H  -2.11700 32.36300 30.82200
H  -3.59500 32.01500 31.67800
H  -2.74300 34.17900 33.06800
H  -1.21600 33.38400 32.72200
H  1.03900 37.77400 28.26900
H  0.92900 39.07400 27.06400
H  2.23500 38.02400 27.02900
H  1.65500 39.68900 24.66100
H  2.68700 38.80100 23.56100
H  2.65900 38.15800 25.05700
H  -2.22800 34.52400 21.14500
H  -5.03500 33.79800 21.51800
H  -3.92000 36.91800 21.80200
H  -4.96400 35.94000 20.84200
H  -3.40200 36.36500 20.20100
H  -3.07300 32.63500 20.15400
H  -4.57900 31.82600 20.68500
H  -2.26100 31.66300 22.64200
H  -2.07100 30.68700 21.19100
H  -3.42200 30.42000 22.17500
H  -6.14300 29.16300 24.78700
H  -7.26000 30.49500 24.26100
H  -7.53800 29.75000 25.74200
H  -4.79600 30.87400 30.13700
H  -6.72600 32.26300 33.67900
H  -7.95500 31.28500 32.98800
H  -7.87600 33.01300 32.43500

