158

Mg 54.49900 24.46500 44.20000
C  52.39200 27.15100 43.39000
C  52.43600 22.36400 42.57400
C  56.86000 22.05800 44.43300
C  56.86300 26.94200 44.99300
N  52.55500 24.76100 43.19800
C  51.86800 25.90700 42.90500
C  50.67100 25.59500 42.02200
C  50.62100 24.02600 42.03800
C  51.97100 23.67000 42.68100
C  49.45200 23.48200 42.92300
C  50.72500 26.02200 40.51600
C  49.47300 26.19700 39.67200
H  49.43400 25.54900 38.21600
N  54.55200 22.41900 43.73500
C  53.58300 21.76200 43.03000
C  53.96300 20.40400 42.90300
C  55.21100 20.21900 43.58700
C  55.58700 21.59100 43.96200
C  53.15200 19.31700 42.14400
C  55.87800 18.87300 43.85500
O  55.36300 17.83100 43.50200
C  57.12500 18.69800 44.81600
N  56.61200 24.54400 44.42800
C  57.35400 23.39800 44.57600
C  58.84500 23.69200 45.01600
C  58.78400 25.22300 45.18900
C  57.33300 25.64500 44.76000
C  59.31600 23.01600 46.34600
C  59.82400 26.01300 44.31700
C  60.41100 27.29900 44.80100
N  54.66600 26.66500 44.30100
C  55.61100 27.48400 44.81700
C  55.06900 28.80800 45.05300
C  53.78200 28.75300 44.52800
C  53.60500 27.44900 44.01400
C  55.74100 29.99500 45.76900
C  52.50200 29.48600 44.30100
O  52.14600 30.62800 44.52700
C  51.60000 28.47400 43.51200
C  51.34800 29.15300 42.19400
O  52.19200 29.66400 41.45800
O  49.99400 29.10600 42.01800
C  49.51600 29.47000 40.67300
H  51.75200 21.78000 41.95500
H  57.60000 21.25600 44.47500
H  57.59000 27.71500 45.25200
H  49.79700 26.11900 42.40900
H  50.58500 23.59100 41.04000
H  48.64800 23.01400 42.35500
H  49.00500 24.33400 43.43500
H  49.84300 22.82700 43.70100
H  51.36200 25.26000 40.06700
H  51.25900 26.96600 40.40900
H  49.33000 27.27700 39.63500
H  48.59300 25.74300 40.12700
H  52.44100 19.78500 41.46300
H  52.61100 18.75200 42.90200
H  53.80100 18.58800 41.65800
H  57.04000 17.67100 45.17200
H  56.95300 19.32100 45.69400
H  58.14900 18.84700 44.47500
H  59.39500 23.29700 44.16200
H  58.91600 25.58400 46.20900
H  59.11800 21.94500 46.34400
H  59.00800 23.53300 47.25500
H  60.39900 23.13500 46.31000
H  59.37200 26.15400 43.33500
H  60.72800 25.40900 44.23000
H  60.46800 28.06100 44.02400
H  61.45200 27.15300 45.08900
H  59.85100 27.75600 45.61700
H  55.08800 30.60400 46.39500
H  56.23300 30.75600 45.16300
H  56.50900 29.60800 46.43900
H  50.69700 28.39900 44.11800
H  50.21600 29.24100 39.87000
H  49.33000 30.53900 40.57000
H  48.53200 29.03900 40.48400
Mg 26.81100 50.13200 26.45600
C  24.72500 51.11900 29.05900
C  29.06600 48.92600 28.49600
C  28.90700 49.73200 23.74900
C  24.30100 51.46400 24.34000
N  26.78300 49.98500 28.51300
C  25.85500 50.34900 29.43900
C  26.24800 49.87600 30.82500
C  27.78100 49.61600 30.63600
C  27.99400 49.51200 29.14800
C  28.75100 50.46800 31.50600
C  25.43900 48.66100 31.36800
C  24.79500 48.85600 32.75000
H  25.49100 49.68600 33.92000
N  28.66300 49.30200 26.11400
C  29.43800 48.84200 27.12700
C  30.70600 48.31400 26.57900
C  30.69500 48.53900 25.18200
C  29.40500 49.23200 24.95900
C  31.70900 47.69800 27.55200
C  31.72300 48.19400 24.13400
O  31.46500 48.43000 22.96400
C  33.04200 47.57100 24.48400
N  26.71900 50.70900 24.38700
C  27.62400 50.30100 23.48700
C  27.15100 50.56700 22.10800
C  25.63100 50.81900 22.29500
C  25.48700 50.95500 23.76300
C  27.93200 51.75100 21.48900
C  24.64500 49.68900 21.71100
C  23.38900 50.21900 20.91700
N  24.99300 51.32500 26.62500
C  24.12000 51.75400 25.71100
C  22.95700 52.40000 26.32600
C  23.11200 52.14000 27.67700
C  24.40100 51.54000 27.77800
C  21.83300 53.02100 25.66100
C  22.52700 52.21000 28.98600
O  21.46500 52.70900 29.33200
C  23.53600 51.59200 29.99900
C  23.88200 52.62400 31.05900
O  24.97000 53.18700 31.18300
O  22.82800 52.72400 31.93200
C  23.21300 53.43400 33.15000
H  29.73200 48.48900 29.24300
H  29.46400 49.56100 22.82600
H  23.39200 51.70300 23.78500
H  26.09900 50.66700 31.55900
H  28.02000 48.62200 31.01200
H  29.18900 49.92100 32.34100
H  28.20300 51.32500 31.89800
H  29.57800 50.71400 30.84000
H  26.20200 47.91700 31.59700
H  24.74400 48.47300 30.55000
H  24.74900 47.82600 33.10400
H  23.76200 49.19600 32.66900
H  31.62800 48.03300 28.58600
H  32.74600 47.83200 27.24200
H  31.56300 46.61900 27.60500
H  33.57200 48.25000 25.15100
H  33.50100 47.35400 23.52000
H  32.65400 46.72400 25.05100
H  27.29400 49.65000 21.53500
H  25.34000 51.75600 21.82200
H  28.72100 52.02800 22.18800
H  27.26900 52.58000 21.24200
H  28.38800 51.32800 20.59400
H  24.29700 49.16200 22.60000
H  25.15300 48.96000 21.07900
H  22.70900 49.39300 21.12800
H  23.50100 50.40200 19.84900
H  22.95500 51.17200 21.22100
H  21.36200 52.45100 24.86000
H  22.17000 54.00100 25.32300
H  21.01100 53.20600 26.35300
H  22.92900 50.76500 30.36800
H  23.38000 54.48600 32.92000
H  24.08600 53.01100 33.64600
H  22.46500 53.32100 33.93600

