158

Mg 9.67600 47.47400 26.58200
C  7.60500 47.78200 29.42500
C  12.23500 48.83800 28.38800
C  11.58700 47.52300 23.76100
C  6.73500 47.22600 24.58800
N  9.90000 48.26100 28.63300
C  8.96900 48.17200 29.68700
C  9.59800 48.51900 31.00500
C  10.88800 49.29800 30.53700
C  10.99100 48.81400 29.10900
C  10.77400 50.84200 30.65400
C  10.06200 47.33500 31.92000
C  10.17200 47.55100 33.46900
H  9.74600 46.36600 34.44300
N  11.65800 47.73900 26.26800
C  12.53400 48.30300 27.12700
C  13.82800 48.27400 26.54100
C  13.65200 47.79000 25.22700
C  12.25700 47.66800 25.03000
C  15.12700 48.65900 27.22100
C  14.65000 47.36500 24.16900
O  14.38000 47.04100 23.03700
C  16.07600 47.19700 24.47400
N  9.15400 47.43000 24.41700
C  10.16500 47.32100 23.53600
C  9.61900 46.95800 22.22200
C  8.09600 46.59100 22.49700
C  7.91600 47.12200 23.92400
C  9.86700 48.04100 21.10400
C  7.75700 45.10100 22.48200
C  8.79100 44.15100 23.14300
N  7.54400 47.53300 26.81700
C  6.49900 47.38200 25.90400
C  5.25400 47.24300 26.69000
C  5.71800 47.29500 28.06000
C  7.07800 47.55300 28.11200
C  3.88000 47.04400 26.23700
C  5.28700 47.11700 29.40000
O  4.19800 46.79000 29.79500
C  6.50300 47.48500 30.38600
C  6.74100 46.30400 31.20600
O  7.08400 45.21200 30.73100
O  6.41900 46.52700 32.44400
C  6.46600 45.35900 33.32300
H  13.00900 49.40500 28.90900
H  12.16500 47.44700 22.83800
H  5.79000 47.10900 24.05300
H  8.82100 49.06000 31.54500
H  11.74800 48.97900 31.12600
H  9.83000 51.21800 31.04700
H  10.90600 51.22800 29.64300
H  11.47000 51.26300 31.37900
H  11.03900 47.06300 31.52000
H  9.49500 46.44700 31.64000
H  9.50800 48.37900 33.71700
H  11.17200 47.82500 33.80600
H  14.81100 49.01100 28.20300
H  15.58400 49.51000 26.71700
H  15.83000 47.83800 27.36100
H  16.26500 46.36000 25.14600
H  16.49200 48.17000 24.73500
H  16.49900 46.80800 23.54700
H  10.15300 46.08900 21.83600
H  7.39100 47.10300 21.84200
H  10.68500 47.64500 20.50100
H  10.24600 48.96900 21.53000
H  8.96600 48.14200 20.49900
H  7.55700 44.72900 21.47800
H  6.94100 44.84300 23.15600
H  8.21600 43.63800 23.91400
H  9.67300 44.54700 23.64700
H  9.10700 43.38800 22.43100
H  3.34800 46.56500 27.06000
H  3.88400 46.29600 25.44500
H  3.32000 47.97400 26.13700
H  6.22800 48.28300 31.07600
H  7.06900 44.55700 32.89800
H  5.44000 45.09300 33.57800
H  6.93300 45.62900 34.27100
Mg -11.28300 38.97200 41.17900
C  -9.79100 35.85500 40.59300
C  -8.66800 40.59200 39.66600
C  -13.27900 41.65400 40.76900
C  -14.09400 37.11200 42.31300
N  -9.49900 38.29200 40.25000
C  -9.12000 36.97900 40.13400
C  -7.77300 36.94700 39.42200
C  -7.28300 38.43500 39.33800
C  -8.55300 39.19900 39.79500
C  -6.01000 38.72400 40.09900
C  -8.06000 36.31400 37.98200
C  -7.03400 35.12600 37.63800
H  -6.26100 35.34800 36.30400
N  -10.97400 40.93700 40.38200
C  -9.79200 41.42600 39.86000
C  -9.95100 42.78700 39.55000
C  -11.25000 43.13700 39.98800
C  -11.95000 41.85900 40.37600
C  -8.82800 43.64100 38.88400
C  -11.78700 44.56200 39.90700
O  -10.98800 45.43400 39.55600
C  -13.24700 44.91100 40.34100
N  -13.38600 39.36400 41.42900
C  -13.93900 40.57900 41.27800
C  -15.45500 40.55900 41.57500
C  -15.61800 39.16600 42.37500
C  -14.29500 38.47100 42.01100
C  -16.04400 41.78500 42.28500
C  -16.86400 38.44600 41.79400
C  -17.86300 37.80400 42.77700
N  -11.83200 36.87300 41.58800
C  -12.95800 36.31500 42.06900
C  -12.82400 34.91500 42.21600
C  -11.55000 34.67200 41.61600
C  -11.01000 35.91000 41.21500
C  -13.76700 33.92700 42.78400
C  -10.55100 33.65500 41.33200
O  -10.52200 32.44300 41.61700
C  -9.36800 34.38900 40.50700
C  -8.06000 34.19600 41.19200
O  -7.12500 33.56000 40.73700
O  -8.01200 34.84800 42.40200
C  -6.80700 34.68700 43.17900
H  -7.75700 40.98700 39.21100
H  -13.84600 42.58600 40.70900
H  -14.87600 36.48000 42.74000
H  -7.09400 36.36400 40.04400
H  -7.20500 38.81300 38.31900
H  -5.18800 38.80500 39.38800
H  -5.77900 38.00500 40.88500
H  -6.26200 39.65400 40.61000
H  -7.96900 37.10700 37.24000
H  -9.02700 35.81300 37.93200
H  -7.51600 34.14800 37.64000
H  -6.38900 35.01200 38.50900
H  -9.28900 44.22100 38.08400
H  -7.99700 43.06900 38.47100
H  -8.48700 44.41000 39.57600
H  -13.89200 44.34200 39.67000
H  -13.40900 45.98500 40.25000
H  -13.31000 44.55500 41.36900
H  -15.96500 40.55500 40.61100
H  -15.78500 39.30500 43.44300
H  -15.17900 42.40500 42.52300
H  -16.63000 41.61300 43.18800
H  -16.64600 42.27800 41.52300
H  -16.55700 37.86100 40.92700
H  -17.42900 39.25800 41.33600
H  -18.72900 38.43900 42.58700
H  -17.54000 37.88000 43.81600
H  -18.06300 36.76800 42.50300
H  -13.31000 33.05500 43.25200
H  -14.51500 33.66600 42.03600
H  -14.34900 34.45000 43.54400
H  -9.27600 33.99800 39.49400
H  -5.94500 34.67900 42.51200
H  -6.86200 33.79500 43.80400
H  -6.83300 35.57300 43.81300

