158

Mg -1.35800 17.78700 27.40700
C  -1.88000 15.59000 29.92100
C  -2.25200 20.39400 29.50200
C  -1.61100 20.00400 24.80700
C  -1.18000 15.14200 25.14600
N  -1.92400 17.89000 29.47400
C  -2.09400 16.88300 30.32500
C  -2.32500 17.36400 31.75700
C  -2.94500 18.84500 31.43800
C  -2.34200 19.05200 30.04800
C  -4.44400 19.01100 31.51100
C  -1.03500 17.32100 32.61800
C  -1.23700 16.67100 33.95300
H  -0.06100 16.41600 34.96300
N  -1.51000 19.94100 27.26100
C  -1.92300 20.83700 28.20400
C  -2.05900 22.17600 27.60900
C  -1.68000 22.06100 26.27000
C  -1.60300 20.62200 26.04900
C  -2.35900 23.47700 28.39400
C  -1.38800 23.12600 25.34000
O  -0.89100 22.94900 24.26900
C  -1.61500 24.61700 25.66800
N  -1.45000 17.60500 25.40500
C  -1.65100 18.65700 24.51200
C  -1.99400 18.08700 23.03000
C  -1.22300 16.68800 23.13800
C  -1.39800 16.44800 24.65800
C  -3.49800 18.00500 22.72800
C  0.27200 16.78600 22.56900
C  1.52100 16.51100 23.47300
N  -1.22900 15.74000 27.53300
C  -1.16100 14.80500 26.51300
C  -1.19300 13.46000 27.11100
C  -1.47800 13.73600 28.45000
C  -1.50600 15.11300 28.61400
C  -1.28600 12.10700 26.42200
C  -1.79900 13.11900 29.73300
O  -1.87100 11.92400 29.99700
C  -1.87300 14.33000 30.75200
C  -0.67300 14.06900 31.61500
O  0.39200 14.54400 31.35300
O  -0.91100 13.27000 32.68000
C  0.21200 12.94600 33.53500
H  -2.67100 21.20200 30.10400
H  -1.76900 20.69000 23.97200
H  -1.08300 14.35500 24.39500
H  -3.07500 16.68500 32.16200
H  -2.54700 19.50400 32.20900
H  -4.75200 19.11500 32.55200
H  -4.90600 18.07700 31.19100
H  -4.80000 19.71800 30.76200
H  -0.78700 18.38100 32.65500
H  -0.29600 16.68100 32.13600
H  -1.70000 15.70500 33.75500
H  -1.94000 17.34600 34.44000
H  -2.74600 23.27800 29.39400
H  -3.20400 24.03000 27.98500
H  -1.48800 24.09800 28.60300
H  -1.02300 24.83800 26.55600
H  -2.68200 24.53200 25.87300
H  -1.35300 25.29900 24.85900
H  -1.60400 18.75300 22.26000
H  -1.74500 15.93600 22.54600
H  -3.76300 18.53800 21.81400
H  -4.07000 18.33200 23.59500
H  -3.82900 16.98300 22.54500
H  0.49000 17.76100 22.13200
H  0.43700 16.09200 21.74500
H  2.19000 17.36400 23.35900
H  2.04900 15.64300 23.07800
H  1.22600 16.36400 24.51200
H  -0.44900 11.53600 26.82400
H  -1.22700 12.22200 25.33900
H  -2.24100 11.61200 26.59600
H  -2.73000 14.32800 31.42500
H  -0.16100 13.28200 34.50200
H  1.03400 13.64900 33.40100
H  0.50200 11.89500 33.54400
Mg -10.91800 40.41500 39.62900
C  -9.56000 37.31400 38.60500
C  -7.85500 41.84600 38.77600
C  -12.27400 43.39900 40.06000
C  -14.06000 38.87200 39.66900
N  -8.99000 39.69500 38.73300
C  -8.64100 38.38500 38.50600
C  -7.20200 38.25700 38.01000
C  -6.59500 39.64900 38.28700
C  -7.86000 40.42600 38.66500
C  -5.57700 39.80100 39.43600
C  -7.21000 37.91600 36.49900
C  -6.15800 37.04100 35.87900
H  -6.65900 36.20800 34.67500
N  -10.20300 42.37300 39.32400
C  -8.87000 42.79500 39.06800
C  -8.79200 44.20500 39.19800
C  -10.05700 44.69800 39.48100
C  -10.94000 43.47700 39.64800
C  -7.54300 45.09100 38.98300
C  -10.47000 46.16800 39.52100
O  -9.55900 46.99800 39.43000
C  -11.92200 46.60300 39.55600
N  -12.92000 40.97600 39.75900
C  -13.16800 42.33000 39.96000
C  -14.65200 42.56600 40.26100
C  -15.26700 41.16900 40.11200
C  -14.00900 40.25400 39.80600
C  -15.01500 43.09900 41.69800
C  -16.34500 41.13600 38.86300
C  -17.68700 41.76100 39.32200
N  -11.72400 38.41400 39.39400
C  -12.98400 37.97400 39.41800
C  -13.00000 36.54500 39.24500
C  -11.66300 36.23100 38.93700
C  -10.92900 37.45700 39.00900
C  -14.18600 35.60100 39.36500
C  -10.73900 35.17100 38.52100
O  -10.89300 33.98700 38.32900
C  -9.32200 35.82100 38.25500
C  -8.39500 35.12500 39.14400
O  -8.66000 34.76100 40.27200
O  -7.33800 34.69900 38.36600
C  -6.41400 33.78800 39.06800
H  -6.85300 42.26100 38.64800
H  -12.63300 44.34800 40.46400
H  -15.09300 38.58400 39.87300
H  -6.62700 37.49300 38.53400
H  -6.06800 40.10600 37.45000
H  -5.12100 40.77600 39.26600
H  -4.73200 39.11700 39.35500
H  -5.98700 39.81400 40.44600
H  -7.10700 38.83900 35.92900
H  -8.17900 37.52600 36.18700
H  -5.69100 36.40000 36.62600
H  -5.42200 37.69700 35.41500
H  -7.53600 45.47800 37.96400
H  -6.65700 44.45800 38.92800
H  -7.35000 45.81800 39.77200
H  -11.95300 47.45600 38.87800
H  -12.36500 46.77300 40.53700
H  -12.50500 45.87600 38.99000
H  -15.13100 43.27600 39.58600
H  -15.82000 40.84200 40.99300
H  -14.13000 43.50000 42.19300
H  -15.52700 42.53100 42.47400
H  -15.64100 43.95200 41.43700
H  -16.56800 40.22300 38.31000
H  -15.87500 41.80200 38.14000
H  -17.44100 42.65400 39.89700
H  -18.10300 40.98200 39.96100
H  -18.34600 42.03300 38.49800
H  -14.28500 35.01900 38.44900
H  -15.11700 36.16500 39.42600
H  -14.12200 34.84800 40.14900
H  -9.01100 35.66700 37.22200
H  -5.37100 34.03700 38.87300
H  -6.72400 32.74500 39.00100
H  -6.45200 33.92000 40.15000

