158

Mg 1.72400 -0.87600 43.93200
C  5.32100 -0.90500 42.82200
C  1.58600 1.96200 41.97700
C  -1.52300 -1.40900 43.84800
C  2.42400 -3.95200 45.41300
N  3.38900 0.46100 42.62000
C  4.68600 0.20100 42.24500
C  5.31900 1.35300 41.39900
C  4.14800 2.39500 41.46000
C  2.93100 1.56200 42.04700
C  4.37400 3.73600 42.29600
C  5.80800 0.83200 40.02300
C  6.95600 1.54800 39.30500
H  6.49600 2.23400 38.05400
N  0.26200 0.26400 43.15800
C  0.35500 1.42000 42.38400
C  -0.98100 1.88200 42.19600
C  -1.88900 0.87300 42.66000
C  -1.08100 -0.17800 43.20000
C  -1.29200 3.08600 41.45600
C  -3.41000 0.96600 42.59100
O  -3.91600 2.05100 42.20100
C  -4.34900 -0.11500 42.93300
N  0.68900 -2.45600 44.55200
C  -0.68700 -2.41700 44.48300
C  -1.27200 -3.74600 45.03600
C  -0.06300 -4.46500 45.66000
C  1.11000 -3.56200 45.28500
C  -2.57900 -3.68300 45.84700
C  0.04500 -5.98500 45.24200
C  -0.09500 -6.96100 46.36700
N  3.41300 -2.17600 44.09700
C  3.54600 -3.27300 44.91900
C  4.88600 -3.78100 45.00600
C  5.57500 -2.88200 44.18100
C  4.66500 -1.90300 43.66600
C  5.44500 -4.98400 45.84200
C  6.89600 -2.53400 43.81700
O  7.92000 -3.04800 44.16200
C  6.77900 -1.33900 42.81200
C  7.76600 -0.28400 43.18500
O  7.68800 0.40400 44.28300
O  8.74500 -0.11000 42.24000
C  9.70200 0.94900 42.58900
H  1.52800 2.96000 41.53800
H  -2.59400 -1.61800 43.86100
H  2.66400 -4.83200 46.01300
H  6.20900 1.76400 41.87500
H  3.81100 2.71100 40.47300
H  3.75100 3.64400 43.18600
H  3.94800 4.57000 41.73700
H  5.38400 3.96600 42.63700
H  5.00200 0.79300 39.29000
H  6.12400 -0.19700 40.19400
H  7.72600 0.80700 39.08800
H  7.39600 2.28500 39.97700
H  -2.04800 2.90200 40.69300
H  -0.39600 3.50100 40.99300
H  -1.65500 3.81000 42.18600
H  -5.40200 0.00800 42.67900
H  -4.25900 -0.29500 44.00400
H  -4.05500 -0.97100 42.32600
H  -1.64300 -4.23000 44.13200
H  -0.02200 -4.27400 46.73200
H  -3.50300 -3.88100 45.30200
H  -2.64400 -2.63800 46.15200
H  -2.55400 -4.30300 46.74200
H  1.03600 -6.08300 44.79900
H  -0.74800 -6.24100 44.54000
H  0.74600 -7.65400 46.39000
H  -1.08500 -7.41000 46.27900
H  -0.16100 -6.40300 47.30100
H  4.62200 -5.49600 46.34100
H  6.11000 -4.75000 46.67300
H  5.96000 -5.63500 45.13600
H  6.97500 -1.73600 41.81600
H  10.06500 0.80800 43.60700
H  9.18800 1.89400 42.41000
H  10.52000 0.93000 41.86900
Mg 8.91900 47.70900 27.90700
C  6.95000 47.20000 30.82400
C  11.67500 47.71900 29.90100
C  10.69600 48.47100 25.10700
C  5.95400 47.80700 25.92400
N  9.26300 47.44300 30.13700
C  8.33900 47.28300 31.10600
C  8.93000 47.20400 32.49800
C  10.46000 47.44200 32.25600
C  10.50400 47.45700 30.67300
C  11.09100 48.61900 33.05300
C  8.49400 45.95600 33.37000
C  9.51600 45.33700 34.38400
H  8.95500 44.78600 35.72400
N  10.84900 48.02200 27.54800
C  11.86800 48.00300 28.52700
C  13.14100 48.20700 27.83300
C  12.88300 48.55300 26.43200
C  11.40800 48.35800 26.30500
C  14.51300 48.03900 28.52600
C  13.86600 48.82300 25.25400
O  13.44700 49.25300 24.16300
C  15.19500 48.62600 25.43000
N  8.37600 47.83400 25.69800
C  9.33400 48.33600 24.85100
C  8.67400 48.70400 23.45500
C  7.15000 48.18700 23.67800
C  7.15600 47.97100 25.16600
C  8.58500 50.24100 23.19600
C  6.73000 46.99800 22.75300
C  5.77300 47.28900 21.53600
N  6.92500 47.67100 28.23600
C  5.82200 47.67000 27.36000
C  4.60300 47.52100 28.04400
C  4.99200 47.44400 29.40100
C  6.44600 47.39300 29.51300
C  3.32100 47.41300 27.28000
C  4.51600 47.24700 30.71700
O  3.34600 47.29000 31.10100
C  5.72100 47.00400 31.73200
C  5.60800 45.67600 32.23700
O  5.87300 44.61200 31.65800
O  5.12700 45.70300 33.48600
C  4.99500 44.34000 34.13100
H  12.54800 47.75900 30.55700
H  11.21300 48.66700 24.16600
H  5.09300 47.68800 25.26300
H  8.51600 48.06600 33.02000
H  11.02800 46.60900 32.67000
H  11.40800 49.37500 32.33500
H  11.93000 48.18900 33.60000
H  10.43000 49.15000 33.73900
H  8.11800 45.28300 32.60000
H  7.62800 46.19800 33.98700
H  10.25400 46.13500 34.45900
H  10.01700 44.56700 33.79700
H  14.90100 47.07500 28.19500
H  14.53900 47.99300 29.61400
H  15.16300 48.86900 28.25200
H  15.56200 49.30900 26.19600
H  15.77300 48.72900 24.51100
H  15.29500 47.59600 25.77300
H  9.13900 48.13600 22.65000
H  6.36400 48.87600 23.36700
H  7.68300 50.49800 22.64000
H  9.44600 50.57200 22.61500
H  8.64600 50.74400 24.16100
H  6.13100 46.33100 23.37400
H  7.64600 46.47300 22.48400
H  4.75700 46.91400 21.66100
H  6.23900 46.76100 20.70500
H  5.64100 48.34000 21.27800
H  2.39700 47.66200 27.80200
H  3.23300 46.40500 26.87600
H  3.27200 48.06500 26.40800
H  5.72000 47.62000 32.63100
H  5.91300 43.85500 34.46500
H  4.41900 43.63500 33.53100
H  4.43700 44.44200 35.06200

