158

Mg 6.58000 56.60200 42.28700
C  5.85100 53.16900 42.49800
C  9.55700 55.74900 40.82000
C  6.90300 59.79800 41.37100
C  3.60800 57.29600 43.94200
N  7.57400 54.66500 41.75600
C  7.10600 53.37300 41.90700
C  8.09500 52.38200 41.16500
C  9.47700 53.13100 41.10400
C  8.86600 54.62700 41.21100
C  10.51200 52.73700 42.24000
C  7.58900 52.09100 39.66700
C  7.78200 50.57800 39.27300
H  6.77100 50.04300 38.36100
N  8.05100 57.65600 41.20900
C  9.18500 57.15200 40.74400
C  10.00600 58.22700 40.23200
C  9.17800 59.42700 40.33300
C  7.92000 59.00000 40.94100
C  11.35000 57.93500 39.66200
C  9.66300 60.84300 39.85900
O  10.75800 60.89700 39.33300
C  8.82200 62.05400 39.94800
N  5.27500 58.23000 42.37200
C  5.74800 59.51200 42.09200
C  4.95000 60.64000 42.82000
C  4.05800 59.79100 43.78900
C  4.35300 58.36000 43.35200
C  5.80600 61.72700 43.51600
C  2.49500 60.13100 43.80300
C  1.88900 60.36300 45.22100
N  4.93600 55.50900 42.97300
C  3.78600 55.94400 43.62800
C  2.85800 54.77800 43.80000
C  3.70300 53.62400 43.42000
C  4.91300 54.15300 42.97400
C  1.58600 54.79900 44.51800
C  3.77400 52.22700 43.27600
O  2.89500 51.37700 43.48400
C  5.25400 51.88800 42.93100
C  5.26600 50.75600 41.93500
O  4.67500 50.76300 40.86900
O  6.04200 49.67900 42.35400
C  5.97000 48.40600 41.67600
H  10.57800 55.49200 40.53200
H  6.97400 60.86400 41.14900
H  2.76800 57.63600 44.55100
H  8.23500 51.50100 41.79200
H  10.07600 53.12100 40.19300
H  10.56500 53.58400 42.92400
H  11.38600 52.46000 41.65100
H  10.14500 51.93700 42.88400
H  8.25800 52.62200 38.98900
H  6.53100 52.34200 39.59200
H  7.90600 49.97700 40.17300
H  8.76100 50.50200 38.80000
H  11.19900 57.73700 38.60000
H  11.84800 57.09500 40.14700
H  11.95900 58.83900 39.65500
H  8.37500 62.11300 40.94100
H  8.13300 61.85500 39.12800
H  9.49100 62.90200 39.79900
H  4.36100 61.20300 42.09600
H  4.40200 59.85600 44.82100
H  5.74700 62.72000 43.07200
H  6.86700 61.52200 43.37600
H  5.64000 61.81600 44.59000
H  2.02400 59.23300 43.40400
H  2.35700 61.01600 43.18200
H  1.22900 61.21600 45.06400
H  2.69900 60.66400 45.88400
H  1.31900 59.48500 45.52400
H  1.67400 55.36700 45.44500
H  1.32000 53.75800 44.70200
H  0.77600 55.20400 43.91200
H  5.65500 51.44200 43.84100
H  6.15100 47.69700 42.48400
H  6.78700 48.27500 40.96600
H  4.99400 48.16300 41.25400
Mg 0.04100 42.41500 26.48100
C  2.36200 41.89100 29.04900
C  -2.46900 41.52900 28.67800
C  -2.21000 42.27000 23.98900
C  2.67500 42.63600 24.31900
N  -0.01900 41.54100 28.56100
C  0.99700 41.68300 29.37100
C  0.51000 41.81700 30.86700
C  -0.99900 41.32600 30.69300
C  -1.21500 41.42100 29.21800
C  -1.18700 39.84400 31.04700
C  0.72700 43.29500 31.36200
C  0.93500 43.42300 32.87500
H  0.38900 42.41300 33.91300
N  -2.00400 41.92100 26.27500
C  -2.80300 41.71500 27.38600
C  -4.25700 41.74700 26.95900
C  -4.22100 41.85400 25.54900
C  -2.80800 42.00100 25.17200
C  -5.44100 41.65400 27.93400
C  -5.41800 41.91000 24.57800
O  -5.26600 41.95300 23.34800
C  -6.89000 41.90300 25.02800
N  0.22500 42.23700 24.43300
C  -0.85800 42.36600 23.59500
C  -0.39900 42.56000 22.15300
C  1.19300 42.50500 22.33600
C  1.41300 42.49000 23.77000
C  -1.03200 41.57000 21.08500
C  1.89800 43.70500 21.55200
C  1.52100 45.18400 22.04200
N  2.10700 42.39800 26.60900
C  3.04900 42.54900 25.67400
C  4.41100 42.50300 26.20000
C  4.16200 42.24300 27.54300
C  2.73100 42.13000 27.72800
C  5.71100 42.60300 25.40800
C  4.78100 41.93100 28.83000
O  5.99900 41.59400 29.05700
C  3.55300 41.91400 29.84800
C  3.66600 40.69500 30.74300
O  2.94600 39.71600 30.76000
O  4.83700 40.79300 31.46200
C  4.93600 39.81500 32.55400
H  -3.19500 41.57400 29.49300
H  -2.95100 42.38500 23.19500
H  3.54000 42.71300 23.65700
H  0.97200 41.08700 31.53100
H  -1.71700 41.96600 31.20600
H  -0.65700 39.61000 31.97100
H  -0.85600 39.14300 30.28100
H  -2.20800 39.60000 31.33900
H  -0.14400 43.93100 31.20500
H  1.63200 43.70900 30.91800
H  0.47200 44.29500 33.33800
H  2.01000 43.49100 33.03800
H  -5.29100 42.51800 28.58100
H  -5.38500 40.85800 28.67600
H  -6.46500 41.74100 27.56800
H  -7.63600 41.86200 24.23400
H  -7.01000 42.82700 25.59300
H  -7.13400 41.00200 25.59000
H  -0.60200 43.57400 21.80900
H  1.57100 41.60500 21.85000
H  -0.24400 41.00000 20.59400
H  -1.41400 42.25600 20.32800
H  -1.74200 40.88200 21.54400
H  1.60400 43.59500 20.50800
H  2.97700 43.55300 21.58000
H  2.38900 45.81600 22.22900
H  0.82000 45.20000 22.87700
H  1.00200 45.71400 21.24300
H  5.80100 43.64900 25.11600
H  5.65400 41.97000 24.52300
H  6.62200 42.34300 25.94700
H  3.63300 42.77700 30.51000
H  5.95200 39.42200 32.52100
H  4.24100 38.98500 32.68100
H  4.77100 40.32600 33.50300

