158

Mg 40.93600 7.95700 29.07800
C  42.53000 9.53500 31.88700
C  38.60600 6.74600 31.28900
C  39.49500 6.47000 26.57500
C  43.49100 9.20900 27.05600
N  40.67300 8.05300 31.43200
C  41.29700 8.96200 32.30600
C  40.70700 8.81500 33.68600
C  39.54700 7.81900 33.42200
C  39.63800 7.43500 31.96400
C  39.60400 6.45700 34.20600
C  40.33000 10.19600 34.22200
C  39.40400 10.18000 35.48400
H  40.01200 11.00400 36.66800
N  39.20900 6.81400 28.96400
C  38.35000 6.44300 29.98500
C  37.30700 5.71600 29.45100
C  37.50100 5.75800 28.03500
C  38.79200 6.33400 27.79300
C  36.13600 5.25900 30.29500
C  36.54300 5.27600 26.98500
O  36.87900 5.46100 25.81100
C  35.19900 4.64400 27.21600
N  41.40500 7.83400 27.01100
C  40.65300 7.10300 26.20800
C  41.28700 7.09300 24.81400
C  42.58600 8.03200 24.91300
C  42.50500 8.41000 26.41600
C  41.59100 5.66600 24.21000
C  42.57800 9.25400 24.02600
C  41.48500 10.37200 24.22300
N  42.74300 8.93400 29.36300
C  43.60900 9.45900 28.44100
C  44.57400 10.31000 29.02100
C  44.18800 10.27500 30.34500
C  43.00100 9.51300 30.51100
C  45.56800 11.09600 28.35700
C  44.57500 10.83800 31.60500
O  45.46000 11.61100 31.97400
C  43.51300 10.35600 32.58200
C  44.05300 9.64700 33.84500
O  44.51100 8.53500 33.87800
O  43.86900 10.43000 34.92600
C  43.97400 9.69000 36.17700
H  37.81100 6.45900 31.98000
H  39.06700 5.98400 25.69600
H  44.21600 9.43800 26.27100
H  41.49300 8.29700 34.23600
H  38.55800 8.26100 33.54400
H  39.31900 5.58700 33.61400
H  38.89000 6.57900 35.02100
H  40.64000 6.20700 34.43700
H  39.82800 10.76700 33.44100
H  41.26000 10.69600 34.49200
H  39.34300 9.15700 35.85500
H  38.34500 10.31800 35.26800
H  36.45700 5.22400 31.33600
H  35.85000 4.23900 30.03600
H  35.22500 5.85400 30.22900
H  34.49600 5.45000 27.42700
H  35.24900 3.98300 28.08100
H  34.99100 4.05800 26.32100
H  40.60000 7.57100 24.11600
H  43.33300 7.27900 24.66000
H  41.54900 5.02100 25.08700
H  42.56000 5.77700 23.72400
H  40.85200 5.32900 23.48200
H  42.45400 8.80400 23.04200
H  43.54700 9.75100 24.04900
H  41.87600 11.23200 24.76700
H  40.71500 9.88700 24.82200
H  40.89600 10.64800 23.34800
H  46.47300 10.49200 28.29300
H  45.65700 12.00800 28.94600
H  45.19700 11.44000 27.39200
H  42.97300 11.19400 33.02200
H  43.65600 10.32400 37.00400
H  45.02700 9.43500 36.29400
H  43.32400 8.81600 36.22200
Mg 15.61100 52.09300 25.55600
C  17.36900 51.01000 28.49000
C  13.04700 53.06200 27.73700
C  13.88400 53.19700 22.91700
C  18.24100 50.93500 23.60600
N  15.19400 51.93900 27.87100
C  16.16400 51.67900 28.83500
C  15.71400 52.09300 30.24000
C  14.31400 52.66800 29.98200
C  14.11400 52.58600 28.43900
C  13.13800 51.84700 30.62300
C  16.73500 53.04200 30.88600
C  17.05500 52.80300 32.37400
H  15.98500 52.03000 33.36100
N  13.74400 53.03700 25.37200
C  12.84000 53.28700 26.39000
C  11.69900 53.83200 25.71300
C  11.94700 53.92500 24.32200
C  13.25900 53.41700 24.15700
C  10.34800 54.05000 26.42100
C  11.06500 54.43600 23.22900
O  11.31800 54.41100 21.99800
C  9.74600 55.19100 23.59200
N  15.93200 51.95400 23.53400
C  15.17900 52.67000 22.66600
C  15.71600 52.48500 21.21300
C  17.14400 51.89500 21.49600
C  17.11900 51.55300 22.98500
C  14.74000 51.55800 20.36800
C  18.29100 52.88100 21.10600
C  18.94000 52.64300 19.79200
N  17.36300 51.06900 25.90800
C  18.36800 50.71400 24.99100
C  19.52500 50.10700 25.66600
C  19.17500 50.20600 27.03300
C  17.87500 50.69200 27.13900
C  20.75000 49.62200 24.98800
C  19.58200 49.96900 28.39200
O  20.56900 49.41200 28.85400
C  18.47900 50.54000 29.39000
C  18.03300 49.40800 30.30400
O  17.28800 48.48800 30.02900
O  18.63700 49.63300 31.54700
C  18.36200 48.58500 32.50500
H  12.30700 53.34800 28.48700
H  13.44100 53.51700 21.97200
H  18.99300 50.60700 22.88500
H  15.61700 51.25800 30.93400
H  14.23700 53.72200 30.25000
H  13.59600 51.42700 31.51900
H  12.82300 50.99500 30.02200
H  12.29600 52.52800 30.74600
H  16.27400 54.02900 30.91700
H  17.61400 53.02500 30.24100
H  17.37500 53.63900 32.99600
H  17.84400 52.05000 32.38600
H  10.19500 53.70400 27.44400
H  9.54600 53.46400 25.97300
H  9.98500 55.07400 26.33400
H  9.26600 55.50700 22.66600
H  10.07700 56.04200 24.18700
H  9.22500 54.42700 24.16900
H  15.74600 53.47200 20.75200
H  17.14100 51.04800 20.80900
H  15.12600 50.70800 19.80500
H  14.12400 52.12800 19.67200
H  14.00700 51.23100 21.10500
H  19.02600 52.97600 21.90500
H  17.89100 53.88500 20.96100
H  18.24300 52.71300 18.95700
H  19.41600 51.66400 19.84500
H  19.66600 53.44900 19.68800
H  20.87900 50.26200 24.11500
H  20.69600 48.57200 24.70200
H  21.56900 49.74200 25.69800
H  19.02200 51.28600 29.97100
H  17.28500 48.43800 32.59000
H  18.79200 48.94600 33.43900
H  18.87000 47.65200 32.25900

