158

Mg 47.17300 24.74200 28.39900
C  48.05100 27.05600 31.13700
C  46.64500 22.44700 30.73300
C  47.46400 22.60400 25.95200
C  47.95500 27.50500 26.18200
N  47.49900 24.74300 30.73400
C  47.67200 25.76100 31.63500
C  47.33600 25.27800 33.09300
C  47.16500 23.75200 32.84300
C  47.00000 23.63300 31.32200
C  48.19500 22.86700 33.38600
C  46.07300 26.13000 33.46400
C  46.16800 26.91400 34.74500
H  45.08600 26.64400 35.88300
N  46.98100 22.76100 28.30700
C  46.64000 22.01300 29.40300
C  46.40300 20.67200 28.93400
C  46.86900 20.63000 27.61300
C  47.11200 21.99900 27.18800
C  45.97700 19.57100 29.85100
C  47.05900 19.44700 26.69900
O  47.37400 19.53900 25.50600
C  46.87200 18.03300 27.23700
N  47.68500 25.03600 26.39500
C  47.77300 23.93000 25.59500
C  48.09800 24.29600 24.12300
C  47.79700 25.88400 24.17400
C  47.81800 26.19600 25.66000
C  49.52200 24.02900 23.61200
C  46.52000 26.42400 23.52900
C  45.21000 25.96100 24.10400
N  47.82500 26.82700 28.57600
C  47.98400 27.77400 27.57600
C  48.37300 29.02400 28.17200
C  48.40500 28.80300 29.52800
C  48.03200 27.46400 29.74800
C  48.69300 30.26400 27.43600
C  48.65300 29.38500 30.89000
O  49.04300 30.54100 31.17300
C  48.41200 28.33400 31.90400
C  49.69800 28.12800 32.61400
O  50.60500 27.47000 32.25700
O  49.45700 28.56000 33.92200
C  50.57700 28.27300 34.93400
H  46.28300 21.70900 31.45200
H  47.49800 21.92900 25.09500
H  48.23100 28.31300 25.50100
H  48.12400 25.51000 33.80900
H  46.32000 23.35700 33.40700
H  48.31800 22.01400 32.71900
H  47.88900 22.37500 34.30900
H  49.16800 23.35800 33.40600
H  45.25400 25.41400 33.52700
H  45.68600 26.74100 32.64800
H  46.06900 27.97100 34.49800
H  47.11900 26.85600 35.27400
H  46.84200 19.11400 30.33100
H  45.30000 18.94200 29.27300
H  45.36000 20.06300 30.60300
H  47.09000 17.32900 26.43400
H  45.79200 18.12500 27.34800
H  47.44700 17.81000 28.13600
H  47.37300 23.73300 23.53500
H  48.55800 26.55700 23.78000
H  49.92000 24.87000 23.04200
H  49.62700 23.17200 22.94700
H  50.29400 23.85900 24.36200
H  46.55300 26.30600 22.44600
H  46.44800 27.51100 23.55700
H  45.35500 25.01900 24.63400
H  44.35400 25.88600 23.43300
H  44.85700 26.62100 24.89700
H  48.55300 31.16000 28.04100
H  48.11800 30.36000 26.51500
H  49.74300 30.05900 27.23200
H  47.64100 28.75400 32.55000
H  51.54600 28.15400 34.45100
H  50.23300 27.39500 35.48100
H  50.60500 29.12600 35.61200
Mg 6.62900 53.44400 41.46400
C  6.38600 49.95700 41.63900
C  9.89600 52.91500 40.28000
C  6.67000 56.59200 40.41500
C  3.17400 53.62600 42.21700
N  7.89400 51.61100 40.87500
C  7.57900 50.30300 41.11400
C  8.72400 49.37100 40.73900
C  9.97200 50.35400 40.70100
C  9.25300 51.70700 40.62700
C  11.06100 50.12900 41.82700
C  8.54900 48.46200 39.50600
C  7.89300 49.05500 38.24300
H  6.78900 48.26600 37.52800
N  8.06300 54.59600 40.57700
C  9.32400 54.19500 40.19500
C  10.05000 55.45600 39.73300
C  9.16100 56.56700 39.77900
C  7.92700 55.98600 40.28300
C  11.51500 55.45200 39.22300
C  9.42600 58.03000 39.39000
O  10.47700 58.42000 38.89800
C  8.43000 59.09500 39.45100
N  5.00300 54.78200 41.12400
C  5.40400 56.08300 40.85600
C  4.19100 57.00200 41.03600
C  3.09100 56.10200 41.68300
C  3.71300 54.77000 41.66300
C  4.45900 58.27300 41.87500
C  1.72300 55.92300 40.88500
C  0.42700 56.29000 41.62100
N  5.07900 52.16700 42.03600
C  3.73200 52.34400 42.38600
C  3.23700 51.07800 42.91900
C  4.27800 50.15200 42.68500
C  5.35200 50.83700 42.05700
C  1.91700 50.94700 43.56900
C  4.62200 48.74900 42.82900
O  4.02900 47.86100 43.39300
C  5.92200 48.58700 42.03400
C  5.53300 47.65000 40.92700
O  4.78100 47.97600 40.00300
O  5.89200 46.36700 41.25900
C  5.64500 45.28900 40.26300
H  10.95600 52.80200 40.04300
H  6.54400 57.66000 40.22400
H  2.16700 53.69300 42.63500
H  8.83600 48.65400 41.55300
H  10.47200 50.20600 39.74400
H  11.24200 50.98200 42.48100
H  11.93600 49.86400 41.23500
H  10.93900 49.20700 42.39500
H  8.09800 47.53600 39.86300
H  9.53900 48.15400 39.17000
H  8.69700 48.97700 37.51100
H  7.60800 50.10200 38.34900
H  12.23100 54.94400 39.86900
H  12.00700 56.42100 39.30100
H  11.69300 55.10900 38.20400
H  8.19000 59.35300 40.48300
H  7.54000 58.69000 38.97100
H  8.78700 59.94800 38.87400
H  3.82300 57.39300 40.08700
H  2.81000 56.37200 42.70100
H  4.13900 59.17400 41.35100
H  5.53500 58.27500 42.05000
H  3.95000 58.33600 42.83600
H  1.59500 54.94400 40.42400
H  1.80500 56.61200 40.04400
H  0.49000 56.21900 42.70700
H  -0.26800 55.48300 41.38800
H  0.14500 57.30500 41.33900
H  1.23000 50.74300 42.74700
H  1.56200 51.90900 43.93800
H  1.87400 50.11600 44.27300
H  6.75200 48.06200 42.50600
H  4.62000 45.37100 39.90300
H  5.76100 44.33500 40.77800
H  6.36100 45.46600 39.46000

