158

Mg 35.72400 2.91500 30.93800
C  33.12300 3.92200 32.93200
C  37.85800 2.93800 33.49400
C  38.26400 1.92900 28.79000
C  33.59200 3.38000 28.15100
N  35.42100 3.37800 32.93200
C  34.33700 3.62200 33.59600
C  34.57300 3.53600 35.09500
C  36.16200 3.47700 35.24600
C  36.53300 3.35000 33.76500
C  36.82300 4.75900 35.94100
C  33.87800 2.30100 35.72700
C  33.41100 2.54900 37.18500
H  34.09800 3.49300 38.14100
N  37.79400 2.48400 31.14900
C  38.49300 2.50000 32.30100
C  39.85900 2.03300 32.14000
C  39.91800 1.71300 30.77700
C  38.61600 2.01400 30.16800
C  40.85300 1.90300 33.27500
C  41.11400 1.04900 29.97700
O  41.12100 0.99500 28.77900
C  42.31700 0.41600 30.69700
N  35.94300 2.76000 28.73600
C  37.02500 2.19300 28.15700
C  36.86500 2.16800 26.61600
C  35.42800 2.72800 26.42600
C  34.93900 3.05000 27.83200
C  38.01300 3.00800 25.81500
C  34.54400 1.78900 25.52400
C  34.15100 0.46100 26.20000
N  33.68800 3.51300 30.55800
C  32.91300 3.66000 29.38700
C  31.63700 4.02200 29.72800
C  31.58800 4.08800 31.15100
C  32.88200 3.79100 31.58400
C  30.47900 4.25200 28.74000
C  30.73500 4.29500 32.30600
O  29.55200 4.46000 32.41800
C  31.76800 4.12800 33.55300
C  31.73700 5.42600 34.34800
O  31.73700 6.54900 33.88400
O  31.50300 5.19300 35.70900
C  31.21000 6.29300 36.58800
H  38.46800 2.76100 34.38300
H  39.02600 1.55900 28.10000
H  32.96000 3.56900 27.28000
H  34.18400 4.45300 35.53800
H  36.46400 2.51300 35.65400
H  37.67600 5.10900 35.36000
H  37.11600 4.44200 36.94200
H  36.03500 5.50900 35.99700
H  34.62600 1.51200 35.80100
H  33.05600 1.98000 35.08600
H  33.32300 1.57600 37.66900
H  32.35100 2.79200 37.25500
H  41.00700 0.85500 33.53300
H  40.47600 2.16100 34.26400
H  41.78300 2.45900 33.15800
H  43.06600 0.06600 29.98700
H  42.02100 -0.17800 31.56200
H  42.86000 1.23800 31.16200
H  36.90200 1.11000 26.35700
H  35.46900 3.73000 26.00000
H  37.66000 3.77600 25.12700
H  38.52200 2.33000 25.13000
H  38.71500 3.47900 26.50400
H  35.12000 1.52100 24.63900
H  33.69700 2.35000 25.13000
H  34.76000 0.27800 27.08500
H  34.18100 -0.40900 25.54400
H  33.13300 0.48700 26.58900
H  30.29300 3.28100 28.28200
H  30.77100 4.89000 27.90600
H  29.61000 4.72100 29.20200
H  31.47500 3.27200 34.16200
H  30.48800 5.99700 37.34800
H  30.64500 7.08100 36.08900
H  32.15600 6.68400 36.96300
Mg 50.72300 45.58700 41.58900
C  47.67000 46.91800 40.31200
C  49.79200 42.70200 40.01200
C  53.88900 44.74100 41.49000
C  51.66400 48.91900 42.47200
N  48.96500 44.95200 40.22600
C  47.84400 45.64700 39.87300
C  46.73000 44.74500 39.20900
C  47.34700 43.34700 39.44600
C  48.78800 43.68500 39.93800
C  46.51600 42.35400 40.35300
C  46.65200 45.25600 37.69600
C  45.16900 45.19100 37.21200
H  44.91300 44.09700 36.15900
N  51.62800 43.86000 41.14600
C  51.08500 42.76100 40.49000
C  52.12900 41.72800 40.39100
C  53.37100 42.29300 40.86400
C  52.97100 43.71600 41.24700
C  51.87600 40.30800 40.08000
C  54.67900 41.53800 40.89900
O  54.68300 40.32900 40.65400
C  55.79900 42.20700 41.49600
N  52.54100 46.62400 42.00300
C  53.76700 46.10400 41.75100
C  54.85500 47.08600 41.91700
C  54.13900 48.36200 42.46400
C  52.68800 47.92000 42.38700
C  56.13400 46.60900 42.77300
C  54.46500 49.78300 41.76200
C  54.78100 50.89300 42.82900
N  49.81900 47.53900 41.63900
C  50.28800 48.77300 41.98500
C  49.32300 49.80000 41.82800
C  48.25200 49.03900 41.19900
C  48.60700 47.68400 41.05700
C  49.33300 51.29700 42.15500
C  46.99600 49.31500 40.59700
O  46.39700 50.41000 40.46200
C  46.47900 47.83800 40.08200
C  45.32200 47.50900 40.90800
O  45.26300 46.59800 41.66500
O  44.29400 48.45200 40.70800
C  43.11600 48.22700 41.58600
H  49.44700 41.72300 39.67300
H  54.97100 44.62300 41.40500
H  51.93800 49.97400 42.55000
H  45.73900 44.78700 39.66000
H  47.37400 42.75000 38.53500
H  45.52000 42.79400 40.40000
H  46.91500 42.34600 41.36700
H  46.50200 41.36200 39.90200
H  47.19900 44.55300 37.06800
H  46.94400 46.28800 37.50200
H  44.97500 46.21400 36.89300
H  44.46600 44.92200 38.00000
H  52.31500 40.08000 39.10900
H  50.81600 40.11100 39.92000
H  52.18100 39.69300 40.92700
H  55.55300 42.57500 42.49200
H  56.05400 42.99800 40.79100
H  56.65100 41.52700 41.49200
H  55.23400 47.21300 40.90300
H  54.46600 48.47100 43.49800
H  56.09100 45.54200 42.99100
H  56.14500 47.16800 43.70900
H  57.09600 46.63900 42.26200
H  53.67400 50.09300 41.07900
H  55.32400 49.68000 41.09800
H  55.80700 51.25300 42.76000
H  54.55500 50.54800 43.83800
H  54.17900 51.78200 42.64000
H  49.99000 51.33600 43.02300
H  48.30900 51.54700 42.43600
H  49.78000 51.85700 41.33300
H  46.35800 47.78600 39.00000
H  42.37800 49.02900 41.54400
H  43.59100 48.38700 42.55400
H  42.69800 47.26900 41.27500

