158

Mg 35.43400 3.16000 29.29400
C  33.24900 4.22900 31.69300
C  38.01900 3.28700 31.58900
C  37.77200 2.74600 26.81100
C  32.91100 3.37700 26.92500
N  35.57200 3.67100 31.35400
C  34.50200 3.98300 32.18500
C  34.93200 4.20800 33.65000
C  36.50700 4.24800 33.50300
C  36.77300 3.65600 32.05800
C  37.09800 5.67100 33.81600
C  34.42500 2.99200 34.43300
C  33.89600 3.41800 35.81400
H  34.74700 4.46000 36.67700
N  37.60700 2.92200 29.23300
C  38.42600 2.94200 30.29400
C  39.77700 2.70000 29.88200
C  39.75600 2.50100 28.48700
C  38.34500 2.74800 28.10800
C  40.88000 2.65900 30.87000
C  40.97300 2.26700 27.51900
O  40.71800 2.03900 26.32400
C  42.36500 2.43000 27.84400
N  35.36500 3.07000 27.15500
C  36.49300 3.05200 26.34400
C  35.97000 3.15900 24.86800
C  34.42500 2.87900 24.92700
C  34.17200 3.12400 26.41300
C  36.21400 4.51700 24.13100
C  34.03900 1.43800 24.48700
C  33.27400 1.22200 23.10100
N  33.49900 3.68400 29.20800
C  32.56600 3.83100 28.22800
C  31.31300 4.37800 28.74800
C  31.63400 4.49000 30.11200
C  32.88700 4.04700 30.33900
C  30.02000 4.65800 28.10300
C  31.00300 4.91700 31.41400
O  29.91200 5.40100 31.62500
C  32.12000 4.70100 32.50400
C  32.33200 5.96400 33.23500
O  32.85600 7.00800 32.80200
O  31.77100 5.85600 34.48700
C  32.06600 7.10100 35.30700
H  38.80900 3.39400 32.33500
H  38.49200 2.63700 25.99800
H  32.16800 3.44700 26.12800
H  34.58900 5.14700 34.08400
H  37.10100 3.55100 34.09400
H  38.08700 5.70800 33.36100
H  37.09900 5.88500 34.88400
H  36.37900 6.29200 33.28000
H  35.24700 2.27600 34.46400
H  33.57700 2.65500 33.83800
H  34.00700 2.50900 36.40600
H  32.82400 3.61400 35.80900
H  41.82700 2.56300 30.33800
H  40.67900 1.74400 31.42700
H  40.82900 3.51800 31.53900
H  42.96900 2.16900 26.97500
H  42.65200 1.69500 28.59700
H  42.59400 3.45000 28.15400
H  36.47500 2.41600 24.25200
H  33.84100 3.64100 24.41000
H  36.80100 4.35900 23.22700
H  36.76900 5.14100 24.83200
H  35.30900 5.01600 23.78600
H  33.44300 0.93500 25.24700
H  34.92400 0.81900 24.34400
H  33.89100 0.60200 22.45000
H  33.02600 2.12100 22.53700
H  32.37300 0.69400 23.41400
H  30.12500 4.78100 27.02500
H  29.48600 5.52700 28.48700
H  29.34800 3.82000 28.28800
H  31.80200 3.84800 33.10300
H  31.28600 7.85400 35.19700
H  33.10500 7.41000 35.18900
H  32.03300 6.76800 36.34500
Mg 48.95500 35.36100 27.40800
C  46.87300 33.66700 29.87600
C  49.11100 38.02800 29.72800
C  50.26800 36.99000 24.98400
C  48.33300 32.51400 25.44400
N  48.09800 35.75400 29.61700
C  47.37000 34.92800 30.40700
C  47.22900 35.47000 31.87200
C  47.60300 36.97200 31.70700
C  48.37900 36.99000 30.31400
C  46.37800 37.84600 31.71900
C  48.29300 34.60000 32.73800
C  47.94900 34.54000 34.27800
H  47.25700 35.69600 34.99400
N  49.69400 37.17100 27.40900
C  49.68800 38.13600 28.40300
C  50.39000 39.29200 27.93700
C  50.77900 39.01800 26.59900
C  50.32500 37.63500 26.26400
C  50.52800 40.53900 28.73700
C  51.46400 39.97700 25.55900
O  51.64600 39.72300 24.38100
C  51.93900 41.37600 25.95000
N  49.05300 34.91900 25.42600
C  49.66700 35.78700 24.59900
C  49.93900 35.16000 23.26300
C  49.60800 33.65000 23.48400
C  48.96500 33.66000 24.87700
C  49.15300 35.75800 22.09000
C  50.81300 32.65500 23.36400
C  51.32800 32.19600 21.97500
N  47.83300 33.51300 27.55600
C  47.75300 32.49200 26.66900
C  46.91400 31.40900 27.18200
C  46.53500 31.86600 28.40100
C  47.09600 33.13700 28.62900
C  46.45400 30.12600 26.45200
C  45.61100 31.60900 29.58600
O  44.90100 30.68300 29.88800
C  45.81500 32.77700 30.45600
C  45.89000 32.38400 31.89600
O  46.82800 31.67200 32.33000
O  44.89700 32.89100 32.60200
C  44.86900 32.62300 34.03300
H  49.19200 38.95900 30.29500
H  50.48400 37.55700 24.07600
H  48.21100 31.68300 24.74600
H  46.27800 35.44500 32.40500
H  48.26800 37.19000 32.54200
H  46.51800 38.69700 31.05300
H  46.12500 38.20600 32.71600
H  45.46800 37.33800 31.40000
H  49.22100 35.17200 32.71800
H  48.33600 33.59100 32.32900
H  48.81000 34.32200 34.91100
H  47.44100 33.58300 34.39200
H  51.42100 40.74500 29.32700
H  49.73800 40.58700 29.48700
H  50.25600 41.33000 28.03900
H  51.12300 42.07500 26.13000
H  52.72500 41.70900 25.27100
H  52.43000 41.07800 26.87600
H  50.99100 35.26700 22.99700
H  48.81700 33.33900 22.80100
H  48.07700 35.82600 22.25000
H  49.38700 35.14900 21.21700
H  49.60200 36.74100 21.94700
H  50.51600 31.82100 24.00000
H  51.70300 32.94500 23.92300
H  52.28300 32.68300 21.78000
H  50.59700 32.41800 21.19700
H  51.58600 31.13800 21.92900
H  46.58300 29.19300 27.00100
H  46.99500 29.93200 25.52600
H  45.40800 30.37600 26.27700
H  44.94300 33.41900 30.33600
H  44.60700 33.60500 34.42800
H  45.81200 32.27800 34.45700
H  44.03100 31.99200 34.32900

