158

Mg -2.60900 16.91900 25.53100
C  -2.89000 14.45000 28.18400
C  -3.46400 19.23900 27.80600
C  -2.70800 19.05600 23.09200
C  -2.55000 14.23100 23.34400
N  -3.07600 16.84300 27.72300
C  -3.05700 15.79200 28.64300
C  -3.36700 16.32700 30.08100
C  -3.54500 17.86800 29.78300
C  -3.37000 17.98500 28.34300
C  -4.76200 18.63000 30.35600
C  -2.30300 16.00200 31.20500
C  -2.48100 16.69200 32.55700
H  -1.98600 16.04900 33.88100
N  -2.76900 18.94200 25.47500
C  -3.28500 19.76900 26.41700
C  -3.30900 21.18500 25.93500
C  -2.81400 21.13100 24.66900
C  -2.72200 19.65700 24.33500
C  -3.63300 22.37800 26.82300
C  -2.43200 22.27100 23.73500
O  -1.86400 22.05000 22.69700
C  -2.72000 23.70400 24.11600
N  -2.40700 16.66900 23.45600
C  -2.59000 17.68900 22.60000
C  -2.62900 17.26200 21.10500
C  -2.88400 15.78200 21.25200
C  -2.42900 15.53100 22.74600
C  -3.50800 18.07600 20.14500
C  -2.17700 14.92400 20.21600
C  -3.17800 14.26200 19.25200
N  -2.53200 14.72200 25.66700
C  -2.56900 13.79100 24.66500
C  -2.82000 12.43400 25.22700
C  -2.65700 12.64000 26.62200
C  -2.62200 14.05100 26.83600
C  -3.06400 11.20300 24.47200
C  -2.61100 11.96100 27.95800
O  -2.73000 10.81200 28.31400
C  -2.69900 13.22900 29.04500
C  -1.54000 13.18300 29.94500
O  -0.47200 13.80300 29.78700
O  -1.84200 12.47100 31.07700
C  -0.88300 12.32800 32.14200
H  -3.62700 20.07500 28.49000
H  -3.07800 19.77000 22.35400
H  -2.69700 13.44700 22.59900
H  -4.31600 15.93200 30.44500
H  -2.60900 18.30800 30.12900
H  -5.48500 19.01200 29.63500
H  -4.46900 19.50300 30.94000
H  -5.31200 17.89500 30.94400
H  -1.26000 15.95000 30.89400
H  -2.60500 14.97500 31.41100
H  -3.47200 17.14000 32.62900
H  -1.84700 17.57800 32.53800
H  -4.20300 22.11200 27.71300
H  -4.25800 23.09500 26.29100
H  -2.72600 22.84000 27.21200
H  -2.32000 24.41600 23.39400
H  -2.25000 23.80700 25.09400
H  -3.78700 23.75800 24.33200
H  -1.64000 17.42700 20.67600
H  -3.95700 15.59000 21.22100
H  -4.14500 17.37200 19.60900
H  -2.92800 18.65800 19.42900
H  -4.01900 18.77000 20.81200
H  -1.63600 14.12600 20.72400
H  -1.34600 15.47700 19.77700
H  -4.22400 14.44800 19.49400
H  -3.04700 13.18500 19.35600
H  -2.99300 14.61500 18.23800
H  -3.24900 10.52700 25.30700
H  -2.17700 10.90100 23.91500
H  -3.96400 11.32600 23.87000
H  -3.59900 13.22900 29.65900
H  -1.00800 11.33300 32.57000
H  -1.11500 12.85900 33.06400
H  0.11600 12.50000 31.74300
Mg 47.54400 15.55800 28.72500
C  45.66300 15.54200 31.75300
C  49.85100 17.32300 30.40300
C  48.81800 16.48900 25.82400
C  44.69000 14.40600 27.11400
N  47.68200 16.36900 30.86300
C  46.87900 16.18400 31.95400
C  47.42700 16.94100 33.19200
C  48.73000 17.66000 32.71300
C  48.82400 16.98500 31.27800
C  48.62800 19.27600 32.47300
C  47.72900 15.90500 34.27800
C  47.76200 16.50800 35.76000
H  47.45500 17.99200 35.95300
N  49.25800 16.41800 28.23600
C  50.13900 17.04700 29.06700
C  51.38300 17.35700 28.30000
C  51.06500 17.12800 26.93400
C  49.61900 16.65300 26.94000
C  52.66400 17.91500 28.86100
C  51.89300 17.32100 25.71200
O  51.48400 17.07800 24.59100
C  53.23800 17.88800 25.83000
N  46.84400 15.56900 26.75800
C  47.54400 15.96200 25.72200
C  46.79600 15.70300 24.36600
C  45.52400 14.89500 24.81900
C  45.71500 14.88900 26.31600
C  46.44700 17.05000 23.67200
C  45.34900 13.55900 24.12100
C  46.47300 12.51500 24.51200
N  45.72600 14.86000 29.26100
C  44.65500 14.40200 28.52900
C  43.59700 13.92100 29.30400
C  43.93100 14.37200 30.56300
C  45.21800 14.99800 30.51200
C  42.26500 13.29600 28.89000
C  43.44100 14.52000 31.89800
O  42.36900 14.12200 32.35300
C  44.59300 15.15900 32.78100
C  43.89300 16.39400 33.23100
O  43.16200 17.11300 32.53200
O  44.14900 16.51700 34.55500
C  43.32700 17.61700 35.19400
H  50.60700 18.01500 30.77800
H  49.29000 16.65000 24.85300
H  43.93500 13.88200 26.52400
H  46.74200 17.67700 33.61100
H  49.64300 17.40700 33.25300
H  49.57500 19.68400 32.82700
H  47.75400 19.71200 32.95600
H  48.55300 19.43800 31.39800
H  48.67800 15.47300 33.96100
H  47.05100 15.07400 34.08400
H  48.72900 16.36400 36.24100
H  47.10100 15.93800 36.41200
H  52.71600 18.99600 28.72700
H  53.48900 17.37000 28.40200
H  52.80300 17.86000 29.94000
H  53.67500 18.01700 24.84000
H  53.77200 17.14800 26.42700
H  53.11600 18.86700 26.29500
H  47.44600 15.06200 23.77100
H  44.66200 15.52500 24.59900
H  47.29200 17.34000 23.04800
H  46.27400 17.78100 24.46100
H  45.59100 16.91000 23.01200
H  45.35000 13.58300 23.03100
H  44.34800 13.19500 24.35300
H  46.13600 12.00500 25.41400
H  47.52100 12.80600 24.57900
H  46.46500 11.81000 23.68100
H  42.50800 12.23900 29.00000
H  41.97400 13.51600 27.86300
H  41.51300 13.47900 29.65700
H  44.99900 14.44800 33.50100
H  43.67900 17.73800 36.21800
H  42.25200 17.44100 35.24200
H  43.46200 18.57400 34.68900

