158

Mg -11.88400 38.04800 42.27600
C  -9.79800 35.35500 41.15500
C  -9.50100 40.16400 41.27700
C  -14.05000 40.50400 42.66400
C  -14.41800 35.68900 42.71600
N  -9.96400 37.77400 41.14200
C  -9.28800 36.59400 40.94600
C  -7.94600 36.88000 40.44700
C  -7.73000 38.41400 40.74300
C  -9.14400 38.84700 41.19400
C  -6.69400 38.66900 41.89800
C  -7.91500 36.49500 38.89500
C  -6.99400 35.34500 38.52900
H  -5.95400 35.61200 37.41500
N  -11.80200 40.11100 41.89700
C  -10.70400 40.75100 41.51900
C  -11.03100 42.19400 41.53700
C  -12.36700 42.29400 42.04800
C  -12.83000 40.95800 42.16000
C  -9.92200 43.24800 41.30400
C  -13.03900 43.53700 42.45400
O  -12.53900 44.60700 42.16500
C  -14.39100 43.74100 43.15100
N  -13.85200 38.11000 42.58700
C  -14.58200 39.22900 42.88900
C  -16.09100 39.05200 43.31700
C  -16.13000 37.50500 43.23000
C  -14.70700 37.02700 42.86000
C  -16.62700 39.63700 44.67400
C  -17.19500 36.94500 42.18900
C  -18.42700 36.38400 42.71900
N  -12.03000 35.91900 42.20500
C  -13.14700 35.09600 42.36400
C  -12.77600 33.77100 42.22200
C  -11.43100 33.76300 41.73900
C  -11.07900 35.10200 41.70000
C  -13.71000 32.61400 42.40200
C  -10.30300 32.96700 41.25600
O  -10.09900 31.81700 41.21200
C  -9.11300 33.98500 40.94500
C  -8.06400 33.62600 41.88600
O  -8.26300 33.72400 43.07800
O  -6.79900 33.32700 41.25100
C  -5.59900 32.93700 42.06900
H  -8.71600 40.90500 41.11500
H  -14.87300 41.17300 42.92400
H  -15.08500 34.87300 43.00200
H  -7.27000 36.27300 41.05000
H  -7.26200 38.86600 39.86900
H  -5.77100 38.09500 41.81400
H  -6.98000 38.56300 42.94400
H  -6.39700 39.71200 41.79000
H  -7.55900 37.30600 38.25900
H  -8.89000 36.20400 38.50500
H  -7.66900 34.53100 38.26500
H  -6.49500 34.88700 39.38300
H  -9.64800 43.81500 42.19300
H  -10.31700 43.86000 40.49300
H  -9.00300 42.81000 40.91400
H  -14.53000 43.05200 43.98300
H  -15.09300 43.35200 42.41300
H  -14.65200 44.76600 43.41700
H  -16.69400 39.47400 42.51300
H  -16.44700 37.15500 44.21300
H  -17.09200 38.90100 45.33000
H  -17.33900 40.44000 44.48400
H  -15.71600 40.01300 45.14000
H  -16.75100 36.22200 41.50500
H  -17.55000 37.68700 41.47400
H  -18.62200 35.43900 42.21000
H  -19.27900 36.98800 42.40800
H  -18.41100 36.10900 43.77300
H  -14.75800 32.85500 42.22700
H  -13.46800 32.20200 43.38200
H  -13.50000 31.82800 41.67700
H  -8.79500 33.77200 39.92500
H  -5.89200 32.30900 42.91000
H  -4.89900 33.75300 42.24900
H  -5.00600 32.20900 41.51500
Mg 0.83200 42.64900 25.38600
C  2.90200 42.09800 28.12100
C  -1.88700 41.70400 27.23300
C  -1.14600 42.93300 22.52900
C  3.61000 43.27200 23.29600
N  0.58200 41.81700 27.43700
C  1.50300 41.92200 28.37200
C  0.82700 41.83800 29.77000
C  -0.63400 41.33600 29.44000
C  -0.68400 41.69100 27.97000
C  -1.04600 39.90700 30.02500
C  0.89900 43.15400 30.45200
C  1.59800 43.11800 31.78500
H  1.34300 41.99600 32.74500
N  -1.18700 42.36800 24.97500
C  -2.19500 42.07600 25.88700
C  -3.48700 42.04900 25.24500
C  -3.27100 42.55400 23.91700
C  -1.81400 42.68300 23.74200
C  -4.70500 41.48600 25.91400
C  -4.36700 42.88100 22.80600
O  -4.20000 43.48300 21.75300
C  -5.86600 42.64100 23.05900
N  1.25000 42.79700 23.09200
C  0.19000 42.99100 22.29300
C  0.72600 43.38000 20.94800
C  2.21200 43.80000 21.21700
C  2.41300 43.23000 22.65300
C  0.42500 42.19400 19.98500
C  2.54700 45.27500 21.03400
C  2.97800 45.64400 19.55900
N  2.91100 42.73600 25.57600
C  3.90500 42.95800 24.65500
C  5.21800 42.82700 25.34100
C  4.87400 42.57500 26.70900
C  3.43700 42.43200 26.78600
C  6.67200 43.25600 24.84800
C  5.38200 42.42500 28.03600
O  6.59300 42.41200 28.35900
C  4.09200 42.27200 29.05000
C  4.38700 41.06100 29.91500
O  4.36700 39.86400 29.56700
O  4.73300 41.48000 31.18600
C  4.95600 40.33000 32.15300
H  -2.76700 41.58500 27.86800
H  -1.86700 43.15600 21.74000
H  4.39800 43.81200 22.76600
H  1.38500 41.09500 30.33900
H  -1.43700 41.90800 29.90500
H  -1.47000 39.32600 29.20600
H  -1.83200 40.21200 30.71500
H  -0.29300 39.35000 30.58200
H  -0.10100 43.56600 30.58700
H  1.52900 43.89600 29.96100
H  1.19800 43.92700 32.39600
H  2.63500 43.38900 31.59100
H  -4.39000 41.12500 26.89300
H  -5.05600 40.69500 25.25100
H  -5.51400 42.21600 25.94900
H  -6.44300 42.91200 22.17400
H  -6.21900 43.34100 23.81600
H  -5.89000 41.57200 23.26800
H  0.14000 44.20200 20.53900
H  2.90900 43.17400 20.65900
H  1.39700 41.74700 19.77700
H  0.01600 42.72200 19.12400
H  -0.28700 41.46300 20.37000
H  3.39100 45.52900 21.67600
H  1.72000 45.95000 21.25300
H  3.97500 46.08300 19.54200
H  2.28500 46.28700 19.01500
H  3.06400 44.74100 18.95500
H  7.39300 43.74200 25.50500
H  6.52200 43.85900 23.95300
H  7.08300 42.31100 24.49200
H  3.99900 43.15500 29.68200
H  5.39100 40.61700 33.11000
H  5.68600 39.70000 31.64400
H  4.07800 39.73300 32.40000

