158

Mg 7.73300 2.73700 27.58900
C  9.16600 1.36300 30.44000
C  5.95400 4.86400 29.50600
C  6.50600 3.95400 24.74900
C  9.33500 0.21500 25.77500
N  7.56500 3.02400 29.65000
C  8.27100 2.37900 30.65000
C  7.85600 2.88900 32.05000
C  6.67100 3.78500 31.80800
C  6.73300 3.90200 30.21600
C  5.31900 3.23400 32.38200
C  9.15900 3.53800 32.81200
C  9.45100 3.01700 34.23500
H  9.94900 4.04900 35.29400
N  6.51700 4.27900 27.17700
C  5.82600 5.05200 28.09500
C  5.14800 6.09200 27.44300
C  5.31800 5.93000 26.02700
C  6.16100 4.66900 25.90500
C  4.38700 7.07700 28.16000
C  4.82900 6.74100 24.90400
O  4.96800 6.37800 23.77200
C  4.14800 7.98700 25.08200
N  7.89400 2.13300 25.51400
C  7.15400 2.69000 24.61300
C  7.38100 2.05300 23.21600
C  8.35000 0.84900 23.50200
C  8.63300 1.10600 25.00000
C  5.99800 1.77900 22.55500
C  9.67600 0.89700 22.72200
C  9.70500 0.27200 21.35000
N  9.00900 1.03700 27.98600
C  9.62400 0.15900 27.14900
C  10.35900 -0.80600 27.89300
C  10.27200 -0.32300 29.18600
C  9.44600 0.79700 29.20900
C  11.17700 -1.97600 27.37200
C  10.70400 -0.54700 30.56200
O  11.54500 -1.34900 31.00400
C  10.02600 0.58500 31.39800
C  9.35500 -0.04900 32.43200
O  8.18800 -0.51100 32.38500
O  10.25100 -0.04500 33.49200
C  9.79000 -0.69900 34.74100
H  5.46000 5.57800 30.16800
H  6.09200 4.19800 23.76800
H  9.73200 -0.62000 25.19400
H  7.62300 1.95300 32.55700
H  6.71300 4.77700 32.25900
H  4.63900 3.33600 31.53600
H  4.97100 3.82300 33.23100
H  5.40500 2.20800 32.74000
H  9.07800 4.62500 32.80700
H  10.09700 3.23600 32.34600
H  10.25800 2.29400 34.11700
H  8.55800 2.52400 34.61700
H  4.70700 7.09400 29.20200
H  3.34600 6.76300 28.23500
H  4.38000 8.07900 27.73100
H  3.21000 7.93900 25.63600
H  4.21700 8.38200 24.06800
H  4.85700 8.54300 25.69500
H  7.84800 2.80700 22.58200
H  7.95900 -0.16800 23.54500
H  5.23700 1.89300 23.32700
H  5.82000 0.73700 22.29000
H  5.66000 2.48800 21.79900
H  10.46700 0.42800 23.30700
H  9.85700 1.96200 22.57800
H  9.76700 1.10100 20.64600
H  8.80600 -0.22600 20.98600
H  10.50500 -0.45700 21.21600
H  10.95200 -2.66300 28.18800
H  12.24400 -1.81500 27.21200
H  10.73800 -2.36900 26.45500
H  10.87200 1.12300 31.82700
H  9.08000 -1.51900 34.63700
H  9.32100 0.02900 35.40200
H  10.63200 -1.09700 35.30800
Mg 40.19400 9.61700 29.55200
C  42.33000 11.23400 31.95000
C  38.17700 8.75000 31.95800
C  38.35600 8.35200 27.08000
C  42.64900 10.38000 27.11200
N  40.43100 9.77300 31.86700
C  41.21700 10.57700 32.55300
C  40.69000 10.81900 33.98900
C  39.51400 9.74000 34.06600
C  39.29900 9.30700 32.55500
C  39.72000 8.50500 35.02200
C  40.22600 12.26100 34.28000
C  39.60700 12.47000 35.64100
H  40.38200 13.32900 36.75200
N  38.50700 8.58000 29.53300
C  37.76400 8.35000 30.67500
C  36.58200 7.62400 30.29500
C  36.68600 7.39700 28.86500
C  37.84300 8.21300 28.42200
C  35.51600 7.22000 31.24800
C  35.83000 6.58800 27.94600
O  35.92400 6.64000 26.73600
C  34.69100 5.80100 28.61400
N  40.54700 9.27400 27.36700
C  39.55900 8.78900 26.55200
C  39.85300 8.98300 25.05600
C  41.33500 9.37800 25.13100
C  41.57400 9.71900 26.60700
C  39.40100 7.76500 24.05200
C  41.72500 10.52300 24.17500
C  41.33400 11.88600 24.63600
N  42.11000 10.53700 29.46600
C  42.93700 10.75900 28.40300
C  44.17300 11.47900 28.91200
C  43.88800 11.68200 30.27900
C  42.62400 11.14000 30.54600
C  45.36700 11.97700 28.15200
C  44.45800 12.29500 31.44400
O  45.53400 12.88600 31.44100
C  43.46700 12.02100 32.63100
C  44.18100 11.32000 33.74800
O  44.78400 10.22000 33.65300
O  43.98700 12.02700 34.92900
C  44.56500 11.31600 36.11700
H  37.36300 8.77800 32.68500
H  37.67900 8.01500 26.29200
H  43.47700 10.50700 26.41200
H  41.52200 10.54000 34.63500
H  38.56800 10.16000 34.40500
H  39.63100 7.59200 34.43300
H  38.93000 8.68300 35.75200
H  40.71600 8.49300 35.46400
H  39.67600 12.63400 33.41700
H  41.15200 12.83100 34.36400
H  39.56200 11.44400 36.00600
H  38.59500 12.84500 35.49100
H  34.56700 7.63300 30.90500
H  35.83500 7.45700 32.26300
H  35.27900 6.15900 31.33600
H  35.08900 5.12300 29.36900
H  34.29300 5.26500 27.75300
H  33.97600 6.46800 29.09400
H  39.27300 9.88200 24.84700
H  41.96200 8.52100 24.88700
H  39.00700 6.87500 24.54200
H  40.24900 7.56000 23.39900
H  38.57600 8.09500 23.42100
H  41.22600 10.38900 23.21500
H  42.79700 10.62700 24.00700
H  40.55400 11.83500 25.39700
H  41.03500 12.49100 23.78000
H  42.26200 12.25200 25.07500
H  45.28700 11.55800 27.14900
H  46.22700 11.45500 28.57100
H  45.52200 13.05600 28.10900
H  43.04900 12.97300 32.95700
H  45.63900 11.45700 36.23700
H  44.42000 10.24100 36.00800
H  44.15400 11.72600 37.03900

