158

Mg 0.14300 43.11400 26.58600
C  2.56400 42.85000 29.20900
C  -2.12500 41.79700 28.74600
C  -1.91600 43.01000 23.98200
C  2.93200 43.66800 24.37800
N  0.20800 42.40800 28.78800
C  1.24400 42.44700 29.64800
C  0.68000 42.49400 31.03400
C  -0.78800 41.77700 30.92600
C  -0.90000 41.95100 29.39000
C  -0.79900 40.26400 31.23400
C  0.70100 43.95300 31.63200
C  1.20600 44.03100 33.11100
H  0.88700 42.81500 34.04300
N  -1.75400 42.62400 26.44700
C  -2.57400 42.05600 27.42000
C  -3.84900 41.83100 26.88900
C  -3.86800 42.32200 25.54900
C  -2.41000 42.67600 25.27200
C  -4.93600 41.32600 27.80100
C  -5.10900 42.37600 24.55900
O  -4.96400 42.89400 23.47100
C  -6.49300 41.84600 24.95200
N  0.52400 43.04500 24.40700
C  -0.57000 43.23500 23.64800
C  -0.14900 43.86400 22.33200
C  1.30100 44.25800 22.49800
C  1.60300 43.63700 23.86200
C  -0.47000 42.90100 21.13400
C  1.55600 45.78600 22.41800
C  1.80800 46.39400 21.03800
N  2.25900 43.13100 26.68800
C  3.22400 43.33800 25.73700
C  4.58200 43.30000 26.37500
C  4.32600 43.12000 27.72500
C  2.94600 43.08100 27.84100
C  5.93200 43.30300 25.69300
C  4.98000 43.03700 29.05200
O  6.17800 43.10500 29.25400
C  3.84300 42.97800 30.05800
C  4.00400 41.83300 31.03400
O  3.97700 40.61200 30.72100
O  4.34800 42.26800 32.27100
C  4.36900 41.27700 33.32400
H  -2.92300 41.46800 29.41400
H  -2.68300 43.20000 23.22900
H  3.71900 43.91800 23.66300
H  1.38600 41.94000 31.65300
H  -1.54600 42.32000 31.49100
H  -1.06400 39.64100 30.38000
H  -1.49600 39.84800 31.96100
H  0.17800 39.95700 31.60700
H  -0.34600 44.24400 31.72700
H  1.28700 44.68400 31.07600
H  0.64200 44.81500 33.61600
H  2.26600 44.28100 33.08600
H  -5.29800 40.45900 27.24900
H  -5.77500 42.02000 27.85700
H  -4.69300 41.00500 28.81400
H  -7.22100 42.05200 24.16800
H  -6.73600 42.43200 25.83800
H  -6.36300 40.77800 25.12700
H  -0.76000 44.75000 22.16000
H  1.88600 43.74000 21.73800
H  0.39200 42.59900 20.54000
H  -1.25100 43.38800 20.55000
H  -0.90400 41.96000 21.47400
H  2.40700 46.07300 23.03700
H  0.77300 46.31000 22.96700
H  0.90000 46.83800 20.62800
H  2.25500 45.71700 20.31100
H  2.56100 47.13000 21.32100
H  6.12700 44.29200 25.27900
H  5.90300 42.47400 24.98600
H  6.70900 43.05500 26.41600
H  3.89100 43.76600 30.80900
H  5.31500 40.73700 33.34500
H  3.46000 40.67600 33.29800
H  4.26200 41.81900 34.26400
Mg -11.36700 15.93500 42.86500
C  -7.96000 16.63700 42.67700
C  -12.06400 19.33400 42.56500
C  -14.52800 15.17900 42.14700
C  -10.50700 12.49500 42.72400
N  -10.12700 17.73300 42.77300
C  -8.76500 17.81600 42.70800
C  -8.31700 19.27400 42.54200
C  -9.60100 19.97800 43.08900
C  -10.73000 18.95600 42.73200
C  -9.63700 20.26200 44.62200
C  -7.81500 19.69500 41.07300
C  -6.31800 20.13400 40.96400
H  -5.48700 19.51200 39.90300
N  -13.07600 17.10500 42.42400
C  -13.14600 18.50400 42.32200
C  -14.48200 18.90700 41.91500
C  -15.25800 17.65400 41.73000
C  -14.35600 16.58900 42.17800
C  -14.99200 20.26500 41.76400
C  -16.67700 17.68000 41.32800
O  -17.24400 18.74900 41.02900
C  -17.56900 16.45000 41.32100
N  -12.29100 14.07500 42.54000
C  -13.65200 14.12600 42.42400
C  -14.26700 12.67200 42.50500
C  -12.99300 11.80100 42.68800
C  -11.85700 12.78800 42.60400
C  -15.27800 12.50700 43.62800
C  -12.79400 10.74000 41.56300
C  -12.80700 9.28100 42.06900
N  -9.63700 14.74100 42.80000
C  -9.41500 13.37100 42.79600
C  -8.00500 13.10000 42.83000
C  -7.46000 14.35800 42.84500
C  -8.47100 15.31100 42.73900
C  -7.29400 11.83500 42.97500
C  -6.13700 14.98800 42.96700
O  -5.04900 14.47200 42.99300
C  -6.45100 16.54900 42.81200
C  -6.01900 17.13100 44.14600
O  -6.50200 16.93600 45.27900
O  -4.99500 17.91900 43.93700
C  -4.33900 18.51900 45.12600
H  -12.11300 20.42500 42.54800
H  -15.53700 14.82300 41.92700
H  -10.35500 11.41300 42.71800
H  -7.48500 19.40200 43.23300
H  -9.80600 20.90700 42.55700
H  -8.62900 20.05800 44.98300
H  -10.43000 19.74500 45.16300
H  -9.80100 21.33900 44.64900
H  -8.46700 20.49200 40.71800
H  -8.05900 18.86300 40.41200
H  -5.91500 19.81500 41.92600
H  -6.31500 21.22300 40.90800
H  -14.99900 20.56100 40.71500
H  -14.36400 21.03700 42.20900
H  -15.96000 20.41600 42.24000
H  -18.62000 16.73500 41.36000
H  -17.55100 15.90300 42.26400
H  -17.28000 15.78800 40.50400
H  -14.68000 12.36800 41.54400
H  -12.93000 11.34400 43.67600
H  -15.29300 13.45400 44.16900
H  -14.93300 11.71200 44.29000
H  -16.27000 12.47000 43.17900
H  -11.95800 11.02500 40.92500
H  -13.65000 10.73900 40.88700
H  -12.86100 9.10000 43.14300
H  -11.96800 8.67100 41.73500
H  -13.68200 8.74100 41.70400
H  -6.60500 11.97400 43.80800
H  -6.65600 11.71700 42.09900
H  -7.97000 10.98100 43.02000
H  -5.80000 16.88800 42.00600
H  -4.07700 17.81900 45.91900
H  -4.83600 19.39400 45.54400
H  -3.33500 18.68100 44.73500

