158

Mg 16.45700 51.10200 26.61200
C  18.58100 49.87900 29.12700
C  14.42800 52.20100 29.24400
C  14.52800 52.63000 24.32900
C  18.58700 50.02100 24.09200
N  16.48900 50.91000 28.95000
C  17.50100 50.43000 29.72600
C  17.29800 50.57600 31.23900
C  15.76400 51.00800 31.22600
C  15.56700 51.42200 29.72900
C  14.86800 49.78000 31.55200
C  18.20100 51.63700 31.96000
C  18.90700 51.09300 33.18100
H  18.25300 51.36200 34.46200
N  14.70100 52.20200 26.79100
C  14.08100 52.63900 27.98200
C  12.96600 53.46500 27.65600
C  12.92400 53.54500 26.18500
C  14.02100 52.75400 25.70200
C  11.94400 53.95200 28.73800
C  11.91100 54.21700 25.28500
O  11.93400 54.19200 24.04700
C  10.88400 55.00500 25.92400
N  16.47800 51.19100 24.43300
C  15.57400 51.96100 23.72100
C  15.78100 51.78000 22.19800
C  17.17000 51.01100 22.15000
C  17.45800 50.77300 23.60000
C  14.50700 51.06700 21.54500
C  18.33700 51.76000 21.46900
C  19.24000 50.77900 20.60900
N  18.13200 50.07000 26.53100
C  18.92300 49.70200 25.43800
C  20.08400 49.02800 26.02900
C  19.97300 49.03900 27.43800
C  18.76500 49.75100 27.68100
C  21.13500 48.39500 25.23500
C  20.60700 48.68100 28.66600
O  21.70800 48.06400 28.81700
C  19.75700 49.16500 29.82700
C  19.33000 48.13900 30.77700
O  18.31500 47.46000 30.76200
O  20.22900 48.02800 31.86600
C  19.92400 47.01300 32.91100
H  13.87000 52.53500 30.12100
H  14.03300 53.28900 23.61200
H  19.23300 49.65400 23.29100
H  17.43500 49.56100 31.61300
H  15.62500 51.85300 31.90100
H  13.95800 50.22400 31.95700
H  15.27500 48.96200 32.14700
H  14.67700 49.35000 30.56800
H  17.60400 52.47900 32.31100
H  18.97300 52.05900 31.31700
H  19.87300 51.58200 33.30800
H  19.11900 50.03600 33.02400
H  11.11200 53.27600 28.93300
H  11.59300 54.97300 28.58800
H  12.37100 53.92800 29.74000
H  10.09200 55.15800 25.19200
H  11.28800 55.93800 26.31800
H  10.44700 54.39800 26.71800
H  15.79000 52.72800 21.66100
H  16.99900 50.00200 21.77600
H  13.76500 50.95700 22.33600
H  14.84600 50.13700 21.08600
H  14.03800 51.75300 20.84000
H  19.08200 52.17500 22.14800
H  17.96600 52.60800 20.89300
H  19.08300 50.78200 19.53100
H  19.23700 49.77200 21.02600
H  20.29000 51.04600 20.73000
H  22.02300 48.20200 25.83800
H  21.49100 48.95000 24.36700
H  20.77100 47.39400 25.00200
H  20.28100 49.82900 30.51400
H  18.86400 46.85800 33.11500
H  20.37400 47.35700 33.84300
H  20.43000 46.11400 32.56000
Mg -11.54600 38.69400 42.39400
C  -9.59900 35.91600 41.20800
C  -9.12300 40.74900 40.72900
C  -13.59900 41.08000 42.74900
C  -13.88200 36.38600 43.60600
N  -9.58300 38.36900 40.98700
C  -8.97400 37.13200 40.72400
C  -7.63800 37.28000 40.06400
C  -7.42800 38.88700 40.11700
C  -8.78300 39.37700 40.62900
C  -6.22100 39.53500 40.76900
C  -7.67900 36.73600 38.55900
C  -6.53600 35.61900 38.23200
H  -5.78600 35.69800 36.82300
N  -11.38100 40.66900 41.86900
C  -10.29700 41.33100 41.28300
C  -10.58100 42.76800 41.36300
C  -11.96900 42.95400 41.84900
C  -12.38000 41.49000 42.19500
C  -9.58800 43.85000 40.85600
C  -12.76800 44.25100 42.00000
O  -12.20800 45.28800 41.68600
C  -14.22300 44.39200 42.46200
N  -13.61100 38.71100 42.89300
C  -14.20500 39.90000 43.07900
C  -15.70700 39.68200 43.36000
C  -15.85200 38.10200 43.69300
C  -14.36100 37.69500 43.39100
C  -16.24500 40.50400 44.51600
C  -16.82600 37.33300 42.76300
C  -18.20100 36.90100 43.39500
N  -11.74600 36.64500 42.46500
C  -12.71800 35.89200 43.14100
C  -12.35800 34.48400 42.99600
C  -11.13900 34.47500 42.26700
C  -10.88000 35.83700 41.88900
C  -13.04900 33.36100 43.52600
C  -10.15500 33.58900 41.73200
O  -10.16600 32.39800 41.82500
C  -9.16200 34.46200 40.88800
C  -7.84800 34.04700 41.33300
O  -7.11800 33.19700 40.75600
O  -7.61200 34.67100 42.52100
C  -6.41100 34.24500 43.25800
H  -8.25600 41.37300 40.50600
H  -14.19600 41.95800 43.00400
H  -14.62000 35.74500 44.09400
H  -6.82500 36.83000 40.63300
H  -7.39100 39.28700 39.10400
H  -5.53500 38.71000 40.96400
H  -6.54200 40.09800 41.64500
H  -5.67700 40.15900 40.06000
H  -7.68900 37.50200 37.78300
H  -8.65100 36.24500 38.50800
H  -7.02400 34.65800 38.39700
H  -5.77100 35.68800 39.00600
H  -9.96700 44.42900 40.01400
H  -8.59500 43.46800 40.61700
H  -9.55400 44.57100 41.67200
H  -14.81900 43.67100 41.90300
H  -14.52300 45.37400 42.09600
H  -14.31700 44.40500 43.54800
H  -16.17000 39.97500 42.41700
H  -16.10100 37.98800 44.74800
H  -16.90900 41.32300 44.24300
H  -15.48200 40.95500 45.15200
H  -16.81100 39.86800 45.19700
H  -16.32600 36.46700 42.33000
H  -16.98800 38.01100 41.92500
H  -18.97100 37.58800 43.04200
H  -18.14300 36.92700 44.48300
H  -18.48700 35.88500 43.12400
H  -12.90800 33.18200 44.59200
H  -12.64000 32.55200 42.92000
H  -14.13400 33.40000 43.43300
H  -9.26100 34.09900 39.86500
H  -6.37200 33.15600 43.25000
H  -6.65900 34.52700 44.28100
H  -5.49500 34.78000 43.00600

