158

Mg 0.88300 7.68900 26.30200
C  1.80300 9.81500 28.98200
C  1.36600 5.03900 28.38600
C  0.29800 5.67300 23.72100
C  1.20200 10.49100 24.18500
N  1.44400 7.51200 28.46300
C  1.64800 8.46900 29.38100
C  1.84000 7.89200 30.82200
C  1.95700 6.34300 30.59800
C  1.50100 6.22600 29.01400
C  3.47600 5.88000 30.84300
C  0.74000 8.35100 31.87100
C  1.24000 8.70600 33.20100
H  2.29500 7.85800 33.95700
N  0.82800 5.62900 26.02800
C  1.13000 4.71000 26.99000
C  1.00400 3.39300 26.35300
C  0.56500 3.52000 25.04800
C  0.44000 4.97100 24.88100
C  1.21200 2.19800 27.15800
C  0.20100 2.49800 23.96000
O  -0.35300 2.67100 22.86900
C  0.38700 1.11200 24.38800
N  0.73900 8.02200 24.27400
C  0.39900 7.03100 23.41900
C  0.37800 7.51600 21.96000
C  0.53800 9.09100 22.12100
C  0.89800 9.24600 23.60300
C  1.53300 6.92400 21.10800
C  -0.75700 9.88900 21.64000
C  -0.61200 11.08700 20.65400
N  1.33000 9.78700 26.50900
C  1.40300 10.83800 25.53500
C  1.78500 12.05400 26.19100
C  1.92200 11.70400 27.58500
C  1.65300 10.35400 27.68200
C  1.89300 13.38000 25.59400
C  2.43600 12.21100 28.85500
O  2.94800 13.28100 29.12900
C  2.13800 11.04000 29.85400
C  3.49700 10.87000 30.55800
O  4.42600 10.08700 30.22600
O  3.46200 11.67300 31.65500
C  4.44800 11.34800 32.63600
H  1.59800 4.22200 29.07300
H  0.17300 4.97200 22.89300
H  1.26100 11.33600 23.49500
H  2.80200 8.29400 31.14000
H  1.31400 5.66100 31.15600
H  4.00700 6.53200 31.53600
H  4.19100 5.74900 30.03100
H  3.40600 4.89000 31.29200
H  -0.16100 7.73800 31.91700
H  0.28300 9.24500 31.44800
H  0.41900 8.77800 33.91500
H  1.73000 9.68000 33.20700
H  1.90600 2.47700 27.95000
H  1.86000 1.50200 26.62400
H  0.22900 1.80100 27.41000
H  1.41600 0.76500 24.29000
H  -0.01200 0.43800 23.62900
H  -0.01100 0.73300 25.32900
H  -0.63400 7.16600 21.75800
H  1.35400 9.39200 21.46400
H  1.12700 5.93600 20.89300
H  2.43900 6.77600 21.69600
H  1.62400 7.39400 20.12900
H  -1.27600 10.17800 22.55400
H  -1.38200 9.20600 21.06400
H  0.47300 11.19100 20.66900
H  -1.06300 11.95300 21.13800
H  -0.86900 10.68100 19.67600
H  1.61000 14.15400 26.30800
H  1.19000 13.57400 24.78400
H  2.91500 13.57000 25.26600
H  1.25800 11.16000 30.48600
H  5.43300 11.26400 32.17800
H  4.18100 10.36800 33.02900
H  4.47200 12.06000 33.46200
Mg 40.42500 41.25200 27.27600
C  39.81900 43.64500 30.00100
C  41.45100 39.05800 29.79200
C  41.16100 39.30200 24.91500
C  39.49400 43.87300 25.01500
N  40.53400 41.34700 29.58100
C  40.22700 42.37100 30.42400
C  40.28800 41.96100 31.92900
C  41.04900 40.64700 31.76700
C  41.06200 40.31100 30.26600
C  42.47200 40.61000 32.45000
C  38.91100 41.88600 32.61300
C  38.80500 41.37900 34.09500
H  38.15900 42.28700 35.09700
N  41.10700 39.37400 27.34000
C  41.52800 38.61800 28.40800
C  42.03600 37.34700 27.91800
C  42.02100 37.39400 26.50600
C  41.42700 38.71100 26.13200
C  42.57600 36.29900 28.91400
C  42.52100 36.31600 25.46100
O  42.55200 36.40700 24.25500
C  43.03000 35.07800 26.07100
N  40.48100 41.61500 25.24400
C  40.81000 40.58500 24.40400
C  40.57300 40.93200 22.91500
C  39.95400 42.32300 22.97500
C  39.83300 42.64000 24.50700
C  41.88700 40.92200 22.01800
C  38.55500 42.36300 22.39700
C  37.44800 41.55500 23.11600
N  39.73800 43.31700 27.42800
C  39.52500 44.23900 26.42400
C  39.24800 45.53400 27.02100
C  39.33500 45.30200 28.39100
C  39.69000 44.00600 28.61500
C  38.93500 46.78300 26.29100
C  39.17200 46.02900 29.60000
O  38.90700 47.17700 29.80300
C  39.44900 44.92300 30.73800
C  40.46100 45.37400 31.71100
O  41.62700 45.72700 31.39000
O  39.89200 45.55300 32.99700
C  40.89400 45.97100 34.00100
H  41.70800 38.38400 30.61100
H  41.38500 38.53100 24.17500
H  39.27000 44.67600 24.30900
H  40.73400 42.75900 32.52300
H  40.53400 39.83900 32.28600
H  42.85100 41.62500 32.56400
H  43.28700 40.16500 31.87800
H  42.43700 40.06300 33.39300
H  38.16900 41.28700 32.08500
H  38.40200 42.84800 32.56900
H  39.77300 41.01000 34.43500
H  38.16400 40.49800 34.11600
H  43.52400 35.86500 28.59600
H  41.81800 35.52500 29.03600
H  42.76800 36.79500 29.86500
H  43.97100 35.38300 26.53000
H  43.31000 34.38400 25.27900
H  42.25700 34.59700 26.67000
H  39.79100 40.25200 22.57500
H  40.63200 43.07500 22.57000
H  41.57500 40.59300 21.02700
H  42.63000 40.26100 22.46600
H  42.36100 41.89800 21.91700
H  38.66500 42.03600 21.36300
H  38.24900 43.40700 22.33200
H  37.80200 41.04100 24.00900
H  37.01100 40.87800 22.38200
H  36.58100 42.14900 23.40500
H  38.71300 46.57300 25.24500
H  39.77700 47.47100 26.37100
H  38.14100 47.27600 26.85300
H  38.54000 44.66300 31.28200
H  41.76600 46.48000 33.59100
H  41.27900 45.10100 34.53200
H  40.36500 46.65300 34.66700

