158

Mg 7.63400 2.31000 26.80900
C  9.01800 0.68500 29.86900
C  5.22200 3.65900 28.80000
C  6.18400 3.30200 24.08300
C  9.41900 -0.26900 25.01400
N  7.13900 2.04500 29.03800
C  7.89400 1.46000 30.08400
C  7.21100 1.84900 31.43100
C  5.92300 2.59500 31.00300
C  6.10200 2.80400 29.52000
C  4.61200 1.87800 31.51900
C  8.21600 2.69500 32.25400
C  8.09100 2.56100 33.79300
H  9.34600 2.79400 34.70400
N  6.02100 3.52100 26.49800
C  5.14000 3.99800 27.42100
C  4.19000 4.83400 26.82500
C  4.42600 4.75800 25.39600
C  5.56400 3.83200 25.27100
C  3.18100 5.76300 27.53300
C  3.79000 5.48600 24.22200
O  3.99900 5.24200 23.07900
C  2.80500 6.52700 24.44300
N  7.72900 1.51500 24.84800
C  7.14000 2.23400 23.85800
C  7.65000 1.84900 22.46000
C  8.70600 0.75500 22.77900
C  8.60000 0.59200 24.29200
C  6.50100 1.44500 21.46900
C  10.12200 1.05100 22.31800
C  10.96600 -0.08000 21.60500
N  9.08000 0.66200 27.27200
C  9.65500 -0.21900 26.40200
C  10.34100 -1.20700 27.14400
C  10.31800 -0.85000 28.48900
C  9.38300 0.28200 28.55100
C  11.10400 -2.32500 26.42700
C  10.74800 -1.07700 29.83800
O  11.55900 -1.79100 30.38400
C  10.01500 -0.04900 30.74500
C  9.33900 -0.83100 31.88300
O  8.84500 -1.94700 31.86000
O  9.61100 -0.23100 33.08400
C  9.29800 -1.00400 34.30800
H  4.53200 4.08100 29.53300
H  5.76700 3.64700 23.13400
H  9.91400 -1.01900 24.39400
H  6.94300 0.95100 31.98800
H  5.91800 3.60100 31.42300
H  4.28500 2.49700 32.35500
H  4.82100 0.85000 31.81400
H  3.89300 1.75400 30.71000
H  8.13600 3.73800 31.94900
H  9.23700 2.36100 32.07100
H  7.62500 1.63800 34.14000
H  7.51000 3.42500 34.11600
H  3.38600 6.81500 27.33100
H  3.33500 5.59400 28.59900
H  2.14000 5.53400 27.30700
H  3.36200 7.36500 24.86200
H  2.11500 6.07900 25.15900
H  2.24900 6.85700 23.56600
H  8.19100 2.69500 22.03600
H  8.27500 -0.12700 22.30600
H  6.07300 2.33700 21.01200
H  5.68700 1.05600 22.08100
H  6.71900 0.72600 20.67900
H  10.58800 1.53200 23.17800
H  10.00900 1.86500 21.60200
H  10.40200 -1.00700 21.71500
H  11.90100 -0.28900 22.12500
H  10.95900 0.23600 20.56200
H  11.99700 -2.48900 27.03000
H  11.36300 -1.81400 25.49900
H  10.55400 -3.25100 26.26400
H  10.82000 0.57900 31.12600
H  8.51300 -1.75900 34.27000
H  8.88300 -0.26500 34.99400
H  10.19900 -1.39300 34.78400
Mg 46.26500 25.76500 28.26300
C  47.37800 27.90600 30.88000
C  44.89200 23.72700 30.59900
C  45.38500 23.88900 25.79400
C  47.62500 28.12400 26.03800
N  46.17600 25.82200 30.51800
C  46.70500 26.79300 31.34600
C  46.20400 26.53600 32.76200
C  45.76600 25.02500 32.78700
C  45.52900 24.84500 31.17900
C  47.05600 24.17400 33.17400
C  45.12200 27.59000 33.18300
C  45.54100 28.29000 34.49700
H  44.60400 28.44300 35.71900
N  45.41300 23.93900 28.19900
C  44.88500 23.26800 29.24200
C  44.25200 22.02900 28.79600
C  44.41900 21.99200 27.34400
C  45.05400 23.33500 27.03800
C  43.70300 20.92600 29.74200
C  43.97500 20.96000 26.33400
O  44.16400 21.14300 25.15600
C  43.22800 19.84800 26.73700
N  46.39800 26.08100 26.20200
C  45.97900 25.11800 25.39700
C  46.68400 25.28800 23.98900
C  47.15600 26.75700 23.94800
C  47.02000 27.03000 25.46200
C  47.75300 24.15800 23.63200
C  46.27400 27.77600 23.11400
C  47.13000 28.48500 22.02700
N  47.30900 27.53800 28.35200
C  47.79200 28.40200 27.37700
C  48.63600 29.45700 27.89300
C  48.39700 29.31900 29.24700
C  47.56300 28.15200 29.50900
C  49.32200 30.59900 27.15400
C  48.57100 30.05500 30.52900
O  49.13100 31.11500 30.78300
C  47.92400 29.13300 31.66100
C  49.04900 28.77700 32.55000
O  50.05100 28.23200 32.24400
O  48.65700 28.95500 33.86200
C  49.57900 28.48400 34.91900
H  44.54400 23.03100 31.36500
H  45.28300 23.15000 24.99600
H  48.00200 28.88400 25.35000
H  46.98800 26.58900 33.51800
H  44.86700 24.85100 33.38000
H  46.76700 23.40400 33.89000
H  47.91100 24.62800 33.67600
H  47.38800 23.66100 32.27200
H  44.10900 27.23200 33.37100
H  45.16300 28.38000 32.43300
H  45.63800 29.33100 34.19100
H  46.52900 27.96200 34.82100
H  42.80000 20.43200 29.38600
H  43.38800 21.23000 30.74100
H  44.45500 20.15500 29.91100
H  43.75400 19.22800 27.46300
H  42.84300 19.22700 25.92800
H  42.30600 20.27300 27.13400
H  45.85400 25.22400 23.28600
H  48.22600 26.83200 23.75400
H  47.80800 23.50100 24.50000
H  48.72000 24.55500 23.32400
H  47.34900 23.63900 22.76200
H  45.85800 28.51400 23.79900
H  45.50500 27.26000 22.53900
H  46.75200 29.50700 22.04100
H  46.87300 28.08800 21.04500
H  48.21500 28.43900 22.12200
H  48.99800 30.60000 26.11400
H  50.38400 30.36300 27.22400
H  49.28000 31.53800 27.70600
H  47.18700 29.86400 31.99500
H  50.29000 29.26800 35.18000
H  50.06700 27.52300 34.75100
H  48.95100 28.32900 35.79600

