158

Mg -0.79000 7.65900 25.87800
C  0.14300 9.32000 28.92600
C  -0.89900 4.76900 27.87100
C  -1.39000 5.87800 22.98800
C  0.18100 10.44100 24.09700
N  -0.46300 7.12800 28.15900
C  -0.13100 7.99000 29.14000
C  -0.05800 7.27600 30.48200
C  -0.33400 5.77400 30.17600
C  -0.59000 5.87600 28.63600
C  0.78800 4.77900 30.61900
C  -1.09800 7.92800 31.59800
C  -0.64800 8.10000 33.00400
H  0.76200 7.59400 33.46900
N  -1.17300 5.64100 25.48000
C  -1.22100 4.63100 26.48000
C  -1.49200 3.41500 25.81100
C  -1.71400 3.70300 24.45700
C  -1.42000 5.16300 24.20000
C  -1.69100 2.10100 26.62200
C  -2.19100 2.78000 23.29900
O  -2.56900 3.17600 22.19700
C  -2.35300 1.27900 23.58200
N  -0.56300 7.99200 23.89400
C  -0.98600 7.19600 22.86500
C  -0.98500 7.87200 21.49200
C  -0.45000 9.30400 21.86900
C  -0.15000 9.26400 23.37100
C  -0.02300 7.25900 20.38600
C  -1.53200 10.36500 21.50400
C  -2.91900 10.16400 22.19800
N  0.05500 9.57600 26.35300
C  0.35200 10.59500 25.46000
C  0.69500 11.78200 26.27200
C  0.74400 11.30100 27.54100
C  0.27400 9.95300 27.61700
C  1.11200 13.15000 25.73300
C  1.01800 11.69700 28.85700
O  1.39600 12.76500 29.31500
C  0.71500 10.45400 29.76500
C  1.97200 10.10900 30.49700
O  2.84600 9.36300 30.12900
O  2.06500 10.81300 31.67700
C  3.36000 10.63100 32.41300
H  -0.82000 3.80900 28.38500
H  -1.52100 5.47800 21.98000
H  0.22800 11.28000 23.40000
H  0.96600 7.41600 30.82900
H  -1.29800 5.35000 30.45500
H  1.52000 5.20800 31.30400
H  1.28400 4.44800 29.70700
H  0.23700 3.99800 31.14400
H  -1.99900 7.31600 31.55500
H  -1.34600 8.93500 31.26200
H  -1.29000 7.48900 33.64000
H  -0.82000 9.10300 33.39400
H  -0.86100 1.40000 26.70600
H  -2.55500 1.55700 26.23900
H  -1.95000 2.43200 27.62800
H  -2.63000 0.82600 22.63000
H  -3.17600 1.11500 24.27700
H  -1.41300 0.85700 23.93800
H  -2.00800 7.79900 21.12400
H  0.49200 9.48200 21.35000
H  0.16000 8.03800 19.64500
H  -0.53600 6.49800 19.79800
H  0.95000 6.97000 20.78400
H  -1.61200 10.20900 20.42800
H  -1.23000 11.41200 21.53200
H  -3.41100 11.12000 22.01400
H  -2.66600 10.12600 23.25700
H  -3.32000 9.23200 21.80000
H  0.31100 13.42500 25.04600
H  2.06300 13.13200 25.20000
H  1.13000 13.88800 26.53500
H  0.04100 10.77800 30.55800
H  4.22700 10.14300 31.96900
H  3.19500 10.13600 33.37100
H  3.58900 11.67200 32.64300
Mg 17.31000 52.82600 26.52100
C  19.27200 51.27800 29.01100
C  14.97900 53.51600 29.02300
C  15.28900 53.86500 24.14000
C  19.50100 51.49000 24.05500
N  17.24600 52.41300 28.69400
C  18.19800 51.95300 29.57400
C  17.83500 52.18900 30.98000
C  16.28800 52.46600 30.88300
C  16.14100 52.83200 29.41100
C  15.59600 51.14600 31.24300
C  18.53000 53.30500 31.75500
C  18.55600 53.21300 33.29700
H  17.47100 52.34200 34.00900
N  15.38900 53.63500 26.59300
C  14.66400 53.92300 27.71700
C  13.44600 54.47800 27.32600
C  13.40300 54.54300 25.86500
C  14.72100 53.99300 25.43400
C  12.37400 54.82900 28.42500
C  12.26000 54.97900 24.96800
O  12.29000 54.73600 23.76900
C  11.13700 55.68000 25.49700
N  17.51900 52.87000 24.43500
C  16.50400 53.39400 23.68400
C  16.78500 53.22100 22.10800
C  18.31100 52.60100 22.15600
C  18.41700 52.28300 23.62600
C  15.71000 52.28800 21.45400
C  19.52500 53.48900 21.72400
C  19.35300 54.88600 21.12700
N  19.05400 51.74500 26.45100
C  19.82500 51.27100 25.40700
C  20.89800 50.48600 25.98200
C  20.68900 50.47500 27.38100
C  19.59600 51.27500 27.65400
C  21.93300 49.87400 25.13800
C  21.34200 49.95400 28.58800
O  22.33000 49.25800 28.83900
C  20.39400 50.53000 29.74600
C  19.79100 49.45000 30.54000
O  19.10600 48.55800 30.08800
O  20.32200 49.36200 31.79200
C  19.80000 48.19300 32.58800
H  14.28900 53.85700 29.79700
H  14.61900 54.06600 23.30200
H  20.01500 50.97500 23.24100
H  18.09500 51.29700 31.55100
H  15.97300 53.34100 31.45200
H  15.77200 50.34900 30.52000
H  14.54300 51.36600 31.42200
H  16.04500 50.84500 32.18900
H  18.04700 54.25700 31.53300
H  19.54300 53.23100 31.35900
H  18.55900 54.22400 33.70300
H  19.52900 52.80300 33.56700
H  11.35800 54.84600 28.03200
H  12.73500 55.72500 28.93000
H  12.45900 53.96300 29.08200
H  11.62000 56.50300 26.02600
H  10.61200 54.93200 26.09100
H  10.52800 56.15100 24.72600
H  16.65000 54.17000 21.58800
H  18.12700 51.64800 21.66000
H  14.92000 52.95900 21.11800
H  15.38400 51.65500 22.27900
H  16.13600 51.70000 20.64000
H  20.04500 52.99700 20.90100
H  20.17900 53.50400 22.59600
H  18.86800 54.77300 20.15700
H  20.27300 55.46900 21.08200
H  18.70000 55.45400 21.78900
H  22.62300 50.59200 24.69300
H  21.44400 49.30800 24.34500
H  22.43600 49.19300 25.82400
H  20.99000 51.16000 30.40500
H  20.07800 47.22100 32.18200
H  18.71400 48.11800 32.63600
H  20.25000 48.25700 33.57800

