158

Mg 6.99100 52.93700 40.33000
C  6.83100 49.45800 39.98900
C  10.39400 52.71100 39.78900
C  7.09400 56.36500 39.68500
C  3.61400 53.01600 40.54300
N  8.38600 51.24900 39.64600
C  8.13200 49.86100 39.68000
C  9.35500 49.06300 39.50900
C  10.46300 50.07200 40.00600
C  9.70000 51.47500 39.70100
C  10.97700 50.02400 41.48600
C  9.55400 48.55400 38.03800
C  8.98800 49.39000 36.87900
H  7.68800 48.97200 36.20500
N  8.48900 54.37000 39.83400
C  9.87000 54.03300 39.66000
C  10.63100 55.21300 39.57700
C  9.68000 56.29600 39.46200
C  8.32300 55.71600 39.60800
C  12.08800 55.24400 39.39500
C  10.00200 57.80700 39.38900
O  11.19000 58.16400 39.49300
C  9.03200 58.90000 39.14400
N  5.53500 54.50400 40.14600
C  5.75800 55.83600 40.01400
C  4.41500 56.66800 40.02300
C  3.36400 55.59800 40.30300
C  4.19800 54.24600 40.32300
C  4.49900 57.75500 41.07000
C  2.34100 55.52100 39.06000
C  0.85300 55.59900 39.51700
N  5.55200 51.54700 40.46600
C  4.14700 51.73500 40.58500
C  3.50700 50.45000 40.81900
C  4.57500 49.56000 40.61000
C  5.79600 50.25900 40.39700
C  2.02800 50.15700 40.97700
C  4.82300 48.17700 40.63600
O  4.08400 47.23900 40.88400
C  6.25000 48.04600 40.07900
C  6.21400 47.28100 38.77400
O  5.48500 47.50300 37.82000
O  7.00500 46.18100 38.93600
C  6.75900 45.14900 37.93500
H  11.47400 52.65600 39.93600
H  7.08800 57.37300 39.26500
H  2.56400 53.05100 40.84000
H  9.42500 48.24300 40.22400
H  11.36800 50.04700 39.39900
H  10.53900 50.80300 42.10900
H  12.03500 50.27200 41.39600
H  10.76800 49.04100 41.90900
H  8.98600 47.63000 37.93200
H  10.62100 48.51900 37.82000
H  9.79400 49.57800 36.17000
H  8.75300 50.40800 37.19100
H  12.27200 55.88900 38.53500
H  12.57100 54.30000 39.14300
H  12.50200 55.73200 40.27700
H  8.22200 58.96500 39.87100
H  8.53200 58.60700 38.22100
H  9.47700 59.87900 38.96700
H  4.25200 57.09800 39.03500
H  2.79900 55.65100 41.23400
H  3.84400 57.68500 41.93900
H  4.23400 58.66500 40.53000
H  5.49500 57.86800 41.49900
H  2.40500 54.56300 38.54500
H  2.39800 56.26400 38.26400
H  0.75700 55.47900 40.59600
H  0.34900 54.73100 39.09200
H  0.39500 56.51700 39.14700
H  1.61700 50.09100 39.97000
H  1.41400 50.91000 41.47200
H  1.93700 49.21300 41.51400
H  6.66200 47.36300 40.82200
H  7.44100 44.33100 38.16900
H  6.78600 45.45000 36.88800
H  5.79500 44.66400 38.08900
Mg 1.64300 41.94300 26.05800
C  3.53900 42.06100 28.97300
C  -1.09200 41.12300 27.89400
C  0.26200 41.12200 23.28400
C  4.73500 42.59400 24.25300
N  1.27300 41.60900 28.25100
C  2.17000 41.95900 29.21200
C  1.37100 41.92400 30.56700
C  -0.09800 41.49700 30.25100
C  -0.02400 41.46600 28.70200
C  -0.41100 40.06400 30.78600
C  1.49400 43.24800 31.37600
C  1.60500 43.16300 32.89300
H  1.23000 41.89600 33.63600
N  -0.24100 41.21600 25.64200
C  -1.23400 40.84500 26.51400
C  -2.30700 40.31500 25.71200
C  -1.90900 40.26100 24.36900
C  -0.59500 40.90200 24.36800
C  -3.66400 39.88900 26.29100
C  -2.65500 39.75800 23.15900
O  -2.15300 39.66800 22.04600
C  -4.08000 39.30200 23.19700
N  2.39200 41.89000 23.98900
C  1.53500 41.55400 23.06700
C  2.14700 41.79800 21.67100
C  3.44700 42.55200 21.99700
C  3.57800 42.37000 23.48800
C  2.36600 40.47800 20.80800
C  3.39600 44.05600 21.62300
C  4.23800 44.47900 20.44900
N  3.69000 42.28900 26.45900
C  4.77600 42.57600 25.68600
C  5.93200 42.66300 26.50600
C  5.53000 42.46800 27.79500
C  4.15700 42.19900 27.73700
C  7.40000 42.91900 26.00900
C  5.91700 42.37500 29.21000
O  6.97100 42.44100 29.81500
C  4.57700 42.20900 30.02900
C  4.73400 41.04100 30.91700
O  4.49100 39.90900 30.54600
O  5.00200 41.42200 32.24000
C  5.19700 40.39200 33.18800
H  -2.00800 41.16100 28.48600
H  -0.29200 40.88700 22.37300
H  5.62000 42.91700 23.70100
H  1.92800 41.12200 31.04900
H  -0.86300 42.19500 30.59000
H  0.25600 39.81400 31.61200
H  -0.18900 39.36900 29.97700
H  -1.43800 39.85400 31.08900
H  0.62000 43.83900 31.10100
H  2.32600 43.83500 30.98800
H  1.03700 43.95700 33.37900
H  2.68100 43.26600 33.03600
H  -3.70700 40.17600 27.34100
H  -3.79200 38.80600 26.26300
H  -4.42300 40.43400 25.73000
H  -4.76600 40.14700 23.26300
H  -4.25700 38.69800 24.08600
H  -4.24700 38.80100 22.24300
H  1.46200 42.44000 21.11700
H  4.35800 42.13300 21.57000
H  1.50700 39.84300 21.02500
H  3.28700 39.96300 21.08100
H  2.42300 40.82800 19.77700
H  3.68200 44.72300 22.43600
H  2.35900 44.37300 21.51000
H  4.98400 45.21300 20.75300
H  3.55000 44.90700 19.72000
H  4.76500 43.61800 20.03800
H  7.74200 43.87300 26.41100
H  7.42400 42.97800 24.92100
H  7.99300 42.15500 26.51100
H  4.49800 43.11800 30.62500
H  6.22700 40.03800 33.14200
H  4.58200 39.49700 33.09100
H  4.82000 40.74900 34.14600

