158

Mg -0.21800 7.52400 26.92500
C  0.73400 9.48600 29.75000
C  -0.84500 4.96100 28.98900
C  -0.65700 5.56900 24.15700
C  0.69800 10.17700 24.83200
N  0.01000 7.26600 29.15200
C  0.26500 8.21400 30.10200
C  -0.09900 7.73300 31.54600
C  -0.41000 6.21000 31.27900
C  -0.37700 6.05700 29.69800
C  0.71800 5.24200 31.82900
C  -1.30600 8.41600 32.31400
C  -1.19800 8.61100 33.83000
H  -0.40900 7.61300 34.72100
N  -0.73800 5.49100 26.64200
C  -1.06000 4.57500 27.64000
C  -1.52500 3.33000 27.05000
C  -1.46700 3.47800 25.63800
C  -0.92000 4.87100 25.43000
C  -1.75700 2.12400 27.94400
C  -1.92700 2.51900 24.61700
O  -1.79700 2.79300 23.38900
C  -2.42400 1.10400 24.89700
N  -0.00000 7.85400 24.77900
C  -0.25000 6.88800 23.86500
C  -0.04700 7.52400 22.38200
C  -0.07600 9.09200 22.63300
C  0.22200 9.06700 24.17900
C  1.19200 6.93700 21.75600
C  -1.41100 9.80100 22.34300
C  -1.39100 11.22200 21.75500
N  0.69800 9.42800 27.15700
C  0.92600 10.43800 26.19000
C  1.42300 11.59500 26.95500
C  1.37300 11.34200 28.33900
C  0.92800 9.96400 28.40800
C  1.85600 12.86200 26.26000
C  1.61700 11.81800 29.76400
O  2.01700 12.84000 30.25800
C  0.95400 10.69100 30.67800
C  1.87400 10.51100 31.81300
O  2.87300 9.80700 31.83100
O  1.54300 11.42800 32.80200
C  2.28600 11.18400 34.05500
H  -1.02200 4.05200 29.56900
H  -0.83900 4.99200 23.24900
H  0.90500 11.08900 24.26800
H  0.87400 7.71900 32.03600
H  -1.34200 5.94600 31.77900
H  1.53500 5.82100 32.25900
H  1.09500 4.67800 30.97600
H  0.28600 4.55800 32.55900
H  -2.19600 7.81500 32.12500
H  -1.46700 9.35900 31.79100
H  -2.19700 8.67400 34.26100
H  -0.70800 9.56300 34.03200
H  -2.73400 1.78100 27.60400
H  -1.92000 2.31800 29.00400
H  -1.06300 1.28900 27.84800
H  -2.78700 0.57700 24.01400
H  -3.29000 1.27200 25.53900
H  -1.67400 0.53500 25.44600
H  -0.99900 7.19100 21.96700
H  0.73500 9.52400 22.04700
H  1.05500 6.38000 20.82900
H  1.65500 6.17600 22.38500
H  1.92300 7.68500 21.45200
H  -1.87800 9.95900 23.31500
H  -2.08100 9.10400 21.83900
H  -1.64200 11.28300 20.69600
H  -0.43200 11.73100 21.85500
H  -1.94200 11.87600 22.43100
H  2.42500 12.55800 25.38200
H  2.54500 13.32900 26.96300
H  0.98100 13.48800 26.08200
H  0.02700 11.15600 31.01200
H  3.00400 10.36400 34.09700
H  1.68300 11.18500 34.96300
H  2.72600 12.18100 34.02000
Mg 54.52400 23.73600 44.06600
C  52.01400 26.01700 43.35500
C  52.36800 21.19500 43.37100
C  57.22000 21.71700 43.76400
C  56.69200 26.46900 44.72100
N  52.39500 23.61600 43.21600
C  51.53900 24.69000 42.99800
C  50.07500 24.22400 42.73600
C  50.24800 22.66200 43.09900
C  51.77100 22.42100 43.25800
C  49.54400 22.02000 44.28900
C  49.35600 24.56700 41.41200
C  50.29400 24.63100 40.13700
H  49.71200 25.40200 38.94200
N  54.78900 21.72400 43.69400
C  53.75600 20.83800 43.49000
C  54.30300 19.54400 43.27000
C  55.69200 19.63600 43.62800
C  55.96800 21.07800 43.67500
C  53.43200 18.33500 43.02400
C  56.61000 18.51600 43.96300
O  56.28800 17.32700 43.82500
C  58.02200 18.78400 44.57400
N  56.62300 24.12100 44.11800
C  57.51200 23.10600 44.00200
C  59.00900 23.50400 44.27600
C  58.83800 25.02700 44.32000
C  57.28500 25.21600 44.46100
C  59.64300 22.88400 45.54000
C  59.58400 25.83600 43.21200
C  58.79700 25.81800 41.86400
N  54.46900 25.79400 44.16700
C  55.34100 26.77000 44.55100
C  54.69700 28.05700 44.55800
C  53.32100 27.84900 44.23200
C  53.28800 26.43400 43.85600
C  55.30800 29.37200 44.86200
C  51.91000 28.39000 44.05400
O  51.45900 29.53500 44.22700
C  51.12800 27.23800 43.40900
C  50.72200 27.68000 42.02900
O  51.44600 27.56600 41.04000
O  49.43100 28.17600 42.02600
C  49.02200 28.69000 40.72600
H  51.74400 20.31900 43.18400
H  58.03800 21.02800 43.54400
H  57.35600 27.29400 44.98700
H  49.48500 24.62200 43.56200
H  49.95000 22.05000 42.24800
H  49.06700 21.10300 43.94300
H  48.86500 22.68600 44.82200
H  50.27400 21.63900 45.00300
H  48.88400 25.53100 41.60000
H  48.50000 23.91700 41.22800
H  50.32500 23.63600 39.69300
H  51.30700 24.83000 40.48600
H  54.03100 17.45400 42.79200
H  52.81200 18.43600 42.13200
H  52.84400 18.13200 43.91900
H  58.75500 18.82400 43.76800
H  58.19900 17.85700 45.11900
H  58.18800 19.56600 45.31500
H  59.51200 23.09000 43.40200
H  59.20100 25.40900 45.27400
H  58.92200 22.21500 46.00900
H  59.85700 23.74500 46.17300
H  60.52300 22.28500 45.31000
H  60.57600 25.40500 43.07900
H  59.72500 26.72600 43.82600
H  58.15800 24.93500 41.87900
H  59.49700 25.75200 41.03000
H  58.06900 26.62700 41.82400
H  55.78900 29.84400 44.00500
H  56.13700 29.25400 45.55900
H  54.55600 30.03900 45.28500
H  50.25100 27.09100 44.03900
H  48.18100 29.36800 40.86900
H  48.65900 27.97200 39.99100
H  49.77600 29.28700 40.21200

