158

Mg 0.78700 7.24400 25.59400
C  1.92500 9.27900 28.26800
C  0.80600 4.56500 27.82500
C  0.08300 5.08500 23.02800
C  1.49300 9.71400 23.37700
N  1.46600 6.99800 27.82700
C  1.72900 7.92500 28.73200
C  1.62300 7.39500 30.12700
C  1.51000 5.84000 29.88900
C  1.28800 5.76100 28.39500
C  2.57900 5.04400 30.43400
C  0.40300 7.99300 30.93800
C  0.66500 8.21100 32.45400
H  1.76700 7.42000 33.16400
N  0.46500 5.17700 25.45200
C  0.43400 4.31200 26.48700
C  0.06300 2.98900 26.03400
C  -0.13000 3.06000 24.58800
C  0.12300 4.45200 24.32200
C  -0.11800 1.87300 26.93600
C  -0.57000 1.97000 23.65300
O  -0.89400 2.14200 22.48700
C  -0.61500 0.53900 24.19600
N  0.80400 7.38600 23.56600
C  0.38200 6.39600 22.67300
C  0.16900 6.92500 21.27100
C  0.61800 8.41600 21.33400
C  0.95300 8.53400 22.81200
C  0.75900 6.06700 20.10600
C  -0.40800 9.46300 20.78000
C  0.34100 10.62700 20.10200
N  1.53900 9.06300 25.74100
C  1.85400 9.93800 24.72600
C  2.40900 11.17900 25.30800
C  2.30900 10.94300 26.70700
C  1.89000 9.65800 26.89900
C  2.66500 12.45300 24.54600
C  2.52400 11.62500 28.03500
O  2.97700 12.73400 28.27800
C  2.18300 10.52300 29.08400
C  3.32600 10.52000 30.14200
O  4.53900 10.62800 29.91000
O  2.77800 10.61800 31.37100
C  3.53800 10.93000 32.60100
H  0.89600 3.79700 28.59600
H  -0.28000 4.41300 22.24800
H  1.54300 10.57400 22.70600
H  2.49900 7.68500 30.70800
H  0.70000 5.47500 30.52000
H  3.02200 4.58000 29.55300
H  2.29400 4.25900 31.13500
H  3.33400 5.65600 30.92900
H  -0.47200 7.37400 30.73700
H  0.29400 9.02000 30.59100
H  -0.30500 8.07600 32.93200
H  0.76000 9.26400 32.71700
H  0.72600 1.19200 26.81600
H  -1.05000 1.38200 26.65600
H  -0.12200 2.05300 28.01100
H  -1.58400 0.30600 24.63800
H  0.24300 0.35200 24.84200
H  -0.57600 -0.19800 23.39400
H  -0.90500 7.02200 21.11700
H  1.59700 8.59800 20.88900
H  1.27900 5.20300 20.51800
H  1.49400 6.53600 19.45300
H  0.00100 5.60800 19.47100
H  -1.00800 9.81200 21.62000
H  -1.00800 8.93000 20.04300
H  -0.01500 10.87800 19.10300
H  1.42800 10.59400 20.18300
H  0.02700 11.48800 20.69200
H  1.86700 12.61900 23.82200
H  3.59500 12.14300 24.07100
H  2.72200 13.40200 25.08100
H  1.28400 10.93600 29.54100
H  4.62500 10.87000 32.54600
H  3.21500 10.27300 33.40800
H  3.39800 11.94200 32.98200
Mg 53.53000 23.41800 43.94300
C  51.03800 25.78000 43.05500
C  51.72900 21.00000 42.50900
C  56.31600 21.44400 43.81400
C  55.58100 26.15000 44.91000
N  51.73900 23.43800 42.59100
C  50.80700 24.49400 42.53800
C  49.52600 24.03900 41.80800
C  49.64300 22.46100 42.02400
C  51.08500 22.29000 42.38700
C  48.61000 22.07600 43.06500
C  49.33400 24.56300 40.37600
C  50.61800 24.84500 39.49800
H  50.37000 25.54100 38.09500
N  53.93300 21.44700 43.47600
C  52.99800 20.61000 42.99900
C  53.59900 19.22200 42.98600
C  54.89600 19.34400 43.44900
C  55.14000 20.80300 43.58100
C  52.76200 18.00400 42.43600
C  55.81900 18.12400 43.73100
O  55.46000 16.98900 43.40900
C  57.06000 18.36100 44.46400
N  55.54900 23.73400 44.35700
C  56.49000 22.78800 44.07200
C  57.90400 23.32600 44.37300
C  57.67500 24.75100 44.82300
C  56.19300 24.86500 44.68100
C  58.67300 22.43800 45.30800
C  58.54000 25.81500 44.05100
C  60.06700 25.74900 44.29400
N  53.41100 25.49600 44.06200
C  54.24000 26.42300 44.61600
C  53.50400 27.59500 44.88200
C  52.30500 27.38900 44.24000
C  52.33900 26.11700 43.70000
C  54.02600 28.78600 45.65100
C  51.00700 28.09800 43.92600
O  50.56000 29.21400 44.21100
C  50.16500 27.03900 43.13300
C  49.64100 27.60200 41.86700
O  50.23500 27.78200 40.82600
O  48.32100 27.83900 42.12400
C  47.56900 28.49200 41.01100
H  51.12600 20.19700 42.08300
H  57.20400 20.83900 43.61900
H  56.17100 26.94200 45.37500
H  48.66200 24.42700 42.34700
H  49.50600 22.06800 41.01600
H  48.67600 21.02400 43.34300
H  47.62200 22.22700 42.63000
H  48.77300 22.72000 43.93000
H  48.76200 25.48700 40.28800
H  48.71900 23.81700 39.87300
H  51.23900 23.96800 39.31800
H  51.18100 25.51100 40.15200
H  53.09200 16.98900 42.65800
H  52.41900 18.17900 41.41700
H  51.81500 18.06800 42.97200
H  56.95300 19.18500 45.16900
H  57.88100 18.58900 43.78500
H  57.33100 17.43400 44.96900
H  58.39200 23.23700 43.40300
H  57.95700 24.95800 45.85600
H  58.99200 22.99600 46.18900
H  59.52700 22.03900 44.76100
H  58.00200 21.67000 45.69400
H  58.18400 26.79200 44.37600
H  58.25100 25.65400 43.01300
H  60.44200 26.56200 44.91500
H  60.67400 25.94500 43.41000
H  60.38800 24.84600 44.81400
H  54.76700 29.29900 45.03800
H  54.33600 28.49400 46.65400
H  53.34000 29.61400 45.82900
H  49.26400 26.71900 43.65600
H  48.08200 29.42600 40.78100
H  46.55700 28.71600 41.34800
H  47.50000 27.91100 40.09200

