158

Mg 17.23100 -2.09500 27.69100
C  15.86100 0.04800 30.23600
C  18.64400 -3.84300 30.23000
C  18.62900 -3.94800 25.40400
C  15.95000 0.09100 25.36000
N  17.35700 -1.76300 30.01900
C  16.66900 -0.89000 30.78100
C  16.87900 -1.15800 32.27800
C  17.87600 -2.32500 32.24100
C  18.06600 -2.63200 30.73000
C  19.27900 -2.08000 32.86200
C  15.54300 -1.53800 32.94300
C  15.22100 -0.80500 34.28900
H  16.36000 -0.25200 35.03500
N  18.41100 -3.70100 27.78400
C  18.86400 -4.31200 28.93100
C  19.54000 -5.50800 28.54800
C  19.54600 -5.56400 27.10500
C  18.90300 -4.31700 26.69800
C  20.04100 -6.50700 29.63200
C  20.27800 -6.48300 26.17500
O  20.49800 -6.27100 25.00600
C  20.88000 -7.75200 26.68100
N  17.36800 -1.87200 25.69100
C  17.93600 -2.79700 24.93700
C  17.65600 -2.51200 23.40100
C  16.67100 -1.19700 23.40600
C  16.61100 -1.00500 24.94100
C  18.91000 -2.27800 22.52500
C  15.15500 -1.50900 22.84800
C  14.41900 -0.33700 22.16500
N  16.18500 -0.27200 27.72300
C  15.71700 0.45400 26.68900
C  14.82200 1.49700 27.14500
C  14.83400 1.37100 28.56600
C  15.69900 0.30900 28.85000
C  14.07300 2.49400 26.31000
C  14.34900 1.94800 29.79200
O  13.52200 2.85400 30.01700
C  15.07400 1.11000 30.88900
C  15.83700 2.11400 31.73900
O  17.04000 2.33500 31.72000
O  15.00000 2.67600 32.60000
C  15.62500 3.80500 33.34000
H  18.79100 -4.41700 31.14700
H  18.90400 -4.67000 24.63300
H  15.51600 0.77000 24.62300
H  17.32500 -0.23100 32.63800
H  17.48400 -3.20800 32.74500
H  19.52100 -2.65800 33.75400
H  19.33300 -1.02800 33.14100
H  20.09500 -2.29500 32.17200
H  15.52300 -2.57100 33.29100
H  14.73700 -1.40900 32.22100
H  14.87600 -1.55400 35.00100
H  14.38700 -0.10500 34.23200
H  21.13000 -6.49200 29.60500
H  19.78200 -7.54200 29.41200
H  19.64900 -6.31400 30.63000
H  20.14600 -8.37300 27.19600
H  21.68000 -7.38000 27.32100
H  21.35900 -8.33000 25.89100
H  17.10400 -3.35500 22.98500
H  17.12800 -0.32200 22.94400
H  19.76800 -2.60300 23.11300
H  18.99700 -1.27200 22.11300
H  18.81300 -2.86300 21.61000
H  14.50400 -1.93800 23.60900
H  15.29500 -2.27200 22.08200
H  14.31400 -0.41600 21.08300
H  14.88700 0.63000 22.34800
H  13.42400 -0.20700 22.58900
H  13.58800 3.28200 26.88600
H  13.26100 1.97100 25.80400
H  14.77300 3.01700 25.65800
H  14.14300 0.77000 31.34100
H  14.97600 4.50900 33.86100
H  16.08600 4.48600 32.62400
H  16.33500 3.36400 34.04000
Mg 47.11800 15.05500 28.07100
C  44.85500 15.28300 30.87100
C  49.33800 16.95700 29.65100
C  48.75400 15.25100 25.23100
C  44.38100 13.40600 26.33900
N  47.10500 15.92200 30.05000
C  46.17400 15.88200 31.02100
C  46.72200 16.30400 32.38000
C  48.11200 17.05600 31.92300
C  48.23300 16.64000 30.43900
C  48.14500 18.56600 32.18100
C  46.90700 15.04300 33.28900
C  46.71200 15.30600 34.78500
H  46.43600 16.76100 35.24200
N  48.93800 15.83100 27.57700
C  49.74300 16.55900 28.38000
C  50.99000 16.80200 27.70500
C  50.82300 16.30800 26.35100
C  49.46600 15.79100 26.29900
C  52.12300 17.49200 28.40800
C  51.77600 16.34000 25.17600
O  51.44400 15.95600 24.06400
C  53.10500 17.06600 25.45000
N  46.57400 14.43000 26.04000
C  47.47400 14.61300 25.08800
C  47.14900 13.79000 23.85000
C  45.80800 13.05500 24.22400
C  45.52300 13.65700 25.65100
C  46.99100 14.57700 22.59400
C  45.87600 11.47500 24.18100
C  47.06800 10.88700 24.88900
N  44.97500 14.45500 28.44600
C  44.10200 13.82700 27.62600
C  42.92900 13.55400 28.34600
C  43.11000 14.11100 29.61400
C  44.46400 14.63500 29.65100
C  41.68400 12.91500 27.77600
C  42.57800 14.33300 30.91200
O  41.51200 13.99700 31.42400
C  43.71500 15.05400 31.80400
C  43.13000 16.22500 32.55700
O  42.80700 17.31700 32.10700
O  42.90500 15.85000 33.85400
C  42.14300 16.79000 34.70700
H  50.05800 17.50100 30.26600
H  49.20700 15.32300 24.24000
H  43.67200 12.81900 25.75100
H  46.01900 17.02300 32.80100
H  49.01400 16.64600 32.37600
H  48.28600 19.09500 31.23800
H  48.94800 18.86600 32.85500
H  47.23000 18.96900 32.61500
H  47.97500 14.84000 33.20900
H  46.37700 14.14100 32.98300
H  47.64900 15.02000 35.26200
H  46.00500 14.65900 35.30300
H  51.95800 17.43100 29.48400
H  52.19600 18.48200 27.95700
H  53.05100 16.92600 28.33600
H  53.75700 16.60200 26.19000
H  52.74700 18.02400 25.82800
H  53.67700 17.20100 24.53200
H  47.88800 12.99800 23.72900
H  44.96400 13.33800 23.59400
H  47.50700 14.00100 21.82600
H  47.30500 15.60000 22.80000
H  46.01600 14.77900 22.15000
H  45.91200 11.17700 23.13400
H  44.92700 11.12600 24.58600
H  46.74600 10.22200 25.69000
H  47.66900 11.66700 25.35700
H  47.66600 10.25000 24.23700
H  41.02900 13.74200 27.50400
H  41.12800 12.23600 28.42200
H  42.01400 12.38000 26.88600
H  43.92700 14.36700 32.62300
H  42.65700 17.69900 35.02100
H  41.78800 16.38600 35.65400
H  41.31700 17.21400 34.13600

