158

Mg 25.99100 -0.55500 28.74300
C  27.63000 -0.91900 31.79100
C  23.01400 -0.05800 30.61400
C  24.28400 -0.22400 25.98000
C  28.85300 -1.60800 27.14300
N  25.43900 -0.24700 31.04100
C  26.35600 -0.39700 32.02600
C  25.65300 -0.25800 33.37000
C  24.13900 -0.06600 33.02300
C  24.19700 -0.10600 31.47500
C  23.15000 -1.21700 33.54400
C  26.24500 0.84800 34.25600
C  26.74600 0.40100 35.69500
H  26.42300 1.37200 36.77500
N  23.89200 -0.21700 28.35800
C  22.87000 -0.03000 29.25300
C  21.63700 0.22500 28.48600
C  22.02600 0.40600 27.10500
C  23.43200 -0.05100 27.10000
C  20.21400 0.46500 29.08500
C  21.24300 0.89400 25.91500
O  21.73900 0.76900 24.82900
C  19.88000 1.57300 26.11600
N  26.54900 -0.87400 26.79200
C  25.64700 -0.70200 25.78500
C  26.32900 -0.83100 24.38600
C  27.68600 -1.55500 24.76900
C  27.73400 -1.33200 26.33900
C  25.40800 -1.53200 23.34100
C  28.92500 -1.01200 23.97800
C  28.80300 -0.61500 22.50800
N  27.84500 -1.14300 29.33500
C  28.92700 -1.44500 28.57700
C  30.08100 -1.67600 29.37600
C  29.62800 -1.44900 30.68300
C  28.25500 -1.18500 30.60800
C  31.43100 -2.13900 28.83800
C  30.03400 -1.49500 32.04000
O  31.07400 -1.71500 32.52400
C  28.76000 -1.17800 32.80100
C  28.40300 -2.31900 33.74800
O  27.56200 -3.17200 33.48100
O  29.11900 -2.29900 34.93700
C  28.68000 -3.29300 35.92300
H  22.17400 0.22200 31.25300
H  23.90200 -0.01100 24.97900
H  29.76300 -1.97300 26.66300
H  25.52400 -1.14000 33.99800
H  23.70500 0.89100 33.31200
H  23.53500 -2.16000 33.93200
H  22.26700 -1.44200 32.94600
H  22.81200 -0.74500 34.46600
H  25.44900 1.55000 34.50300
H  27.06600 1.26600 33.67300
H  27.80200 0.27800 35.45500
H  26.29100 -0.57500 35.86300
H  19.97900 -0.14300 29.95800
H  19.46900 0.15300 28.35300
H  19.94800 1.51200 29.22900
H  19.92700 2.29500 26.93100
H  19.15500 0.81700 26.42100
H  19.50200 2.12200 25.25400
H  26.57700 0.20800 24.17100
H  27.52300 -2.62700 24.65800
H  25.77100 -2.45900 22.89900
H  25.26000 -0.76700 22.57800
H  24.49400 -1.77000 23.88400
H  29.63800 -1.83400 24.03100
H  29.35500 -0.21200 24.58200
H  27.94100 -1.00500 21.96700
H  29.65000 -0.97500 21.92500
H  28.75900 0.46000 22.33400
H  31.51400 -1.84300 27.79300
H  31.68100 -3.17200 29.08300
H  32.13100 -1.51500 29.39400
H  29.02300 -0.31200 33.40800
H  27.72900 -2.92300 36.30500
H  29.34500 -3.26000 36.78700
H  28.73600 -4.36700 35.74900
Mg 6.16100 53.94900 40.95800
C  5.72400 50.46400 40.85400
C  9.41100 53.50600 39.95900
C  6.26100 57.28200 40.27300
C  2.67900 54.09600 41.44900
N  7.38000 52.28900 40.37900
C  6.97800 50.95900 40.43900
C  8.12100 50.05700 40.03100
C  9.39700 50.92000 40.25800
C  8.68000 52.33200 40.12100
C  10.12400 50.66800 41.62200
C  7.96700 49.42500 38.66300
C  7.55900 50.41300 37.47500
H  6.36300 49.99900 36.49000
N  7.67100 55.19600 40.28100
C  8.95900 54.85800 40.03600
C  9.68800 56.07200 39.68700
C  8.83800 57.20300 39.84100
C  7.52300 56.61300 40.13100
C  11.14900 56.00400 39.38200
C  9.25200 58.75000 39.75400
O  10.39100 59.03600 39.59400
C  8.23700 59.80300 40.06000
N  4.68900 55.40700 40.79500
C  4.99200 56.72100 40.54300
C  3.73200 57.63500 40.40000
C  2.60300 56.62200 40.78300
C  3.32800 55.27100 40.96100
C  3.69400 58.80000 41.40300
C  1.36900 56.70400 39.90200
C  0.00500 56.70800 40.69600
N  4.53800 52.60700 41.40600
C  3.21500 52.84100 41.65600
C  2.51800 51.56700 41.96200
C  3.51200 50.62400 41.65300
C  4.68700 51.28600 41.35100
C  1.08100 51.40300 42.33600
C  3.72700 49.22300 41.59800
O  3.01100 48.30200 41.92300
C  5.16500 49.03900 40.94600
C  4.89600 48.33500 39.65600
O  4.22800 48.79600 38.74000
O  5.32100 47.02300 39.71400
C  4.92000 46.25200 38.56400
H  10.47100 53.31200 39.78800
H  6.28500 58.37000 40.17900
H  1.61400 54.22000 41.65400
H  8.13900 49.23400 40.74600
H  10.13200 50.79000 39.46400
H  11.19900 50.70900 41.44500
H  9.95100 49.62200 41.87500
H  9.74100 51.32700 42.40100
H  7.22900 48.63400 38.79600
H  8.94400 49.01800 38.40000
H  8.47100 50.67300 36.93700
H  7.08100 51.31300 37.86100
H  11.63200 55.41200 40.15900
H  11.81000 56.87100 39.37700
H  11.38700 55.56300 38.41400
H  7.46900 59.95000 39.30200
H  8.65300 60.79100 40.25800
H  7.79600 59.54600 41.02400
H  3.69600 58.08000 39.40600
H  2.26000 56.78200 41.80500
H  4.04800 59.66900 40.85000
H  4.44000 58.63100 42.18000
H  2.70600 58.94000 41.84000
H  1.38600 55.83000 39.25100
H  1.36500 57.55200 39.21600
H  -0.59000 57.55100 40.34400
H  0.00600 56.60000 41.78100
H  -0.36100 55.74100 40.35300
H  1.08600 50.54200 43.00500
H  0.54800 51.11600 41.43000
H  0.67400 52.26800 42.85900
H  5.77300 48.49700 41.67000
H  5.27100 46.75000 37.66000
H  3.84200 46.29300 38.40800
H  5.33300 45.25300 38.70400

