158

Mg 48.21900 44.34500 43.03000
C  44.76200 44.04600 42.92800
C  48.45300 40.85700 42.75200
C  51.68800 44.58200 42.59000
C  47.97200 47.77000 42.60900
N  46.75200 42.63300 42.70800
C  45.34100 42.71500 42.86400
C  44.73400 41.33600 42.89100
C  45.98600 40.46000 42.59500
C  47.12300 41.34000 42.72000
C  46.19400 39.26600 43.62400
C  43.56900 41.12500 41.84900
C  43.69400 41.81100 40.50600
H  43.73300 40.94300 39.24700
N  49.83300 42.91900 42.78800
C  49.64200 41.56600 42.61200
C  50.89800 40.94700 42.42700
C  51.91100 41.88600 42.38400
C  51.14500 43.20800 42.64100
C  51.01000 39.47600 42.51000
C  53.40900 41.77700 42.20800
O  53.89400 40.63800 42.16600
C  54.35300 42.92200 41.92100
N  49.63900 45.87400 42.71600
C  50.97200 45.73500 42.61200
C  51.69500 47.11600 42.59800
C  50.49700 48.11300 42.74000
C  49.29400 47.22900 42.64200
C  52.76900 47.24700 43.66400
C  50.57000 49.39200 41.83200
C  50.41300 50.77900 42.60300
N  46.65200 45.68600 42.81900
C  46.73100 47.02000 42.72700
C  45.35300 47.47700 42.68600
C  44.54000 46.40400 42.86300
C  45.36300 45.29200 42.83800
C  44.98400 48.90300 42.43800
C  43.18000 45.94200 42.97300
O  42.10300 46.50600 42.94200
C  43.32000 44.34900 43.01200
C  42.72600 43.92400 44.37300
O  41.74700 43.22500 44.54800
O  43.36700 44.60000 45.38700
C  42.83700 44.45000 46.78300
H  48.61000 39.78000 42.66200
H  52.78000 44.57700 42.61500
H  47.78100 48.81500 42.35700
H  44.40700 41.28100 43.92900
H  45.90600 40.07000 41.58000
H  45.25200 38.81700 43.93900
H  46.85900 39.64400 44.40100
H  46.71500 38.54300 42.99600
H  42.66300 41.48800 42.33400
H  43.40800 40.06400 41.65700
H  44.59100 42.43000 40.49900
H  42.76200 42.37000 40.42700
H  50.76200 39.28000 43.55300
H  51.99400 39.04500 42.32400
H  50.41700 38.81700 41.87500
H  54.11600 43.50100 41.02900
H  55.27400 42.38400 41.69500
H  54.59100 43.55400 42.77700
H  52.26400 47.34700 41.69700
H  50.30900 48.54000 43.72500
H  52.36500 47.72800 44.55500
H  53.48100 47.94200 43.21800
H  53.37800 46.38700 43.94100
H  49.76800 49.35300 41.09500
H  51.51600 49.53700 41.31000
H  49.86300 50.68000 43.53900
H  49.95100 51.56200 42.00200
H  51.41800 51.13500 42.82900
H  45.60900 49.32900 41.65300
H  45.12300 49.43900 43.37700
H  43.90400 48.91900 42.29400
H  42.65400 43.84100 42.31600
H  42.23200 43.55500 46.92700
H  42.20000 45.26100 47.13600
H  43.55600 44.43200 47.60200
Mg -9.86100 40.96000 42.02900
C  -9.21500 37.70700 40.80800
C  -7.09100 42.00400 40.21100
C  -10.89900 44.20200 42.32600
C  -13.10100 39.85900 42.71200
N  -8.34600 39.88800 40.66100
C  -8.20100 38.60600 40.47700
C  -6.87600 38.35500 39.69400
C  -6.15500 39.75300 39.74100
C  -7.23400 40.61500 40.25900
C  -4.86200 39.69800 40.54600
C  -6.99900 37.74000 38.26700
C  -6.42700 36.31300 38.09100
H  -5.30900 36.16200 37.06300
N  -9.09500 42.89800 41.43700
C  -7.91400 43.04400 40.75400
C  -7.69900 44.51600 40.53200
C  -8.79000 45.16600 41.11100
C  -9.62400 44.10400 41.69200
C  -6.43800 45.06100 39.93600
C  -9.07200 46.63100 41.17700
O  -8.44600 47.41000 40.47400
C  -10.18100 47.32600 41.91500
N  -11.69400 41.92500 42.38900
C  -11.88000 43.22900 42.59400
C  -13.34300 43.62600 42.93100
C  -14.07700 42.22000 42.97500
C  -12.85900 41.28300 42.69100
C  -13.65200 44.51100 44.23100
C  -15.26200 42.04800 42.00000
C  -16.33500 40.99700 42.49900
N  -10.93200 39.08400 42.05900
C  -12.21400 38.77600 42.33300
C  -12.48900 37.36400 42.13800
C  -11.27200 36.87300 41.56900
C  -10.42600 37.99400 41.45500
C  -13.75500 36.58200 42.46800
C  -10.55000 35.75500 41.06600
O  -10.87600 34.59300 41.02000
C  -9.21500 36.18700 40.49000
C  -8.12400 35.44200 41.07900
O  -7.67300 35.62900 42.20200
O  -7.71200 34.44900 40.23300
C  -7.01800 33.34900 41.05400
H  -6.17500 42.36000 39.73500
H  -11.38100 45.15800 42.53700
H  -14.14000 39.54400 42.83100
H  -6.22500 37.63900 40.19700
H  -5.85700 39.92200 38.70600
H  -3.97900 39.38300 39.99000
H  -4.99900 39.00600 41.37700
H  -4.71400 40.69600 40.95800
H  -6.52700 38.33300 37.48400
H  -8.08300 37.74300 38.15200
H  -7.25100 35.65400 37.81700
H  -5.98900 35.91900 39.00800
H  -6.59200 44.80400 38.88800
H  -5.58700 44.59800 40.43500
H  -6.30100 46.14100 39.98100
H  -10.21000 47.07000 42.97400
H  -11.02200 46.79200 41.47100
H  -10.21600 48.38000 41.64100
H  -13.72500 44.21600 42.09700
H  -14.47900 42.16700 43.98700
H  -14.07200 43.89300 45.02500
H  -14.36900 45.29400 43.98600
H  -12.82600 45.10700 44.61900
H  -14.89600 41.66000 41.05000
H  -15.69200 43.04600 41.91500
H  -17.30600 41.48300 42.59300
H  -15.98300 40.52700 43.41700
H  -16.53400 40.26600 41.71500
H  -13.53900 35.66600 43.01900
H  -14.23600 36.28500 41.53600
H  -14.38200 37.15900 43.14800
H  -9.25500 35.92800 39.43100
H  -6.07700 33.74300 41.43800
H  -6.77700 32.56100 40.34100
H  -7.72000 32.99600 41.81000

