158

Mg 49.21200 35.62700 27.09500
C  47.44000 34.02400 29.64400
C  49.22100 38.54200 28.93200
C  50.83500 37.00200 24.59200
C  48.25600 32.88600 24.85400
N  48.50700 36.18800 29.12000
C  47.90500 35.35300 30.01800
C  47.91500 36.04200 31.33700
C  48.13800 37.57700 30.99700
C  48.59200 37.43700 29.56700
C  46.87900 38.52500 30.96700
C  48.99500 35.31400 32.25300
C  48.57700 35.02900 33.75600
H  48.13400 36.20200 34.73400
N  50.11700 37.41800 26.93500
C  49.93800 38.53500 27.75200
C  50.70600 39.63300 27.18500
C  51.39500 39.10100 26.01200
C  50.79900 37.76000 25.82400
C  50.79200 41.07900 27.64100
C  52.48100 39.73500 25.13900
O  52.87200 39.08000 24.15300
C  53.11200 41.08700 25.43600
N  49.66300 34.96000 25.02600
C  50.27000 35.76900 24.16500
C  50.28100 35.27300 22.74700
C  49.50000 33.88200 22.86700
C  49.15700 33.86700 24.40200
C  49.60000 36.27300 21.75200
C  50.25400 32.57200 22.40800
C  51.72200 32.57500 22.41700
N  48.12400 33.81900 27.16000
C  47.81500 32.83700 26.22800
C  47.01900 31.82900 26.83100
C  46.75100 32.31200 28.12300
C  47.58400 33.44400 28.33400
C  46.48800 30.57400 26.24800
C  46.05200 32.01500 29.27200
O  45.23800 31.07800 29.55700
C  46.27200 33.21200 30.32500
C  46.68400 32.67000 31.68400
O  47.78700 32.17900 31.98000
O  45.61200 32.61700 32.50600
C  45.76100 32.08400 33.87400
H  49.36600 39.47200 29.48600
H  51.31600 37.55200 23.78100
H  47.84800 32.20100 24.10800
H  46.91100 36.11100 31.75800
H  48.85900 38.06600 31.65300
H  46.91000 39.33700 30.24000
H  46.75700 38.92200 31.97500
H  45.99700 37.92300 30.75200
H  49.91000 35.90500 32.23600
H  49.23900 34.36600 31.77300
H  49.34800 34.63700 34.42000
H  47.71300 34.36700 33.81600
H  49.96300 41.28700 28.31800
H  50.53000 41.67400 26.76500
H  51.77000 41.22500 28.09800
H  52.35600 41.86600 25.33800
H  53.94500 41.18400 24.74000
H  53.44100 40.99200 26.47100
H  51.29700 35.20200 22.36100
H  48.55500 33.97900 22.33300
H  48.55100 36.01200 21.61800
H  50.06700 36.30500 20.76700
H  49.60800 37.31200 22.08000
H  49.87100 32.39700 21.40300
H  49.78600 31.70500 22.87500
H  52.06100 32.51600 21.38300
H  52.06200 31.72000 23.00100
H  52.04200 33.49700 22.90200
H  46.32100 29.90200 27.08900
H  47.15000 30.07900 25.53800
H  45.46900 30.85800 25.98400
H  45.39600 33.85000 30.44100
H  44.80000 31.69500 34.21000
H  46.11900 32.92900 34.46100
H  46.60100 31.39200 33.93000
Mg -10.97100 16.53200 41.66700
C  -7.58000 16.60800 41.33900
C  -11.10600 19.84800 40.62800
C  -14.18900 16.27800 41.71100
C  -10.67400 12.96600 42.31500
N  -9.48500 17.99800 40.85300
C  -8.12800 17.83400 40.91000
C  -7.30300 19.08200 40.41100
C  -8.55300 20.10900 40.42400
C  -9.81100 19.32900 40.70000
C  -8.35200 21.41300 41.21900
C  -6.60000 18.83600 39.00800
C  -5.10000 19.07500 38.90200
H  -4.41600 18.18400 37.93000
N  -12.46400 17.85100 41.21800
C  -12.35700 19.19100 40.82300
C  -13.68300 19.78600 40.71800
C  -14.63400 18.73700 40.88300
C  -13.78100 17.53700 41.31000
C  -13.99100 21.23500 40.27300
C  -16.25100 18.86600 40.70900
O  -16.78300 19.94500 40.47000
C  -17.03800 17.68200 40.80500
N  -12.28700 14.81500 42.02200
C  -13.58500 15.01600 42.03300
C  -14.39500 13.75100 42.38200
C  -13.30300 12.67200 42.47400
C  -12.00900 13.48600 42.24400
C  -15.32100 13.82800 43.56900
C  -13.47400 11.40400 41.60900
C  -13.95400 10.17200 42.37800
N  -9.51100 15.05900 41.82100
C  -9.52600 13.72600 42.08600
C  -8.18300 13.20800 42.19500
C  -7.36800 14.38200 42.00100
C  -8.22800 15.37400 41.62500
C  -7.76600 11.79000 42.50400
C  -6.02600 14.84000 41.90600
O  -4.98700 14.23000 42.07800
C  -6.05200 16.30300 41.50100
C  -5.41700 17.18100 42.53000
O  -5.99100 17.63000 43.50500
O  -4.06500 17.33200 42.29500
C  -3.37100 18.09800 43.36000
H  -11.16400 20.91100 40.38200
H  -15.27200 16.15300 41.75600
H  -10.55800 11.93400 42.65100
H  -6.67600 19.36900 41.25500
H  -8.62800 20.49500 39.40700
H  -7.45500 21.30300 41.82700
H  -9.22300 21.54000 41.86200
H  -8.20000 22.33200 40.65400
H  -7.13300 19.36500 38.21800
H  -6.72500 17.81200 38.65600
H  -4.54100 18.93900 39.82800
H  -4.90400 20.11800 38.64900
H  -14.70700 21.26000 39.45300
H  -13.11000 21.78800 39.94700
H  -14.42300 21.76400 41.12200
H  -17.95400 17.86700 40.24400
H  -17.02700 17.44200 41.86800
H  -16.58300 16.91600 40.17700
H  -14.90200 13.49900 41.45100
H  -13.23500 12.38800 43.52400
H  -15.09000 13.01500 44.25700
H  -16.37700 13.84200 43.29900
H  -15.06300 14.77400 44.04600
H  -12.52600 11.11900 41.15300
H  -14.21000 11.57200 40.82300
H  -14.63000 10.22300 43.23200
H  -13.08700 9.59100 42.69100
H  -14.23100 9.37000 41.69300
H  -8.60800 11.17100 42.81300
H  -6.97600 11.84800 43.25300
H  -7.39500 11.25900 41.62800
H  -5.48600 16.38800 40.57200
H  -2.29900 18.08100 43.16800
H  -3.35600 17.67400 44.36400
H  -3.73000 19.12600 43.39200

