158

Mg -0.01800 7.86700 27.08500
C  0.99000 10.23500 29.64600
C  0.33000 5.52400 29.68300
C  -0.33600 5.65800 24.71300
C  0.43800 10.50100 24.69000
N  0.76700 7.92800 29.37200
C  0.93200 8.99600 30.14800
C  0.91700 8.72200 31.64900
C  0.90500 7.11300 31.65200
C  0.56200 6.80400 30.14500
C  2.19300 6.39600 32.10500
C  -0.38800 9.21300 32.22400
C  -0.76700 8.97800 33.69300
H  0.33500 8.42800 34.61500
N  -0.13800 5.91800 27.22800
C  0.04300 5.09900 28.37900
C  -0.17300 3.80700 27.94700
C  -0.45600 3.80200 26.53500
C  -0.25700 5.18200 26.07300
C  0.02300 2.65200 28.86600
C  -0.66800 2.59700 25.61500
O  -0.86800 2.68000 24.39300
C  -0.77300 1.18800 26.14200
N  0.09200 8.07800 24.95900
C  -0.13900 6.93000 24.19500
C  -0.18300 7.32200 22.70400
C  -0.25700 8.88900 22.78700
C  0.07700 9.22700 24.22400
C  1.03300 6.88200 21.88100
C  -1.54300 9.64600 22.19800
C  -1.19200 10.65400 21.10200
N  0.51700 9.98800 27.11700
C  0.68100 10.91900 26.03700
C  1.05100 12.16300 26.57500
C  1.13600 11.90500 28.00100
C  0.80500 10.55400 28.26500
C  1.24800 13.44900 25.79900
C  1.54800 12.57600 29.29300
O  1.97500 13.76500 29.54600
C  1.40700 11.48200 30.39200
C  2.65700 11.29400 31.15900
O  3.64600 10.58000 30.87700
O  2.62800 12.09700 32.29900
C  3.46900 11.78900 33.46700
H  0.30600 4.87100 30.55800
H  -0.58400 4.96500 23.90600
H  0.61000 11.29200 23.95700
H  1.78300 9.02600 32.23800
H  0.05500 6.83200 32.27400
H  2.66100 6.02600 31.19200
H  1.97000 5.54200 32.74500
H  2.92100 6.98800 32.66000
H  -1.16800 8.68100 31.68000
H  -0.36500 10.28600 32.02900
H  -1.64900 8.33700 33.71400
H  -1.11500 9.89300 34.17300
H  0.91800 2.04200 28.75200
H  -0.80400 1.97100 28.66600
H  -0.03200 2.91400 29.92200
H  -0.99700 0.43400 25.38700
H  -1.61900 1.05200 26.81600
H  0.24000 0.90900 26.43400
H  -1.10100 6.96600 22.23600
H  0.61900 9.30300 22.28700
H  1.85600 6.68400 22.56700
H  1.13500 7.63400 21.09900
H  0.97700 5.90800 21.39400
H  -1.99200 10.16800 23.04400
H  -2.31700 8.99200 21.79700
H  -1.13400 11.59600 21.64700
H  -2.00600 10.72100 20.38100
H  -0.35900 10.35400 20.46700
H  0.32100 13.63800 25.25800
H  2.11000 13.27000 25.15500
H  1.40800 14.24500 26.52600
H  0.61300 11.83000 31.05300
H  2.84400 11.85300 34.35800
H  4.16700 12.62400 33.51500
H  4.01600 10.84700 33.41800
Mg 16.62800 53.20500 26.10800
C  19.02000 51.78300 28.23600
C  14.42400 53.39600 28.65900
C  14.28400 54.26600 23.97700
C  18.78400 52.50700 23.34100
N  16.74800 52.73300 28.16200
C  17.87900 52.29100 28.86000
C  17.69200 52.41300 30.35800
C  16.15800 52.63200 30.43700
C  15.70300 52.94800 29.01900
C  15.45200 51.23700 30.91100
C  18.60900 53.54400 30.93500
C  18.80800 53.60300 32.44300
H  18.03800 52.66900 33.36900
N  14.68400 53.92900 26.40200
C  13.91600 53.88400 27.47700
C  12.58600 54.36800 27.25000
C  12.49800 54.60400 25.86400
C  13.81100 54.18400 25.33700
C  11.56300 54.52100 28.29400
C  11.38600 55.08700 25.00300
O  11.50000 55.12300 23.78700
C  10.01400 55.50900 25.60100
N  16.59400 53.47400 24.08700
C  15.48300 53.89600 23.40100
C  15.75700 53.99800 21.87800
C  17.20900 53.53500 21.67300
C  17.62200 53.24600 23.13000
C  14.76300 53.23700 20.97000
C  18.18200 54.63900 21.19000
C  19.00500 54.31100 19.99800
N  18.40800 52.14000 25.79600
C  19.18600 52.00300 24.60300
C  20.45000 51.31300 24.89800
C  20.40800 51.21100 26.36800
C  19.19400 51.75800 26.82700
C  21.48800 50.95800 23.88900
C  21.19800 50.76200 27.54900
O  22.28600 50.24100 27.72600
C  20.36100 51.20600 28.80600
C  19.99300 50.00600 29.58400
O  19.87000 48.84500 29.17100
O  20.07400 50.25200 30.89600
C  19.88200 49.15100 31.83000
H  13.74700 53.39400 29.51600
H  13.68800 54.87300 23.29200
H  19.49200 52.26900 22.54400
H  17.95500 51.50400 30.89900
H  15.92100 53.41000 31.16200
H  14.49000 51.46200 31.37200
H  16.20200 50.66000 31.45200
H  15.47800 50.82500 29.90200
H  18.35600 54.53700 30.56200
H  19.59100 53.43500 30.47500
H  18.65200 54.59500 32.86800
H  19.86300 53.36300 32.58100
H  10.68800 53.95100 27.98300
H  11.22600 55.53600 28.50200
H  11.88500 54.06200 29.22800
H  9.39000 54.74500 26.06500
H  9.46900 55.95700 24.77000
H  10.16400 56.32400 26.30900
H  15.54500 55.01700 21.55600
H  17.32500 52.55100 21.22000
H  14.21800 52.48500 21.54100
H  15.34400 52.76100 20.18000
H  14.03200 53.88500 20.48700
H  18.88300 54.89100 21.98600
H  17.59900 55.51200 20.89400
H  18.57900 54.91000 19.19400
H  19.10800 53.26700 19.70200
H  19.97900 54.76700 20.18000
H  22.38200 50.65400 24.43200
H  21.92200 51.71800 23.23900
H  21.22400 50.05400 23.33900
H  20.90800 51.88700 29.45700
H  20.64300 48.41000 31.58800
H  18.86200 48.77400 31.75400
H  19.97700 49.56600 32.83300

