158

Mg 1.10000 7.43600 24.59000
C  1.65900 9.55600 27.44000
C  1.71900 4.70900 26.67100
C  0.77100 5.47100 21.95500
C  1.60800 10.22600 22.55300
N  1.89900 7.25800 26.80300
C  1.82600 8.19000 27.75400
C  1.78600 7.49900 29.07300
C  2.13600 6.01800 28.81600
C  1.94400 5.95600 27.31200
C  3.46000 5.49400 29.33700
C  0.54400 7.78500 29.94300
C  0.81300 7.75400 31.51600
H  1.93400 6.88100 32.12300
N  1.22100 5.37600 24.35100
C  1.40100 4.39200 25.27300
C  1.17900 3.03700 24.70600
C  0.82600 3.24900 23.33100
C  0.89400 4.75700 23.12600
C  1.18300 1.78600 25.52300
C  0.34600 2.16600 22.30700
O  0.22800 2.41400 21.10500
C  0.15900 0.77000 22.75900
N  1.16600 7.81400 22.60300
C  0.82200 6.86000 21.66200
C  0.85600 7.36900 20.22000
C  1.20400 8.90700 20.35400
C  1.35100 9.01600 21.92900
C  1.70400 6.56700 19.19300
C  0.14600 9.85200 19.78800
C  0.62900 10.79100 18.67200
N  1.38000 9.55900 24.90800
C  1.60300 10.59300 23.96400
C  1.70400 11.93500 24.64000
C  1.70500 11.53500 26.00400
C  1.53700 10.09000 26.10600
C  1.85900 13.27100 24.01900
C  1.83900 12.07500 27.36800
O  2.05900 13.24000 27.72800
C  1.74900 10.88200 28.36200
C  2.89400 10.89000 29.37600
O  4.02600 10.38400 29.26800
O  2.40400 11.20200 30.61300
C  3.18000 10.67600 31.77400
H  1.69600 3.81400 27.29700
H  0.83800 4.84000 21.06500
H  1.86900 11.05900 21.89700
H  2.55000 8.01300 29.65700
H  1.33200 5.46700 29.30400
H  3.97800 6.23000 29.95200
H  3.98800 5.14400 28.45000
H  3.33500 4.63500 29.99600
H  -0.26500 7.12600 29.62800
H  0.31800 8.83100 29.73600
H  -0.10000 7.29400 31.89400
H  0.95200 8.78600 31.83800
H  1.86300 2.07000 26.32700
H  1.53500 0.87000 25.05000
H  0.18400 1.63500 25.93200
H  -0.35900 0.73400 23.71700
H  1.20300 0.52100 22.94800
H  -0.29000 0.10500 22.02100
H  -0.18200 7.34100 19.88900
H  2.19400 9.06000 19.92500
H  2.37400 5.82300 19.62500
H  2.31100 7.14800 18.49900
H  0.97500 6.06600 18.55600
H  -0.25800 10.49400 20.57100
H  -0.66800 9.22000 19.43200
H  1.03000 11.68000 19.15900
H  -0.23100 11.13900 18.09900
H  1.35600 10.36200 17.98200
H  1.70800 13.20800 22.94200
H  2.91900 13.46000 24.19000
H  1.21300 14.00500 24.50200
H  0.88400 10.91100 29.02600
H  2.41100 10.49400 32.52500
H  3.78100 11.47300 32.21300
H  3.80500 9.80600 31.56900
Mg 8.73100 48.06900 26.54200
C  6.82200 47.75400 29.38900
C  11.49200 48.93200 28.53100
C  10.70800 48.43300 23.75200
C  5.98200 47.81400 24.52400
N  8.95900 48.64600 28.72100
C  8.12700 48.25800 29.69100
C  8.77800 48.45000 31.05200
C  10.15200 49.18700 30.74900
C  10.26700 48.84100 29.26900
C  10.04900 50.70000 30.98500
C  8.94100 47.19600 31.99600
C  8.54400 47.52100 33.45900
H  8.78900 46.38300 34.50400
N  10.91000 48.49000 26.23900
C  11.83400 48.79400 27.22400
C  13.09400 48.81200 26.59700
C  12.88500 48.61900 25.20000
C  11.44600 48.56900 24.98500
C  14.38500 48.93100 27.32100
C  13.89400 48.57900 24.12000
O  13.60100 48.55600 22.94700
C  15.39600 48.46600 24.47900
N  8.40600 48.26200 24.39800
C  9.32700 48.36900 23.43300
C  8.70700 47.91900 22.03300
C  7.20800 47.80600 22.34600
C  7.18100 47.97200 23.83600
C  9.06200 48.90700 20.92000
C  6.62100 46.44100 21.85100
C  5.49700 46.47800 20.79900
N  6.82900 47.88600 26.87900
C  5.83700 47.68200 25.93400
C  4.56800 47.31300 26.63100
C  4.95200 47.28000 27.95500
C  6.31100 47.67200 28.09200
C  3.23600 47.10600 25.97200
C  4.47300 46.99100 29.33400
O  3.40000 46.53000 29.66800
C  5.72800 47.22700 30.27300
C  5.97300 45.98800 30.99500
O  6.47000 44.97500 30.50500
O  5.50600 46.13300 32.29100
C  5.66000 44.94400 33.13900
H  12.37200 49.06500 29.16400
H  11.30100 48.41600 22.83500
H  5.12700 47.63500 23.87000
H  8.17800 49.16200 31.61800
H  11.00100 48.80500 31.31600
H  9.03000 51.07700 31.07300
H  10.54800 51.34500 30.26200
H  10.55300 50.81500 31.94500
H  10.01500 47.00800 32.02600
H  8.52800 46.21500 31.76200
H  7.45900 47.59100 33.38000
H  8.91300 48.46900 33.85100
H  15.05800 48.08700 27.17200
H  14.24900 49.10500 28.38900
H  15.04900 49.70200 26.92900
H  15.48300 47.60400 25.14000
H  15.81000 49.29400 25.05400
H  15.96100 48.33300 23.55600
H  9.13400 46.95400 21.76100
H  6.62500 48.61500 21.90400
H  8.17300 49.14200 20.33400
H  9.71800 48.44400 20.18300
H  9.52000 49.77600 21.39100
H  6.11000 45.98600 22.70000
H  7.37000 45.70600 21.55600
H  4.61400 45.99500 21.21800
H  5.83200 45.80500 20.00900
H  5.17600 47.42400 20.36400
H  3.22100 46.73700 24.94600
H  2.87800 48.12900 25.86400
H  2.55700 46.55100 26.62000
H  5.54600 48.00600 31.01300
H  6.61400 44.65400 33.57900
H  5.32200 44.08900 32.55300
H  4.97700 44.99900 33.98800

