158

Mg 25.70700 -0.15400 29.52700
C  27.50400 -0.32100 32.48400
C  22.78500 0.05100 31.50500
C  23.86400 0.07400 26.76400
C  28.61100 -0.60800 27.75000
N  25.18900 -0.24700 31.75700
C  26.16200 -0.19500 32.71200
C  25.46800 -0.14400 34.13300
C  23.96900 -0.20500 33.84100
C  23.97400 -0.11300 32.29600
C  23.15500 -1.38900 34.43200
C  25.91800 0.85900 35.18000
C  24.90400 1.61300 36.02300
H  25.37500 2.23700 37.34200
N  23.65300 0.03000 29.17400
C  22.61600 0.14900 30.13200
C  21.37200 0.17000 29.39600
C  21.67200 0.12600 28.00400
C  23.09600 0.13700 27.92000
C  20.04600 0.19100 30.06100
C  20.65000 0.22700 26.85900
O  20.97200 0.15500 25.66300
C  19.22500 0.38400 27.23100
N  26.13300 -0.35000 27.58700
C  25.24000 -0.11200 26.63900
C  25.89200 -0.19600 25.24000
C  27.39400 -0.13100 25.57300
C  27.38600 -0.32900 27.10800
C  25.39300 -1.37100 24.34800
C  28.17100 1.22600 25.24700
C  29.45500 0.95000 24.57000
N  27.67600 -0.55000 29.91800
C  28.83900 -0.69500 29.11200
C  30.01100 -0.86300 29.84600
C  29.57700 -0.63200 31.21700
C  28.15500 -0.55000 31.21900
C  31.34900 -0.97600 29.37400
C  29.96900 -0.48300 32.60400
O  31.10500 -0.43400 33.04400
C  28.63700 -0.28200 33.50300
C  28.50800 -1.31200 34.46800
O  28.21100 -2.46200 34.20500
O  28.87200 -0.83700 35.68800
C  28.91200 -1.78300 36.78500
H  21.90300 -0.03900 32.14300
H  23.25000 0.42800 25.93300
H  29.40900 -0.62300 27.00500
H  25.69500 -1.07800 34.64700
H  23.41400 0.71200 34.03800
H  22.49100 -1.03600 35.22100
H  23.91000 -2.05700 34.84500
H  22.58600 -1.94000 33.68300
H  26.48400 1.57600 34.58500
H  26.64200 0.46200 35.89200
H  24.14300 0.88300 36.30100
H  24.35200 2.36000 35.45300
H  19.53500 -0.75200 29.86700
H  19.46400 1.07000 29.78500
H  20.14600 0.28300 31.14200
H  19.03900 -0.51300 27.82200
H  18.49300 0.35800 26.42300
H  19.18800 1.31400 27.79700
H  25.60400 0.75900 24.80100
H  27.90800 -0.97000 25.10400
H  25.17500 -1.09000 23.31800
H  24.50400 -1.87200 24.73200
H  26.15100 -2.14100 24.49000
H  28.35400 1.75000 26.18500
H  27.53400 1.97000 24.76800
H  30.28300 1.08600 25.26600
H  29.51300 1.59600 23.69400
H  29.59100 -0.06700 24.19900
H  31.83200 -1.72100 30.00700
H  31.87800 -0.03800 29.54500
H  31.43700 -1.23400 28.31900
H  28.56900 0.71200 33.94600
H  29.29700 -2.74000 36.43200
H  27.93000 -1.79600 37.25800
H  29.49200 -1.43100 37.63800
Mg -11.34800 16.20800 42.92400
C  -7.89300 16.54200 42.48100
C  -11.59000 19.53200 42.44400
C  -14.70800 15.69800 42.88800
C  -10.93000 12.75600 42.74400
N  -9.84300 17.78300 42.33400
C  -8.53800 17.72800 42.28200
C  -7.91900 19.13600 42.08100
C  -9.07300 20.11100 42.39900
C  -10.27100 19.09900 42.34200
C  -9.03100 20.78800 43.77000
C  -7.37200 19.15000 40.57300
C  -5.90200 19.59200 40.38000
H  -5.05600 18.82800 39.34700
N  -12.95500 17.43600 42.60600
C  -12.84800 18.80900 42.44800
C  -14.22300 19.27800 42.31800
C  -15.15900 18.18400 42.43700
C  -14.28600 16.98900 42.64000
C  -14.47700 20.77300 42.25700
C  -16.67900 18.27300 42.40700
O  -17.29500 19.34700 42.20000
C  -17.63200 17.12000 42.70600
N  -12.66500 14.41800 42.84300
C  -14.01100 14.52300 43.00600
C  -14.63900 13.14200 43.19700
C  -13.45900 12.13000 42.91600
C  -12.27200 13.15500 42.78400
C  -15.33800 12.99500 44.61000
C  -13.58300 11.28100 41.67700
C  -13.43600 9.73900 41.84200
N  -9.80900 14.89100 42.71200
C  -9.75300 13.51300 42.73100
C  -8.34100 13.08000 42.65200
C  -7.65700 14.20700 42.43500
C  -8.48900 15.29500 42.56700
C  -7.86000 11.64900 42.80700
C  -6.24900 14.72300 42.25400
O  -5.21700 14.13000 42.14300
C  -6.38300 16.28700 42.34200
C  -5.59200 16.82700 43.51100
O  -5.57900 16.35600 44.62800
O  -4.64000 17.77700 43.05600
C  -3.51500 18.35600 43.88600
H  -11.65200 20.62200 42.48100
H  -15.77600 15.53400 43.04700
H  -10.83100 11.67100 42.67000
H  -7.11900 19.37000 42.78400
H  -9.02800 20.88400 41.63200
H  -8.19100 20.36800 44.32300
H  -9.95800 20.65500 44.32700
H  -8.93000 21.87100 43.69000
H  -8.00900 19.85300 40.03700
H  -7.38200 18.17500 40.08600
H  -5.46200 19.33000 41.34200
H  -5.87900 20.68100 40.35200
H  -14.87800 21.21700 43.16800
H  -15.14600 20.98400 41.42200
H  -13.56100 21.29100 41.97200
H  -18.64300 17.34000 42.36600
H  -17.51500 16.67100 43.69300
H  -17.20600 16.42500 41.98200
H  -15.34100 13.01800 42.37300
H  -13.25700 11.56000 43.82300
H  -16.37400 12.65700 44.58500
H  -15.31800 13.95300 45.13100
H  -14.79500 12.23400 45.17000
H  -12.85200 11.54000 40.91200
H  -14.52900 11.32300 41.13800
H  -14.38600 9.26400 41.59700
H  -13.11400 9.60900 42.87500
H  -12.67100 9.29600 41.20300
H  -8.14700 11.17000 43.74200
H  -6.79500 11.66600 42.57500
H  -8.33200 11.07300 42.01100
H  -6.00700 16.73000 41.42000
H  -2.59700 17.95600 43.45500
H  -3.50500 18.11500 44.94900
H  -3.65100 19.42100 43.70000

