158

Mg 44.41100 5.03800 47.25700
C  42.10900 7.93000 46.90000
C  41.52500 3.01800 46.76000
C  46.37600 2.47500 46.98400
C  46.95700 7.19100 46.55400
N  42.06600 5.45500 47.00100
C  41.45100 6.65200 46.86100
C  39.95400 6.40700 46.61900
C  39.76200 4.85900 46.92300
C  41.24500 4.42100 46.88200
C  38.86900 4.47200 48.17000
C  39.53200 6.78500 45.20300
C  38.42300 7.80300 45.09400
H  37.60700 7.78700 43.81400
N  43.99500 3.02100 47.18800
C  42.81800 2.35300 46.90600
C  43.12400 0.97700 46.71700
C  44.52800 0.71400 46.77300
C  45.00300 2.07600 47.09300
C  42.04200 -0.13100 46.59100
C  45.27200 -0.63500 46.58600
O  44.73200 -1.64300 46.23700
C  46.82000 -0.82600 46.58900
N  46.42400 4.87300 46.75400
C  47.06300 3.69100 46.81300
C  48.56700 3.89800 47.00000
C  48.75500 5.37700 46.49200
C  47.29500 5.89400 46.64100
C  49.05500 3.59200 48.46800
C  49.34900 5.64000 45.01700
C  50.82500 5.99700 44.98100
N  44.57900 7.13200 47.03100
C  45.72200 7.85300 46.75600
C  45.39700 9.32500 46.74800
C  44.04800 9.38500 46.89900
C  43.54100 8.04700 46.93600
C  46.36100 10.42900 46.61500
C  42.85300 10.27600 46.99200
O  42.84100 11.52900 46.95700
C  41.62600 9.38500 46.95900
C  40.70500 9.58500 48.12300
O  40.59300 8.84900 49.11600
O  39.97700 10.66600 47.86300
C  38.88200 10.99500 48.70900
H  40.69900 2.31300 46.64900
H  47.15100 1.70800 46.93400
H  47.84600 7.80200 46.38100
H  39.37000 6.98900 47.33300
H  39.27400 4.21700 46.18900
H  39.54000 4.54200 49.02600
H  38.54400 3.43500 48.09400
H  38.04900 5.18200 48.28900
H  39.19800 5.93000 44.61400
H  40.46600 7.11500 44.74900
H  38.76700 8.79000 45.40300
H  37.77100 7.43300 45.88500
H  41.95900 -0.78400 47.45900
H  42.31700 -0.77400 45.75500
H  40.99300 0.13800 46.46300
H  47.02600 -1.82700 46.21000
H  47.32900 -0.53100 47.50700
H  47.22900 -0.22100 45.77900
H  49.06000 3.15100 46.37900
H  49.33800 5.93400 47.22500
H  48.12700 3.47900 49.03000
H  49.59800 4.46800 48.82100
H  49.69200 2.71200 48.37800
H  48.66500 6.40900 44.65800
H  49.30600 4.75700 44.37900
H  51.07500 6.54000 44.07000
H  51.31500 5.02500 44.92400
H  51.14900 6.48400 45.90200
H  47.35100 10.15400 46.97900
H  45.95700 11.31100 47.11200
H  46.48700 10.82900 45.60900
H  41.08600 9.66200 46.05300
H  38.99600 12.03700 49.00700
H  38.55000 10.46900 49.60400
H  37.91800 11.00300 48.20000
Mg 9.56400 47.64000 25.92400
C  7.80700 47.65800 28.89000
C  12.27100 49.01100 27.63500
C  11.28900 47.61000 22.99600
C  6.63500 46.68900 24.20400
N  9.92700 48.38400 27.96100
C  9.07200 48.22000 29.00400
C  9.87200 48.52100 30.30900
C  11.07600 49.37800 29.81400
C  11.13200 48.90700 28.38100
C  10.78400 50.93800 29.77000
C  10.33800 47.30600 31.12900
C  10.62400 47.56000 32.65700
H  10.39900 46.40300 33.52400
N  11.54300 48.19900 25.37900
C  12.50200 48.71900 26.26500
C  13.73300 48.67200 25.54300
C  13.50800 48.30800 24.19200
C  12.01600 48.07100 24.16000
C  15.04500 49.00800 26.22700
C  14.37100 48.17300 23.01000
O  13.99900 47.75100 21.89100
C  15.89200 48.44600 23.12500
N  8.94100 47.36300 23.89800
C  9.88900 47.33200 22.90400
C  9.20500 46.90000 21.55800
C  7.89300 46.27100 21.93700
C  7.77800 46.82500 23.36200
C  9.10100 48.10800 20.59200
C  7.94500 44.69000 21.71500
C  8.57100 43.83800 22.83200
N  7.57600 47.32900 26.40400
C  6.48300 46.96100 25.60600
C  5.33100 46.78400 26.40100
C  5.81500 46.99600 27.72200
C  7.18800 47.34300 27.63000
C  3.94100 46.60200 25.87700
C  5.42000 46.93000 29.13700
O  4.36300 46.66600 29.71600
C  6.76100 47.33500 29.96700
C  6.95400 46.13900 30.82000
O  7.30500 45.04600 30.35400
O  6.54000 46.42200 32.06700
C  6.86200 45.42000 33.05300
H  13.14300 49.41200 28.15400
H  11.69500 47.59200 21.98300
H  5.79800 46.14600 23.76000
H  9.23800 49.19100 30.89000
H  11.97900 49.07500 30.34500
H  11.17300 51.34500 30.70300
H  9.71300 51.10500 29.65500
H  11.34100 51.29700 28.90400
H  11.27300 47.09400 30.61000
H  9.70500 46.42200 31.05600
H  10.05000 48.43000 32.97700
H  11.62800 47.98400 32.64300
H  15.04300 48.78600 27.29400
H  15.21300 50.08500 26.23200
H  15.90600 48.52000 25.77000
H  16.24400 47.66400 23.79800
H  16.21800 49.33900 23.65800
H  16.42000 48.30300 22.18200
H  9.95100 46.19900 21.18100
H  7.09500 46.61600 21.28000
H  8.07100 48.23900 20.26000
H  9.67800 48.09400 19.66800
H  9.41900 48.97100 21.17900
H  8.45000 44.47600 20.77300
H  6.90100 44.41600 21.55900
H  9.03900 44.47700 23.58100
H  9.31200 43.19200 22.36000
H  7.80500 43.20200 23.27500
H  3.44300 47.53500 26.14200
H  3.43500 45.73600 26.30400
H  3.83500 46.51900 24.79600
H  6.53400 48.21900 30.56300
H  6.84400 45.87300 34.04500
H  7.81100 44.89900 32.92400
H  6.04700 44.69900 33.11100

