158

Mg 24.65100 -4.94100 45.81000
C  26.84400 -2.50200 44.28600
C  22.30300 -4.14000 43.66100
C  23.19200 -7.73800 46.88200
C  27.46600 -5.69900 48.03900
N  24.69500 -3.46500 44.15600
C  25.57800 -2.58500 43.69100
C  25.00900 -1.72300 42.50500
C  23.44300 -2.11100 42.58500
C  23.41600 -3.31900 43.57100
C  22.47400 -0.94500 42.86600
C  25.81400 -1.90500 41.18500
C  26.08700 -0.61600 40.37200
H  25.78400 -0.65800 38.84100
N  22.97100 -5.81700 45.36600
C  22.07400 -5.28600 44.45600
C  20.92600 -6.19200 44.45900
C  21.24100 -7.25300 45.37500
C  22.49500 -6.95400 45.93500
C  19.73700 -6.09600 43.47600
C  20.31300 -8.48700 45.57700
O  19.10300 -8.45700 45.26700
C  20.76800 -9.67300 46.29400
N  25.36700 -6.64900 47.14300
C  24.46500 -7.57000 47.37700
C  24.95700 -8.47500 48.55000
C  26.25900 -7.76300 49.04000
C  26.39900 -6.62200 47.98900
C  23.88200 -8.62900 49.67300
C  27.56100 -8.66100 49.27000
C  28.14100 -8.59600 50.73800
N  26.71900 -4.25200 46.12800
C  27.70200 -4.65100 47.05500
C  28.88700 -3.85300 46.92500
C  28.59500 -2.98300 45.88300
C  27.31700 -3.27500 45.42500
C  30.06900 -3.91200 47.84200
C  29.09300 -1.76600 45.08300
O  29.99900 -1.02100 45.17800
C  28.07600 -1.62700 43.91500
C  27.76000 -0.13100 43.79800
O  27.07700 0.47700 44.57500
O  28.49000 0.40300 42.78000
C  28.15300 1.80200 42.62400
H  21.59200 -3.91900 42.86100
H  22.74200 -8.62300 47.33800
H  28.21500 -5.96200 48.78900
H  25.12900 -0.65200 42.66800
H  23.12500 -2.51300 41.62300
H  21.83600 -1.13800 43.72900
H  21.73300 -0.90700 42.06700
H  22.85600 0.07400 42.92200
H  25.22300 -2.65200 40.65600
H  26.73500 -2.44200 41.41200
H  27.13400 -0.31500 40.33200
H  25.47600 0.15900 40.83300
H  19.81100 -6.97800 42.84000
H  19.62900 -5.28300 42.75800
H  18.84200 -6.25500 44.07700
H  20.80300 -9.67100 47.38300
H  21.72500 -9.98300 45.87600
H  20.14300 -10.50500 45.96900
H  25.23500 -9.48000 48.23200
H  26.01400 -7.17700 49.92600
H  23.54000 -9.66300 49.72500
H  22.97300 -8.03300 49.60000
H  24.28500 -8.45100 50.67000
H  28.30800 -8.31000 48.55800
H  27.48200 -9.70100 48.95400
H  27.45100 -9.23900 51.28500
H  28.31000 -7.61200 51.17500
H  29.09000 -9.12900 50.69100
H  30.92900 -3.73600 47.19700
H  30.03400 -4.92200 48.25200
H  30.00200 -3.19400 48.66000
H  28.45100 -2.04200 42.98000
H  29.05200 2.12300 42.09700
H  27.99400 2.35200 43.55200
H  27.35000 1.89700 41.89400
Mg -2.42500 35.23000 27.33300
C  -4.27000 33.27600 29.63800
C  -1.83000 37.53700 29.86400
C  -0.57300 36.98100 25.13000
C  -3.60000 33.18200 24.72700
N  -3.07700 35.39500 29.40300
C  -3.63400 34.37500 30.19500
C  -3.74500 34.82600 31.68400
C  -3.10300 36.27800 31.73900
C  -2.70600 36.46000 30.23100
C  -3.96200 37.34000 32.43400
C  -3.01800 33.87400 32.68500
C  -2.85000 34.34700 34.17900
H  -2.60400 33.47700 35.37400
N  -1.21800 36.90700 27.52500
C  -1.11600 37.71100 28.67900
C  -0.19700 38.73800 28.32400
C  0.06800 38.71900 26.94500
C  -0.65400 37.57400 26.44100
C  0.36400 39.71600 29.29100
C  0.74800 39.72300 25.96600
O  0.74800 39.73800 24.71400
C  1.43600 40.98600 26.41500
N  -2.18000 35.16500 25.20400
C  -1.24800 35.92000 24.52600
C  -1.07900 35.41700 23.07500
C  -1.93000 34.13300 22.97900
C  -2.61400 34.16200 24.37100
C  -1.37700 36.53100 22.03900
C  -1.09100 32.77500 22.79800
C  -1.47800 31.66800 21.83900
N  -3.81700 33.67100 27.14300
C  -4.13000 32.86300 26.02900
C  -4.88100 31.71400 26.44000
C  -5.06700 31.90400 27.82500
C  -4.30100 32.99100 28.23300
C  -5.41200 30.64300 25.43600
C  -5.63100 31.35700 29.07900
O  -6.28100 30.36100 29.21800
C  -5.16100 32.30200 30.24300
C  -6.31200 32.79900 30.97200
O  -6.96400 33.77300 30.68600
O  -6.55600 32.07200 32.11400
C  -7.60400 32.70900 32.93100
H  -1.77000 38.32400 30.61800
H  -0.02300 37.57500 24.39700
H  -3.92500 32.54500 23.90100
H  -4.80500 34.81400 31.93500
H  -2.18300 36.28400 32.32300
H  -4.90700 36.91400 32.76900
H  -4.23200 38.14400 31.74800
H  -3.33400 37.62900 33.27600
H  -2.03800 33.76600 32.21900
H  -3.58300 32.94200 32.71000
H  -3.64500 35.00100 34.53800
H  -1.99900 35.02800 34.18700
H  0.23500 39.19000 30.23700
H  -0.07300 40.71100 29.37900
H  1.45200 39.69400 29.22600
H  1.60800 41.70800 25.61700
H  2.34800 40.72200 26.95000
H  0.76400 41.41300 27.16000
H  -0.01100 35.23800 22.95000
H  -2.63000 34.26000 22.15300
H  -0.46100 36.82300 21.52400
H  -1.86600 37.40600 22.46600
H  -2.06400 36.25700 21.23900
H  -1.29600 32.29800 23.75700
H  -0.02700 32.94600 22.63300
H  -0.57500 31.45700 21.26600
H  -2.21000 32.00200 21.10400
H  -1.95800 30.89600 22.44000
H  -4.72200 30.45200 24.61400
H  -6.33700 30.96600 24.96000
H  -5.59600 29.72600 25.99700
H  -4.56100 31.64400 30.87100
H  -7.73000 32.07100 33.80600
H  -8.58700 32.77600 32.46500
H  -7.30900 33.66900 33.35200

