158

Mg 49.35600 15.34100 29.21500
C  47.28900 15.57100 32.10600
C  51.73400 17.12800 31.09400
C  51.29300 15.79000 26.48200
C  46.81700 14.10500 27.43300
N  49.50100 16.15000 31.36600
C  48.55400 16.08000 32.32600
C  49.02700 16.56000 33.70100
C  50.30100 17.33900 33.23200
C  50.54100 16.86600 31.84500
C  50.16700 18.84700 33.55300
C  49.30200 15.32300 34.73300
C  48.55100 15.37400 36.14100
H  48.73600 16.65700 37.05400
N  51.29300 16.23600 28.87800
C  52.09400 16.82600 29.76000
C  53.37800 17.20400 29.18700
C  53.31500 16.80200 27.83900
C  51.95900 16.23000 27.68200
C  54.48300 17.82500 29.97500
C  54.20900 17.07800 26.66100
O  53.90800 16.94900 25.46700
C  55.60800 17.53600 26.85500
N  49.06600 15.14800 27.23200
C  49.98600 15.32200 26.32000
C  49.46400 14.93900 24.92500
C  48.25100 13.99900 25.27400
C  47.98800 14.46900 26.71600
C  49.20400 16.16900 23.98800
C  48.46800 12.47500 25.16200
C  47.31800 11.54000 24.93100
N  47.46800 14.89800 29.60100
C  46.48500 14.41900 28.66900
C  45.31000 14.10300 29.50700
C  45.62600 14.53500 30.86000
C  46.87600 15.04700 30.83000
C  44.06400 13.45900 28.93000
C  45.04000 14.59000 32.21300
O  43.92200 14.15500 32.58900
C  46.12300 15.32000 33.04600
C  45.54300 16.59700 33.52000
O  45.44300 17.67000 32.92800
O  45.05600 16.41700 34.74900
C  44.50100 17.49600 35.51000
H  52.42800 17.76500 31.64600
H  51.82000 15.75800 25.52600
H  45.99200 13.69400 26.84700
H  48.26200 17.24000 34.07700
H  51.15100 16.99500 33.82100
H  50.80900 19.47400 32.93400
H  50.66500 19.01900 34.50800
H  49.11200 19.12000 33.56300
H  50.35300 15.05100 34.83200
H  48.99100 14.35000 34.35300
H  48.87200 14.41800 36.55300
H  47.47400 15.28300 36.00300
H  54.12900 18.74800 30.43400
H  55.35400 18.03500 29.35500
H  54.76300 17.12600 30.76300
H  56.18000 17.49900 25.92900
H  56.14200 16.93500 27.59100
H  55.55900 18.55400 27.24200
H  50.10700 14.29500 24.32500
H  47.40100 14.26200 24.64400
H  49.13100 17.05600 24.61700
H  48.34300 15.99300 23.34300
H  50.05400 16.19900 23.30600
H  49.04000 12.18800 26.04400
H  49.15000 12.30700 24.32900
H  47.66300 10.63200 24.43700
H  46.60700 12.13000 24.35300
H  46.79700 11.27500 25.85100
H  43.67300 14.05100 28.10200
H  43.28800 13.40300 29.69300
H  44.21400 12.48900 28.45700
H  46.37100 14.65000 33.87000
H  45.04000 18.43400 35.37800
H  44.40300 17.22600 36.56100
H  43.44000 17.50500 35.26200
Mg -6.53600 25.54600 27.14000
C  -4.95000 27.33600 29.71100
C  -8.06400 23.66200 29.55100
C  -7.75300 23.66100 24.67000
C  -4.44800 27.35400 24.83200
N  -6.45700 25.46700 29.32100
C  -5.75500 26.27600 30.18800
C  -6.06500 25.97200 31.67600
C  -6.85900 24.61600 31.60400
C  -7.19500 24.59100 30.07700
C  -5.89500 23.48500 32.01000
C  -6.92300 27.07600 32.29300
C  -6.67900 27.36600 33.79700
H  -6.69700 26.10700 34.76300
N  -7.78300 23.99300 27.08500
C  -8.37500 23.39200 28.19300
C  -9.35100 22.37300 27.76700
C  -9.25900 22.35100 26.35300
C  -8.29800 23.38400 25.95500
C  -10.25800 21.69200 28.69100
C  -10.10800 21.55300 25.29600
O  -9.98500 21.73400 24.08000
C  -11.03000 20.56400 25.79500
N  -6.08300 25.41400 25.08100
C  -6.85600 24.65300 24.25100
C  -6.45300 24.82500 22.79500
C  -5.57300 26.16400 22.83200
C  -5.30100 26.28500 24.35000
C  -5.69700 23.64200 22.08100
C  -6.36700 27.33700 22.18300
C  -7.28900 28.18000 23.08500
N  -5.06200 27.02700 27.14600
C  -4.31000 27.68500 26.19100
C  -3.48900 28.71500 26.75600
C  -3.69500 28.56800 28.12800
C  -4.65300 27.61400 28.37900
C  -2.64800 29.73200 26.06600
C  -3.26800 29.10600 29.42200
O  -2.33600 29.85300 29.69300
C  -4.12100 28.37400 30.49900
C  -3.22100 27.83000 31.57400
O  -2.48900 26.88300 31.41700
O  -3.36700 28.53700 32.75800
C  -2.56300 28.05100 33.90700
H  -8.53000 23.05200 30.32800
H  -8.04500 23.09600 23.78200
H  -3.86900 27.90400 24.08800
H  -5.19900 25.89700 32.33500
H  -7.70000 24.66500 32.29500
H  -5.58400 23.59900 33.04800
H  -5.13600 23.26500 31.25900
H  -6.51200 22.58600 32.02800
H  -7.96200 26.74800 32.26100
H  -6.77700 27.87900 31.57100
H  -7.37900 28.09600 34.20400
H  -5.68900 27.81600 33.87000
H  -11.26900 21.51600 28.32300
H  -10.48000 22.25900 29.59500
H  -9.92700 20.74800 29.12400
H  -10.54700 19.99000 26.58500
H  -11.41600 19.98700 24.95500
H  -11.83600 21.17300 26.20500
H  -7.43200 24.94500 22.33200
H  -4.61600 26.01100 22.33400
H  -5.10700 23.20800 22.88900
H  -5.09500 24.08400 21.28800
H  -6.48400 23.09100 21.56700
H  -6.98800 26.90500 21.39800
H  -5.58400 27.94100 21.72400
H  -7.32800 27.92200 24.14300
H  -8.25600 28.23500 22.58500
H  -6.95200 29.21300 22.99900
H  -2.46600 29.22900 25.11700
H  -1.66000 29.73400 26.52700
H  -3.16900 30.68800 26.11100
H  -4.47700 29.24700 31.04600
H  -1.54000 28.26900 33.59800
H  -2.79000 26.98800 33.98900
H  -2.87400 28.45700 34.86900

