158

Mg 24.39600 -3.99700 45.01600
C  26.31900 -1.26000 43.48300
C  21.65700 -3.12800 43.21300
C  23.25500 -7.15700 45.37700
C  27.67300 -5.11800 46.03600
N  24.05700 -2.43600 43.46500
C  24.95300 -1.42600 43.01300
C  24.19200 -0.56000 41.96700
C  22.73900 -1.15300 42.05000
C  22.79700 -2.29300 42.97400
C  21.66300 -0.07200 42.43700
C  24.70800 -0.49800 40.50000
C  25.66900 -1.70400 40.15600
H  25.65600 -2.07100 38.65600
N  22.59400 -4.93300 44.55200
C  21.49500 -4.34700 43.87400
C  20.43100 -5.25300 43.87500
C  20.92000 -6.43800 44.57200
C  22.31600 -6.23100 44.87700
C  19.07700 -5.02200 43.14800
C  20.00400 -7.63600 44.72400
O  18.89200 -7.66200 44.32300
C  20.40000 -8.81800 45.66000
N  25.36400 -5.84900 45.59300
C  24.60400 -6.95100 45.78100
C  25.42400 -8.03300 46.43800
C  26.94800 -7.43500 46.60300
C  26.64700 -6.07000 46.02200
C  24.92600 -8.71300 47.76500
C  28.06100 -8.24800 45.76400
C  28.25800 -9.56500 46.28700
N  26.47600 -3.21900 45.10500
C  27.65700 -3.85400 45.50600
C  28.78200 -3.00200 45.25900
C  28.23300 -1.90400 44.55800
C  26.90100 -2.14300 44.34800
C  30.27000 -3.09200 45.65100
C  28.59500 -0.57500 44.00700
O  29.58900 0.15300 44.13900
C  27.34500 -0.12400 43.17500
C  27.00000 1.31100 43.63100
O  26.17900 1.65100 44.51300
O  27.87500 2.10000 42.90600
C  27.99000 3.50800 43.23400
H  20.77000 -2.81400 42.65800
H  22.86500 -8.16600 45.52700
H  28.63400 -5.62700 46.13100
H  24.21400 0.42700 42.42900
H  22.61100 -1.47300 41.01600
H  20.65500 -0.33000 42.11400
H  21.89500 0.90400 42.01000
H  21.63600 0.03800 43.52100
H  25.37300 0.35900 40.39100
H  23.91500 -0.46700 39.75400
H  25.32200 -2.56800 40.72300
H  26.66600 -1.38300 40.45500
H  18.86200 -5.52300 42.20400
H  18.86700 -3.97800 42.91100
H  18.29900 -5.29600 43.86000
H  19.45700 -9.29600 45.92600
H  20.98800 -8.53900 46.53400
H  20.96100 -9.50600 45.02800
H  25.51900 -8.83300 45.70400
H  27.24500 -7.35200 47.64900
H  25.70000 -8.83600 48.52300
H  24.51400 -9.67500 47.46000
H  24.11200 -8.04600 48.04900
H  28.98000 -7.67700 45.90100
H  27.92000 -8.21700 44.68400
H  29.27500 -9.67900 46.66200
H  28.08200 -10.28700 45.49000
H  27.52100 -9.78900 47.05800
H  30.39000 -2.24200 46.32200
H  30.94500 -2.86100 44.82700
H  30.40900 -4.00600 46.22900
H  27.67700 -0.19900 42.14000
H  28.18200 4.16700 42.38700
H  28.89800 3.53600 43.83600
H  27.19500 3.93800 43.84400
Mg -12.10800 38.03600 42.00100
C  -10.22100 35.16300 40.97300
C  -9.93600 40.00700 40.42200
C  -14.22400 40.49900 42.70000
C  -14.50300 35.66900 43.25100
N  -10.35700 37.59500 40.74500
C  -9.64200 36.40100 40.60300
C  -8.27400 36.58700 39.97100
C  -8.10100 38.16800 40.18600
C  -9.59900 38.62300 40.39500
C  -7.15200 38.63400 41.31800
C  -8.16300 35.99000 38.62300
C  -6.94400 35.04800 38.38700
H  -5.85400 35.68200 37.43300
N  -12.15200 40.02800 41.58100
C  -11.10200 40.66100 40.92400
C  -11.42800 42.11300 40.98300
C  -12.70400 42.24300 41.57200
C  -13.09500 40.93700 41.93600
C  -10.50700 43.19800 40.35900
C  -13.39200 43.64400 41.87600
O  -12.76700 44.64800 41.63700
C  -14.65700 43.65200 42.56300
N  -14.16400 38.08300 42.65800
C  -14.77800 39.26200 43.00600
C  -15.98900 38.98900 43.93600
C  -16.20300 37.42100 43.72900
C  -14.82900 37.03200 43.20900
C  -15.70500 39.44500 45.31200
C  -17.51500 37.00100 42.90300
C  -18.80100 36.65500 43.75900
N  -12.33800 35.83400 42.22400
C  -13.43200 35.06400 42.62200
C  -13.13100 33.63200 42.51000
C  -11.87000 33.67400 41.85000
C  -11.47000 34.97600 41.65800
C  -13.90600 32.48000 42.97700
C  -10.82700 32.82600 41.26800
O  -10.88200 31.59100 41.19600
C  -9.74000 33.76300 40.68100
C  -8.46100 33.44400 41.40600
O  -7.57100 32.73600 40.94900
O  -8.35200 34.08800 42.57800
C  -6.93600 34.11200 43.15200
H  -9.14500 40.64300 40.01800
H  -14.99200 41.20700 43.01900
H  -15.32800 35.04300 43.59600
H  -7.55500 36.17200 40.67700
H  -7.64100 38.47100 39.24500
H  -6.66200 37.80700 41.83300
H  -7.68100 39.13400 42.12900
H  -6.42300 39.35900 40.95500
H  -7.98700 36.87100 38.00600
H  -9.10800 35.54700 38.30700
H  -7.38900 34.13300 37.99500
H  -6.54300 34.80000 39.37000
H  -11.14800 43.82600 39.74000
H  -9.65700 42.80400 39.80200
H  -10.04300 43.81800 41.12600
H  -15.13800 44.63000 42.53700
H  -14.30100 43.33000 43.54200
H  -15.37600 42.97300 42.10400
H  -16.85100 39.55700 43.58600
H  -16.19700 36.85900 44.66300
H  -16.18700 40.39400 45.54600
H  -14.63900 39.66000 45.39500
H  -16.03100 38.66000 45.99400
H  -17.21300 36.15100 42.29100
H  -17.76400 37.80600 42.21200
H  -19.08900 35.66900 43.39300
H  -19.59400 37.39200 43.63400
H  -18.57700 36.69400 44.82500
H  -14.32000 31.92700 42.13400
H  -14.68600 32.60900 43.72800
H  -13.30600 31.69700 43.44100
H  -9.64900 33.51100 39.62400
H  -6.27600 34.73400 42.54800
H  -6.51300 33.11000 43.21900
H  -6.83900 34.59500 44.12400

