158

Mg 0.51600 7.94300 26.34100
C  1.36800 9.85500 28.97500
C  0.26000 5.15400 28.49200
C  -0.12600 5.97600 23.54900
C  0.91400 10.68100 24.20500
N  0.69300 7.56500 28.41700
C  0.98900 8.53900 29.33400
C  0.86800 8.08000 30.78600
C  0.72700 6.51400 30.61200
C  0.55200 6.40000 29.04900
C  2.04500 5.64100 31.06800
C  -0.45400 8.64200 31.40900
C  -0.80900 8.27800 32.87800
H  0.44400 7.92400 33.75300
N  0.22500 5.83600 26.01000
C  0.00200 4.91600 27.06700
C  -0.38500 3.66700 26.53000
C  -0.44000 3.82800 25.08500
C  -0.14500 5.27600 24.80100
C  -0.69500 2.45600 27.45300
C  -0.76500 2.78400 24.06100
O  -0.85300 2.99300 22.84200
C  -0.81000 1.36900 24.48600
N  0.28200 8.25900 24.24000
C  0.00900 7.32500 23.29400
C  -0.19800 7.97400 21.93600
C  -0.04700 9.55300 22.16200
C  0.35400 9.55400 23.62300
C  0.89600 7.44600 20.97500
C  -1.32300 10.36500 21.91000
C  -1.23500 11.58200 21.02200
N  1.02800 9.92400 26.49400
C  1.22900 10.93100 25.57100
C  1.78700 12.13400 26.22400
C  1.79400 11.78000 27.62100
C  1.36300 10.44900 27.70400
C  2.04900 13.50600 25.59300
C  2.18500 12.31100 28.95500
O  2.65900 13.40600 29.29400
C  1.76700 11.11700 29.83700
C  2.85200 10.75500 30.81100
O  3.70000 9.95700 30.59900
O  2.70700 11.50400 31.90800
C  3.91900 11.49000 32.73700
H  0.25800 4.32800 29.20500
H  -0.26200 5.39800 22.63200
H  1.05100 11.58700 23.61200
H  1.71700 8.41600 31.38200
H  -0.19200 6.23900 31.12900
H  2.45700 6.23700 31.88200
H  2.80200 5.42800 30.31400
H  1.74700 4.72000 31.56900
H  -1.31700 8.33500 30.81800
H  -0.38800 9.72900 31.36100
H  -1.50300 7.44200 32.96200
H  -1.27700 9.21500 33.17800
H  -1.48900 1.86300 27.00000
H  -1.07500 2.80400 28.41400
H  0.15300 1.80800 27.67300
H  0.02700 1.17700 25.15800
H  -0.71000 0.72900 23.60900
H  -1.76700 1.09400 24.92900
H  -1.22800 7.84800 21.60300
H  0.79900 9.91300 21.57600
H  1.24800 8.22900 20.30200
H  0.55000 6.56400 20.43600
H  1.75800 7.09000 21.53900
H  -1.83800 10.56200 22.85000
H  -2.00400 9.65800 21.43800
H  -0.31300 11.47100 20.45200
H  -1.06900 12.44900 21.66100
H  -2.02000 11.69000 20.27300
H  1.10700 13.84000 25.15800
H  2.72200 13.42400 24.73900
H  2.40100 14.24100 26.31700
H  0.95400 11.37900 30.51500
H  4.80800 11.85400 32.22100
H  4.10300 10.53000 33.22000
H  3.68100 12.09500 33.61100
Mg 41.42900 9.24300 29.57300
C  43.08300 10.37800 32.53700
C  39.00700 8.00600 31.54400
C  40.22200 8.06300 26.88000
C  44.38000 10.42900 27.78700
N  41.08900 9.19500 31.84900
C  41.80300 9.78500 32.85800
C  41.14300 9.53600 34.25300
C  40.03000 8.54200 33.84000
C  40.01500 8.61600 32.35500
C  40.09600 7.05100 34.33900
C  40.76300 10.86400 34.90900
C  40.36700 10.72800 36.41800
H  41.14800 11.58000 37.46900
N  39.77700 8.18600 29.24300
C  38.80600 7.85500 30.14300
C  37.69900 7.26200 29.34800
C  38.09500 7.26900 27.91900
C  39.40100 7.81500 27.96500
C  36.42500 6.87300 29.99400
C  37.18400 6.99600 26.71300
O  37.63100 6.98600 25.54100
C  35.71200 6.66600 26.94600
N  42.21200 9.29500 27.62400
C  41.46400 8.69100 26.69700
C  42.18600 8.69700 25.30200
C  43.53900 9.47700 25.58900
C  43.38100 9.73900 27.12100
C  42.38600 7.27400 24.57600
C  43.50400 10.75700 24.80000
C  42.63400 11.99100 25.31300
N  43.30800 10.35700 29.98200
C  44.40800 10.68600 29.15000
C  45.34300 11.36500 29.98600
C  44.81600 11.24100 31.31700
C  43.61000 10.56800 31.26700
C  46.63300 11.90900 29.63500
C  45.07200 11.74800 32.61000
O  45.91500 12.48600 33.01500
C  44.00000 11.04300 33.53100
C  44.58600 10.03300 34.44800
O  45.14300 8.96800 34.15200
O  44.37100 10.40300 35.73400
C  44.29300 9.39400 36.84600
H  38.22800 7.54600 32.15400
H  39.86700 7.80300 25.88000
H  45.22100 10.83800 27.22400
H  41.98300 9.10500 34.79800
H  39.08200 9.02500 34.07600
H  39.17300 6.82300 34.87100
H  40.92900 6.75900 34.98000
H  40.14100 6.33100 33.52200
H  39.84000 11.22500 34.45400
H  41.48000 11.63200 34.61900
H  40.28600 9.69900 36.76700
H  39.35500 11.12800 36.36300
H  35.59500 7.42700 29.55600
H  36.48200 7.20400 31.03100
H  36.19600 5.80700 29.99600
H  35.53000 5.99900 27.78800
H  35.35400 6.17500 26.04100
H  35.08900 7.51300 27.23200
H  41.44800 9.25900 24.72900
H  44.42200 8.88200 25.35700
H  43.43200 6.97900 24.65800
H  41.97300 7.38300 23.57300
H  41.84500 6.55700 25.19300
H  43.09600 10.55000 23.81100
H  44.50000 11.16500 24.63000
H  42.24600 11.89700 26.32700
H  41.81300 12.24700 24.64300
H  43.31300 12.84400 25.29200
H  46.56500 12.38800 28.65800
H  47.38200 11.12200 29.54700
H  46.78100 12.64400 30.42600
H  43.45500 11.82900 34.05400
H  43.45800 9.55000 37.52900
H  45.16000 9.47400 37.50100
H  44.33800 8.39500 36.41100

