158

Mg 46.58000 45.65400 44.42900
C  43.25900 45.05800 43.30700
C  47.41700 42.61100 42.98300
C  49.73400 46.48600 44.88200
C  45.58900 49.00500 44.88700
N  45.46500 44.06200 43.25700
C  44.14700 44.08900 42.91900
C  43.78400 42.86600 42.10700
C  45.04700 41.97900 42.21700
C  46.05200 42.94600 42.80400
C  44.85100 40.65500 43.00200
C  43.35400 43.13100 40.64900
C  42.14500 42.30500 40.08900
H  42.51400 41.28200 38.98600
N  48.36800 44.56300 44.17700
C  48.53900 43.36600 43.59800
C  49.88800 42.96800 43.75900
C  50.59300 44.14600 44.28900
C  49.55600 45.14800 44.51600
C  50.47200 41.54900 43.28400
C  52.07700 44.17000 44.43100
O  52.74100 43.16900 44.22900
C  52.89600 45.35900 44.81300
N  47.52100 47.46900 44.62100
C  48.84700 47.53100 44.93700
C  49.23700 49.00200 45.13100
C  47.98200 49.79300 45.17900
C  46.91800 48.72400 44.88200
C  50.16000 49.34300 46.39600
C  47.94600 51.10300 44.31500
C  47.98700 50.86100 42.70400
N  44.75900 46.78000 44.31900
C  44.52400 48.13100 44.56500
C  43.07400 48.37300 44.53500
C  42.57000 47.11100 44.12800
C  43.64800 46.17800 43.98200
C  42.31000 49.56200 44.96900
C  41.35300 46.37400 43.84800
O  40.15800 46.71800 44.01700
C  41.75900 45.01100 43.26700
C  41.12400 43.97000 44.13500
O  40.21900 43.24600 43.81600
O  41.61800 43.95400 45.43500
C  41.04500 42.92700 46.36600
H  47.62200 41.63900 42.53000
H  50.71700 46.75700 45.27100
H  45.19300 50.02100 44.95200
H  42.93500 42.45000 42.64900
H  45.37500 41.62600 41.23900
H  45.64800 40.56200 43.73900
H  44.87600 39.74900 42.39700
H  43.89500 40.49500 43.50000
H  44.26400 42.98200 40.06900
H  43.06700 44.18200 40.60800
H  41.44500 42.94000 39.54600
H  41.47200 41.88800 40.83900
H  51.39200 41.69700 42.72000
H  49.75500 40.96000 42.71100
H  50.65800 40.81900 44.07100
H  52.72900 46.24100 44.19400
H  53.96400 45.14400 44.84300
H  52.66400 45.74300 45.80600
H  49.78800 49.39300 44.27600
H  47.82000 50.13000 46.20300
H  51.20100 49.42800 46.08400
H  50.03700 48.44800 47.00600
H  49.81100 50.28300 46.82300
H  48.89900 51.56800 44.56800
H  47.09800 51.70300 44.64400
H  48.87700 51.38800 42.36200
H  47.07200 51.26600 42.27200
H  48.04700 49.79600 42.47600
H  42.54500 49.86000 45.99100
H  41.24500 49.33100 44.94800
H  42.48900 50.32500 44.21200
H  41.31900 44.89800 42.27700
H  41.63800 43.04300 47.27400
H  41.22900 41.88400 46.10900
H  40.05200 43.30000 46.62000
Mg 35.66500 49.88200 25.47700
C  35.40100 48.12700 28.51900
C  34.77300 52.75100 27.15100
C  35.73400 51.48800 22.53700
C  36.45600 46.95800 23.79800
N  35.07900 50.26800 27.60800
C  35.13900 49.46600 28.64800
C  34.94400 50.23900 29.99600
C  34.56800 51.65700 29.55400
C  34.82200 51.58300 28.01500
C  33.09700 51.95600 29.89300
C  36.08000 50.09000 30.92500
C  35.91100 49.84900 32.41800
H  34.42700 49.86000 32.95600
N  35.26900 51.81100 24.96400
C  34.99300 52.85000 25.75900
C  34.77200 54.08500 24.97800
C  35.03300 53.78700 23.63400
C  35.29900 52.25100 23.64100
C  34.39600 55.43000 25.51900
C  34.95600 54.67000 22.34200
O  35.08000 54.19500 21.23500
C  34.77000 56.14100 22.53300
N  35.97300 49.29400 23.40100
C  36.02700 50.16600 22.43100
C  36.40600 49.49100 21.05900
C  36.94700 48.08700 21.59900
C  36.43000 48.06800 22.98300
C  35.15300 49.43900 20.13000
C  38.52600 48.01000 21.54300
C  39.09000 46.68400 21.05000
N  35.97200 47.91300 26.02700
C  36.20300 46.81600 25.22200
C  36.14900 45.62600 26.09100
C  35.87300 46.08400 27.37500
C  35.74400 47.50300 27.29400
C  36.49800 44.19200 25.67000
C  35.74400 45.70000 28.77700
O  35.91200 44.65700 29.36200
C  35.45500 47.00700 29.55600
C  34.15400 46.74100 30.27200
O  33.03000 46.95200 29.87200
O  34.46300 46.08700 31.44600
C  33.25700 45.59400 32.14600
H  34.45400 53.54900 27.82500
H  35.90800 52.00500 21.59100
H  36.75600 46.05000 23.27000
H  34.08600 49.77400 30.48100
H  35.13200 52.42600 30.08300
H  32.57100 51.00200 29.90600
H  32.61100 52.60600 29.16600
H  33.04300 52.32800 30.91700
H  36.73800 50.95500 30.84200
H  36.73500 49.28300 30.59800
H  36.46000 50.65700 32.90200
H  36.33800 48.86700 32.62100
H  34.09600 55.41800 26.56700
H  33.51200 55.78500 24.99000
H  35.22600 56.13600 25.54300
H  35.64900 56.49800 23.06900
H  33.81200 56.22300 23.04500
H  34.69900 56.57500 21.53600
H  37.24500 49.91900 20.51000
H  36.46600 47.22100 21.14400
H  35.26200 50.05800 19.23900
H  34.32100 49.92900 20.63500
H  34.79200 48.43900 19.89200
H  38.87000 48.12000 22.57200
H  39.00600 48.91500 21.17100
H  40.16900 46.82600 20.98300
H  38.56900 46.40000 20.13600
H  38.88300 46.01600 21.88600
H  35.64000 43.54200 25.84200
H  37.27300 43.73900 26.28700
H  36.84200 44.30100 24.64100
H  36.34600 47.08800 30.17900
H  32.40000 45.19400 31.60500
H  32.83500 46.51100 32.55600
H  33.53600 44.86900 32.91100

