158

Mg 26.10000 -0.48100 29.00700
C  28.16200 -0.79300 31.77000
C  23.26900 -0.50100 31.02600
C  24.28900 -0.57900 26.15700
C  29.02600 -1.39800 26.98800
N  25.83700 -0.85700 31.14700
C  26.83800 -0.77000 32.05300
C  26.22600 -0.67800 33.47300
C  24.69500 -0.59300 33.20300
C  24.53700 -0.69500 31.71400
C  23.81000 -1.56200 33.97400
C  26.71000 0.50600 34.24200
C  25.96000 0.96100 35.56400
H  26.71300 1.11700 36.85400
N  24.12200 -0.39300 28.66400
C  23.08700 -0.33100 29.61600
C  21.81300 -0.15900 28.95800
C  22.04400 -0.18000 27.54800
C  23.54500 -0.38500 27.37900
C  20.60700 0.01100 29.79800
C  20.99300 -0.16600 26.39200
O  21.29900 -0.19800 25.19300
C  19.48500 -0.11100 26.68800
N  26.60900 -0.85600 26.86700
C  25.66000 -0.74700 25.88100
C  26.30500 -0.88900 24.51100
C  27.84500 -1.03900 24.83600
C  27.85000 -1.11900 26.34000
C  25.74700 -1.98100 23.55700
C  28.81800 0.02400 24.27300
C  30.14900 -0.34400 23.56500
N  28.21700 -1.02800 29.29400
C  29.28700 -1.36200 28.41600
C  30.51000 -1.53100 29.16400
C  30.13500 -1.29200 30.54400
C  28.77000 -1.02500 30.55000
C  31.87000 -1.92900 28.60000
C  30.58000 -1.08800 31.87400
O  31.71200 -1.18500 32.33000
C  29.30400 -0.92400 32.70300
C  29.05400 -2.03200 33.70400
O  28.62300 -3.18200 33.44100
O  29.33900 -1.56600 34.95600
C  29.26700 -2.65800 35.97700
H  22.46400 -0.40200 31.75800
H  23.59400 -0.49500 25.31900
H  29.84000 -1.64100 26.30200
H  26.42200 -1.59700 34.02700
H  24.37800 0.43900 33.35400
H  24.16500 -1.97100 34.92000
H  23.76300 -2.46700 33.36900
H  22.86800 -1.01500 33.92900
H  26.72800 1.40200 33.62100
H  27.74700 0.37200 34.54700
H  25.05300 0.45400 35.89300
H  25.75200 1.99400 35.28400
H  20.15000 0.95400 29.49600
H  20.61400 0.05100 30.88700
H  19.93100 -0.79800 29.52000
H  19.25100 0.86700 27.10800
H  19.24700 -0.83500 27.46700
H  18.77600 -0.23500 25.86900
H  26.22000 0.10400 24.06900
H  28.19100 -2.02600 24.52800
H  25.78200 -2.92700 24.09800
H  26.42900 -2.00300 22.70700
H  24.70500 -1.83100 23.27600
H  29.09300 0.62300 25.14200
H  28.20100 0.55700 23.55000
H  30.23900 0.46000 22.83500
H  30.12600 -1.32500 23.09000
H  31.00500 -0.23200 24.23000
H  32.50600 -1.04400 28.61400
H  31.86000 -2.22400 27.55100
H  32.34700 -2.68500 29.22400
H  29.38400 -0.01300 33.29500
H  29.24100 -3.68800 35.62200
H  28.39800 -2.51600 36.61900
H  30.15100 -2.59800 36.61300
Mg 46.07500 24.32600 27.61200
C  46.92600 26.35900 30.43400
C  45.41000 21.81100 29.87400
C  45.98500 22.30500 25.07200
C  47.32600 27.00000 25.49600
N  46.03400 24.18500 29.95900
C  46.30700 25.09900 30.86600
C  45.89000 24.68300 32.26900
C  45.47900 23.17700 32.04400
C  45.74200 22.97000 30.53200
C  46.11500 22.10400 32.97500
C  44.67400 25.51000 32.96800
C  44.88800 26.02200 34.39900
H  43.68200 26.27200 35.30200
N  45.63300 22.42300 27.47700
C  45.40300 21.57600 28.49200
C  45.06300 20.27800 27.90000
C  45.28500 20.31000 26.48100
C  45.61700 21.70800 26.30600
C  44.42100 19.17800 28.78200
C  45.14200 19.31200 25.35600
O  45.21700 19.63300 24.16400
C  44.82500 17.84400 25.66500
N  46.59900 24.63500 25.61200
C  46.33800 23.63500 24.72400
C  46.73600 24.09900 23.27400
C  46.91500 25.56800 23.42400
C  46.96000 25.74500 24.90700
C  47.97200 23.34400 22.55300
C  45.76200 26.36400 22.76500
C  44.40100 26.63300 23.49400
N  46.91400 26.28500 27.78200
C  47.37100 27.26500 26.86300
C  47.93000 28.44400 27.57100
C  47.70400 28.10000 28.87000
C  47.14700 26.81300 29.03400
C  48.59200 29.62300 26.90600
C  47.81700 28.60400 30.23300
O  48.29900 29.63200 30.62400
C  47.29700 27.45500 31.27100
C  48.35500 27.05800 32.17600
O  49.38600 26.48700 31.86000
O  48.02000 27.45200 33.44900
C  48.89300 26.85700 34.42400
H  45.20300 20.94400 30.50500
H  45.98200 21.64100 24.20500
H  47.59300 27.63600 24.65000
H  46.77000 24.70200 32.91200
H  44.39700 23.04400 32.04200
H  45.33800 21.44900 33.37000
H  46.65200 22.65300 33.74800
H  46.90700 21.59000 32.43000
H  43.93900 24.70900 33.04600
H  44.39600 26.22500 32.19500
H  45.33900 27.00300 34.25300
H  45.54300 25.36000 34.96600
H  43.63200 18.76300 28.15400
H  44.07200 19.42400 29.78400
H  45.15800 18.38800 28.93100
H  43.77200 17.69400 25.90300
H  45.57100 17.43900 26.34800
H  44.89800 17.29200 24.72800
H  45.83400 23.89500 22.69700
H  47.86500 25.96500 23.06800
H  47.72300 22.87900 21.59900
H  48.29400 22.59800 23.28000
H  48.85100 23.98700 22.50600
H  45.58900 25.96400 21.76600
H  46.12800 27.38400 22.64400
H  44.51800 26.37900 24.54800
H  43.49200 26.14000 23.15100
H  44.19500 27.69100 23.32700
H  49.08200 30.30800 27.59700
H  47.86300 30.25200 26.39600
H  49.32200 29.34500 26.14500
H  46.40400 27.71400 31.84000
H  48.36700 26.97500 35.37100
H  49.88200 27.31500 34.46700
H  49.10400 25.80800 34.21600

