158

Mg 2.70200 -1.26200 44.86200
C  5.96400 -0.39000 44.43300
C  1.76100 1.15900 42.48500
C  -0.49800 -2.40500 44.97200
C  3.74500 -4.29000 46.54700
N  3.77500 0.05100 43.39500
C  5.16800 0.32000 43.58900
C  5.59700 1.42000 42.55900
C  4.27800 2.06900 42.20000
C  3.19200 1.04500 42.74200
C  4.15200 3.52900 42.67100
C  6.40000 0.74300 41.36400
C  7.85600 1.31700 41.24500
H  8.22600 1.72300 39.77900
N  0.85800 -0.65400 43.94000
C  0.74300 0.40400 43.05700
C  -0.69200 0.58500 42.81500
C  -1.41600 -0.50600 43.44000
C  -0.34900 -1.24800 44.15500
C  -1.23300 1.77600 42.06900
C  -2.92400 -0.53200 43.54500
O  -3.57000 0.25000 42.91600
C  -3.71000 -1.39100 44.45600
N  1.76300 -3.13700 45.63200
C  0.45800 -3.28200 45.58300
C  -0.06200 -4.54900 46.38300
C  1.35500 -5.21300 46.68300
C  2.38100 -4.18400 46.30800
C  -0.89800 -4.17800 47.65600
C  1.75300 -6.56500 46.05100
C  2.10500 -7.64900 47.08300
N  4.42400 -2.13900 45.56100
C  4.65900 -3.31600 46.28600
C  6.09100 -3.37800 46.53400
C  6.68300 -2.26300 45.89900
C  5.61800 -1.58800 45.19000
C  6.74800 -4.50500 47.36100
C  7.83200 -1.48000 45.62400
O  9.00800 -1.66200 46.03300
C  7.42000 -0.30200 44.65500
C  7.63300 0.99600 45.37600
O  7.47000 1.20500 46.59800
O  8.28300 1.85300 44.45200
C  8.42000 3.23800 44.94600
H  1.49000 1.82800 41.66600
H  -1.48900 -2.82400 44.78600
H  4.09500 -5.23100 46.97700
H  6.24000 2.06100 43.16200
H  4.23500 2.04800 41.11100
H  3.78400 4.16600 41.86700
H  5.14900 3.88000 42.93600
H  3.45400 3.80100 43.46400
H  5.82100 0.85600 40.44700
H  6.48400 -0.31200 41.62300
H  8.57200 0.60600 41.65600
H  8.01000 2.28600 41.71900
H  -2.17800 2.27600 42.28000
H  -1.10400 1.59300 41.00200
H  -0.50300 2.54800 42.31300
H  -4.68600 -0.97900 44.71200
H  -3.09800 -1.63200 45.32600
H  -3.87900 -2.32200 43.91700
H  -0.63000 -5.09000 45.62500
H  1.45400 -5.30400 47.76500
H  -1.87300 -3.91200 47.25000
H  -0.53100 -3.25700 48.11000
H  -0.92700 -5.07700 48.27200
H  2.62100 -6.42200 45.40700
H  0.90800 -6.90800 45.45300
H  3.17300 -7.87100 47.08600
H  1.62900 -8.60700 46.87300
H  1.81600 -7.41100 48.10700
H  6.64900 -5.39400 46.73800
H  6.26800 -4.54400 48.33900
H  7.83100 -4.42000 47.45700
H  7.99400 -0.30000 43.72900
H  7.44800 3.71800 45.06700
H  8.87200 3.85000 44.16600
H  9.15400 3.27900 45.75100
Mg 47.35600 16.44700 28.29200
C  45.32500 16.00100 31.04700
C  49.65000 18.05700 30.18700
C  49.48600 16.85000 25.51300
C  44.82200 15.13800 26.25300
N  47.40500 17.05200 30.42300
C  46.51000 16.61500 31.37700
C  46.95900 17.02300 32.78300
C  48.19000 17.98700 32.46400
C  48.43300 17.70000 30.89900
C  48.02300 19.50900 32.82600
C  47.38400 15.74000 33.63000
C  47.87700 15.90700 35.04400
H  47.39300 17.14300 35.78100
N  49.26700 17.30000 27.89100
C  50.00300 17.96300 28.78900
C  51.21500 18.42300 28.21400
C  51.23600 18.03200 26.86400
C  49.94400 17.46400 26.69700
C  52.17700 19.39000 29.00700
C  52.33400 18.30300 25.77100
O  52.12800 18.11500 24.61200
C  53.68600 18.73700 26.10800
N  47.14400 16.24400 26.14400
C  48.14700 16.46900 25.23300
C  47.52700 16.12600 23.87200
C  46.20900 15.36300 24.12800
C  46.00500 15.56800 25.59800
C  47.21200 17.38700 23.02400
C  46.24200 13.83300 23.68500
C  44.94200 13.40200 22.89200
N  45.51800 15.60400 28.54300
C  44.62100 15.08900 27.63000
C  43.54900 14.46500 28.36900
C  43.78400 14.81500 29.74600
C  44.96800 15.57600 29.73500
C  42.41100 13.75800 27.76600
C  43.22500 14.67400 31.06500
O  42.22400 14.10200 31.47700
C  44.22300 15.46500 32.03900
C  43.55300 16.46500 32.96800
O  43.17800 17.58900 32.73400
O  43.47300 15.89200 34.20600
C  43.15100 16.66500 35.37100
H  50.32700 18.46700 30.94000
H  50.01900 17.03200 24.57700
H  44.06200 14.60100 25.68200
H  46.10400 17.49800 33.26500
H  49.01400 17.66500 33.10100
H  48.68100 19.59800 33.69000
H  47.02400 19.87900 33.05600
H  48.36800 20.15700 32.02000
H  48.24100 15.30000 33.12000
H  46.64300 14.94100 33.59400
H  48.96600 15.90000 35.02000
H  47.38700 15.06400 35.53200
H  53.19100 18.99700 28.93700
H  51.91000 19.51100 30.05700
H  52.23600 20.37900 28.55300
H  54.35900 18.98800 25.28800
H  54.21000 18.05400 26.77700
H  53.61900 19.69800 26.61800
H  48.19600 15.43100 23.36400
H  45.33800 15.71600 23.57500
H  47.84800 18.21800 23.32800
H  46.16900 17.63600 22.82700
H  47.54000 17.21000 22.00000
H  46.31400 13.22800 24.58900
H  47.15900 13.53100 23.17800
H  45.19100 13.00500 21.90800
H  44.23800 14.20200 22.66200
H  44.43000 12.70800 23.55700
H  42.46500 13.45800 26.72000
H  41.53700 14.39400 27.91000
H  42.20800 12.90700 28.41700
H  44.57400 14.69400 32.72400
H  42.17300 16.40800 35.77800
H  43.34500 17.73700 35.34000
H  43.74900 16.31800 36.21400

