158

Mg 46.62400 15.89000 29.44300
C  44.50000 15.51400 32.10300
C  48.29300 18.30700 31.13500
C  48.50500 16.24700 26.73700
C  44.44500 13.91800 27.58200
N  46.39000 16.87300 31.38900
C  45.57400 16.36500 32.36400
C  45.89200 16.97900 33.74600
C  46.78700 18.31000 33.38600
C  47.18300 17.80200 31.91300
C  45.98400 19.59800 33.27400
C  46.62600 15.98400 34.68100
C  46.45400 16.16500 36.17800
H  47.72400 16.19100 37.11400
N  48.25700 17.07000 29.02200
C  48.79400 18.06500 29.84600
C  49.92500 18.61000 29.22500
C  49.93500 18.04400 27.94300
C  48.88600 17.04600 27.82100
C  50.72600 19.80400 29.74800
C  50.90600 18.38800 26.75300
O  50.73500 18.00600 25.61900
C  52.10000 19.24900 26.96900
N  46.42000 15.36000 27.34800
C  47.38400 15.50000 26.41900
C  47.30100 14.59200 25.14900
C  45.93600 13.94900 25.44400
C  45.58900 14.38300 26.87000
C  47.45300 15.35200 23.76400
C  45.67700 12.34900 25.19200
C  46.45700 11.34500 26.06000
N  44.80500 14.95400 29.72100
C  44.03300 14.22500 28.88600
C  42.84500 13.75400 29.57600
C  43.01700 14.22100 30.90400
C  44.20500 14.94900 30.88200
C  41.72700 12.99500 28.92800
C  42.42600 14.24100 32.18600
O  41.34300 13.79200 32.52000
C  43.45600 15.08900 33.11100
C  42.65400 16.12100 33.72100
O  42.43700 17.21300 33.16000
O  42.40800 15.75300 35.08900
C  41.80200 16.82000 35.86100
H  48.94600 18.85500 31.81800
H  49.04800 16.23800 25.78900
H  43.84800 13.19600 27.02100
H  44.96300 17.35500 34.17400
H  47.67000 18.48900 33.99900
H  46.52400 20.27000 32.60800
H  45.67100 20.08000 34.20100
H  45.08300 19.38000 32.70100
H  47.68700 16.04800 34.44300
H  46.26000 14.99200 34.41400
H  45.74500 15.37000 36.40900
H  46.00200 17.15500 36.24200
H  50.63600 20.03400 30.81000
H  50.44900 20.66800 29.14400
H  51.79700 19.69400 29.58000
H  52.79200 18.84500 27.70800
H  51.73900 20.16300 27.44100
H  52.71700 19.47500 26.09800
H  48.13900 13.90700 25.28100
H  45.23700 14.51500 24.82800
H  46.65100 14.98300 23.12500
H  48.35800 14.99100 23.27500
H  47.36600 16.43400 23.86200
H  45.92700 12.18200 24.14400
H  44.60700 12.18200 25.31100
H  45.70100 10.72300 26.53800
H  47.07600 11.83000 26.81400
H  46.97300 10.66800 25.37900
H  42.01900 12.55100 27.97600
H  40.94700 13.74400 28.78700
H  41.38500 12.20200 29.59300
H  43.88600 14.40700 33.84400
H  41.55000 17.70000 35.26800
H  42.44100 17.15300 36.67900
H  41.01300 16.32900 36.43100
Mg -5.43500 24.49100 27.39300
C  -3.68300 26.14900 30.05700
C  -6.31500 22.19800 29.68900
C  -6.33800 22.49400 24.86500
C  -3.86200 26.63400 25.24600
N  -5.00800 24.25300 29.68200
C  -4.42000 25.06200 30.51000
C  -4.59700 24.63200 31.93100
C  -5.34100 23.28900 31.76900
C  -5.60600 23.24000 30.27700
C  -4.56200 22.01900 32.15800
C  -5.39800 25.70000 32.74900
C  -4.95800 25.93700 34.17600
H  -5.59100 25.00700 35.18500
N  -6.39700 22.64800 27.28000
C  -6.73300 21.88400 28.37000
C  -7.44200 20.74200 27.86600
C  -7.42800 20.81100 26.47700
C  -6.59900 21.94400 26.11000
C  -7.88300 19.63400 28.68900
C  -8.03100 19.86200 25.41900
O  -7.66000 19.81300 24.24800
C  -9.06900 18.73300 25.95100
N  -5.15500 24.58300 25.30400
C  -5.64700 23.67400 24.43100
C  -5.49400 24.13000 22.98400
C  -4.64800 25.43600 23.15500
C  -4.57600 25.62900 24.61100
C  -4.91500 22.99300 22.06500
C  -5.10200 26.74100 22.43100
C  -3.93100 27.43100 21.58900
N  -4.20100 26.07600 27.58300
C  -3.62300 26.89000 26.59500
C  -2.80600 27.93600 27.21100
C  -2.75700 27.67000 28.53900
C  -3.66000 26.58600 28.73600
C  -2.19200 29.03700 26.38400
C  -2.23300 28.13200 29.79000
O  -1.40600 28.98600 30.07400
C  -2.90300 27.16700 30.84200
C  -1.73400 26.44700 31.46200
O  -1.15500 25.40000 31.03700
O  -1.41500 26.97400 32.72000
C  -0.44300 26.21000 33.51800
H  -6.64200 21.47800 30.44200
H  -6.90800 22.14200 24.00200
H  -3.43500 27.34800 24.53900
H  -3.62200 24.42200 32.37100
H  -6.32000 23.18200 32.23800
H  -3.77200 22.24700 32.87400
H  -4.01200 21.65400 31.29100
H  -5.13600 21.22100 32.63000
H  -6.45300 25.44000 32.65800
H  -5.31300 26.60400 32.14600
H  -5.12200 26.98200 34.44200
H  -3.89600 25.69500 34.15700
H  -8.91600 19.35600 28.47600
H  -7.72800 19.91700 29.73000
H  -7.37400 18.69800 28.45700
H  -8.41100 17.97100 26.36800
H  -9.33100 18.21900 25.02600
H  -9.97000 19.11800 26.42700
H  -6.42700 24.29800 22.44600
H  -3.62500 25.20500 22.85700
H  -4.19600 22.48600 22.70800
H  -4.48800 23.19700 21.08300
H  -5.70100 22.26200 21.87700
H  -5.48500 27.48900 23.12600
H  -5.91900 26.60600 21.72200
H  -3.59300 28.31300 22.13200
H  -4.40500 27.73100 20.65500
H  -3.10900 26.79900 21.25100
H  -2.94900 29.63800 25.88100
H  -1.59900 28.62800 25.56500
H  -1.61300 29.76100 26.95700
H  -3.41800 27.79200 31.57100
H  0.56900 26.56500 33.32100
H  -0.39600 25.13700 33.33500
H  -0.72900 26.34600 34.56100

