158

Mg -1.12000 17.58300 27.26200
C  -1.64000 15.17500 29.74200
C  -1.59000 20.03100 29.48800
C  -0.55900 19.87100 24.71400
C  -0.50900 14.95000 24.90900
N  -1.57900 17.60600 29.35400
C  -1.79200 16.48400 30.23500
C  -2.02100 16.98000 31.71800
C  -2.05700 18.51600 31.49700
C  -1.83700 18.75700 30.00200
C  -3.31400 19.26400 32.18600
C  -0.86700 16.50000 32.65700
C  -0.55400 17.33700 33.92200
H  -0.12600 16.45100 35.12800
N  -1.19400 19.65400 27.07300
C  -1.43200 20.50300 28.13300
C  -1.38800 21.91200 27.67300
C  -0.99500 21.80600 26.27400
C  -0.97100 20.37700 25.94700
C  -1.73700 23.08300 28.53500
C  -0.88600 22.92200 25.25900
O  -0.66900 22.81700 24.03200
C  -1.24600 24.29500 25.85100
N  -0.71700 17.43800 25.12400
C  -0.57600 18.54000 24.26500
C  -0.37400 18.03600 22.82400
C  -0.14000 16.53400 23.01300
C  -0.43100 16.28200 24.46800
C  -1.62800 18.46900 21.89400
C  1.26700 16.04100 22.58100
C  2.46300 16.20700 23.50100
N  -1.17500 15.50900 27.25400
C  -0.83600 14.55400 26.29300
C  -1.11500 13.21400 26.76600
C  -1.37800 13.36600 28.13000
C  -1.38000 14.78700 28.36200
C  -0.96800 11.92000 26.01200
C  -1.65600 12.74600 29.40900
O  -1.69500 11.55900 29.68000
C  -1.88000 13.89100 30.47000
C  -0.94600 13.42400 31.57400
O  0.26600 13.47100 31.51200
O  -1.67000 12.69700 32.50000
C  -0.82000 12.17900 33.56300
H  -1.86500 20.82200 30.18900
H  -0.47200 20.45000 23.79200
H  -0.18400 14.18400 24.20200
H  -2.96500 16.57700 32.08500
H  -1.15200 18.98600 31.88200
H  -2.98300 19.97100 32.94700
H  -3.87800 18.48800 32.70400
H  -3.99100 19.78400 31.50800
H  -0.03100 16.26700 31.99700
H  -1.25300 15.57300 33.08100
H  -1.46100 17.91300 34.10500
H  0.20900 18.08800 33.71700
H  -2.55000 23.60300 28.02900
H  -0.86400 23.71500 28.70000
H  -2.09700 22.83500 29.53300
H  -2.31500 24.34300 26.05400
H  -1.09900 25.05800 25.08600
H  -0.53600 24.45900 26.66200
H  0.50100 18.52800 22.39900
H  -0.92000 15.96000 22.51300
H  -1.81200 19.52500 22.09400
H  -2.45900 17.94800 22.36800
H  -1.50900 18.29100 20.82500
H  1.57600 16.52200 21.65300
H  1.29500 14.96300 22.42600
H  3.38500 16.39500 22.95100
H  2.54900 15.43500 24.26600
H  2.43400 17.15600 24.03700
H  -0.31600 12.11100 25.15900
H  -1.98400 11.68200 25.69800
H  -0.72400 11.06600 26.64400
H  -2.90200 13.90200 30.84900
H  -0.37800 11.21100 33.32300
H  -1.35500 12.14600 34.51200
H  0.01500 12.84600 33.77800
Mg 55.03200 24.32900 45.29200
C  52.55700 26.50800 44.20300
C  53.02800 21.64200 44.32100
C  57.79500 22.33600 45.21600
C  57.10800 27.20100 45.81300
N  53.02700 24.14700 44.37000
C  52.16500 25.19000 44.10500
C  50.87300 24.61700 43.61600
C  50.93600 23.13700 44.17500
C  52.43900 22.95000 44.24900
C  50.16200 22.88200 45.54400
C  50.83500 24.70600 42.06100
C  49.46100 24.96900 41.53200
H  48.88900 24.22700 40.25300
N  55.39000 22.29100 44.86400
C  54.40600 21.32600 44.51700
C  55.01900 20.04800 44.40600
C  56.34700 20.20000 44.78900
C  56.55500 21.66600 44.98200
C  54.22600 18.86900 43.91400
C  57.35200 18.93600 44.88400
O  56.96800 17.78000 44.65500
C  58.80000 19.23400 45.26800
N  57.15300 24.70700 45.40300
C  58.07200 23.69500 45.41800
C  59.51100 24.29900 45.65000
C  59.19900 25.72700 46.00100
C  57.73100 25.94500 45.68800
C  60.36000 23.51600 46.69000
C  60.22700 26.77700 45.51900
C  60.69900 27.87500 46.57600
N  54.85800 26.38400 45.24500
C  55.76100 27.41700 45.52300
C  55.12500 28.66300 45.44800
C  53.80000 28.33000 44.97900
C  53.72000 26.93400 44.78700
C  55.67000 30.02200 45.64600
C  52.53900 28.88400 44.59000
O  52.18100 30.04000 44.75300
C  51.67600 27.71200 43.97300
C  51.56900 28.05000 42.53800
O  52.47500 27.99200 41.71100
O  50.28100 28.51300 42.29400
C  50.25500 29.22400 41.00700
H  52.33000 20.81400 44.17800
H  58.67800 21.70300 45.32000
H  57.71200 28.09600 45.97200
H  50.09400 25.21700 44.08600
H  50.52600 22.42200 43.46200
H  49.54200 21.99100 45.44500
H  49.61200 23.77200 45.84700
H  50.87500 22.70200 46.35000
H  51.23200 23.79000 41.62300
H  51.61300 25.41700 41.78400
H  49.46800 26.03000 41.28400
H  48.67000 24.83600 42.27000
H  54.17100 19.03600 42.83900
H  53.27900 18.75600 44.44200
H  54.69800 17.92500 44.18700
H  59.40400 19.63800 44.45600
H  59.20400 18.25200 45.51300
H  58.76000 19.84200 46.17200
H  59.89900 24.02700 44.66800
H  59.24200 25.86600 47.08100
H  59.66900 22.86200 47.22300
H  60.98100 24.10900 47.36000
H  61.05800 22.96800 46.05700
H  59.75000 27.32700 44.70800
H  61.05600 26.26400 45.03100
H  60.75700 28.80400 46.00800
H  61.59300 27.53900 47.10200
H  60.01000 27.98800 47.41300
H  56.16400 30.00900 46.61800
H  54.74600 30.59900 45.62800
H  56.37800 30.45300 44.93800
H  50.76000 27.57500 44.54700
H  51.17500 29.80900 40.99600
H  49.39100 29.88800 41.00800
H  50.18200 28.49800 40.19700

