158

Mg 17.07900 -2.08600 27.68900
C  16.15500 -0.06800 30.24300
C  19.18300 -3.84200 29.83100
C  18.45000 -3.81900 25.03200
C  15.77000 0.16200 25.40200
N  17.56300 -1.98600 29.79100
C  16.97700 -1.09800 30.69600
C  17.45900 -1.33300 32.15100
C  18.63700 -2.30600 31.88700
C  18.41600 -2.77300 30.38600
C  20.08800 -1.71500 32.05000
C  16.21200 -1.91700 32.91000
C  16.13500 -1.40800 34.41600
H  17.23300 -0.75600 35.19900
N  18.51200 -3.70400 27.43300
C  19.14000 -4.34800 28.44100
C  19.91200 -5.46100 27.96600
C  19.79100 -5.38800 26.57100
C  18.93000 -4.26700 26.25900
C  20.71900 -6.44900 28.85100
C  20.50600 -6.28800 25.47800
O  20.59200 -6.00000 24.29800
C  21.14900 -7.57200 25.97700
N  16.99700 -2.00300 25.52100
C  17.72300 -2.73300 24.65800
C  17.82600 -2.08500 23.24600
C  16.94500 -0.81700 23.35000
C  16.47200 -0.92000 24.85100
C  19.28300 -1.78000 22.78200
C  15.70200 -0.78900 22.37400
C  14.66400 -1.93400 22.42000
N  16.16100 -0.37800 27.69800
C  15.64000 0.53400 26.77600
C  14.95900 1.66100 27.35600
C  15.07900 1.39400 28.77800
C  15.86900 0.21600 28.89600
C  14.09700 2.63000 26.60600
C  14.76400 1.90000 30.08300
O  14.12200 2.89300 30.33600
C  15.53600 1.09000 31.11700
C  16.36100 2.07400 31.85900
O  17.51300 2.37300 31.54100
O  15.65700 2.48800 32.97300
C  16.43100 3.21500 33.99400
H  19.84700 -4.43800 30.46100
H  18.88400 -4.33700 24.17400
H  15.42100 0.94000 24.72000
H  17.88700 -0.41400 32.55000
H  18.49900 -3.01400 32.70300
H  20.61100 -2.03000 31.14700
H  20.46800 -2.28500 32.89800
H  20.03000 -0.65900 32.31200
H  16.15200 -3.00500 32.92400
H  15.22700 -1.77500 32.46500
H  15.83500 -2.26700 35.01700
H  15.30000 -0.71800 34.29600
H  21.74100 -6.07600 28.77900
H  20.59300 -7.48000 28.51800
H  20.27900 -6.48400 29.84700
H  21.60700 -8.20300 25.21500
H  20.30700 -8.05600 26.47100
H  21.94800 -7.16000 26.59400
H  17.33700 -2.86200 22.65900
H  17.47400 0.11300 23.14400
H  19.41800 -2.18000 21.77700
H  19.97000 -2.27400 23.46900
H  19.43000 -0.70000 22.75700
H  16.05900 -0.45500 21.40000
H  15.15300 0.09400 22.70000
H  15.10000 -2.80700 22.90500
H  14.47300 -2.22900 21.38900
H  13.69000 -1.71500 22.86000
H  13.69400 2.19600 25.69000
H  14.61200 3.45000 26.10500
H  13.38400 3.09500 27.28700
H  14.83500 0.49700 31.70600
H  15.73200 3.64500 34.71100
H  17.08200 3.94300 33.51000
H  17.02800 2.49000 34.54700
Mg 46.42900 16.28300 28.21700
C  44.09800 15.80600 30.77900
C  48.48300 17.64600 30.57800
C  48.28200 17.26200 25.66700
C  44.06700 14.92700 25.93300
N  46.25400 16.71100 30.39900
C  45.25500 16.40300 31.18800
C  45.55400 16.82100 32.64800
C  46.86800 17.61300 32.53200
C  47.28700 17.26900 31.09000
C  46.70300 19.15500 32.80400
C  45.74500 15.55400 33.53000
C  46.45300 15.71400 34.91400
H  46.03400 16.83500 35.88500
N  48.18100 17.23500 28.12100
C  48.94700 17.61900 29.19100
C  50.19600 18.23300 28.70200
C  50.18800 18.12000 27.25500
C  48.86200 17.49000 26.93900
C  51.21400 18.78100 29.67600
C  51.24900 18.45500 26.29300
O  51.14400 18.16800 25.09400
C  52.50000 19.16800 26.73500
N  46.17300 16.16500 26.05600
C  47.10100 16.65600 25.25700
C  46.67300 16.46600 23.75100
C  45.44100 15.54700 23.90100
C  45.23600 15.46100 25.37100
C  46.44700 17.81300 23.09600
C  45.58400 14.11800 23.29200
C  44.55500 13.62500 22.38200
N  44.48900 15.54800 28.25800
C  43.65900 15.05300 27.28400
C  42.37300 14.75600 27.91600
C  42.46700 15.02400 29.29900
C  43.78200 15.47700 29.46300
C  41.25200 14.19700 27.12200
C  41.89300 14.97600 30.56600
O  40.83000 14.54700 30.93200
C  42.94400 15.54100 31.59000
C  42.31600 16.61400 32.35600
O  42.05600 17.75300 31.95700
O  42.14700 16.17800 33.64500
C  41.91000 17.26000 34.52200
H  49.08700 18.13300 31.34700
H  48.85700 17.48200 24.76500
H  43.33100 14.57200 25.20900
H  44.80700 17.53600 32.99400
H  47.69700 17.23600 33.13100
H  47.33700 19.35800 33.66700
H  45.65400 19.35100 33.02100
H  47.05500 19.70400 31.93000
H  46.02900 14.70800 32.90400
H  44.77300 15.40000 33.99900
H  47.51100 15.84900 34.69000
H  46.26400 14.74800 35.38300
H  51.85600 19.55200 29.25100
H  51.82800 17.93600 29.98700
H  50.66900 19.35800 30.42300
H  53.14100 18.73200 27.50200
H  52.05200 20.09000 27.10600
H  53.08800 19.35900 25.83800
H  47.53400 16.00300 23.27000
H  44.51200 15.89300 23.45000
H  45.48600 17.97800 22.61000
H  47.26800 17.97400 22.39700
H  46.60100 18.51300 23.91700
H  45.72500 13.37600 24.07800
H  46.59300 13.98400 22.90100
H  44.30700 12.61400 22.70200
H  44.85300 13.49500 21.34200
H  43.63300 14.19500 22.50400
H  40.28900 14.43000 27.57600
H  41.43500 13.12300 27.06900
H  41.27400 14.61100 26.11400
H  43.04100 14.72200 32.30300
H  42.72400 17.97700 34.62600
H  41.84400 16.78200 35.50000
H  40.94200 17.72000 34.32500

