158

Mg 47.63300 16.00000 28.80700
C  45.41600 15.69600 31.39900
C  49.75800 17.66900 31.02300
C  49.59700 16.92900 26.23800
C  45.27100 14.65500 26.66100
N  47.53400 16.65200 30.84900
C  46.59700 16.21900 31.82600
C  47.00200 16.66000 33.24300
C  48.22600 17.62900 33.02400
C  48.52100 17.30800 31.54600
C  48.00400 19.11000 33.24700
C  47.29000 15.48100 34.23100
C  46.89200 15.67400 35.65000
H  46.51500 17.11300 36.06500
N  49.48800 17.09900 28.65900
C  50.18100 17.69800 29.65500
C  51.50000 18.09300 29.21400
C  51.50500 17.83300 27.76000
C  50.18800 17.25500 27.45400
C  52.57700 18.77400 30.04900
C  52.58800 18.12500 26.81700
O  52.43900 17.75500 25.69400
C  53.80800 18.86600 27.07200
N  47.43300 15.73700 26.75800
C  48.40200 16.20900 25.87700
C  47.86500 16.14200 24.44900
C  46.64100 15.20000 24.56100
C  46.42300 15.19000 26.06600
C  47.63900 17.55600 23.82400
C  46.83500 13.79600 23.92000
C  45.93300 13.52100 22.71100
N  45.74800 15.35100 28.91100
C  44.90700 14.80000 28.01100
C  43.70900 14.37400 28.64100
C  43.79400 14.75500 29.95400
C  45.05200 15.38600 30.05100
C  42.59900 13.62900 27.94400
C  43.12700 14.70600 31.27500
O  42.13500 14.10700 31.65900
C  44.18400 15.38900 32.21800
C  43.53800 16.56000 32.77000
O  43.27300 17.58600 32.15600
O  43.00100 16.27400 33.96700
C  42.12700 17.28200 34.58400
H  50.39200 18.04900 31.82700
H  50.13300 17.26400 25.34800
H  44.57300 14.27300 25.91300
H  46.16300 17.24800 33.61500
H  49.11800 17.24100 33.51600
H  46.98200 19.26300 33.59300
H  48.04600 19.54700 32.24900
H  48.69300 19.54500 33.97100
H  48.37500 15.41600 34.15100
H  46.90700 14.57800 33.75600
H  47.63400 15.27500 36.34100
H  46.06300 14.98900 35.83000
H  52.22600 18.76100 31.08000
H  52.73400 19.79200 29.69100
H  53.48900 18.18700 29.93700
H  53.70400 19.56500 27.90200
H  54.13500 19.29000 26.12300
H  54.57300 18.11600 27.27400
H  48.69700 15.76700 23.85200
H  45.82300 15.76400 24.11400
H  47.90200 18.28400 24.59100
H  46.59300 17.65900 23.53500
H  48.23200 17.72600 22.92500
H  46.63100 13.09700 24.73100
H  47.88600 13.59000 23.71700
H  46.54000 13.12300 21.89800
H  45.43000 14.42000 22.35600
H  45.09500 12.85000 22.90000
H  42.78500 12.56700 27.78400
H  42.43300 14.19600 27.02800
H  41.64800 13.66500 28.47500
H  44.51900 14.83300 33.09300
H  41.50900 17.91600 33.94800
H  42.71500 17.95600 35.20700
H  41.41100 16.86400 35.29200
Mg 9.25500 48.27200 25.57300
C  7.33100 48.32700 28.51400
C  11.83700 49.57600 27.39600
C  11.13500 48.27500 22.85000
C  6.38500 47.79100 23.65000
N  9.46100 48.94900 27.66200
C  8.65400 48.81000 28.74900
C  9.33800 49.17900 30.06200
C  10.51000 50.05000 29.57000
C  10.69000 49.47700 28.10300
C  10.13000 51.58600 29.57100
C  9.76400 47.88900 30.83600
C  10.25800 48.09600 32.22700
H  9.90700 46.96500 33.21400
N  11.28200 48.64700 25.23300
C  12.22900 49.14000 26.11200
C  13.54600 49.20500 25.46300
C  13.29400 48.81000 24.13600
C  11.91500 48.55100 24.03000
C  14.79200 49.65100 26.14600
C  14.30500 48.75400 22.93700
O  13.94400 48.33900 21.86500
C  15.73600 49.05500 23.21600
N  8.74000 47.95100 23.50700
C  9.77300 48.08000 22.57300
C  9.17300 47.79000 21.11300
C  7.68800 47.56200 21.38200
C  7.57000 47.84300 22.92100
C  9.62400 48.89700 20.08400
C  7.13900 46.11600 21.07900
C  5.85000 46.05700 20.31700
N  7.27200 48.14500 25.95000
C  6.23500 47.92100 25.07900
C  4.99100 47.82100 25.83500
C  5.38500 47.92800 27.17200
C  6.77600 48.14300 27.14300
C  3.62800 47.45500 25.38400
C  4.96300 47.80500 28.52400
O  3.86600 47.66400 28.97200
C  6.21000 48.02400 29.46400
C  6.46200 46.88600 30.26000
O  6.92500 45.78000 29.96400
O  6.15000 47.27300 31.56800
C  6.29900 46.17000 32.52300
H  12.62300 50.06900 27.97200
H  11.70100 48.27200 21.91600
H  5.45900 47.66400 23.08500
H  8.67800 49.84600 30.61700
H  11.35800 49.92500 30.24300
H  9.10000 51.75800 29.88500
H  10.38700 51.88700 28.55500
H  10.88400 52.04700 30.20800
H  10.45200 47.32400 30.20600
H  8.92800 47.19600 30.73600
H  9.87300 49.05500 32.57600
H  11.34400 48.16600 32.15800
H  14.67700 49.75000 27.22500
H  15.00000 50.63700 25.73200
H  15.62300 48.98200 25.92200
H  16.21100 48.13300 23.55100
H  15.85000 49.89600 23.90100
H  16.03400 49.32300 22.20300
H  9.68600 46.86500 20.85100
H  7.15900 48.34100 20.83300
H  10.11800 49.67900 20.66000
H  8.72900 49.35000 19.65700
H  10.24900 48.50400 19.28200
H  6.98300 45.66200 22.05800
H  7.88000 45.61100 20.46000
H  5.85800 45.74400 19.27300
H  5.36900 47.03200 20.24100
H  5.14800 45.42000 20.85400
H  3.44800 47.34700 24.31500
H  2.93400 48.23100 25.70800
H  3.19800 46.60100 25.90700
H  6.02400 48.92600 30.04700
H  6.95700 46.50100 33.32600
H  6.77200 45.22400 32.26000
H  5.31000 46.02400 32.95900

