158

Mg -2.79100 17.44400 26.80800
C  -2.88400 15.61300 29.80200
C  -3.60000 20.23300 28.68300
C  -2.95300 19.09300 23.95200
C  -3.01800 14.40600 24.93300
N  -3.22700 17.77300 28.98600
C  -3.07300 16.92400 30.03900
C  -3.34000 17.57600 31.41500
C  -3.88100 19.02900 30.96200
C  -3.55700 19.06300 29.41000
C  -5.32300 19.29800 31.40300
C  -2.06800 17.71300 32.37500
C  -2.32500 17.87600 33.86100
H  -1.09200 17.61800 34.73000
N  -3.18700 19.40500 26.39600
C  -3.27900 20.46000 27.29100
C  -3.33600 21.70000 26.53100
C  -3.07300 21.40700 25.16400
C  -3.01900 19.91700 25.12300
C  -3.56700 23.06400 27.16600
C  -2.79700 22.33400 23.96600
O  -2.51200 21.92400 22.85900
C  -3.02700 23.75300 24.08500
N  -2.94000 16.85300 24.73300
C  -2.97500 17.78000 23.77600
C  -3.03500 17.00800 22.30900
C  -2.70600 15.51200 22.72800
C  -2.99200 15.57100 24.22800
C  -4.46700 17.26000 21.65600
C  -1.17600 15.22100 22.43100
C  -0.97900 13.79800 21.73500
N  -2.76500 15.45900 27.18400
C  -2.87500 14.37200 26.37400
C  -2.92900 13.16200 27.20600
C  -2.86900 13.64200 28.49800
C  -2.83100 15.01000 28.46900
C  -3.14200 11.77600 26.77000
C  -2.94700 13.14200 29.84300
O  -3.13100 11.99600 30.18200
C  -2.76000 14.34200 30.81800
C  -1.45400 14.31900 31.44800
O  -0.38100 14.52000 30.84600
O  -1.58700 13.93000 32.76600
C  -0.36000 13.66900 33.59400
H  -3.72900 21.17900 29.21300
H  -2.84200 19.56600 22.97400
H  -2.87400 13.44300 24.43800
H  -4.12800 16.95600 31.84300
H  -3.21200 19.80100 31.34000
H  -5.97700 19.33000 30.53100
H  -5.23800 20.27400 31.88100
H  -5.68500 18.55600 32.11400
H  -1.55100 18.61100 32.03700
H  -1.37500 16.91700 32.10200
H  -3.05500 17.16400 34.24700
H  -2.75300 18.87800 33.83400
H  -4.56800 23.46400 27.00900
H  -2.86400 23.79100 26.76000
H  -3.42500 23.13100 28.24500
H  -3.98300 23.92400 24.58000
H  -3.40100 24.15700 23.14400
H  -2.23700 24.30000 24.59900
H  -2.19900 17.43200 21.75300
H  -3.35700 14.76400 22.27500
H  -5.17000 17.41200 22.47500
H  -4.73500 16.39000 21.05500
H  -4.37100 18.18700 21.09000
H  -0.61200 15.13600 23.36000
H  -0.71000 15.87100 21.69000
H  -0.15000 13.83700 21.02900
H  -1.88500 13.57500 21.17000
H  -0.71500 13.00300 22.43200
H  -2.51300 11.20100 27.44900
H  -2.80300 11.62600 25.74500
H  -4.17200 11.43200 26.86500
H  -3.55000 14.45300 31.56000
H  -0.41500 14.08000 34.60200
H  0.56100 14.04900 33.15200
H  -0.30400 12.58300 33.66700
Mg 47.80500 25.58500 29.76500
C  48.38500 28.03500 32.32400
C  46.79200 23.42700 32.33100
C  47.44800 23.20000 27.44200
C  49.27100 27.72200 27.45200
N  47.59100 25.67800 31.98200
C  47.84200 26.81400 32.79600
C  47.47600 26.54200 34.32700
C  47.36000 24.93500 34.30200
C  47.25400 24.64200 32.75700
C  48.45100 24.13400 35.00400
C  46.13400 27.17500 34.78900
C  46.08100 28.15000 35.90300
H  46.74700 27.78100 37.29700
N  47.06000 23.63000 29.86000
C  46.61100 22.99000 30.95900
C  46.03500 21.72900 30.57400
C  46.19600 21.61700 29.12700
C  46.92000 22.86300 28.74600
C  45.35100 20.78300 31.51100
C  45.71900 20.52400 28.22600
O  45.78800 20.67800 27.03600
C  44.99000 19.32700 28.78800
N  48.41200 25.38300 27.78900
C  48.15000 24.27600 27.00100
C  48.74300 24.44900 25.60100
C  49.21900 26.00200 25.61700
C  48.95700 26.44100 27.00300
C  49.90600 23.45400 25.29700
C  48.53400 26.92300 24.56500
C  48.76000 26.49000 23.10300
N  48.61400 27.51000 29.80400
C  49.19300 28.21300 28.79500
C  49.70900 29.43300 29.30000
C  49.42000 29.47200 30.64800
C  48.81000 28.18800 30.95900
C  50.50900 30.46400 28.54000
C  49.49600 30.32700 31.93800
O  49.89300 31.48900 32.09200
C  48.92600 29.30800 33.13900
C  50.00600 28.88800 34.12000
O  51.16500 28.56200 33.77100
O  49.58600 28.83400 35.45100
C  50.64800 28.57300 36.52000
H  46.40200 22.68400 33.03000
H  47.32200 22.53200 26.58700
H  49.61700 28.50300 26.77200
H  48.36400 26.67800 34.94500
H  46.44600 24.57200 34.77200
H  48.99700 24.56100 35.84600
H  49.21700 23.93300 34.25500
H  47.98200 23.25500 35.44700
H  45.40200 26.37700 34.91800
H  45.84200 27.72300 33.89400
H  45.00700 28.22400 36.07500
H  46.32400 29.15300 35.55100
H  44.36300 20.52500 31.12700
H  45.35900 21.18600 32.52300
H  45.92300 19.86800 31.66200
H  45.40900 18.89600 29.69800
H  44.73100 18.58000 28.03700
H  44.06200 19.83800 29.04200
H  47.95900 24.29200 24.86100
H  50.27700 26.13500 25.38900
H  50.04600 22.83700 26.18500
H  50.86900 23.94300 25.14900
H  49.69600 22.70500 24.53300
H  48.92200 27.94000 24.63000
H  47.46500 26.97500 24.77200
H  47.77200 26.22800 22.72400
H  49.41500 25.62000 23.08000
H  49.21300 27.37200 22.64900
H  50.05000 30.68800 27.57700
H  51.45200 29.95800 28.33500
H  50.54300 31.37200 29.14200
H  48.17100 29.67300 33.83500
H  51.27400 27.76500 36.14000
H  50.04700 28.34100 37.39900
H  51.20600 29.45400 36.83700

