158

Mg 0.70700 7.87600 25.23100
C  1.55900 9.86600 28.17600
C  1.04800 5.07900 27.17700
C  0.00000 6.32000 22.56900
C  0.88000 10.97100 23.41200
N  1.14200 7.51200 27.44000
C  1.54100 8.51200 28.42800
C  1.71400 7.77300 29.82200
C  1.76700 6.24300 29.37200
C  1.36300 6.28500 27.89100
C  3.22900 5.56800 29.60100
C  0.39600 8.07400 30.74000
C  0.65800 8.46900 32.18000
H  1.80000 7.74700 32.88100
N  0.61600 5.99100 24.85300
C  0.70600 4.91600 25.77700
C  0.36000 3.73000 25.08000
C  0.04600 4.01900 23.71600
C  0.15200 5.52200 23.62200
C  0.28400 2.39800 25.92500
C  -0.24500 3.04100 22.57900
O  -0.44700 3.34900 21.44200
C  -0.02900 1.61600 22.84800
N  0.35300 8.56800 23.32400
C  0.06000 7.74200 22.36000
C  -0.37100 8.46800 21.05100
C  -0.19700 9.97700 21.42600
C  0.39600 9.83400 22.78700
C  0.42500 8.05600 19.76100
C  -1.61100 10.74300 21.45300
C  -1.71600 12.08900 20.79500
N  1.07200 10.02100 25.64100
C  1.08800 11.10000 24.77800
C  1.38800 12.32000 25.51500
C  1.52800 11.86900 26.86000
C  1.31700 10.43300 26.88200
C  1.42200 13.61100 24.86900
C  1.81700 12.25000 28.17300
O  2.02000 13.34500 28.62200
C  1.81800 11.01600 29.12000
C  3.16500 10.86600 29.62400
O  4.27200 10.90100 29.07500
O  2.97700 10.93900 30.97200
C  4.17900 11.19700 31.86400
H  0.92900 4.15100 27.73900
H  -0.34600 5.75200 21.70200
H  0.78100 11.87100 22.80200
H  2.68900 7.96300 30.27000
H  1.05000 5.54300 29.80100
H  3.84500 6.21100 30.23000
H  3.74700 5.27400 28.68800
H  3.05100 4.61900 30.10700
H  -0.33600 7.28100 30.58800
H  -0.05400 8.93300 30.24100
H  -0.28400 8.32200 32.70800
H  0.85000 9.53900 32.25700
H  1.04200 1.67600 25.62500
H  -0.63200 1.82400 25.78800
H  0.47400 2.62400 26.97400
H  -0.13300 1.14500 21.87000
H  -0.76200 1.28400 23.58300
H  1.00200 1.34600 23.07700
H  -1.38500 8.29900 20.68600
H  0.48500 10.53600 20.78500
H  1.09400 7.25200 20.06700
H  0.96300 8.90700 19.34400
H  -0.18300 7.66700 18.94500
H  -1.96900 10.87200 22.47500
H  -2.41400 10.13800 21.03200
H  -2.56300 12.13700 20.11100
H  -0.78000 12.13800 20.23900
H  -1.65900 12.97000 21.43400
H  1.17300 14.33200 25.64800
H  0.73600 13.71600 24.02800
H  2.45100 13.79700 24.56300
H  1.03800 11.21100 29.85600
H  4.59500 12.20400 31.83700
H  4.96600 10.47200 31.65700
H  3.85200 10.95200 32.87400
Mg 16.39600 52.57300 26.24700
C  18.19900 50.89100 28.81100
C  14.31500 53.77200 28.61500
C  14.48400 53.91600 23.74000
C  18.52500 51.12400 23.89700
N  16.21600 52.19700 28.45900
C  17.09700 51.55800 29.30700
C  16.79200 51.87900 30.78800
C  15.42600 52.50400 30.70500
C  15.30900 52.95100 29.19600
C  14.24200 51.49200 31.11100
C  17.76500 52.92000 31.48100
C  18.01300 52.83100 33.03000
H  16.99000 52.03500 33.85500
N  14.54600 53.63500 26.19800
C  13.88500 54.07700 27.23500
C  12.84000 55.04100 26.85600
C  12.84100 55.05000 25.42600
C  13.93700 54.12300 25.02900
C  12.01100 55.72100 27.88000
C  11.97700 55.87100 24.53500
O  12.03900 55.77400 23.34500
C  10.93500 56.80200 25.16600
N  16.34100 52.35700 24.14700
C  15.52800 53.14600 23.33400
C  16.04500 53.05300 21.89700
C  17.48100 52.46600 22.07300
C  17.46000 51.91200 23.42100
C  15.10300 52.17900 21.01800
C  18.72400 53.34000 21.75900
C  19.69100 52.81900 20.69900
N  17.95400 51.09400 26.30500
C  18.74400 50.70600 25.22500
C  19.81000 49.82000 25.78900
C  19.67900 49.90500 27.16600
C  18.53000 50.64700 27.45000
C  20.88200 49.12700 25.05300
C  20.13400 49.45300 28.44000
O  21.10900 48.69900 28.71100
C  19.25300 50.19800 29.54300
C  18.68300 49.11100 30.45800
O  18.07000 48.07700 30.13500
O  19.09400 49.50500 31.70900
C  19.06200 48.38700 32.68000
H  13.71700 54.24200 29.39800
H  13.97600 54.43000 22.92100
H  19.28600 50.89300 23.14900
H  16.82300 51.00300 31.43600
H  15.25700 53.39600 31.30900
H  14.69400 50.64100 31.62000
H  13.74900 51.07100 30.23400
H  13.56900 52.07500 31.73900
H  17.32700 53.90500 31.32000
H  18.71200 53.02900 30.95300
H  18.22500 53.78400 33.51500
H  18.96000 52.30100 33.14100
H  12.07500 56.79300 27.69700
H  12.21400 55.33200 28.87700
H  10.94600 55.57700 27.69700
H  10.38400 56.11300 25.80500
H  10.28500 57.19100 24.38100
H  11.51400 57.56500 25.68700
H  15.99100 54.08000 21.53600
H  17.52500 51.54500 21.49100
H  14.18700 51.81800 21.48500
H  15.59900 51.37000 20.48100
H  14.70900 52.97000 20.38000
H  19.28700 53.55100 22.66800
H  18.29500 54.25100 21.34100
H  19.52500 53.38300 19.78100
H  19.37100 51.78000 20.62700
H  20.75200 52.83900 20.94800
H  21.10700 49.77500 24.20600
H  20.47300 48.20400 24.64100
H  21.84000 48.98100 25.55200
H  19.97700 50.78800 30.10500
H  19.00800 47.43700 32.14700
H  18.02600 48.32800 33.01300
H  19.67700 48.42400 33.57900

