158

Mg 26.31400 -0.01300 29.46700
C  27.86800 0.10200 32.53600
C  23.18800 0.21500 31.33300
C  24.42800 -0.29200 26.64600
C  29.15400 -0.91100 27.84200
N  25.53300 0.13600 31.68200
C  26.44800 0.29600 32.73900
C  25.74900 0.55500 34.12500
C  24.28400 0.50000 33.68500
C  24.32500 0.24600 32.17000
C  23.43100 -0.54900 34.37500
C  26.07800 1.85500 34.99800
C  26.61000 1.51500 36.39500
H  26.43100 2.45500 37.54000
N  24.12600 0.04900 29.03800
C  23.10200 0.11500 29.90700
C  21.85500 0.17700 29.18200
C  22.18900 0.00400 27.80900
C  23.64100 -0.00700 27.75100
C  20.53900 0.54900 29.84800
C  21.22000 -0.02100 26.63600
O  21.62000 -0.11600 25.47300
C  19.72700 0.15700 26.80000
N  26.66800 -0.70800 27.58300
C  25.76600 -0.65400 26.55700
C  26.42200 -0.91700 25.17800
C  27.96200 -1.07600 25.54400
C  27.90900 -0.93800 27.10200
C  25.78200 -2.07500 24.37000
C  28.82100 0.07700 24.92900
C  28.85000 1.46600 25.55000
N  28.13900 -0.45100 30.01700
C  29.25100 -0.73000 29.24400
C  30.39200 -0.76000 30.06800
C  29.98500 -0.39800 31.35300
C  28.51100 -0.27300 31.34100
C  31.85500 -1.00100 29.69200
C  30.36700 -0.08500 32.70500
O  31.48600 0.13600 33.21200
C  29.08100 0.17100 33.54000
C  29.00300 -0.87200 34.64900
O  28.64900 -2.01600 34.47600
O  29.45900 -0.31600 35.78500
C  29.26400 -1.19700 36.89400
H  22.28800 0.30800 31.94300
H  23.89400 -0.34900 25.69500
H  30.03400 -1.11400 27.22700
H  26.10200 -0.39100 34.53600
H  23.84100 1.49500 33.72200
H  22.59900 -0.00200 34.81800
H  23.97900 -1.04100 35.17800
H  23.14800 -1.38900 33.74100
H  25.26100 2.56800 35.11300
H  26.75600 2.51300 34.45400
H  27.68600 1.35900 36.31900
H  26.10300 0.59500 36.68700
H  20.08200 1.35800 29.27800
H  20.73500 0.96600 30.83600
H  19.88900 -0.31300 30.00300
H  19.23200 -0.00200 25.84200
H  19.54000 1.16500 27.17100
H  19.32300 -0.56200 27.51300
H  26.20900 -0.02100 24.59500
H  28.35000 -2.06400 25.29500
H  24.74700 -2.25500 24.66100
H  26.33300 -3.01500 24.40600
H  25.68700 -1.67400 23.36100
H  28.48300 0.25900 23.90800
H  29.82000 -0.35400 24.86400
H  28.34500 1.56600 26.51000
H  28.41100 2.16400 24.83700
H  29.86900 1.72500 25.83800
H  32.15600 -1.98700 30.04600
H  32.48200 -0.33000 30.27900
H  31.95800 -0.78000 28.63000
H  29.08500 1.16300 33.99100
H  29.77200 -2.12500 36.63300
H  28.19000 -1.28600 37.05800
H  29.69100 -0.66700 37.74600
Mg -5.67100 25.31600 26.34300
C  -4.09900 27.11900 28.90300
C  -6.76400 23.18300 28.75300
C  -6.87500 23.43700 23.86500
C  -4.06000 27.25000 24.03000
N  -5.37800 25.13000 28.50100
C  -4.95300 26.12000 29.29500
C  -5.44500 25.91600 30.71600
C  -5.97600 24.48800 30.67500
C  -6.04400 24.29700 29.19700
C  -5.19100 23.35200 31.41100
C  -6.40400 27.04500 31.05700
C  -6.50400 27.47200 32.54300
H  -6.00900 26.50800 33.57900
N  -6.73100 23.59400 26.30900
C  -7.11600 22.83700 27.38700
C  -7.96500 21.76600 26.97300
C  -8.08900 21.80700 25.51800
C  -7.16900 22.97200 25.16900
C  -8.83300 20.89700 27.86700
C  -8.81000 20.89300 24.51200
O  -8.84900 21.18000 23.30800
C  -9.56800 19.76700 24.84000
N  -5.39200 25.30900 24.24300
C  -6.09800 24.48300 23.44200
C  -5.72800 24.71100 21.92200
C  -5.05000 26.12500 22.02300
C  -4.79200 26.22400 23.49400
C  -4.82100 23.65100 21.33200
C  -5.90300 27.30700 21.47700
C  -5.84500 27.56200 19.97600
N  -4.26600 26.77100 26.40400
C  -3.73800 27.55900 25.39500
C  -2.87100 28.52300 25.92500
C  -3.01200 28.37900 27.34400
C  -3.86400 27.32300 27.55600
C  -2.17200 29.65700 25.15600
C  -2.61200 28.96100 28.58100
O  -1.93300 29.96800 28.74500
C  -3.41600 28.18700 29.75200
C  -2.50200 27.51500 30.74600
O  -1.70900 26.69100 30.41400
O  -2.71200 27.97600 32.01200
C  -1.97300 27.48000 33.11500
H  -7.05100 22.45100 29.51100
H  -7.45100 22.95300 23.07400
H  -3.50000 27.85400 23.31400
H  -4.58800 25.98200 31.38700
H  -6.94900 24.39700 31.15700
H  -5.94500 22.94700 32.08700
H  -4.49900 23.76100 32.14800
H  -4.72200 22.60700 30.76900
H  -7.38300 26.69000 30.73500
H  -6.18900 27.94400 30.48000
H  -7.57500 27.58500 32.71100
H  -5.90600 28.35500 32.76700
H  -8.70400 21.21600 28.90100
H  -8.54100 19.84800 27.81700
H  -9.90000 21.04300 27.69800
H  -9.86600 19.17700 23.97300
H  -10.49000 20.02900 25.35900
H  -8.90800 19.12700 25.42400
H  -6.59700 24.86400 21.28200
H  -4.20600 26.13700 21.33400
H  -4.75500 22.73800 21.92400
H  -3.81100 23.92700 21.03100
H  -5.34800 23.29700 20.44500
H  -5.57100 28.23000 21.95200
H  -6.98100 27.21600 21.61600
H  -5.24300 26.82800 19.44100
H  -5.45300 28.55900 19.77500
H  -6.81000 27.33000 19.52600
H  -1.43000 30.22100 25.72100
H  -2.84200 30.32400 24.61400
H  -1.62100 29.26900 24.29900
H  -4.13700 28.82300 30.26700
H  -1.18000 26.80000 32.80400
H  -2.68600 27.04000 33.81200
H  -1.46000 28.33500 33.55700

