158

Mg 28.64800 59.25500 41.47900
C  26.16100 57.19600 39.91300
C  31.10000 57.25100 39.95100
C  30.65000 61.72600 42.05600
C  25.95200 61.11900 42.74500
N  28.56200 57.32500 40.19700
C  27.44600 56.78600 39.54300
C  27.83800 55.61200 38.59600
C  29.35900 55.47300 38.98300
C  29.68100 56.74400 39.72800
C  29.67200 54.29800 39.87500
C  27.71600 55.94900 37.09200
C  27.22600 54.70700 36.25300
H  26.44100 54.86300 34.97900
N  30.62000 59.41800 41.21700
C  31.46300 58.45900 40.64700
C  32.75300 58.94200 40.61100
C  32.76600 60.28100 41.17300
C  31.36200 60.56200 41.51100
C  33.90100 58.02800 40.13400
C  34.00300 61.11300 41.33500
O  35.10900 60.61800 41.06600
C  33.97300 62.47000 41.94200
N  28.26200 61.16700 42.22900
C  29.30300 61.94100 42.48000
C  28.95700 63.27600 43.10100
C  27.57400 62.94300 43.61800
C  27.18900 61.69100 42.78500
C  29.96300 63.78500 44.11100
C  26.48600 64.11600 43.47000
C  25.93200 64.75200 44.74400
N  26.42900 59.20000 41.36100
C  25.54400 59.97900 42.02200
C  24.26000 59.47700 41.86000
C  24.43700 58.32900 41.04300
C  25.79900 58.21600 40.76400
C  22.92000 59.94300 42.52800
C  23.69200 57.33700 40.39500
O  22.45600 57.21300 40.24000
C  24.81100 56.49900 39.65400
C  24.72200 55.23500 40.32500
O  24.83000 55.15600 41.49300
O  24.52700 54.19700 39.40500
C  24.34700 52.85400 40.05100
H  31.74900 56.50900 39.48000
H  31.27800 62.58500 42.30100
H  25.22100 61.76800 43.23100
H  27.23200 54.74300 38.84800
H  30.01900 55.47400 38.11600
H  30.63200 53.81700 39.68500
H  28.88500 53.55200 39.98800
H  29.81800 54.62200 40.90500
H  28.71800 56.05600 36.67500
H  27.08700 56.79100 36.80500
H  26.57500 54.03500 36.81300
H  28.14100 54.17200 35.99900
H  33.93500 57.80700 39.06800
H  33.71300 57.02100 40.50600
H  34.89500 58.31900 40.47400
H  33.04700 62.98900 41.69600
H  34.91100 62.97000 41.70100
H  33.93300 62.45800 43.03100
H  28.82500 63.99200 42.29000
H  27.62500 62.69600 44.67800
H  29.51500 64.07200 45.06200
H  30.53300 64.65800 43.79400
H  30.74500 63.06700 44.35600
H  25.58700 63.82600 42.92500
H  27.01700 64.92500 42.96800
H  24.88800 64.45000 44.82600
H  26.03700 65.83700 44.76800
H  26.43200 64.38400 45.64000
H  22.07700 59.50700 41.99100
H  22.93100 60.98400 42.20200
H  22.95800 59.66400 43.58100
H  24.67400 56.32300 38.58700
H  23.27300 52.66900 40.07700
H  24.84600 52.73900 41.01300
H  24.58800 52.02200 39.38900
Mg -1.38400 34.28100 28.10300
C  -3.16000 32.55700 30.47100
C  -0.26600 36.44300 30.63300
C  0.32200 36.00000 25.64200
C  -2.79600 32.22400 25.57200
N  -1.73700 34.38600 30.28100
C  -2.46400 33.56700 31.03700
C  -2.32400 33.89700 32.56700
C  -1.59700 35.26300 32.55900
C  -1.11700 35.35100 31.07800
C  -2.62700 36.43100 32.90900
C  -1.53000 32.83200 33.42400
C  -2.36300 32.22100 34.57800
H  -1.51600 32.07500 35.84500
N  -0.10700 36.02400 28.12500
C  0.11900 36.83000 29.26500
C  0.98000 37.85500 28.82700
C  1.29900 37.69000 27.47400
C  0.51900 36.55100 26.98800
C  1.33300 38.87000 29.88100
C  2.25800 38.53300 26.56900
O  2.33400 38.31200 25.36400
C  3.03800 39.64700 27.17400
N  -1.22100 34.19800 25.90800
C  -0.38400 34.89600 25.18300
C  -0.44800 34.42300 23.71600
C  -1.18000 33.06000 23.80000
C  -1.79500 33.12700 25.19300
C  -1.14100 35.42300 22.78500
C  -0.39000 31.69400 23.64200
C  0.73000 31.43900 24.68100
N  -2.73100 32.74900 27.98400
C  -3.28000 32.07000 26.94000
C  -4.21400 31.07800 27.39100
C  -4.07800 31.10600 28.79000
C  -3.26000 32.20900 29.09400
C  -5.03900 30.19800 26.57000
C  -4.49500 30.47900 30.06900
O  -5.23600 29.56000 30.39600
C  -3.95900 31.40200 31.15900
C  -5.17800 31.89100 31.95700
O  -6.14800 32.48300 31.41400
O  -5.07700 31.52400 33.24200
C  -6.20000 31.82900 34.17000
H  0.06200 36.98300 31.52300
H  0.98800 36.45000 24.90300
H  -3.20300 31.55000 24.81500
H  -3.37000 33.94900 32.86900
H  -0.76300 35.36000 33.25400
H  -3.01000 36.89200 31.99900
H  -2.02300 37.15400 33.45800
H  -3.42000 36.01000 33.52700
H  -0.59600 33.28100 33.76100
H  -1.25000 32.03000 32.74200
H  -2.76500 31.23900 34.32800
H  -3.14900 32.94500 34.79300
H  0.74600 39.77400 29.71900
H  2.38700 39.07400 29.69000
H  1.19500 38.59400 30.92600
H  3.53300 40.40000 26.56000
H  3.80300 39.19100 27.80200
H  2.30200 40.19600 27.76200
H  0.59200 34.25400 23.43700
H  -2.03200 32.96500 23.12700
H  -0.60700 35.51800 21.84000
H  -1.26200 36.42700 23.19100
H  -2.14500 35.14800 22.46100
H  0.05200 31.74800 22.64700
H  -0.97600 30.77500 23.65300
H  0.89500 30.45400 25.11800
H  0.74300 32.15100 25.50700
H  1.67000 31.62000 24.16000
H  -5.72000 30.76800 25.93800
H  -5.63700 29.68500 27.32400
H  -4.38100 29.52100 26.02600
H  -3.30500 30.88700 31.86300
H  -6.57300 30.91200 34.62700
H  -7.00300 32.37900 33.68100
H  -5.85500 32.49400 34.96200

