158

Mg 34.63700 2.79900 29.96800
C  32.18200 3.77600 32.29800
C  37.11800 3.24200 32.36400
C  36.88500 1.77500 27.70700
C  32.23500 3.19400 27.43700
N  34.65700 3.69500 32.12000
C  33.53500 3.95100 32.85100
C  33.88100 3.97700 34.30800
C  35.48300 4.09700 34.26800
C  35.81500 3.60500 32.81400
C  36.21900 5.46800 34.48900
C  33.36400 2.59800 34.95500
C  33.38200 2.59100 36.47900
H  33.90900 3.80300 37.28000
N  36.71400 2.52900 30.00000
C  37.57200 2.76100 31.11400
C  38.92400 2.33700 30.80300
C  38.90500 1.86000 29.45300
C  37.46100 2.06600 28.97900
C  40.09800 2.46900 31.74200
C  40.07800 1.28700 28.67600
O  40.02100 0.92300 27.51100
C  41.45500 1.15900 29.29700
N  34.58000 2.49900 27.92100
C  35.62700 2.01900 27.15800
C  35.33800 2.22000 25.70900
C  33.72900 2.31000 25.74000
C  33.47900 2.73100 27.10000
C  36.01700 3.57400 25.35200
C  33.05800 0.96900 25.36000
C  33.15900 0.65500 23.86900
N  32.59200 3.25300 29.88200
C  31.80300 3.48000 28.78000
C  30.44900 3.75000 29.20300
C  30.56900 3.86600 30.57600
C  31.90200 3.60800 30.93300
C  29.20500 3.83900 28.30100
C  29.80200 4.10900 31.78300
O  28.58200 4.31400 31.97800
C  30.83800 4.00300 32.94200
C  30.81600 5.25200 33.66400
O  31.23500 6.36200 33.24900
O  30.15200 5.06200 34.79700
C  30.23400 6.09100 35.81200
H  37.78000 3.25500 33.23200
H  37.65500 1.49000 26.98700
H  31.50100 3.20500 26.62800
H  33.36400 4.86600 34.66900
H  35.82700 3.52300 35.12800
H  35.55400 6.17900 34.98100
H  36.37000 5.89500 33.49800
H  37.14700 5.33400 35.04500
H  34.06600 1.84400 34.59900
H  32.38800 2.27400 34.59400
H  34.07600 1.78000 36.70200
H  32.35800 2.42000 36.81000
H  40.83600 3.08000 31.22300
H  40.53500 1.52400 32.06500
H  39.75700 2.95500 32.65600
H  41.69300 2.13400 29.72200
H  42.16000 0.85500 28.52400
H  41.49200 0.34200 30.01800
H  35.79400 1.41500 25.13300
H  33.43600 3.13600 25.09200
H  36.71500 3.96900 26.09000
H  35.25900 4.31800 25.10600
H  36.60800 3.36600 24.46000
H  32.01000 0.89200 25.64900
H  33.53000 0.22900 26.00700
H  32.39300 1.14600 23.26900
H  33.13300 -0.41400 23.65800
H  34.16300 0.95200 23.56600
H  28.80700 2.83500 28.14900
H  29.45900 4.52400 27.49200
H  28.37300 4.34900 28.78700
H  30.58000 3.18300 33.61200
H  31.23500 6.32400 36.17500
H  29.69000 5.85700 36.72700
H  29.65000 6.96600 35.52700
Mg 27.88900 51.40900 26.26800
C  25.79400 52.49700 28.98200
C  30.31300 50.72200 28.60500
C  29.92600 50.74400 23.72000
C  25.58100 52.83500 24.08500
N  27.94100 51.43400 28.42000
C  26.98900 51.89800 29.32600
C  27.54600 51.80600 30.83600
C  28.98300 51.30000 30.70200
C  29.10600 51.12700 29.13600
C  30.01100 52.34100 31.34800
C  26.49800 50.91900 31.67600
C  27.07300 50.27200 32.90200
H  26.69200 50.72800 34.33900
N  29.74200 50.61400 26.18900
C  30.58100 50.44400 27.25300
C  31.79200 49.87100 26.80200
C  31.65500 49.66200 25.38100
C  30.46100 50.42200 25.00500
C  32.91900 49.51000 27.79600
C  32.60600 49.00700 24.43400
O  32.52900 48.97900 23.19500
C  33.86200 48.37400 24.94200
N  27.78900 51.82900 24.19500
C  28.78400 51.44800 23.31600
C  28.51200 51.87800 21.90100
C  27.11100 52.53300 22.08300
C  26.77200 52.41000 23.53700
C  29.66300 52.82600 21.32300
C  25.99000 52.02400 21.13000
C  25.79600 52.84400 19.84100
N  26.01900 52.35100 26.43800
C  25.20900 52.83700 25.49300
C  23.90900 53.33200 26.05800
C  24.12800 53.18000 27.44600
C  25.41300 52.63900 27.62300
C  22.76300 53.96700 25.28100
C  23.52500 53.39200 28.77400
O  22.45200 53.90500 29.12600
C  24.57300 52.90300 29.76600
C  24.86800 53.95100 30.63900
O  25.86900 54.67500 30.52600
O  24.06700 53.87200 31.76500
C  24.53600 54.49300 32.98900
H  31.02900 50.56700 29.41400
H  30.67500 50.48700 22.96800
H  24.80400 53.25200 23.44000
H  27.39700 52.76300 31.33600
H  29.26200 50.33300 31.12200
H  30.54800 51.81900 32.14000
H  29.47900 53.14700 31.85400
H  30.77000 52.68200 30.64500
H  26.01600 50.29800 30.92000
H  25.75300 51.61800 32.05500
H  28.10200 50.63200 32.92100
H  27.01400 49.18400 32.92500
H  32.85000 48.45800 28.07300
H  33.03600 50.12500 28.68800
H  33.80400 49.75100 27.20800
H  33.57600 47.65900 25.71400
H  34.47600 49.18900 25.32500
H  34.47400 47.92500 24.16000
H  28.37000 50.99300 21.28100
H  27.20800 53.60500 21.91300
H  29.45500 53.85200 21.01900
H  30.01700 52.30300 20.43500
H  30.44000 52.81500 22.08700
H  24.98100 52.02900 21.54300
H  26.27800 51.05500 20.72400
H  24.74400 52.79900 19.55800
H  26.23800 52.33700 18.98400
H  26.19100 53.86000 19.84900
H  21.79300 53.83000 25.75700
H  22.85700 53.67600 24.23500
H  22.92300 55.04500 25.30400
H  24.17200 52.07200 30.34700
H  25.19300 55.32400 32.73300
H  24.94300 53.78600 33.71200
H  23.68000 54.92700 33.50500

