158

Mg 30.59000 60.16600 39.12600
C  27.73200 58.41700 38.07600
C  32.48700 57.37800 38.40600
C  33.41800 62.01900 39.50100
C  28.57800 63.01800 39.36500
N  30.16200 58.13900 38.19400
C  28.94000 57.70400 37.85700
C  29.12500 56.30700 37.32400
C  30.52200 55.91700 37.82700
C  31.10700 57.25600 38.10900
C  30.72800 54.94800 39.06000
C  28.96900 56.14200 35.67800
C  28.42600 54.84200 35.10700
H  27.08200 55.13200 34.40000
N  32.70400 59.70100 38.98000
C  33.26200 58.49200 38.78700
C  34.67500 58.52900 39.03500
C  35.01500 59.95500 39.22500
C  33.70700 60.63400 39.22900
C  35.60200 57.30300 38.87200
C  36.40100 60.51600 39.50100
O  37.36400 59.73400 39.51500
C  36.71200 62.01700 39.87000
N  30.99400 62.20500 39.33100
C  32.24700 62.76300 39.54500
C  32.20600 64.30600 39.77500
C  30.65400 64.50900 39.83100
C  30.00200 63.19400 39.45500
C  32.99300 64.97600 40.96800
C  30.16400 65.77300 39.09400
C  29.19300 66.68000 39.88500
N  28.53600 60.62500 38.99900
C  27.88100 61.79900 39.19400
C  26.48700 61.66300 38.96100
C  26.38100 60.37300 38.52600
C  27.64400 59.78700 38.54700
C  25.36900 62.59900 38.96700
C  25.46300 59.33000 38.10800
O  24.26800 59.34300 37.89800
C  26.30600 58.07200 37.76600
C  25.79500 56.89400 38.55600
O  25.40000 56.87600 39.72100
O  25.68400 55.84700 37.72900
C  25.35100 54.52200 38.22900
H  33.00800 56.44000 38.20400
H  34.23600 62.70400 39.73500
H  27.97900 63.92700 39.45300
H  28.35200 55.67600 37.76300
H  31.01800 55.43800 36.98200
H  31.56500 54.26500 38.92000
H  29.86900 54.27900 39.11300
H  30.88800 55.50500 39.98400
H  29.93300 56.34600 35.21100
H  28.37200 56.96900 35.29400
H  28.09500 54.14900 35.88000
H  29.12100 54.30700 34.45900
H  35.13000 56.56100 38.22700
H  35.75900 56.85900 39.85500
H  36.55600 57.60500 38.44200
H  37.78000 62.05400 40.08500
H  36.18700 62.23100 40.80100
H  36.41000 62.72300 39.09700
H  32.57200 64.68100 38.81900
H  30.45500 64.48600 40.90200
H  33.67800 64.26700 41.43300
H  32.39200 65.43400 41.75400
H  33.73300 65.68700 40.60100
H  29.48700 65.50700 38.28200
H  30.95100 66.40000 38.67600
H  28.68600 66.07300 40.63400
H  28.42100 67.09200 39.23400
H  29.60800 67.60800 40.28000
H  24.39900 62.10300 39.01300
H  25.42600 63.09000 37.99500
H  25.48900 63.27300 39.81400
H  26.20400 57.83600 36.70700
H  25.25000 53.85300 37.37500
H  24.38900 54.51100 38.74300
H  26.02100 54.06500 38.95700
Mg -5.01700 25.10800 26.73200
C  -3.43900 26.58500 29.56000
C  -6.42200 22.92400 28.89900
C  -6.45700 23.70400 24.15000
C  -2.94000 27.21700 24.62200
N  -4.94100 24.81000 29.02200
C  -4.31300 25.58600 29.95500
C  -4.71300 25.19400 31.38400
C  -5.14300 23.66000 31.00600
C  -5.55100 23.77900 29.57800
C  -3.85500 22.72900 31.17800
C  -5.80800 26.16500 32.02000
C  -5.48200 26.91100 33.31300
H  -4.80600 26.05200 34.42900
N  -6.36200 23.62600 26.55600
C  -6.94100 22.84900 27.58100
C  -7.82700 21.81800 27.06100
C  -7.85400 22.10800 25.69300
C  -6.87200 23.17400 25.39500
C  -8.57800 20.75100 27.84100
C  -8.79900 21.51200 24.63300
O  -8.69800 21.81500 23.46600
C  -9.88100 20.42500 24.93100
N  -4.67300 25.38500 24.73700
C  -5.57300 24.76100 23.83900
C  -5.37800 25.30400 22.46600
C  -4.23600 26.42200 22.59900
C  -3.87400 26.36400 24.08300
C  -5.11200 24.25900 21.33300
C  -4.60000 27.89100 22.03400
C  -3.58300 28.49700 20.98100
N  -3.51700 26.65400 26.96100
C  -2.72800 27.35400 26.04600
C  -1.81500 28.16500 26.73100
C  -2.10700 27.92800 28.12200
C  -3.12900 26.96900 28.20400
C  -0.85300 29.21100 26.07000
C  -1.65300 28.23000 29.43600
O  -0.69500 28.90100 29.77400
C  -2.65500 27.44700 30.44300
C  -1.68200 26.81800 31.39200
O  -1.29900 25.65400 31.22900
O  -1.35300 27.64800 32.45900
C  -0.44200 27.01000 33.41600
H  -6.90200 22.18000 29.53800
H  -7.07000 23.51100 23.26700
H  -2.43500 27.85100 23.89000
H  -3.77700 25.24400 31.93900
H  -5.96500 23.41500 31.67900
H  -3.97500 22.28200 32.16500
H  -2.96000 23.35000 31.21900
H  -3.82000 21.88800 30.48500
H  -6.76300 25.66500 32.17900
H  -5.96200 26.80700 31.15300
H  -6.38700 27.36000 33.72100
H  -4.71700 27.64300 33.05600
H  -8.29200 20.80400 28.89200
H  -8.39100 19.71600 27.55800
H  -9.65500 20.91300 27.88300
H  -9.39900 19.46000 25.08800
H  -10.47900 20.40800 24.02000
H  -10.41000 20.68800 25.84700
H  -6.28100 25.85400 22.20100
H  -3.39300 26.05200 22.01700
H  -4.63500 24.62800 20.42500
H  -6.05900 24.04200 20.83800
H  -4.78300 23.28400 21.69300
H  -4.82000 28.64100 22.79500
H  -5.55500 27.80800 21.51500
H  -3.49300 29.58000 21.06600
H  -4.08100 28.22600 20.05000
H  -2.54200 28.17300 20.98500
H  -0.66600 28.93500 25.03200
H  0.06200 29.26800 26.66000
H  -1.20600 30.24100 26.01700
H  -3.22500 28.09200 31.11100
H  0.38400 26.60200 32.83400
H  -1.01000 26.28000 33.99300
H  -0.14800 27.78600 34.12200

