158

Mg 48.05600 44.67900 42.42800
C  44.53800 44.07300 42.28500
C  48.43800 41.20800 42.40600
C  51.32400 45.21100 42.04700
C  47.27500 48.16100 42.07700
N  46.67000 42.85600 42.35500
C  45.29300 42.90700 42.35500
C  44.65100 41.50900 42.22200
C  45.87900 40.52500 42.42400
C  47.05300 41.54000 42.41100
C  45.73000 39.64500 43.65400
C  43.83500 41.14300 40.88300
C  43.98200 42.06100 39.58000
H  43.58500 41.54700 38.18000
N  49.64900 43.43000 42.19800
C  49.55900 42.04600 42.27300
C  50.86900 41.57100 42.28200
C  51.78300 42.67000 42.26300
C  50.93000 43.86000 42.12600
C  51.19500 40.07500 42.19100
C  53.21900 42.50900 42.33500
O  53.65900 41.40000 42.59300
C  54.21100 43.60800 42.21700
N  49.10000 46.47600 41.93700
C  50.47800 46.40000 41.97400
C  51.03600 47.77400 41.62100
C  49.78900 48.70300 41.83000
C  48.61600 47.76400 41.98500
C  52.21400 48.25800 42.49500
C  49.64700 49.94100 40.78900
C  49.27600 51.24100 41.53100
N  46.30600 45.90100 42.24500
C  46.15900 47.25000 42.14400
C  44.71400 47.65200 42.15600
C  44.01000 46.45600 42.19400
C  45.03400 45.38900 42.20300
C  44.16900 48.97300 42.10500
C  42.69700 45.85700 42.25400
O  41.54500 46.29200 42.29300
C  43.04100 44.29200 42.43100
C  42.52100 43.84600 43.75600
O  41.57300 43.10300 43.88800
O  43.19500 44.36800 44.80600
C  42.61000 44.18200 46.12700
H  48.65100 40.13800 42.38500
H  52.39400 45.35200 41.88300
H  46.99800 49.21700 42.07900
H  43.86900 41.40900 42.97500
H  45.95700 39.88500 41.54500
H  46.34600 40.04700 44.45800
H  45.99400 38.63300 43.34800
H  44.70100 39.54000 43.99800
H  42.77000 41.23600 41.09200
H  43.95700 40.11000 40.55500
H  45.02300 42.38400 39.56400
H  43.48900 43.01500 39.76600
H  52.12300 39.90500 41.64500
H  50.44700 39.61500 41.54600
H  51.07200 39.62100 43.17400
H  54.12800 44.14700 41.27300
H  55.19500 43.30700 42.57600
H  53.91400 44.39700 42.90800
H  51.25900 47.83000 40.55500
H  49.95200 49.17700 42.79800
H  53.09800 47.94600 41.93900
H  52.18700 47.69900 43.43000
H  52.08800 49.33900 42.56500
H  48.85100 49.59000 40.13300
H  50.57800 50.11900 40.25000
H  50.15200 51.88100 41.42200
H  49.16400 51.18700 42.61400
H  48.33800 51.59300 41.10000
H  43.10900 48.79600 41.91900
H  44.53200 49.49500 41.21900
H  44.24800 49.65200 42.95400
H  42.48600 43.78300 41.64300
H  41.62300 44.58200 46.35900
H  43.44300 44.35600 46.80800
H  42.52500 43.10200 46.24200
Mg -11.25300 18.28400 42.23300
C  -7.86000 17.39000 41.79500
C  -10.42500 21.53300 41.22200
C  -14.53600 19.14700 42.27800
C  -12.03400 14.89900 42.35300
N  -9.41200 19.28800 41.58600
C  -8.09000 18.75000 41.56100
C  -7.04100 19.72300 40.90000
C  -7.86300 21.08600 40.97500
C  -9.31600 20.60300 41.32400
C  -7.34800 22.12500 42.02500
C  -6.73000 19.23500 39.38500
C  -5.22100 19.13000 39.01300
H  -4.89100 19.27000 37.49400
N  -12.38000 20.15600 41.86700
C  -11.85400 21.37100 41.44500
C  -12.88500 22.39800 41.47300
C  -14.04500 21.73400 41.92600
C  -13.68300 20.22700 41.97600
C  -12.63200 23.79800 41.13800
C  -15.42800 22.36300 42.20700
O  -15.57500 23.53400 42.16900
C  -16.62700 21.58600 42.58500
N  -13.03800 17.17300 42.44100
C  -14.29400 17.76600 42.40400
C  -15.35600 16.62600 42.55000
C  -14.58500 15.31600 42.73000
C  -13.11900 15.79200 42.37800
C  -16.33300 16.80000 43.65400
C  -15.13300 14.23300 41.76900
C  -14.72400 14.34800 40.29800
N  -10.19700 16.51200 42.13800
C  -10.67100 15.24900 42.21300
C  -9.52200 14.30900 42.23000
C  -8.39100 15.13800 42.13000
C  -8.84900 16.41700 41.93800
C  -9.54300 12.88600 42.48800
C  -6.93200 15.12900 42.02200
O  -6.19300 14.17300 42.22800
C  -6.57800 16.61100 41.74300
C  -5.50400 17.10300 42.69000
O  -4.46000 17.58100 42.37200
O  -5.83200 16.87100 44.05800
C  -4.74500 17.12900 45.00100
H  -9.97600 22.45500 40.84700
H  -15.61200 19.28300 42.40500
H  -12.30000 13.84300 42.43700
H  -6.11700 19.88600 41.45500
H  -7.88500 21.53900 39.98400
H  -8.19500 22.34700 42.67500
H  -6.98900 23.03400 41.54300
H  -6.64600 21.68300 42.73200
H  -7.13700 19.96800 38.68900
H  -7.24600 18.30500 39.15000
H  -5.05200 18.06800 39.18700
H  -4.57600 19.78300 39.60200
H  -12.98400 24.37700 41.99200
H  -13.23100 23.91600 40.23500
H  -11.61200 24.09900 40.90100
H  -17.08500 20.93000 41.84400
H  -17.38200 22.22900 43.03700
H  -16.29100 21.02500 43.45700
H  -15.84300 16.62200 41.57500
H  -14.58600 14.84400 43.71300
H  -17.35400 16.71200 43.28200
H  -16.25400 17.79200 44.09700
H  -16.33900 16.10100 44.49000
H  -16.21600 14.20700 41.88900
H  -14.84800 13.22300 42.06300
H  -15.49700 14.12800 39.56300
H  -13.89800 13.64600 40.18200
H  -14.28400 15.30800 40.02600
H  -10.46800 12.51700 42.04300
H  -9.44100 12.66900 43.55100
H  -8.71800 12.38600 41.98100
H  -6.00900 16.61100 40.81300
H  -4.47900 16.15100 45.40300
H  -5.14400 17.77400 45.78500
H  -3.83700 17.63900 44.67700

