158

Mg 24.35100 -6.20100 45.42300
C  26.61600 -3.64200 44.31700
C  21.85700 -4.46500 43.85800
C  22.72500 -8.97900 45.69100
C  27.10600 -7.61500 47.01800
N  24.33200 -4.42000 43.99200
C  25.28300 -3.50100 43.80000
C  24.70200 -2.36800 42.88600
C  23.15000 -2.47500 43.02400
C  23.09400 -3.88700 43.72500
C  22.39700 -1.43800 43.87700
C  25.22400 -2.51200 41.40600
C  25.77100 -1.16100 40.73300
H  25.35100 -0.82100 39.27300
N  22.42800 -6.55500 45.05900
C  21.53800 -5.72700 44.44400
C  20.26700 -6.36700 44.41300
C  20.46200 -7.72500 44.79700
C  21.90800 -7.84700 45.28400
C  19.05700 -5.80600 43.79700
C  19.42900 -8.78000 44.72100
O  18.33600 -8.57100 44.24600
C  19.65300 -10.17900 45.25300
N  24.87300 -8.05400 46.21500
C  24.02500 -9.06000 46.20600
C  24.62500 -10.38200 46.78300
C  26.00400 -9.89700 47.36600
C  26.00400 -8.44600 46.86800
C  23.65100 -11.24100 47.63600
C  27.31800 -10.62500 46.80600
C  28.37600 -10.99300 47.83000
N  26.41900 -5.74300 45.67200
C  27.36600 -6.35600 46.40900
C  28.63500 -5.64700 46.28500
C  28.33900 -4.56800 45.48300
C  27.01900 -4.62300 45.11000
C  29.95500 -6.22800 46.79900
C  28.97700 -3.39000 44.91100
O  30.06300 -2.96900 45.05500
C  27.81600 -2.72900 44.08700
C  27.53400 -1.31100 44.45400
O  27.05300 -0.88300 45.45600
O  27.82900 -0.49600 43.42000
C  27.63400 0.94500 43.62900
H  20.93400 -3.95000 43.58200
H  22.16600 -9.90500 45.54100
H  27.96200 -8.13700 47.45000
H  24.97900 -1.34000 43.12400
H  22.67900 -2.58200 42.04700
H  23.09800 -0.67900 44.22400
H  22.01300 -1.91000 44.78100
H  21.55500 -0.92100 43.41600
H  24.38600 -2.76000 40.75300
H  25.94400 -3.32200 41.29000
H  26.82300 -1.43600 40.65300
H  25.59000 -0.34100 41.42900
H  18.17400 -6.37200 44.09300
H  19.25400 -5.84200 42.72600
H  18.92000 -4.76200 44.08000
H  18.76000 -10.77800 45.07700
H  19.92100 -10.12300 46.30800
H  20.42300 -10.63900 44.63400
H  24.76100 -11.02900 45.91700
H  25.93700 -9.96900 48.45100
H  24.12100 -11.57800 48.56000
H  23.22800 -12.08600 47.09300
H  22.83500 -10.56200 47.88200
H  27.67900 -10.22600 45.85800
H  26.84300 -11.56600 46.52900
H  28.54500 -12.06900 47.79800
H  28.10100 -10.69000 48.84000
H  29.33100 -10.57600 47.50900
H  30.71500 -5.45800 46.93100
H  30.23400 -7.10400 46.21400
H  29.83500 -6.51700 47.84300
H  28.03100 -2.69600 43.01900
H  27.78400 1.46600 42.68400
H  28.33200 1.42200 44.31700
H  26.68200 1.36200 43.95700
Mg -6.44700 25.80700 25.57500
C  -4.45400 27.04600 28.11200
C  -7.65000 23.47500 27.77400
C  -8.03400 24.37200 22.95900
C  -4.80500 28.03100 23.31000
N  -6.14100 25.41300 27.68700
C  -5.30300 26.08500 28.54200
C  -5.56100 25.56000 29.98400
C  -6.26100 24.16300 29.80400
C  -6.74700 24.34000 28.33600
C  -5.36000 22.87300 29.98400
C  -6.41000 26.60600 30.79300
C  -6.28300 26.53500 32.37400
H  -5.67900 25.30400 33.09200
N  -7.77100 24.15000 25.39700
C  -8.10900 23.32800 26.43900
C  -9.03800 22.30700 25.94300
C  -9.17200 22.54700 24.51800
C  -8.25600 23.66400 24.20800
C  -9.78600 21.40300 26.91100
C  -9.98900 21.88000 23.41800
O  -10.03100 22.21500 22.24100
C  -10.96800 20.72900 23.78900
N  -6.32400 26.11600 23.47600
C  -7.20100 25.45200 22.59900
C  -6.85900 25.83000 21.15900
C  -6.20000 27.20500 21.32800
C  -5.72400 27.14300 22.79900
C  -6.00900 24.73700 20.31500
C  -7.28200 28.39700 21.27400
C  -7.50500 29.03300 19.88500
N  -4.91100 27.19800 25.66200
C  -4.36000 28.07500 24.67000
C  -3.37900 28.94200 25.30400
C  -3.40100 28.53800 26.62200
C  -4.32100 27.48400 26.79000
C  -2.62300 30.02100 24.64800
C  -2.78500 28.84600 27.92700
O  -1.86900 29.61800 28.13800
C  -3.52100 27.94100 29.00000
C  -2.56900 27.23800 29.84800
O  -1.74400 26.48900 29.34900
O  -2.74500 27.55400 31.11200
C  -1.89700 26.81800 32.01600
H  -7.82000 22.72500 28.54900
H  -8.46400 23.96500 22.04100
H  -4.63000 28.85000 22.60900
H  -4.66200 25.37400 30.57200
H  -7.00000 24.22200 30.60300
H  -5.22300 22.52100 28.96100
H  -6.04500 22.20200 30.50200
H  -4.40400 23.07000 30.47000
H  -7.40800 26.34000 30.44600
H  -6.23700 27.62300 30.44100
H  -7.31100 26.51700 32.73500
H  -5.94700 27.46300 32.83700
H  -9.21400 21.35500 27.83700
H  -10.04300 20.46600 26.41600
H  -10.76000 21.87500 27.03700
H  -11.64900 20.66100 22.94000
H  -11.46300 21.04100 24.70800
H  -10.45100 19.80800 24.05800
H  -7.75200 25.89000 20.53600
H  -5.46300 27.34600 20.53700
H  -5.11500 25.22500 19.92600
H  -6.46600 24.35200 19.40300
H  -5.84900 23.78500 20.82100
H  -6.86000 29.21300 21.86100
H  -8.27100 28.14200 21.65500
H  -6.88200 29.91300 19.72500
H  -8.55500 29.32600 19.85800
H  -7.41300 28.34200 19.04700
H  -3.29000 30.77200 24.22400
H  -2.24800 29.45800 23.79300
H  -1.81500 30.44300 25.24500
H  -4.12400 28.66500 29.54700
H  -2.33000 25.95600 32.52300
H  -1.81400 27.48900 32.87100
H  -0.86300 26.61900 31.73400

