158

Mg 25.47300 1.65400 29.46300
C  27.68400 1.31600 32.37100
C  22.86400 1.70700 31.56100
C  23.59800 2.06400 26.80100
C  28.21500 0.96600 27.52600
N  25.33000 1.41000 31.73400
C  26.30500 1.48000 32.70700
C  25.69600 1.69000 34.05600
C  24.12100 1.59300 33.84900
C  24.10400 1.56100 32.28000
C  23.37800 0.35600 34.45300
C  26.18100 2.87200 34.87300
C  26.76900 2.68700 36.26300
H  26.59300 3.80800 37.31900
N  23.44700 1.93900 29.27700
C  22.50400 1.85500 30.21900
C  21.19900 2.06500 29.76200
C  21.35900 2.20100 28.30300
C  22.85000 2.05300 28.06100
C  19.94800 2.06100 30.66100
C  20.29400 2.31800 27.19500
O  20.55800 2.49800 26.00400
C  18.82900 2.28000 27.65200
N  25.97600 1.72900 27.43100
C  24.96300 2.01800 26.52200
C  25.59000 2.09600 25.08700
C  27.06300 1.61800 25.33100
C  27.09200 1.34000 26.86900
C  24.85700 1.42800 23.86100
C  28.07200 2.68900 24.75300
C  28.29100 3.97700 25.64400
N  27.58600 1.31400 29.82400
C  28.55900 0.91900 28.92600
C  29.81500 0.67300 29.58200
C  29.55000 0.80400 30.93700
C  28.15800 1.20100 31.03600
C  31.15700 0.36600 28.83500
C  30.10700 0.77200 32.19400
O  31.19500 0.47200 32.62400
C  28.94000 1.16000 33.25800
C  28.94100 0.06700 34.18000
O  28.52400 -1.05500 33.92100
O  29.52200 0.43100 35.43500
C  29.35700 -0.65100 36.46000
H  22.14500 1.93400 32.35100
H  22.96800 2.09200 25.90900
H  29.09200 0.68600 26.93800
H  25.95600 0.84900 34.69800
H  23.65900 2.51500 34.20200
H  24.03000 -0.28500 35.04700
H  22.95700 -0.25900 33.65700
H  22.57600 0.75900 35.07100
H  25.55600 3.76400 34.90000
H  27.02700 3.24500 34.29500
H  27.83400 2.75400 36.04000
H  26.64800 1.66900 36.63600
H  20.21900 2.17500 31.71100
H  19.52200 1.06100 30.58800
H  19.20700 2.82400 30.42500
H  18.79000 1.28300 28.09200
H  18.14100 2.38700 26.81300
H  18.60700 3.11300 28.31900
H  25.53800 3.16900 24.90000
H  27.23900 0.68400 24.79600
H  24.00700 0.84900 24.21900
H  25.52900 0.71000 23.39200
H  24.59200 2.14700 23.08600
H  27.68900 3.06800 23.80600
H  28.97000 2.18400 24.39500
H  29.36900 4.11900 25.72200
H  27.80800 3.93200 26.62000
H  27.82900 4.79000 25.08400
H  31.25000 -0.68100 28.54700
H  32.01000 0.43600 29.51000
H  31.35300 0.98600 27.96000
H  29.17100 2.11900 33.72200
H  28.58900 -0.34800 37.17200
H  30.27700 -0.79700 37.02700
H  29.18000 -1.66100 36.09000
Mg 28.23500 55.84800 39.98900
C  25.95500 53.33200 39.24600
C  30.69400 53.61900 39.02300
C  30.41900 58.34700 39.84700
C  25.61600 58.03300 40.19200
N  28.31300 53.72400 39.19500
C  27.25600 52.88000 39.03100
C  27.66700 51.46100 38.69500
C  29.24800 51.54100 38.90500
C  29.45200 53.02900 39.12700
C  29.90100 50.74000 40.11700
C  27.19300 51.10700 37.29300
C  27.92500 51.68800 36.11000
H  27.10300 52.33000 34.91200
N  30.29500 55.94500 39.68600
C  31.13300 54.89200 39.37200
C  32.47500 55.31700 39.41700
C  32.45900 56.69100 39.70000
C  31.06100 57.06300 39.71900
C  33.70600 54.41300 39.20600
C  33.60400 57.56000 39.88500
O  34.79000 57.17100 39.71400
C  33.50000 59.09000 40.20600
N  28.05100 57.94300 39.86700
C  29.06700 58.76600 40.03000
C  28.58800 60.24600 40.18400
C  27.06300 60.10900 40.48400
C  26.84600 58.64100 40.07700
C  29.39200 61.15100 41.15000
C  26.17100 61.11300 39.70900
C  25.27300 62.06500 40.53900
N  26.21600 55.77900 39.87900
C  25.28300 56.78100 39.88700
C  23.95100 56.22100 39.86100
C  24.15800 54.88000 39.62700
C  25.58200 54.68300 39.46100
C  22.64200 56.98100 40.22600
C  23.54500 53.58900 39.50100
O  22.36900 53.22000 39.60000
C  24.68100 52.52600 39.23100
C  24.65200 51.50900 40.27300
O  24.13900 50.39500 40.08200
O  25.51500 51.79200 41.34000
C  25.92300 50.68000 42.19000
H  31.49700 52.91400 38.79600
H  31.16500 59.14100 39.92300
H  24.79200 58.70900 40.42700
H  27.16200 50.82800 39.42400
H  29.62300 51.12800 37.96900
H  29.14700 49.95400 40.15100
H  29.80500 51.38500 40.99000
H  30.91100 50.42500 39.85500
H  26.11700 51.13000 37.12200
H  27.49300 50.06300 37.21400
H  28.55600 50.86500 35.77400
H  28.57200 52.51300 36.40600
H  33.90700 54.39600 38.13500
H  33.41900 53.45600 39.64300
H  34.47400 54.78500 39.88400
H  32.81000 59.36500 41.00300
H  33.24900 59.69000 39.33100
H  34.50600 59.37700 40.51500
H  28.66300 60.60600 39.15800
H  26.98100 60.20400 41.56700
H  30.27000 60.64600 41.55300
H  28.81300 61.55700 41.98000
H  29.71700 62.04400 40.61600
H  25.55300 60.58200 38.98400
H  26.86200 61.65100 39.06000
H  25.93100 62.74800 41.07700
H  24.64800 61.52700 41.25100
H  24.68700 62.62500 39.81000
H  22.33000 57.59600 39.38200
H  22.91700 57.59000 41.08700
H  21.84100 56.30000 40.51500
H  24.46100 52.15800 38.22900
H  27.00400 50.67700 42.32400
H  25.73600 49.65900 41.86000
H  25.48900 50.69800 43.19000

