158

Mg 17.48100 -0.72900 27.81400
C  16.59800 1.12100 30.64900
C  19.30600 -2.91000 29.92900
C  19.15300 -2.09200 25.09100
C  16.04500 1.65200 25.78600
N  17.97100 -0.78700 30.04100
C  17.40100 0.00100 30.99600
C  17.82200 -0.42000 32.39400
C  18.80800 -1.62700 32.13900
C  18.61500 -1.84800 30.61800
C  20.28100 -1.39800 32.48100
C  16.59900 -0.67600 33.44900
C  16.93200 -0.54400 34.91300
H  18.25700 0.06600 35.32000
N  18.90600 -2.41900 27.59100
C  19.49200 -3.19900 28.52900
C  20.23300 -4.27500 27.90700
C  20.11700 -4.04600 26.55400
C  19.39800 -2.83100 26.30700
C  20.92600 -5.27200 28.70500
C  20.76000 -4.81100 25.34100
O  20.53100 -4.55200 24.16300
C  21.73400 -5.98000 25.65500
N  17.58500 -0.32100 25.71200
C  18.24000 -1.08700 24.80700
C  17.85300 -0.62200 23.36800
C  16.80500 0.44500 23.58700
C  16.82100 0.67000 25.12100
C  19.17200 -0.17500 22.50800
C  15.45500 0.13900 23.02700
C  14.39900 -0.67900 23.89600
N  16.48600 1.04400 28.09000
C  15.85300 1.86400 27.15100
C  15.11700 2.92600 27.82600
C  15.37600 2.67500 29.27100
C  16.22400 1.48900 29.33800
C  14.31200 4.02600 27.17700
C  15.05600 3.08300 30.62400
O  14.24600 3.96700 30.97100
C  15.95400 2.19300 31.51200
C  16.86100 3.01100 32.33400
O  18.04200 3.18100 32.13800
O  16.09500 3.62800 33.27500
C  16.86200 4.47200 34.24400
H  19.75000 -3.48000 30.74800
H  19.53000 -2.42200 24.12100
H  15.50600 2.36800 25.16100
H  18.36200 0.43000 32.81000
H  18.32500 -2.48300 32.61300
H  20.64600 -2.37800 32.78800
H  20.42900 -0.52200 33.11200
H  20.87700 -1.16500 31.59900
H  16.29300 -1.67600 33.14300
H  15.85000 0.09900 33.29000
H  16.76100 -1.47000 35.46300
H  16.18400 0.09300 35.38400
H  21.99600 -5.07100 28.64900
H  20.68100 -6.25300 28.29800
H  20.81100 -5.12400 29.77900
H  21.19400 -6.81200 26.10700
H  22.49500 -5.66100 26.36700
H  22.07900 -6.24500 24.65500
H  17.47300 -1.44900 22.76800
H  17.13900 1.35900 23.09700
H  20.02600 -0.27100 23.17900
H  19.02900 0.88100 22.27800
H  19.38900 -0.69200 21.57300
H  15.54700 -0.48700 22.14000
H  15.01400 1.10700 22.78900
H  13.52600 -0.14500 24.27000
H  14.88200 -1.04500 24.80200
H  13.96900 -1.48900 23.30600
H  14.11400 3.99000 26.10600
H  14.71300 4.96000 27.57100
H  13.33900 3.89500 27.65100
H  15.13300 1.80600 32.11700
H  16.17500 5.25800 34.55700
H  17.62700 5.01900 33.69200
H  17.22600 4.07400 35.19100
Mg 25.86300 0.76200 29.22100
C  27.77400 0.36800 31.98800
C  23.18700 1.43700 31.22400
C  24.08200 1.23500 26.49000
C  28.63300 -0.19700 27.10900
N  25.59900 0.84500 31.39300
C  26.49300 0.72800 32.40200
C  25.98200 1.00100 33.84300
C  24.47000 1.15000 33.51300
C  24.40800 1.27500 31.93700
C  23.52900 -0.07800 33.94700
C  26.68500 2.15300 34.73200
C  27.30000 1.65600 36.08300
H  27.29500 2.59300 37.28200
N  23.85400 1.19300 28.91400
C  22.91700 1.43800 29.85700
C  21.71100 1.74100 29.18800
C  21.98500 1.76500 27.83200
C  23.35300 1.44200 27.71000
C  20.39500 1.89200 29.93600
C  20.98900 1.97600 26.66800
O  21.26800 1.95400 25.49200
C  19.52100 2.29100 26.99400
N  26.37500 0.64800 27.14100
C  25.41000 0.89800 26.24600
C  25.93800 0.66700 24.75400
C  27.31400 0.08400 25.02000
C  27.53600 0.23700 26.53500
C  24.97700 -0.15400 23.80400
C  28.44400 0.78500 24.14400
C  29.07100 2.16900 24.49700
N  27.80500 0.22800 29.43800
C  28.80300 -0.22000 28.47900
C  29.97500 -0.60200 29.24600
C  29.63400 -0.46700 30.59800
C  28.34500 0.12600 30.68000
C  31.24500 -1.06900 28.64400
C  30.16600 -0.55400 31.89000
O  31.22900 -0.86400 32.33600
C  29.03200 0.09500 32.85600
C  28.68700 -0.99900 33.84200
O  27.96600 -1.95400 33.58100
O  29.24300 -0.76200 35.07700
C  29.03800 -1.83400 36.03100
H  22.34700 1.78400 31.82900
H  23.54100 1.43400 25.56200
H  29.49600 -0.50000 26.51200
H  26.20900 0.04300 34.31000
H  24.16400 2.13900 33.85300
H  24.04800 -0.52100 34.79700
H  23.49100 -0.81200 33.14200
H  22.51800 0.25300 34.18500
H  26.02100 2.99100 34.93900
H  27.58700 2.37700 34.16200
H  28.33400 1.36200 35.90100
H  26.62000 0.85000 36.35700
H  19.82100 1.05500 29.54000
H  19.83800 2.78100 29.63900
H  20.33100 1.83200 31.02300
H  19.01500 2.49200 26.04900
H  19.31100 3.15200 27.62700
H  19.08400 1.33800 27.29300
H  26.05300 1.64000 24.27600
H  27.28300 -0.99500 24.86900
H  25.63500 -0.51600 23.01300
H  24.13300 0.44600 23.46400
H  24.58100 -1.04600 24.29000
H  27.98800 0.84500 23.15600
H  29.17100 -0.02600 24.17200
H  29.99500 1.88900 25.00300
H  28.59400 2.74100 25.29300
H  29.19900 2.82500 23.63600
H  32.02400 -0.30800 28.60300
H  31.03800 -1.30000 27.59900
H  31.58000 -1.99400 29.11300
H  29.35500 0.91000 33.50400
H  29.81600 -1.76300 36.79100
H  29.16000 -2.84300 35.63600
H  28.11600 -1.68000 36.59100

