158

Mg 3.07700 -0.31100 44.99500
C  6.57200 0.35400 44.68700
C  2.60300 2.44100 42.89400
C  -0.04500 -1.10300 44.95400
C  3.99700 -3.49900 46.43200
N  4.40400 1.16600 43.89400
C  5.78000 1.16600 43.90300
C  6.36900 2.26300 42.98200
C  5.08500 3.08300 42.71100
C  3.95900 2.16600 43.11600
C  4.90200 4.52700 43.26800
C  7.14300 1.59600 41.81200
C  8.59700 2.07200 41.48200
H  9.05200 2.00700 40.07700
N  1.49000 0.61700 44.16700
C  1.48500 1.69500 43.39300
C  0.06600 2.01900 43.08900
C  -0.74100 0.97300 43.55300
C  0.19200 0.11800 44.35000
C  -0.35600 3.29000 42.35800
C  -2.24500 0.79800 43.27800
O  -2.77700 1.63400 42.57300
C  -2.97900 -0.34200 43.76500
N  2.18100 -2.07600 45.52600
C  0.82800 -2.12900 45.42800
C  0.35700 -3.52000 45.78500
C  1.57000 -4.30500 46.41600
C  2.67000 -3.28300 46.03800
C  -0.81100 -3.55900 46.76100
C  1.94600 -5.72400 45.83800
C  0.74000 -6.65900 45.37700
N  4.87500 -1.40600 45.51900
C  5.03600 -2.61900 46.15300
C  6.45800 -2.73200 46.49100
C  7.06400 -1.60400 45.92600
C  6.09100 -0.80900 45.33800
C  7.14300 -3.76300 47.25900
C  8.32900 -0.91200 45.73600
O  9.45300 -1.17600 46.05800
C  8.06700 0.33300 44.91700
C  8.49300 1.47000 45.79400
O  7.88500 1.83300 46.83000
O  9.68300 1.99800 45.28800
C  9.93700 3.36800 45.80600
H  2.35100 3.25700 42.21300
H  -1.08400 -1.44100 44.95600
H  4.17000 -4.43500 46.96600
H  7.04900 2.84800 43.60100
H  5.06300 3.07100 41.62100
H  4.93400 5.20600 42.41500
H  5.78700 4.76100 43.86100
H  3.94800 4.64900 43.78100
H  6.58200 1.85600 40.91500
H  7.05400 0.51600 41.69200
H  9.34200 1.59000 42.11400
H  8.76800 3.10900 41.77200
H  -0.90400 3.07500 41.44100
H  0.48700 3.93800 42.11900
H  -1.12100 3.71000 43.01000
H  -4.04500 -0.16700 43.61900
H  -2.71900 -0.49000 44.81300
H  -2.71000 -1.26800 43.25800
H  0.13800 -3.90600 44.79000
H  1.57700 -4.26200 47.50500
H  -0.89400 -2.66700 47.38100
H  -0.81900 -4.48000 47.34400
H  -1.70800 -3.68500 46.15500
H  2.56300 -6.27100 46.55200
H  2.60800 -5.72400 44.97200
H  0.96800 -7.69400 45.63100
H  0.60300 -6.72200 44.29700
H  -0.25500 -6.38400 45.72700
H  7.20200 -4.71700 46.73500
H  6.56500 -3.78900 48.18400
H  8.12400 -3.40800 47.57500
H  8.57100 0.38200 43.95200
H  10.35500 4.02100 45.03900
H  10.62500 3.43400 46.64800
H  9.03600 3.91100 46.09000
Mg 26.12600 1.21000 28.82500
C  28.24700 0.77400 31.63800
C  23.54400 1.75600 31.13100
C  23.96600 1.54500 26.30400
C  28.62400 0.52200 26.74200
N  25.93400 1.19700 31.20100
C  26.97900 1.13700 32.08600
C  26.36400 1.09900 33.46000
C  24.88500 1.52100 33.31500
C  24.75800 1.45000 31.76800
C  23.83300 0.67600 34.18000
C  27.17000 1.96200 34.53100
C  26.44300 2.92100 35.40000
H  27.14800 3.12900 36.71700
N  24.10200 1.61500 28.75700
C  23.20100 1.81700 29.76100
C  21.87500 2.15600 29.15200
C  22.02100 1.80100 27.79900
C  23.42900 1.61200 27.55300
C  20.67200 2.55700 30.01600
C  20.87500 1.79600 26.73400
O  21.02200 1.42100 25.61200
C  19.42700 1.92700 27.20800
N  26.25900 1.20700 26.84200
C  25.26000 1.37700 25.99500
C  25.79600 1.37600 24.58700
C  27.33700 1.13500 24.72400
C  27.46200 1.04400 26.19900
C  25.20700 0.41000 23.55400
C  28.23900 2.30200 24.25600
C  28.44100 3.47400 25.25600
N  27.99100 0.53300 29.03100
C  28.92400 0.31700 28.09000
C  30.18100 -0.00700 28.70400
C  29.97900 0.19100 30.08100
C  28.61800 0.45000 30.26200
C  31.42900 -0.53000 28.03000
C  30.66100 0.21100 31.35200
O  31.82300 -0.11800 31.59600
C  29.52800 0.61500 32.43100
C  29.57400 -0.46000 33.48500
O  29.47200 -1.65400 33.27900
O  29.76800 0.03800 34.68700
C  29.64400 -0.81000 35.91800
H  22.77300 2.03700 31.85200
H  23.31700 1.64600 25.43200
H  29.43300 0.25200 26.06000
H  26.34000 0.04800 33.74700
H  24.75400 2.57600 33.55500
H  23.12600 0.15100 33.53800
H  23.19300 1.30000 34.80400
H  24.40300 -0.00600 34.81100
H  27.92600 2.48900 33.95000
H  27.77900 1.32100 35.16900
H  25.50700 2.38700 35.55900
H  26.15300 3.86800 34.94500
H  20.83600 3.17300 30.89900
H  20.21600 1.62300 30.34300
H  19.98900 3.14600 29.40300
H  19.29800 1.36100 28.13100
H  18.83000 1.55700 26.37500
H  19.38300 3.01500 27.24600
H  25.51400 2.38900 24.29900
H  27.70100 0.13700 24.47900
H  24.54400 1.08500 23.01200
H  24.62900 -0.36600 24.05600
H  26.07200 0.06200 22.99000
H  27.71700 2.51200 23.32200
H  29.23100 1.85800 24.16900
H  27.96500 3.37200 26.23200
H  27.90200 4.33700 24.86300
H  29.46100 3.76700 25.50500
H  31.71700 0.19600 27.27000
H  31.31800 -1.47200 27.49400
H  32.29500 -0.54000 28.69100
H  29.89300 1.53600 32.88500
H  30.58900 -1.12800 36.35800
H  29.04600 -1.66400 35.60100
H  29.22700 -0.21200 36.72800

