158

Mg 17.42700 -1.41000 27.74100
C  16.36500 0.46200 30.41300
C  19.46600 -3.29100 29.96700
C  18.68300 -3.15800 25.15900
C  15.76000 0.57900 25.60000
N  17.78200 -1.46700 29.92700
C  17.15300 -0.61600 30.84200
C  17.61200 -0.91200 32.23800
C  18.69000 -2.03600 32.07500
C  18.67800 -2.25600 30.52000
C  20.16300 -1.65600 32.51000
C  16.42400 -1.17300 33.31800
C  16.56500 -0.43300 34.69700
H  17.75000 -0.82700 35.55900
N  18.73000 -3.06000 27.60100
C  19.45000 -3.71200 28.62100
C  20.00100 -4.98800 28.12200
C  19.81600 -4.91800 26.73500
C  19.03800 -3.68900 26.45900
C  20.64000 -6.12100 28.95600
C  20.37100 -5.79600 25.69700
O  20.28700 -5.61700 24.49800
C  21.10300 -7.09500 26.08600
N  17.32300 -1.18600 25.66900
C  17.92400 -2.04500 24.78500
C  17.73500 -1.63300 23.29600
C  16.60100 -0.55100 23.54300
C  16.56000 -0.37900 25.02500
C  19.07500 -1.07000 22.64500
C  15.25100 -0.78000 22.95400
C  14.62100 0.36500 22.12700
N  16.28100 0.23200 27.89900
C  15.63600 0.93800 26.93600
C  14.86100 2.03300 27.59200
C  15.13900 1.87200 29.02000
C  16.02100 0.81700 29.11700
C  13.98300 3.01100 26.97800
C  14.85600 2.40400 30.28200
O  14.18100 3.40200 30.60700
C  15.67500 1.51200 31.25000
C  16.69400 2.36300 31.82600
O  17.80700 2.54300 31.41900
O  16.23000 2.96500 32.94200
C  17.26500 3.60500 33.84400
H  20.05100 -3.94700 30.61500
H  19.00700 -3.80400 24.34100
H  15.31400 1.21000 24.82900
H  18.20600 -0.06900 32.59100
H  18.31200 -2.97700 32.47400
H  20.07800 -0.66600 32.95800
H  20.89900 -1.63500 31.70600
H  20.57200 -2.39800 33.19500
H  16.36200 -2.23400 33.56300
H  15.48100 -0.96400 32.81300
H  15.61100 -0.57500 35.20700
H  16.50100 0.62700 34.45300
H  20.08200 -7.03500 28.75200
H  20.69000 -5.90400 30.02300
H  21.65500 -6.19700 28.56600
H  22.04600 -6.83900 26.56900
H  21.44700 -7.70800 25.25300
H  20.49500 -7.66700 26.78700
H  17.22100 -2.36000 22.66800
H  16.99500 0.37900 23.13300
H  19.90200 -0.99700 23.35100
H  18.97200 -0.04000 22.30200
H  19.40300 -1.71800 21.83200
H  14.56200 -1.13400 23.72100
H  15.29600 -1.60100 22.23900
H  13.74400 0.82100 22.58500
H  14.32500 0.04500 21.12800
H  15.29900 1.20800 21.99200
H  14.54900 3.92200 26.78200
H  13.22500 3.21400 27.73500
H  13.49100 2.62400 26.08600
H  15.12700 1.13700 32.11400
H  16.94300 4.52300 34.33600
H  18.20600 3.90100 33.38100
H  17.41100 2.82200 34.58800
Mg 9.78800 48.15400 26.61200
C  7.87000 48.34800 29.57800
C  12.38600 49.57600 28.34100
C  11.31200 48.23600 23.76400
C  6.63200 47.52900 24.80100
N  9.93300 48.96400 28.71500
C  9.17400 48.77900 29.83700
C  9.87600 49.27800 31.07200
C  11.14100 49.98300 30.56100
C  11.21000 49.46200 29.11700
C  10.99500 51.60600 30.55200
C  10.27800 48.21700 32.11200
C  9.70700 48.34100 33.55400
H  9.89500 46.95100 34.31200
N  11.60400 48.70800 26.11000
C  12.59400 49.26100 26.96800
C  13.84100 49.52400 26.13000
C  13.55500 49.10800 24.79300
C  12.11400 48.70100 24.83200
C  15.17200 50.05500 26.77500
C  14.39800 49.09700 23.51000
O  13.98600 48.62000 22.43200
C  15.83200 49.48500 23.59200
N  9.05800 47.70700 24.61200
C  10.04000 47.76700 23.63600
C  9.47500 47.33600 22.23100
C  7.92200 47.27200 22.57100
C  7.81600 47.43200 24.03800
C  9.84100 48.40000 21.15600
C  7.14700 46.02800 21.99500
C  6.66100 46.17600 20.58600
N  7.63400 47.91600 27.01300
C  6.50100 47.67000 26.17900
C  5.33300 47.54900 27.05600
C  5.82400 47.67400 28.38300
C  7.20700 48.01300 28.30800
C  3.94000 47.28400 26.55700
C  5.44400 47.63400 29.72900
O  4.34000 47.33500 30.24000
C  6.76000 47.96600 30.56200
C  7.05500 46.71700 31.22300
O  7.39900 45.74100 30.58400
O  7.10500 46.67200 32.57100
C  7.31600 45.40500 33.13400
H  13.22400 50.05500 28.85200
H  11.81700 48.15800 22.79900
H  5.72600 47.47800 24.19500
H  9.16900 49.92500 31.59100
H  12.09900 49.56600 30.87200
H  11.20500 51.97300 29.54700
H  11.72300 51.99800 31.26300
H  9.96400 51.93600 30.67800
H  11.35700 48.07800 32.17300
H  9.92800 47.28100 31.67500
H  8.64500 48.54900 33.42300
H  10.25900 49.14900 34.03500
H  15.02500 50.86900 27.48400
H  15.78400 50.55600 26.02400
H  15.90300 49.31200 27.09300
H  15.88500 50.56700 23.71500
H  16.43700 49.27200 22.71000
H  16.25900 49.10900 24.52100
H  9.90600 46.36700 21.98100
H  7.50000 48.13600 22.05900
H  10.22000 49.32100 21.59900
H  8.99500 48.55000 20.48600
H  10.70700 48.03800 20.60200
H  6.23000 45.77800 22.52900
H  7.83800 45.18600 21.99200
H  7.21900 47.01500 20.17000
H  5.58700 46.32600 20.46900
H  6.84000 45.27200 20.00400
H  3.87800 46.30300 26.08600
H  3.60300 48.11600 25.93800
H  3.29100 47.38500 27.42700
H  6.63600 48.70300 31.35600
H  6.57500 44.74100 32.68900
H  7.20400 45.48400 34.21500
H  8.32700 45.04600 32.94000

