158

Mg 16.03600 -1.62800 27.92200
C  15.13000 0.38600 30.57500
C  18.06400 -3.36000 30.02300
C  17.32300 -3.25400 25.28500
C  13.97700 0.15200 25.82500
N  16.56400 -1.45500 30.03000
C  16.11300 -0.55000 30.98500
C  16.64700 -0.79600 32.36200
C  17.70700 -1.96400 32.12300
C  17.31900 -2.44800 30.66000
C  19.17500 -1.54700 32.50100
C  15.50700 -1.09600 33.41300
C  15.28900 0.04800 34.49000
H  16.44800 0.92600 35.01900
N  17.36700 -3.24800 27.75300
C  18.13400 -3.81300 28.71700
C  18.91900 -4.90800 28.26900
C  18.67700 -5.02500 26.86400
C  17.76500 -3.80300 26.54700
C  19.77000 -5.63700 29.27600
C  19.23700 -6.03100 25.83200
O  18.89300 -5.94400 24.62800
C  20.13000 -7.18300 26.21800
N  15.69700 -1.45600 25.88800
C  16.52100 -2.12500 24.97500
C  16.23900 -1.73100 23.50400
C  14.94600 -0.89200 23.70200
C  14.74200 -0.77700 25.19900
C  17.43600 -1.06200 22.75700
C  13.68300 -1.21600 22.88100
C  13.70600 -1.19100 21.34400
N  14.84700 0.05700 28.08500
C  14.00100 0.63400 27.13100
C  13.22600 1.65500 27.71500
C  13.58400 1.51300 29.09400
C  14.63400 0.59700 29.23900
C  12.31100 2.69300 27.00500
C  13.32600 2.07000 30.39900
O  12.44900 2.87600 30.68500
C  14.31400 1.42400 31.38500
C  15.15500 2.55900 31.99600
O  16.34500 2.79400 31.76000
O  14.45800 3.37800 32.87400
C  15.25900 4.47100 33.49500
H  18.63600 -3.85300 30.81200
H  17.75100 -3.67600 24.37300
H  13.32900 0.74100 25.17200
H  17.09100 0.18200 32.54900
H  17.43200 -2.79000 32.78000
H  19.75500 -1.39400 31.59200
H  19.57800 -2.38100 33.07600
H  19.26900 -0.76000 33.25000
H  15.59300 -2.09900 33.83000
H  14.49800 -1.13400 33.00100
H  14.84500 -0.45200 35.35000
H  14.52600 0.75600 34.16600
H  20.73500 -5.13100 29.31500
H  19.81600 -6.69000 29.00000
H  19.29200 -5.58800 30.25400
H  20.90600 -6.71900 26.82600
H  20.46100 -7.71800 25.32800
H  19.39600 -7.78300 26.75700
H  15.92500 -2.59200 22.91300
H  15.20400 0.11300 23.36800
H  17.67200 -1.68800 21.89700
H  18.26500 -0.76200 23.39900
H  17.00600 -0.21300 22.22500
H  12.96100 -0.50600 23.28600
H  13.26000 -2.19200 23.11700
H  13.08900 -0.34700 21.03600
H  13.43900 -2.21300 21.07500
H  14.66300 -0.91700 20.89900
H  11.75000 3.24000 27.76300
H  11.60300 2.29700 26.27700
H  12.97700 3.33700 26.43000
H  13.66900 0.93800 32.11700
H  14.91000 5.45500 33.18100
H  16.34600 4.55200 33.48500
H  14.94800 4.42200 34.53900
Mg -6.15700 24.70800 26.74000
C  -4.63100 25.92700 29.79200
C  -8.20800 22.72200 28.68800
C  -7.10900 22.97300 23.98000
C  -3.60400 26.26600 25.00600
N  -6.39500 24.39600 28.97800
C  -5.68700 25.00900 29.97500
C  -6.29700 24.64000 31.34100
C  -7.43600 23.57100 30.97100
C  -7.41000 23.57600 29.45700
C  -7.08300 22.17600 31.62400
C  -6.90800 25.96300 32.03000
C  -7.14300 25.96600 33.56100
H  -6.47600 24.83900 34.34500
N  -7.55800 23.18700 26.40800
C  -8.34700 22.56500 27.34200
C  -9.36000 21.80600 26.59700
C  -9.02700 21.82900 25.20100
C  -7.85300 22.73400 25.11600
C  -10.51600 21.03700 27.17400
C  -9.61500 21.01100 24.02300
O  -9.01500 20.90500 22.93600
C  -10.95500 20.29400 24.10700
N  -5.40000 24.54600 24.76500
C  -5.98100 23.76600 23.81300
C  -5.34500 24.11200 22.40100
C  -4.39700 25.26900 22.75100
C  -4.41900 25.35500 24.23800
C  -4.68900 22.88800 21.75800
C  -4.84500 26.65800 22.23500
C  -4.36600 26.95200 20.77700
N  -4.42500 25.82500 27.23400
C  -3.51100 26.44600 26.41300
C  -2.49200 27.17500 27.19000
C  -2.83600 26.91400 28.51100
C  -4.05300 26.19700 28.49700
C  -1.25600 27.91500 26.73900
C  -2.43300 27.18500 29.85300
O  -1.40500 27.71000 30.30500
C  -3.63000 26.68800 30.82200
C  -2.83400 25.93200 31.82100
O  -2.42600 24.77900 31.73600
O  -2.63300 26.70900 32.94800
C  -2.09100 25.99000 34.08800
H  -8.92100 22.12500 29.26200
H  -7.56600 22.59100 23.06500
H  -2.92300 26.87900 24.41200
H  -5.49900 24.31300 32.00700
H  -8.44800 23.80300 31.30200
H  -7.14600 21.42200 30.83900
H  -7.69700 21.87200 32.47200
H  -6.08700 22.19100 32.06700
H  -7.87700 26.05000 31.53900
H  -6.45600 26.87700 31.64400
H  -8.22400 25.83700 33.61000
H  -6.93500 26.96600 33.94000
H  -10.46300 19.96700 26.97300
H  -11.47200 21.44300 26.84200
H  -10.39600 21.22000 28.24200
H  -10.93900 19.43500 23.43600
H  -11.76600 20.95200 23.79700
H  -11.27900 19.92300 25.07900
H  -6.09800 24.42700 21.68000
H  -3.39200 25.03600 22.39800
H  -5.29600 22.61400 20.89500
H  -4.84200 22.11500 22.51100
H  -3.64700 22.98000 21.45300
H  -4.36600 27.45400 22.80600
H  -5.93300 26.71100 22.25600
H  -4.31200 25.98500 20.27600
H  -3.35300 27.35300 20.75300
H  -5.07200 27.59700 20.25400
H  -0.81700 28.30400 27.65800
H  -1.41000 28.67000 25.96800
H  -0.52800 27.27300 26.24300
H  -4.08200 27.56600 31.28400
H  -1.11600 26.43500 34.28700
H  -2.18000 24.90800 33.98700
H  -2.73200 26.28000 34.92000

