158

Mg 30.12400 59.32200 39.31400
C  27.39800 57.38200 38.36500
C  32.17600 56.83800 38.46900
C  32.71700 61.49700 39.55200
C  27.87800 61.98100 39.38200
N  29.75000 57.40800 38.48200
C  28.61800 56.75300 38.18200
C  28.93500 55.32700 37.55200
C  30.27200 55.09000 38.31100
C  30.79500 56.57100 38.44700
C  29.96300 54.36700 39.67600
C  28.85000 55.33500 35.96000
C  27.78200 54.34700 35.48100
H  26.72400 54.81600 34.49500
N  32.26100 59.15900 39.11600
C  32.87000 58.00500 38.81000
C  34.32100 58.27200 38.89200
C  34.52400 59.65800 39.17200
C  33.13100 60.14800 39.30200
C  35.31200 57.19900 38.68600
C  35.87300 60.28300 39.29700
O  36.92100 59.66500 39.28900
C  35.94600 61.74300 39.38900
N  30.30900 61.46400 39.46800
C  31.45800 62.08800 39.70400
C  31.18700 63.57900 39.78600
C  29.63200 63.70400 39.61900
C  29.23100 62.29600 39.42400
C  31.84300 64.40500 40.95300
C  29.21600 64.60000 38.38300
C  28.14000 65.62400 38.63000
N  28.00300 59.68800 39.05800
C  27.26400 60.81900 39.14100
C  25.88300 60.56500 38.83900
C  25.87400 59.14900 38.59900
C  27.19500 58.70700 38.62100
C  24.71800 61.53900 38.91700
C  25.07100 57.94100 38.34200
O  23.84000 57.81600 38.34200
C  26.00700 56.77800 38.22800
C  25.78300 55.72600 39.25800
O  25.85600 55.95200 40.48600
O  25.60600 54.48300 38.64100
C  25.49400 53.35500 39.52900
H  32.82500 55.98100 38.27900
H  33.56300 62.18500 39.62100
H  27.23800 62.86500 39.33700
H  28.22100 54.64200 38.00800
H  31.00800 54.50600 37.76000
H  30.52400 54.69100 40.55200
H  29.99800 53.28200 39.57700
H  28.98400 54.71900 40.00300
H  29.81200 55.02900 35.55000
H  28.66300 56.35000 35.60800
H  27.27200 54.02500 36.39000
H  28.21400 53.40200 35.15000
H  35.72600 57.25200 37.67900
H  34.79300 56.25900 38.87600
H  36.17000 57.33400 39.34500
H  37.02100 61.91800 39.35700
H  35.55200 61.96800 40.38100
H  35.45600 62.19500 38.52700
H  31.66500 63.94600 38.87800
H  29.30200 63.85700 40.64700
H  31.49900 64.20400 41.96700
H  31.70000 65.46600 40.74700
H  32.91300 64.22500 40.84700
H  28.84300 64.00500 37.54900
H  30.12000 65.15400 38.12900
H  28.41800 66.67400 38.54600
H  27.66100 65.41300 39.58600
H  27.31600 65.30200 37.99300
H  25.04300 62.52300 38.57800
H  24.31000 61.59100 39.92600
H  23.87600 61.21200 38.30600
H  25.76500 56.30400 37.27700
H  24.47600 53.24500 39.90100
H  26.31200 53.37600 40.25000
H  25.53700 52.46500 38.90200
Mg -1.83700 34.23100 26.43600
C  -3.08900 32.54300 29.12900
C  -0.40900 36.53200 28.62900
C  -0.88700 36.03100 23.75200
C  -3.66500 31.99100 24.28400
N  -1.90100 34.53300 28.60700
C  -2.30800 33.61200 29.49200
C  -1.76300 34.01300 30.95800
C  -0.88400 35.24900 30.68700
C  -1.08400 35.49300 29.17400
C  -1.12100 36.55500 31.49300
C  -1.12200 32.79400 31.78700
C  -1.69200 32.66700 33.23900
H  -0.69000 32.62100 34.45400
N  -0.86400 36.11100 26.26400
C  -0.33900 36.88400 27.30000
C  0.34600 38.04200 26.66400
C  0.27800 37.89300 25.27700
C  -0.52600 36.66900 25.02900
C  1.03100 39.06100 27.57800
C  0.88800 38.86600 24.24900
O  0.72700 38.71900 23.05900
C  1.74800 40.00600 24.76600
N  -2.19900 34.02800 24.30100
C  -1.59700 34.90700 23.45300
C  -1.85200 34.40500 22.02300
C  -2.53300 32.99900 22.22300
C  -2.81500 32.97200 23.68100
C  -2.67200 35.55700 21.28200
C  -1.60700 31.78300 21.82600
C  -0.21100 31.64000 22.30800
N  -3.16600 32.63800 26.59200
C  -3.78200 31.80200 25.70000
C  -4.54100 30.76600 26.34700
C  -4.28000 31.08900 27.65400
C  -3.49000 32.21500 27.78700
C  -5.31100 29.64400 25.74400
C  -4.54200 30.57100 28.93700
O  -5.20100 29.57900 29.28400
C  -3.71000 31.46200 29.99000
C  -4.72400 31.95500 31.02200
O  -5.52600 32.80200 30.81800
O  -4.48900 31.11300 32.10500
C  -5.36000 31.31900 33.25000
H  0.29400 37.08300 29.25800
H  -0.34500 36.48900 22.92300
H  -4.00000 31.12100 23.71600
H  -2.65600 34.24800 31.53700
H  0.13900 35.00400 30.97400
H  -1.56900 37.33300 30.87500
H  -0.13900 36.91400 31.80200
H  -1.72200 36.25300 32.35100
H  -0.04800 32.98100 31.79500
H  -1.21300 31.88500 31.19300
H  -2.16800 31.68600 33.23300
H  -2.40400 33.44800 33.50400
H  0.59500 40.02500 27.31800
H  2.11300 39.04300 27.44900
H  0.75100 38.91400 28.62100
H  2.22500 40.48600 23.91100
H  2.55000 39.72100 25.44800
H  1.00000 40.65000 25.22800
H  -0.90400 34.32200 21.49100
H  -3.48000 32.93000 21.68800
H  -2.02600 36.03100 20.54200
H  -3.02600 36.31300 21.98200
H  -3.56400 35.27000 20.72500
H  -1.80400 31.66100 20.76100
H  -2.11600 30.94100 22.29500
H  -0.02400 32.27000 23.17700
H  0.36300 32.06800 21.48600
H  0.16500 30.62000 22.39300
H  -4.95200 29.42300 24.73900
H  -6.33700 29.97700 25.58900
H  -5.40900 28.74700 26.35600
H  -2.89400 30.88800 30.42900
H  -6.25200 30.69300 33.22600
H  -5.59500 32.38300 33.29600
H  -4.93400 31.10600 34.23000

