158

Mg -8.80400 40.45800 42.57900
C  -8.08200 36.97100 41.70700
C  -6.10200 41.35300 40.90000
C  -10.01500 43.52200 42.75300
C  -12.08600 39.16900 43.52000
N  -7.49700 39.28500 41.19400
C  -7.17700 37.91400 41.22400
C  -5.90100 37.61800 40.37900
C  -5.16900 39.02300 40.45900
C  -6.31900 39.96200 40.86000
C  -4.01700 39.20900 41.52500
C  -6.18300 37.03800 38.93900
C  -5.42700 35.76200 38.50900
H  -4.53400 35.81700 37.24700
N  -8.10700 42.27400 42.01600
C  -6.89800 42.41200 41.37500
C  -6.66400 43.82300 41.19100
C  -7.74800 44.53700 41.76000
C  -8.68000 43.47200 42.28900
C  -5.40800 44.26100 40.45400
C  -8.03000 46.04200 41.72400
O  -7.23400 46.77400 41.11500
C  -9.24200 46.62300 42.29700
N  -10.78200 41.16900 43.06100
C  -10.92100 42.51000 43.08100
C  -12.36500 42.90300 43.52400
C  -13.08200 41.50500 43.74500
C  -11.98100 40.54800 43.36800
C  -12.58900 43.85100 44.67700
C  -14.36100 41.25500 42.94100
C  -15.60900 40.58300 43.56500
N  -9.78900 38.48800 42.90900
C  -11.07100 38.19600 43.31200
C  -11.24800 36.75800 43.26300
C  -10.08400 36.26800 42.77500
C  -9.28200 37.33000 42.37800
C  -12.48700 36.08500 43.81100
C  -9.39300 35.03900 42.41200
O  -9.59000 33.84100 42.61900
C  -8.09000 35.53600 41.63500
C  -6.84000 35.00100 42.21800
O  -6.31100 35.37200 43.25500
O  -6.36400 33.98700 41.43700
C  -5.05700 33.50700 41.98900
H  -5.07000 41.60500 40.64800
H  -10.45600 44.49500 42.97900
H  -12.99100 38.70400 43.91600
H  -5.22100 36.93800 40.89200
H  -4.78000 39.18000 39.45300
H  -3.89800 38.31500 42.13800
H  -4.37000 39.89400 42.29600
H  -3.05900 39.49100 41.08700
H  -6.00400 37.86500 38.25100
H  -7.27200 37.01200 38.90100
H  -6.20100 35.03900 38.25200
H  -4.89900 35.35600 39.37100
H  -5.03500 45.13800 40.98300
H  -5.53700 44.65700 39.44700
H  -4.54400 43.60800 40.56900
H  -9.31700 47.71000 42.27000
H  -9.21500 46.26800 43.32700
H  -10.15000 46.34100 41.76300
H  -12.76400 43.37100 42.62400
H  -13.32600 41.39200 44.80100
H  -11.62000 44.24700 44.98000
H  -13.09000 43.39700 45.53200
H  -13.20000 44.71000 44.39600
H  -14.12700 40.76000 41.99900
H  -14.65800 42.20100 42.48700
H  -15.44200 40.47400 44.63700
H  -15.81300 39.60900 43.12100
H  -16.49400 41.21900 43.53200
H  -12.08300 35.11600 44.10300
H  -13.19800 36.05000 42.98500
H  -12.89400 36.59000 44.68700
H  -7.95500 35.13600 40.63000
H  -4.33200 34.30700 42.14400
H  -4.65300 32.94400 41.14700
H  -5.05700 32.83600 42.84700
Mg -2.23800 34.09200 26.78700
C  -3.61200 32.48600 29.54500
C  -0.69400 36.29400 28.96200
C  -1.23800 35.93000 24.09700
C  -4.31700 32.23800 24.66900
N  -2.25600 34.33000 29.00800
C  -2.69500 33.40500 29.92000
C  -1.98100 33.51700 31.28000
C  -1.15800 34.85400 31.12600
C  -1.35400 35.26200 29.57400
C  -1.53300 35.91000 32.10200
C  -1.15600 32.27800 31.83700
C  -1.47600 31.86000 33.30200
H  -0.27400 31.84200 34.27600
N  -1.07900 35.86400 26.56800
C  -0.52800 36.56400 27.60600
C  0.28600 37.56400 27.11700
C  0.15600 37.48000 25.66800
C  -0.69700 36.37300 25.35700
C  1.15200 38.54900 27.86600
C  0.83900 38.24000 24.49200
O  0.72500 37.98000 23.30300
C  1.76800 39.33300 24.85700
N  -2.88300 34.20400 24.64900
C  -2.23900 34.98700 23.76000
C  -2.80700 34.77400 22.32400
C  -3.82700 33.63700 22.48700
C  -3.66300 33.34400 24.03000
C  -3.32400 36.07400 21.65500
C  -3.64400 32.48900 21.54200
C  -2.42100 31.61700 21.73700
N  -3.66000 32.64400 26.97900
C  -4.31800 31.90900 26.04000
C  -5.15800 30.90100 26.74900
C  -4.76900 31.07300 28.11200
C  -3.97100 32.17600 28.18000
C  -6.07500 29.92300 26.07700
C  -5.00200 30.52400 29.43100
O  -5.73000 29.60600 29.80800
C  -4.11300 31.34300 30.39100
C  -5.03400 31.90000 31.36700
O  -5.96700 32.62300 31.04300
O  -4.77600 31.64900 32.66900
C  -5.61800 32.28900 33.71800
H  -0.14700 37.04400 29.53700
H  -0.93400 36.41100 23.16500
H  -4.91700 31.54500 24.07500
H  -2.82800 33.72200 31.93400
H  -0.08000 34.70000 31.15800
H  -2.36900 35.71400 32.77300
H  -1.89600 36.77800 31.55100
H  -0.65700 36.29300 32.62600
H  -0.11600 32.60500 31.82500
H  -1.26400 31.36700 31.24800
H  -1.83400 30.85000 33.49800
H  -2.11100 32.66800 33.66600
H  2.18900 38.37700 27.58000
H  0.87700 38.56500 28.92100
H  0.78900 39.50800 27.49500
H  1.92100 40.01700 24.02200
H  2.74200 38.95000 25.16200
H  1.27800 39.91900 25.63500
H  -2.01300 34.31400 21.73600
H  -4.80800 34.11300 22.47700
H  -3.12800 36.07000 20.58300
H  -2.85900 37.01100 21.96200
H  -4.40500 36.18700 21.74000
H  -3.72500 32.79600 20.49900
H  -4.51700 31.84800 21.66400
H  -1.90200 31.85800 20.80900
H  -2.62200 30.54600 21.70200
H  -1.80600 31.91200 22.58700
H  -6.17000 30.08700 25.00300
H  -7.04400 29.97700 26.57300
H  -5.73800 28.90000 26.24300
H  -3.43300 30.63200 30.86100
H  -4.99400 32.56400 34.56800
H  -6.29600 31.50400 34.05400
H  -6.01000 33.23900 33.35600

