158

Mg 16.98000 -2.44000 28.39500
C  16.10100 -0.25900 31.13300
C  18.98600 -4.24100 30.73300
C  18.30600 -4.23400 25.90400
C  15.35900 -0.41000 26.25000
N  17.48700 -2.22300 30.60600
C  16.90100 -1.33700 31.50800
C  17.27400 -1.63600 32.96300
C  18.26100 -2.94100 32.77500
C  18.31100 -3.13300 31.25700
C  19.63400 -2.82800 33.39300
C  16.03900 -1.73400 34.04400
C  16.20300 -0.89800 35.26400
H  17.55500 -0.70100 35.85000
N  18.40500 -4.01600 28.35300
C  19.05600 -4.61800 29.39500
C  19.75500 -5.84900 28.89800
C  19.64200 -5.81300 27.46600
C  18.67400 -4.74900 27.19100
C  20.56900 -6.76700 29.87700
C  20.23900 -6.74100 26.47600
O  19.96700 -6.68800 25.30400
C  21.19100 -7.81400 26.98000
N  16.82000 -2.38100 26.40400
C  17.51000 -3.16700 25.55200
C  17.35300 -2.64300 24.08700
C  16.29700 -1.54300 24.21300
C  16.04000 -1.41800 25.68700
C  18.75000 -2.11100 23.51200
C  15.07000 -1.72700 23.37500
C  14.50000 -0.38800 22.84300
N  15.95200 -0.61200 28.53000
C  15.27100 0.04000 27.58900
C  14.66600 1.16300 28.18100
C  15.02400 1.10900 29.58400
C  15.77800 -0.01600 29.76600
C  13.97000 2.30100 27.53400
C  14.83000 1.80100 30.84800
O  14.35900 2.88300 31.01600
C  15.50100 0.91000 31.90500
C  16.51800 1.71000 32.64900
O  17.72700 1.76800 32.33500
O  16.02800 2.35200 33.81700
C  17.02700 3.10000 34.60800
H  19.54000 -4.83200 31.46500
H  18.70800 -4.72300 25.01400
H  14.68500 0.24800 25.69800
H  17.95100 -0.83100 33.24800
H  17.79600 -3.76400 33.31900
H  19.63900 -3.50000 34.25100
H  19.82500 -1.80500 33.71900
H  20.37700 -3.18200 32.67900
H  16.10500 -2.76100 34.40200
H  15.14500 -1.53400 33.45300
H  15.63000 -1.39400 36.04800
H  15.70600 0.06500 35.14700
H  21.62600 -6.64100 29.63900
H  20.26300 -7.71900 29.44400
H  20.22200 -6.79000 30.91000
H  21.78300 -7.35200 27.76900
H  21.77900 -8.07200 26.09900
H  20.57700 -8.68100 27.22500
H  16.93400 -3.47000 23.51200
H  16.70800 -0.56200 23.97500
H  18.83200 -1.02500 23.57100
H  18.83500 -2.44600 22.47900
H  19.59100 -2.53900 24.05700
H  14.19900 -2.25600 23.76200
H  15.32300 -2.13700 22.39700
H  14.96500 -0.09300 21.90200
H  14.58200 0.45000 23.53600
H  13.41900 -0.51900 22.88700
H  12.93200 2.11000 27.26300
H  14.59200 2.64000 26.70600
H  14.11000 3.12000 28.24000
H  14.75100 0.65100 32.65200
H  16.92700 4.17900 34.48900
H  18.06600 2.89000 34.35500
H  16.98600 2.96800 35.68900
Mg 46.83000 24.32600 27.35800
C  47.82200 26.27800 30.02400
C  46.12800 21.87900 29.69500
C  46.26500 22.16900 24.78700
C  47.91800 26.67300 25.13000
N  46.96100 24.09900 29.60200
C  47.32800 25.07700 30.49400
C  46.93900 24.68100 31.94000
C  46.64000 23.14600 31.81600
C  46.53800 23.03500 30.26800
C  47.68900 22.33300 32.40700
C  45.89400 25.52300 32.65200
C  45.48900 25.01600 34.06000
H  46.02300 25.76200 35.29500
N  46.23800 22.30100 27.29800
C  46.02400 21.42300 28.35500
C  45.87900 20.14100 27.79700
C  45.90400 20.20300 26.39800
C  46.03900 21.60500 26.09400
C  45.64500 18.88500 28.78200
C  45.99100 19.05500 25.46600
O  46.05500 19.18900 24.24100
C  45.99400 17.57100 26.03200
N  46.97000 24.40900 25.26500
C  46.69800 23.39200 24.45000
C  46.95100 23.82300 22.96100
C  47.36200 25.23600 23.04100
C  47.37500 25.49300 24.53800
C  48.00100 22.89200 22.24900
C  46.31400 26.12000 22.29900
C  44.93200 26.21800 22.90700
N  47.67100 26.16800 27.47300
C  48.06000 27.05500 26.44600
C  48.64100 28.20700 27.05700
C  48.53500 27.98000 28.47800
C  47.96300 26.70000 28.67800
C  49.31200 29.32700 26.43300
C  48.83000 28.51400 29.78200
O  49.38000 29.52300 30.10700
C  48.22400 27.47900 30.81000
C  49.25100 27.15300 31.74900
O  50.05600 26.25100 31.79200
O  49.08400 27.95700 32.84400
C  49.79100 27.55500 34.09200
H  45.83800 21.12600 30.43000
H  46.14100 21.45100 23.97400
H  48.17600 27.40400 24.36000
H  47.89000 24.78400 32.46200
H  45.71700 22.80600 32.28600
H  48.10700 22.78400 33.30700
H  48.51300 22.16100 31.71400
H  47.25900 21.36000 32.64200
H  45.02200 25.64000 32.00800
H  46.32000 26.52400 32.72200
H  45.78800 23.97900 34.21300
H  44.41200 25.17100 34.12500
H  46.44300 18.14300 28.73700
H  44.69600 18.43200 28.49300
H  45.43100 19.13400 29.82100
H  45.04100 17.48700 26.55400
H  46.88400 17.33500 26.61400
H  45.93100 16.93500 25.14900
H  46.02500 23.79700 22.38700
H  48.34700 25.45000 22.62700
H  47.57500 22.51300 21.32000
H  48.34300 22.01800 22.80200
H  48.83700 23.52000 21.93900
H  46.29700 25.85100 21.24300
H  46.71900 27.12700 22.20100
H  44.23200 25.99900 22.10100
H  44.69500 27.25400 23.14900
H  44.75400 25.50400 23.71200
H  49.18600 30.20500 27.06600
H  48.76100 29.45700 25.50200
H  50.38200 29.18900 26.28000
H  47.41800 28.07900 31.23200
H  49.71800 26.46900 34.14800
H  49.19300 27.99800 34.89000
H  50.83700 27.86100 34.11200

