158

Mg 26.79000 50.37200 25.94600
C  24.82600 51.55300 28.66500
C  29.06000 49.31000 28.09600
C  28.90300 49.94000 23.26600
C  24.57900 52.02300 23.76900
N  26.91500 50.55400 28.14000
C  26.00100 50.92500 29.06100
C  26.40000 50.49400 30.46800
C  27.89500 49.92300 30.25100
C  27.92000 49.87200 28.73000
C  29.02500 50.83900 30.91800
C  25.37600 49.51900 31.17200
C  24.71600 49.94700 32.44100
H  25.58200 50.53700 33.55800
N  28.72600 49.58000 25.73400
C  29.53000 49.24500 26.76100
C  30.77200 48.77600 26.24500
C  30.75100 48.98100 24.82800
C  29.45400 49.56700 24.60100
C  31.98900 48.22000 27.10700
C  31.82600 48.82200 23.76000
O  31.69600 49.06000 22.56900
C  33.23100 48.19900 24.07600
N  26.82600 50.96400 23.80200
C  27.70100 50.47900 22.89300
C  27.21000 50.76700 21.42000
C  25.78500 51.36300 21.67000
C  25.68200 51.37700 23.21300
C  28.15000 51.53300 20.51100
C  24.56600 50.76600 20.89500
C  23.86400 51.65100 19.86800
N  25.08800 51.61300 26.07800
C  24.25100 52.13800 25.14500
C  23.20400 52.87400 25.76000
C  23.28400 52.62400 27.16500
C  24.49900 51.90500 27.29400
C  22.21200 53.54500 24.96800
C  22.66800 52.83000 28.47600
O  21.73300 53.52400 28.80900
C  23.72100 52.14100 29.51600
C  24.25200 53.09900 30.47400
O  25.29400 53.75200 30.29700
O  23.45900 53.12100 31.61700
C  23.85100 53.98800 32.68900
H  29.67500 48.83200 28.86100
H  29.45300 49.49500 22.43400
H  23.91200 52.53600 23.07300
H  26.43100 51.46200 30.96800
H  28.09900 48.93700 30.66800
H  29.42900 51.43800 30.10100
H  29.82000 50.28900 31.42200
H  28.48900 51.43500 31.65600
H  25.76100 48.52700 31.40600
H  24.55400 49.22100 30.52100
H  24.28700 48.99900 32.76700
H  23.83600 50.58900 32.39600
H  31.81100 48.30800 28.17900
H  32.89700 48.78300 26.89500
H  32.16200 47.14500 27.06200
H  33.89900 47.94600 23.25200
H  33.05700 47.22700 24.53700
H  33.78400 48.82300 24.77900
H  27.09400 49.72200 21.13300
H  25.84300 52.43300 21.47000
H  27.75500 52.46100 20.09600
H  28.43300 50.90900 19.66400
H  29.01500 51.92300 21.04700
H  23.77000 50.55000 21.60800
H  24.80900 49.79200 20.47000
H  23.36700 50.89200 19.26400
H  24.63600 52.18000 19.31000
H  23.07200 52.34400 20.15200
H  22.64000 54.38100 24.41700
H  21.43100 54.05400 25.53200
H  21.67800 52.83800 24.33200
H  23.32600 51.31800 30.11200
H  23.80600 55.02100 32.34600
H  24.84300 53.79500 33.09800
H  23.11600 54.01800 33.49300
Mg 16.86100 52.55300 26.52800
C  18.80200 50.95000 28.92600
C  14.45100 53.13400 28.77000
C  15.18700 54.35600 24.07000
C  19.14000 51.39700 24.04000
N  16.67900 52.05700 28.55500
C  17.63600 51.49800 29.46900
C  17.21300 51.61300 30.94400
C  15.74100 52.13400 30.74500
C  15.59900 52.44100 29.25900
C  14.71900 51.21500 31.34400
C  18.27500 52.47300 31.69900
C  18.66000 51.86900 33.12100
H  17.94200 52.29300 34.43200
N  15.07000 53.63600 26.44800
C  14.20000 53.76500 27.48600
C  13.07400 54.56900 27.07700
C  13.26400 54.93400 25.70900
C  14.56400 54.28900 25.35000
C  11.96500 54.93200 28.04800
C  12.34100 55.75000 24.82000
O  12.59600 55.89900 23.58800
C  11.18800 56.57700 25.33100
N  17.02800 52.71600 24.36600
C  16.28900 53.58300 23.62600
C  16.61200 53.46600 22.16100
C  18.01600 52.71200 22.18600
C  18.05200 52.16500 23.61800
C  15.38600 52.81600 21.42600
C  19.20700 53.49500 21.66700
C  20.01700 52.86500 20.54200
N  18.58100 51.36600 26.36600
C  19.38700 50.97900 25.33900
C  20.46000 50.15400 25.79800
C  20.31000 50.21400 27.14300
C  19.12700 50.91300 27.47800
C  21.66100 49.59000 24.98200
C  20.97500 49.74500 28.41900
O  21.99400 49.08600 28.62500
C  20.05300 50.29300 29.59800
C  19.75600 49.09500 30.46400
O  19.10100 48.11500 30.14500
O  20.59200 49.19400 31.59600
C  20.56600 48.10500 32.55600
H  13.64900 53.34000 29.48200
H  14.81400 55.00700 23.27700
H  19.90800 51.17800 23.29600
H  17.22800 50.60400 31.35500
H  15.60300 53.10100 31.22900
H  15.15400 50.25000 31.60400
H  13.99400 51.03100 30.55100
H  14.16000 51.56900 32.21000
H  18.04800 53.50600 31.96500
H  19.24000 52.39300 31.19700
H  19.67700 52.20200 33.32300
H  18.64500 50.77900 33.12900
H  10.99800 54.70800 27.59700
H  11.87600 56.00000 28.24400
H  11.91500 54.35500 28.97100
H  11.52800 57.38200 25.98300
H  10.42900 55.91900 25.75300
H  10.68800 56.97900 24.44900
H  16.68400 54.48100 21.77100
H  17.89200 51.93700 21.42900
H  15.71400 52.13300 20.64300
H  14.71500 53.53800 20.96100
H  14.90200 52.10500 22.09600
H  19.82600 53.55500 22.56200
H  19.01300 54.51300 21.33000
H  20.27300 53.57400 19.75400
H  19.37400 52.18400 19.98500
H  20.86900 52.28400 20.89600
H  21.29200 48.76800 24.36900
H  22.45900 49.30200 25.66600
H  22.04000 50.34300 24.29100
H  20.69400 50.91500 30.22300
H  19.66700 48.02700 33.16600
H  21.44800 48.32000 33.16000
H  20.76700 47.19700 31.98700

