158

Mg 2.06100 -0.96200 43.36200
C  5.45900 -0.69600 42.89300
C  1.48300 1.66600 41.33500
C  -1.37400 -1.50900 43.75400
C  2.61300 -3.96000 45.10300
N  3.29100 0.44600 42.33800
C  4.72000 0.33400 42.23800
C  5.24400 1.41200 41.37600
C  4.00700 2.28000 40.94700
C  2.90500 1.42600 41.53000
C  4.00500 3.76400 41.51800
C  6.06300 0.84800 40.14300
C  7.30400 1.68000 39.66000
H  7.12800 2.72700 38.51500
N  0.32100 0.00700 42.71600
C  0.30400 1.06400 41.88700
C  -1.04000 1.51100 41.74600
C  -1.91200 0.63800 42.48200
C  -0.99600 -0.29900 43.11800
C  -1.45100 2.78500 40.94400
C  -3.41600 0.72800 42.48900
O  -4.03800 1.56300 41.84000
C  -4.26000 -0.33300 43.34200
N  0.73300 -2.57700 44.37700
C  -0.63300 -2.58100 44.31400
C  -1.21700 -3.91200 44.82000
C  0.14400 -4.57400 45.36700
C  1.23600 -3.63800 44.92100
C  -2.44700 -3.95800 45.77700
C  0.35700 -6.05300 44.85200
C  1.07600 -6.95600 45.85200
N  3.64800 -2.14900 43.90100
C  3.76700 -3.29500 44.64700
C  5.08800 -3.70500 44.76100
C  5.86400 -2.71000 44.08300
C  4.90500 -1.79500 43.59500
C  5.54300 -4.88300 45.49100
C  7.13100 -2.25200 43.73800
O  8.25800 -2.60300 44.01800
C  6.97400 -0.88700 42.93300
C  7.65800 0.06200 43.82100
O  7.68100 0.06800 45.03900
O  8.32800 0.92700 43.03700
C  9.17300 1.95300 43.67800
H  1.30300 2.52100 40.68000
H  -2.42500 -1.72400 43.95900
H  2.84500 -4.88900 45.62800
H  5.77400 2.04800 42.08400
H  3.91200 2.37200 39.86600
H  3.68000 4.46600 40.75000
H  5.01400 4.12300 41.72300
H  3.48800 3.98000 42.45300
H  5.49100 0.80200 39.21700
H  6.34100 -0.19600 40.29200
H  8.04900 0.90400 39.48200
H  7.53500 2.31600 40.51400
H  -2.07100 3.49100 41.49700
H  -1.94200 2.52500 40.00600
H  -0.54000 3.31500 40.66700
H  -5.29600 -0.01300 43.23200
H  -4.22700 -0.19100 44.42300
H  -4.16600 -1.35500 42.97600
H  -1.49800 -4.45500 43.91700
H  0.01400 -4.58100 46.44900
H  -2.75700 -2.92700 45.94400
H  -2.26900 -4.50800 46.70100
H  -3.30900 -4.46900 45.34800
H  0.99800 -6.02600 43.97000
H  -0.54100 -6.53100 44.46100
H  0.41700 -7.80400 46.03800
H  1.27600 -6.49500 46.81900
H  1.95500 -7.38300 45.36900
H  5.49600 -5.77200 44.86400
H  5.02100 -4.99100 46.44200
H  6.61400 -4.91400 45.69000
H  7.58900 -1.08400 42.05500
H  8.56400 2.41400 44.45600
H  9.61000 2.65300 42.96600
H  10.01100 1.38700 44.08500
Mg 41.48200 40.95000 26.63400
C  40.90000 43.46700 29.07600
C  42.23100 38.79500 29.41200
C  42.50000 38.71200 24.48500
C  40.92500 43.32100 24.13400
N  41.76900 41.15600 28.99900
C  41.24000 42.20700 29.68900
C  41.12000 41.80500 31.14000
C  41.82300 40.44100 31.22300
C  41.99400 40.10300 29.79100
C  43.18300 40.48300 31.98900
C  39.60000 41.83300 31.65200
C  39.28500 42.97700 32.63300
H  38.79900 42.59200 34.00500
N  42.17500 38.97700 26.89100
C  42.38500 38.26600 28.07300
C  42.73100 36.89500 27.76200
C  42.79600 36.75600 26.32600
C  42.52200 38.19800 25.79500
C  42.90200 35.81800 28.78600
C  43.09700 35.50000 25.41500
O  43.02200 35.58800 24.16100
C  43.46800 34.27500 26.09500
N  41.76200 41.04200 24.60300
C  42.08100 39.91200 23.94000
C  42.07500 40.17300 22.37400
C  41.39600 41.52600 22.35700
C  41.38000 42.02700 23.78200
C  43.47000 40.05700 21.72300
C  39.97800 41.53300 21.77200
C  38.91100 40.61500 22.42300
N  40.93600 42.95100 26.58900
C  40.78200 43.79000 25.45900
C  40.30700 45.04800 26.02600
C  40.31600 44.98900 27.36000
C  40.80500 43.72600 27.69300
C  40.18600 46.26100 25.15200
C  40.07500 45.78500 28.52900
O  39.67100 46.94000 28.66500
C  40.47000 44.82900 29.71600
C  41.58800 45.39200 30.49400
O  42.77800 45.39900 30.23600
O  41.05100 45.91300 31.63100
C  41.96100 46.78700 32.40300
H  42.35600 38.08400 30.23200
H  42.76200 38.04700 23.65900
H  40.73900 44.00100 23.30100
H  41.65300 42.53400 31.75100
H  41.23300 39.64200 31.67300
H  43.89400 40.67200 31.18500
H  43.49600 39.53600 32.42800
H  43.29900 41.32000 32.67700
H  39.27300 40.85700 32.01100
H  38.89900 42.03600 30.84200
H  38.48700 43.56800 32.18400
H  40.13600 43.63300 32.81800
H  42.18800 35.04000 28.51800
H  42.74800 36.15100 29.81200
H  43.89900 35.39700 28.65100
H  43.78400 33.56100 25.33400
H  42.76900 33.68400 26.68800
H  44.34800 34.52400 26.68800
H  41.51000 39.33000 21.97800
H  42.07300 42.17100 21.79600
H  43.90400 40.87400 21.14600
H  43.41600 39.17000 21.09100
H  44.19800 39.74200 22.47000
H  40.08700 41.36100 20.70200
H  39.59500 42.54900 21.67500
H  38.02800 41.22500 22.61200
H  39.34200 40.26800 23.36200
H  38.66100 39.76700 21.78400
H  40.61700 46.10000 24.16400
H  40.75400 46.99200 25.72900
H  39.17100 46.65700 25.19300
H  39.61000 44.67000 30.36700
H  42.67200 47.34700 31.79600
H  42.39700 46.26000 33.25200
H  41.38000 47.63500 32.76700

