158

Mg 36.29500 2.61500 30.33000
C  33.86100 3.43000 32.80800
C  38.61600 2.64100 32.71100
C  38.50400 2.17800 27.93400
C  33.72400 2.87100 27.89400
N  36.18700 2.84600 32.48100
C  35.13500 3.23000 33.29600
C  35.58500 3.21200 34.81400
C  37.08100 3.03900 34.72100
C  37.31000 2.78300 33.24300
C  38.02200 4.26400 35.21200
C  34.83000 2.12200 35.71400
C  34.04400 2.73700 36.84800
H  34.54900 3.96300 37.61900
N  38.33200 2.50300 30.29100
C  39.13000 2.49700 31.41000
C  40.46700 2.20700 30.99900
C  40.54400 2.12700 29.61200
C  39.07900 2.28200 29.17300
C  41.58900 1.94200 32.00900
C  41.66400 1.92500 28.68200
O  41.49600 1.75800 27.45600
C  43.03000 2.37200 29.18500
N  36.08700 2.48700 28.20400
C  37.19300 2.22000 27.43800
C  36.87500 2.21200 25.98400
C  35.26200 2.26300 26.05000
C  34.96600 2.49400 27.44900
C  37.42200 3.37400 25.08100
C  34.34800 1.23600 25.39400
C  35.02000 -0.16800 25.13400
N  34.24500 3.03100 30.27100
C  33.36300 3.21600 29.22000
C  32.09200 3.56600 29.73400
C  32.24000 3.73500 31.12100
C  33.54600 3.24600 31.42100
C  30.92500 3.94600 28.87300
C  31.55500 3.99000 32.36900
O  30.43300 4.43900 32.58400
C  32.56400 3.83800 33.57700
C  32.50100 5.16500 34.15300
O  32.98900 6.14200 33.63600
O  31.87600 5.02800 35.35300
C  31.51300 6.29500 36.01600
H  39.37700 2.48200 33.47800
H  39.30700 2.19600 27.19400
H  32.92500 2.79400 27.15400
H  35.33500 4.13800 35.33100
H  37.44200 2.25300 35.38400
H  37.39200 5.03200 35.66100
H  38.63600 4.83400 34.51400
H  38.71500 3.93500 35.98600
H  35.40800 1.24100 35.99300
H  34.08700 1.77100 34.99800
H  34.04000 1.95400 37.60700
H  33.00100 2.83700 36.54600
H  42.10400 2.90000 32.07700
H  42.33300 1.24200 31.63000
H  41.32200 1.53200 32.98300
H  43.61600 2.53000 28.27900
H  43.41900 1.48600 29.68700
H  42.88500 3.16300 29.92100
H  37.16200 1.29800 25.46300
H  35.00000 3.22500 25.60800
H  38.01400 4.01300 25.73600
H  36.57600 3.87200 24.60600
H  38.10900 2.98600 24.32900
H  34.09100 1.61200 24.40400
H  33.38400 1.16700 25.89800
H  34.38300 -0.83100 25.72000
H  36.00500 -0.31400 25.57700
H  35.08700 -0.48600 24.09400
H  30.12800 3.20300 28.84500
H  31.37400 4.09500 27.89100
H  30.53500 4.85700 29.32800
H  32.14500 3.00500 34.14000
H  30.90400 6.92600 35.36800
H  32.36900 6.96400 36.10000
H  31.06400 6.01800 36.97000
Mg 28.67700 57.02100 40.44400
C  25.69700 55.27900 39.89400
C  30.30100 54.28600 39.11000
C  31.51200 58.82000 40.20900
C  26.91600 59.74100 41.49500
N  27.98700 55.08900 39.51900
C  26.73700 54.55700 39.39900
C  26.75200 53.13100 38.82800
C  28.28800 52.81500 38.63500
C  28.89300 54.13400 39.06200
C  28.86900 51.54000 39.25000
C  25.94900 52.84600 37.58400
C  25.82600 53.91700 36.50400
H  26.15600 53.58300 35.04300
N  30.61100 56.60600 39.76900
C  31.11600 55.43300 39.30700
C  32.52400 55.53400 39.12900
C  32.84500 56.84100 39.19100
C  31.66600 57.52500 39.67400
C  33.38300 54.35400 38.84600
C  34.20700 57.42000 38.84500
O  35.25600 56.78800 38.56000
C  34.48700 58.83400 38.93900
N  29.15600 59.01800 40.85300
C  30.37200 59.49100 40.77200
C  30.44000 61.00100 41.19300
C  29.01900 61.21600 41.83100
C  28.31000 59.89900 41.44500
C  31.63200 61.43800 42.01500
C  28.39800 62.53900 41.40100
C  28.25100 63.59200 42.57500
N  26.73900 57.47200 40.72300
C  26.12500 58.66600 41.16100
C  24.64200 58.51300 41.11400
C  24.48300 57.12200 40.75000
C  25.73100 56.59300 40.44900
C  23.54700 59.57300 41.35100
C  23.42000 56.12800 40.52100
O  22.20600 56.16300 40.75500
C  24.20000 54.90500 39.90400
C  23.84300 53.63700 40.57500
O  23.16400 52.72900 40.04600
O  24.49500 53.54400 41.75800
C  24.64500 52.28900 42.40200
H  30.85400 53.44800 38.68000
H  32.44000 59.39500 40.18900
H  26.34800 60.53100 41.99000
H  26.39900 52.52000 39.65900
H  28.50000 52.77900 37.56600
H  28.61200 50.79200 38.50100
H  28.40400 51.29500 40.20500
H  29.94300 51.43700 39.40800
H  24.91100 52.59800 37.80800
H  26.46000 52.10200 36.97300
H  26.48100 54.76400 36.70700
H  24.83700 54.37200 36.56200
H  34.39000 54.54300 38.47600
H  32.85000 53.82100 38.05800
H  33.40300 53.69900 39.71800
H  34.62000 59.05400 39.99800
H  33.65300 59.40500 38.53100
H  35.46100 59.11100 38.53500
H  30.52700 61.62900 40.30600
H  29.06200 61.26700 42.91900
H  32.08500 62.29000 41.50800
H  32.35900 60.64300 42.17600
H  31.27800 61.82100 42.97300
H  27.34800 62.40500 41.14200
H  28.97500 63.05600 40.63400
H  28.84500 63.32500 43.45000
H  27.22400 63.73800 42.90900
H  28.38300 64.59100 42.16000
H  22.68200 59.12500 41.84000
H  23.32500 60.22800 40.50800
H  23.86500 60.21000 42.17600
H  23.94200 54.79600 38.85100
H  25.55300 52.21100 43.00000
H  24.62200 51.50800 41.64200
H  23.77700 52.10700 43.03600

