158

Mg 1.05400 8.17500 26.23100
C  1.92500 9.91700 29.18300
C  1.42200 5.20500 28.19800
C  0.63100 6.42100 23.46800
C  1.29100 11.11700 24.45000
N  1.57800 7.67000 28.37700
C  1.78800 8.56200 29.39600
C  1.75500 7.86300 30.77100
C  2.00200 6.37600 30.40200
C  1.61900 6.37600 28.93000
C  3.44000 5.96500 30.69000
C  0.34700 8.19500 31.47900
C  0.27500 8.03500 32.99200
H  1.48300 7.54800 33.80900
N  0.84000 6.13000 25.94100
C  0.99500 5.06900 26.79400
C  0.69000 3.84300 26.13300
C  0.25300 4.16400 24.83100
C  0.56300 5.61000 24.68100
C  0.67800 2.54000 26.73100
C  -0.26400 3.21300 23.64400
O  -0.42000 3.54400 22.47800
C  -0.66000 1.78500 23.98100
N  1.11600 8.69700 24.21100
C  0.81800 7.82000 23.26200
C  0.86700 8.54900 21.87000
C  0.63600 10.06500 22.29900
C  0.95800 9.95600 23.76600
C  2.21300 8.38400 21.08100
C  -0.85800 10.46600 22.14800
C  -1.28600 11.56700 21.14200
N  1.48600 10.17000 26.66100
C  1.45800 11.29700 25.80400
C  1.63400 12.51600 26.58800
C  1.85400 12.02000 27.91700
C  1.82900 10.57700 27.90200
C  1.36200 13.94400 26.14300
C  2.19500 12.36600 29.21700
O  2.48100 13.46600 29.56700
C  2.01400 11.09100 30.13600
C  3.09400 10.92800 31.09300
O  4.27100 10.96000 30.71900
O  2.66600 10.90100 32.35300
C  3.78400 11.18400 33.25000
H  1.62200 4.30200 28.77900
H  0.37000 5.89800 22.54600
H  1.16400 12.04800 23.89200
H  2.64000 8.24700 31.28000
H  1.34800 5.64600 30.87900
H  4.05600 6.63100 31.29500
H  3.86900 5.81600 29.70000
H  3.41600 4.95900 31.10800
H  -0.47300 7.79200 30.88500
H  0.19600 9.24600 31.23400
H  -0.59700 7.42400 33.22600
H  0.02700 8.96700 33.50000
H  1.25200 2.44900 27.65300
H  1.15700 1.80500 26.08500
H  -0.36400 2.22500 26.79800
H  -1.34200 1.72000 24.83000
H  0.25300 1.22900 24.19700
H  -1.14000 1.34300 23.10800
H  0.07300 8.18300 21.21800
H  1.29800 10.71200 21.72400
H  2.92600 8.03900 21.83000
H  2.60600 9.34700 20.75400
H  2.10500 7.60000 20.33100
H  -1.24200 10.50600 23.16700
H  -1.36300 9.59700 21.72600
H  -0.46900 11.95800 20.53600
H  -1.68200 12.38100 21.74800
H  -1.96600 11.03200 20.47900
H  1.31200 14.12300 25.06900
H  2.28400 14.42100 26.47500
H  0.54600 14.42600 26.68200
H  1.05100 11.37900 30.55700
H  4.57300 10.43400 33.19700
H  3.39300 11.12800 34.26600
H  4.13600 12.17900 32.98100
Mg 44.14800 5.23500 47.14300
C  42.18600 8.10000 46.48700
C  41.32400 3.30300 46.27300
C  46.11200 2.41800 46.83500
C  47.03600 7.20000 47.24800
N  41.96700 5.74600 46.37800
C  41.40100 6.95500 46.38200
C  39.92900 6.79900 46.31300
C  39.58400 5.24300 46.28600
C  41.03700 4.68600 46.33800
C  38.78200 4.60000 47.39300
C  39.28100 7.59400 45.12900
C  39.52800 7.06200 43.71800
H  40.47100 7.80500 42.69500
N  43.71100 3.17400 46.86400
C  42.54400 2.61400 46.48200
C  42.67100 1.20600 46.33600
C  44.00200 0.83200 46.68200
C  44.72500 2.16500 46.85500
C  41.59500 0.27000 45.85400
C  44.59900 -0.56100 46.59200
O  43.89200 -1.51400 46.26600
C  45.97700 -0.92700 46.84700
N  46.25000 4.91000 47.09200
C  46.81000 3.63300 47.10500
C  48.37000 3.68600 47.21400
C  48.66600 5.22300 47.46500
C  47.24900 5.82000 47.31900
C  48.92000 2.83100 48.37100
C  49.82400 5.81900 46.59200
C  50.86200 6.61400 47.26000
N  44.60500 7.22900 46.97700
C  45.79600 7.90800 47.07400
C  45.55500 9.35000 47.06200
C  44.09000 9.42900 46.91000
C  43.56700 8.16600 46.77700
C  46.56100 10.50100 47.13700
C  42.99000 10.36200 46.84000
O  43.00200 11.58600 46.86900
C  41.68900 9.57400 46.68700
C  40.76600 9.73500 47.82000
O  40.79200 9.00500 48.83200
O  39.87200 10.70300 47.63900
C  38.82700 10.86600 48.61500
H  40.45200 2.64700 46.23600
H  46.73200 1.53900 46.64400
H  47.87500 7.88800 47.36800
H  39.53000 7.32500 47.18100
H  39.07700 4.92600 45.37400
H  39.23800 3.75100 47.90200
H  37.96600 4.11900 46.85500
H  38.34000 5.30100 48.10100
H  39.61000 8.63300 45.08500
H  38.22100 7.48800 45.36200
H  38.56000 7.01800 43.21900
H  39.90900 6.05000 43.85000
H  41.23000 -0.25700 46.73600
H  41.93700 -0.35400 45.02800
H  40.82000 0.81700 45.31600
H  45.96400 -1.89000 47.35800
H  46.51000 -0.39800 47.63600
H  46.50300 -1.00900 45.89600
H  48.82200 3.41600 46.26000
H  48.91000 5.51300 48.48700
H  49.95800 3.07400 48.60000
H  48.97800 1.79000 48.05300
H  48.24300 2.98600 49.21200
H  49.36300 6.45300 45.83400
H  50.37900 5.07300 46.02300
H  50.98900 7.51000 46.65200
H  51.80200 6.06300 47.25600
H  50.60400 6.86700 48.28800
H  46.09500 11.30600 47.70600
H  46.88700 10.85900 46.16100
H  47.41300 9.97200 47.56500
H  41.13800 9.93400 45.81800
H  38.72500 11.91500 48.89200
H  39.06600 10.37700 49.56000
H  37.83900 10.45800 48.40300

