158

Mg 1.75700 -1.35400 43.71300
C  5.11700 -0.54400 43.46900
C  0.88300 1.77800 42.22700
C  -1.34600 -2.46100 43.14100
C  2.81000 -4.55800 44.83300
N  2.91700 0.39100 42.90400
C  4.27900 0.49900 42.98000
C  4.74700 1.82800 42.18800
C  3.37800 2.49800 41.89200
C  2.30100 1.52300 42.37100
C  3.31700 3.98400 42.45500
C  5.60500 1.60100 40.90900
C  6.78800 2.61400 40.68900
H  6.73200 3.35000 39.35600
N  -0.04600 -0.47400 42.81800
C  -0.19700 0.80600 42.32900
C  -1.48900 0.90700 41.71300
C  -2.16400 -0.32500 41.96900
C  -1.16700 -1.16600 42.71300
C  -1.98400 2.05100 40.83600
C  -3.53100 -0.73300 41.53300
O  -4.24200 0.08400 40.84500
C  -4.24700 -1.93400 42.00300
N  0.87000 -3.25200 43.83600
C  -0.51700 -3.41600 43.78900
C  -0.93200 -4.77700 44.37100
C  0.39400 -5.37900 44.95800
C  1.45000 -4.34700 44.45900
C  -2.20000 -4.90100 45.28200
C  0.57800 -6.87200 44.51900
C  0.96300 -7.88000 45.65600
N  3.56800 -2.35800 44.16200
C  3.81200 -3.63000 44.68400
C  5.26000 -3.82700 44.85400
C  5.82400 -2.58200 44.42600
C  4.74800 -1.77400 43.94400
C  5.94900 -5.12300 45.25100
C  7.03900 -1.84200 44.18200
O  8.17100 -2.10700 44.49500
C  6.58300 -0.51500 43.54400
C  6.90300 0.58200 44.49000
O  6.38900 0.82600 45.54000
O  7.88800 1.35700 43.90600
C  8.54000 2.39200 44.74700
H  0.56500 2.70600 41.74500
H  -2.36500 -2.84900 43.19300
H  3.04700 -5.57000 45.17000
H  5.34100 2.35700 42.93300
H  3.28300 2.54900 40.80700
H  2.82700 4.02100 43.42800
H  2.81900 4.66700 41.76700
H  4.35200 4.32400 42.47700
H  4.98000 1.65700 40.01800
H  5.94800 0.56700 40.95400
H  7.70600 2.03800 40.80300
H  6.72400 3.42000 41.42100
H  -2.39100 1.68200 39.89400
H  -1.16000 2.68100 40.50200
H  -2.61500 2.66200 41.48100
H  -5.29700 -1.80600 41.74200
H  -4.16900 -2.06400 43.08200
H  -3.80900 -2.83400 41.57200
H  -1.27100 -5.27800 43.46400
H  0.44100 -5.32300 46.04500
H  -1.77900 -5.27100 46.21700
H  -2.96400 -5.56200 44.87500
H  -2.66000 -3.94900 45.54700
H  1.32700 -6.93400 43.73000
H  -0.31300 -7.28700 44.04800
H  0.87400 -7.38300 46.62200
H  1.98400 -8.22900 45.50300
H  0.43600 -8.83200 45.72000
H  6.91900 -5.06700 44.75800
H  5.53900 -6.04300 44.83500
H  6.03300 -5.23600 46.33200
H  7.06100 -0.39700 42.57200
H  8.09900 3.38800 44.73600
H  9.51800 2.63700 44.33400
H  8.66000 2.11800 45.79500
Mg 35.76100 0.66300 29.37500
C  33.97700 2.06400 31.93000
C  38.40300 0.24100 31.41000
C  37.74200 0.17000 26.63400
C  33.26700 1.94300 27.14600
N  36.12800 1.06000 31.46100
C  35.24300 1.60800 32.36400
C  35.77000 1.51800 33.81700
C  37.30200 1.21000 33.53200
C  37.26500 0.76100 32.04200
C  38.21700 2.37400 33.82400
C  34.98700 0.55300 34.73800
C  34.52100 1.02600 36.10500
H  35.40500 2.12900 36.83500
N  37.75700 -0.01900 29.06400
C  38.63300 -0.18000 30.07000
C  39.88700 -0.61500 29.54000
C  39.72700 -0.65600 28.14600
C  38.34100 -0.14900 27.88800
C  41.18500 -0.82600 30.37800
C  40.70700 -1.16200 27.04300
O  40.49300 -1.10400 25.80900
C  42.07200 -1.86400 27.36900
N  35.52900 1.03700 27.22900
C  36.49600 0.70700 26.29100
C  36.03400 1.04700 24.86200
C  34.52000 1.22900 25.04900
C  34.36000 1.34300 26.58700
C  36.72100 2.42600 24.39400
C  33.68300 0.06000 24.51300
C  33.67200 -1.21800 25.35800
N  33.88800 1.62400 29.43400
C  32.95200 2.03700 28.54100
C  31.73700 2.57300 29.21400
C  32.09900 2.58400 30.54900
C  33.42900 2.00800 30.61600
C  30.61300 3.40700 28.69200
C  31.78900 3.15700 31.88700
O  30.89700 3.91300 32.24700
C  32.95200 2.65200 32.86800
C  33.32900 3.84100 33.59900
O  34.22800 4.60200 33.38700
O  32.52000 3.91800 34.69300
C  32.69700 5.09000 35.57500
H  39.25800 0.14800 32.08400
H  38.46000 0.03600 25.82300
H  32.45900 2.13800 26.43800
H  35.66900 2.51200 34.25400
H  37.55200 0.28300 34.04700
H  37.71300 3.21600 33.35000
H  39.19100 2.13700 33.39800
H  38.26000 2.53500 34.90100
H  35.49100 -0.37200 35.01700
H  34.04700 0.33700 34.23000
H  34.47800 0.13500 36.73100
H  33.49700 1.38600 36.00000
H  42.00900 -0.40600 29.80100
H  41.40800 -1.89100 30.42800
H  41.22900 -0.27300 31.31600
H  41.92900 -2.50400 28.24000
H  42.82600 -1.11500 27.60900
H  42.49700 -2.35100 26.49100
H  36.34100 0.24600 24.18900
H  34.16600 2.15200 24.58900
H  37.15600 2.45300 23.39500
H  37.53500 2.71300 25.06000
H  36.02500 3.26400 24.36700
H  34.07000 -0.12700 23.51100
H  32.65900 0.42800 24.44800
H  33.46600 -2.10300 24.75600
H  32.88900 -1.15800 26.11400
H  34.64400 -1.36500 25.83000
H  30.28700 4.23900 29.31700
H  29.73200 2.77500 28.57600
H  30.90800 3.73700 27.69500
H  32.54400 1.92000 33.56500
H  31.66200 5.41700 35.67100
H  33.46400 5.78400 35.23200
H  32.98900 4.72100 36.55900

