158

Mg 24.32200 -5.39600 45.89900
C  26.37000 -3.00400 44.26700
C  21.77700 -4.48800 43.78200
C  22.59400 -7.87900 47.30900
C  27.21700 -6.31900 47.86800
N  24.10100 -3.98400 44.10600
C  25.08200 -3.09400 43.68600
C  24.54600 -2.24000 42.48400
C  22.99700 -2.57100 42.45500
C  22.95700 -3.78200 43.45200
C  21.96300 -1.43800 42.74000
C  25.29700 -2.57800 41.13900
C  25.50100 -1.39900 40.18300
H  24.90000 -1.51600 38.79600
N  22.41600 -5.98300 45.63700
C  21.55300 -5.54900 44.64100
C  20.38900 -6.30800 44.73700
C  20.52200 -7.23900 45.78600
C  21.87000 -7.02700 46.35000
C  19.21600 -5.97600 43.80900
C  19.42000 -8.11100 46.21600
O  18.36500 -8.16700 45.61800
C  19.50700 -9.00300 47.42700
N  24.90200 -6.97300 47.30500
C  23.94800 -7.81200 47.76000
C  24.46400 -8.81100 48.70800
C  25.93600 -8.35800 48.94100
C  26.04100 -7.06700 48.02600
C  23.58600 -9.05300 49.94300
C  27.08000 -9.40900 48.67600
C  27.15300 -9.82800 47.19300
N  26.35000 -4.82600 46.10700
C  27.34700 -5.24800 46.99500
C  28.47600 -4.36600 46.76400
C  28.15100 -3.48200 45.72000
C  26.86800 -3.81700 45.37800
C  29.71300 -4.33500 47.56900
C  28.55300 -2.37800 44.92100
O  29.59100 -1.75400 44.99700
C  27.46300 -2.09700 43.87400
C  27.07700 -0.66300 44.01500
O  26.39300 -0.19100 44.90100
O  27.51700 0.14400 42.98500
C  27.29900 1.52800 43.18100
H  20.98100 -4.13200 43.12400
H  22.08200 -8.78500 47.63800
H  28.13200 -6.63000 48.37700
H  24.68900 -1.18100 42.69800
H  22.78200 -2.98100 41.46900
H  21.17900 -1.70500 43.44900
H  21.50000 -1.17500 41.78900
H  22.53600 -0.56100 43.04000
H  24.80100 -3.35200 40.55300
H  26.31700 -2.91200 41.32900
H  26.56200 -1.29700 39.95600
H  25.26100 -0.42400 40.60800
H  18.62600 -6.87200 43.61800
H  19.66000 -5.70000 42.85200
H  18.64400 -5.17600 44.27800
H  18.64300 -9.65700 47.54300
H  19.58800 -8.30900 48.26400
H  20.36300 -9.66700 47.31300
H  24.45000 -9.74700 48.15000
H  26.01100 -7.93200 49.94100
H  23.30600 -10.10700 49.96900
H  22.69900 -8.42000 49.91300
H  24.16900 -8.78100 50.82300
H  27.05600 -10.24300 49.37800
H  28.05700 -8.99000 48.91600
H  27.00100 -10.90700 47.17200
H  28.22600 -9.85800 47.00600
H  26.66700 -9.24100 46.41400
H  30.60400 -4.33400 46.94100
H  29.78900 -5.18300 48.24800
H  29.68300 -3.43600 48.18500
H  27.81200 -2.09500 42.84200
H  28.12800 1.87500 43.79800
H  26.30100 1.76100 43.54900
H  27.31600 1.95500 42.17800
Mg 24.82600 1.64900 30.15100
C  26.95200 1.04900 32.79300
C  22.10800 1.53400 32.26700
C  22.79800 1.71700 27.33500
C  27.49000 1.00400 27.86300
N  24.54600 1.29100 32.36800
C  25.57300 1.30100 33.23600
C  25.08900 1.64800 34.61500
C  23.53600 1.55700 34.48800
C  23.35600 1.49600 32.96400
C  22.78500 0.32100 35.12500
C  25.60500 3.03400 35.05400
C  26.76100 2.99900 36.09100
H  26.42500 3.94300 37.29900
N  22.70700 1.58400 29.86200
C  21.79900 1.47500 30.81900
C  20.46400 1.47100 30.24800
C  20.63500 1.58700 28.84000
C  22.09700 1.71400 28.63900
C  19.22300 1.28200 31.09700
C  19.50100 1.77700 27.74200
O  19.65500 2.23600 26.59600
C  18.11500 1.25900 28.08700
N  25.10200 1.56700 27.91800
C  24.14000 1.64900 27.02000
C  24.63700 1.74900 25.62200
C  26.18400 1.64800 25.81500
C  26.26900 1.43800 27.29200
C  24.05000 0.81500 24.56100
C  26.93800 2.86900 25.15500
C  26.96500 4.14600 26.05200
N  26.89700 1.07600 30.23700
C  27.78700 0.93600 29.23800
C  29.10100 0.71700 29.88100
C  28.81000 0.68800 31.26700
C  27.40000 0.88000 31.46000
C  30.45700 0.62000 29.18000
C  29.36900 0.61200 32.65300
O  30.55700 0.59200 32.98800
C  28.17200 0.91800 33.66100
C  28.05500 -0.23000 34.57900
O  27.54700 -1.26700 34.36000
O  28.64400 0.04500 35.77200
C  28.36100 -0.93800 36.88600
H  21.26700 1.67400 32.94900
H  22.19800 1.74600 26.42400
H  28.29400 0.91300 27.12900
H  25.34300 0.89100 35.35800
H  22.97400 2.44600 34.77400
H  23.37400 -0.35000 35.75000
H  22.30500 -0.31600 34.38100
H  22.04800 0.78400 35.78100
H  24.76600 3.65500 35.36800
H  25.92800 3.64700 34.21200
H  27.66200 3.42400 35.64900
H  27.00300 1.97800 36.38500
H  18.47800 2.00000 30.75600
H  19.42000 1.56200 32.13200
H  18.81400 0.27500 31.18300
H  18.06400 0.28700 28.57900
H  17.59600 1.28800 27.12900
H  17.70700 2.04700 28.72000
H  24.51900 2.76300 25.23800
H  26.42200 0.67500 25.38400
H  23.53300 1.28800 23.72700
H  23.45500 0.10900 25.14000
H  24.86300 0.21600 24.15000
H  26.61000 3.13200 24.14900
H  27.96900 2.54100 25.02700
H  26.33800 4.08000 26.94200
H  26.60000 4.92500 25.38300
H  27.99000 4.42700 26.29600
H  30.54200 1.32900 28.35600
H  30.57800 -0.38200 28.76800
H  31.17800 0.88300 29.95400
H  28.40800 1.82300 34.22100
H  27.44800 -0.56200 37.34800
H  29.24900 -0.92200 37.51900
H  28.15600 -1.93700 36.50100

