158

Mg 34.56300 48.70200 26.39000
C  35.01900 46.51700 29.11100
C  33.16000 50.97800 28.51100
C  33.75700 50.52800 23.74900
C  35.62200 45.99800 24.25200
N  34.04100 48.67000 28.57900
C  34.45100 47.73100 29.48800
C  34.00200 48.17700 30.88800
C  33.33400 49.58200 30.64600
C  33.49000 49.76300 29.14500
C  31.87500 49.72100 31.25500
C  35.22900 48.29300 31.85000
C  35.20800 47.66500 33.27600
H  35.29000 48.58100 34.44500
N  33.87500 50.59500 26.20100
C  33.31100 51.39300 27.16200
C  32.90300 52.65600 26.65100
C  33.15400 52.53300 25.21800
C  33.52600 51.20400 25.03100
C  32.24400 53.83000 27.49900
C  33.06800 53.54400 24.20100
O  33.21800 53.39100 22.97900
C  32.85400 54.91100 24.52200
N  34.54800 48.24800 24.23600
C  34.17000 49.25500 23.38000
C  34.52600 48.82900 21.89000
C  35.34300 47.47600 22.08900
C  35.13400 47.17800 23.61000
C  33.18300 48.74800 20.99300
C  36.86900 47.52200 21.62600
C  37.55800 46.29900 20.94900
N  35.15900 46.65700 26.60000
C  35.55500 45.69000 25.67500
C  35.86600 44.39700 26.30100
C  35.65700 44.69300 27.67800
C  35.28900 46.09300 27.81300
C  36.38600 43.16300 25.68800
C  35.74200 44.17800 29.05100
O  36.08600 43.07400 29.44900
C  35.20900 45.36600 29.99200
C  34.02900 44.81600 30.69700
O  33.07000 44.33800 30.13500
O  34.23700 44.96100 31.99500
C  33.15500 44.55700 32.90900
H  32.78800 51.63400 29.30200
H  33.46800 51.12800 22.88400
H  36.01600 45.20100 23.61700
H  33.33600 47.39300 31.24900
H  33.90200 50.39600 31.09600
H  31.13100 49.93700 30.48800
H  31.82600 50.52500 31.98900
H  31.71600 48.85800 31.90100
H  35.65400 49.29100 31.96400
H  36.03800 47.77200 31.33800
H  35.82800 46.76900 33.24500
H  34.23800 47.16700 33.28100
H  31.84100 53.44300 28.43500
H  31.45400 54.32900 26.93700
H  33.02400 54.55000 27.74300
H  33.66700 55.19200 25.19100
H  31.90900 55.09700 25.03200
H  32.80200 55.62200 23.69700
H  35.14600 49.61300 21.45500
H  34.87500 46.62100 21.60000
H  33.10600 47.82100 20.42500
H  33.35600 49.58800 20.32000
H  32.30900 49.05500 21.56800
H  37.39900 47.68000 22.56500
H  37.05000 48.50600 21.19300
H  36.84000 45.49600 20.78300
H  38.30800 45.78800 21.55300
H  37.99400 46.68400 20.02800
H  36.84300 43.36500 24.72000
H  35.60800 42.43000 25.47400
H  37.08400 42.63800 26.34000
H  35.98900 45.60600 30.71400
H  33.15700 43.46700 32.90800
H  32.26000 44.99800 32.47100
H  33.24700 44.93700 33.92600
Mg -5.23200 25.35500 26.00200
C  -4.21500 27.06400 28.86100
C  -7.06000 23.22500 28.00900
C  -5.83700 23.57500 23.22400
C  -3.26600 27.64700 24.01100
N  -5.49800 25.14400 28.18000
C  -5.00200 25.97800 29.16600
C  -5.52000 25.55800 30.53900
C  -6.38100 24.24800 30.29100
C  -6.32900 24.16900 28.71700
C  -5.79100 23.00100 31.00900
C  -6.44600 26.65900 31.20200
C  -6.28000 26.88600 32.64400
H  -5.83200 25.75500 33.47600
N  -6.22500 23.67100 25.68400
C  -7.01900 22.94300 26.58000
C  -7.56100 21.72900 25.92700
C  -7.35000 21.91700 24.52900
C  -6.38500 23.07600 24.46700
C  -8.45800 20.89300 26.65100
C  -7.77100 20.98400 23.41800
O  -7.40900 21.22900 22.28100
C  -8.66900 19.78500 23.63000
N  -4.37700 25.46500 23.89200
C  -5.01400 24.65100 22.96900
C  -4.61800 25.03900 21.56900
C  -3.78300 26.39500 21.82900
C  -3.88600 26.59200 23.33500
C  -3.85900 23.89800 20.91000
C  -4.16000 27.63600 20.95300
C  -3.01100 28.30700 20.21800
N  -3.92400 26.98100 26.30000
C  -3.28200 27.85000 25.39900
C  -2.62200 28.90100 26.17200
C  -2.95300 28.59500 27.49400
C  -3.70000 27.37800 27.55500
C  -1.89600 30.07800 25.55700
C  -2.81700 29.13700 28.83000
O  -2.35200 30.17900 29.26200
C  -3.58000 28.13300 29.77600
C  -2.49600 27.38200 30.59400
O  -1.36500 26.96500 30.17600
O  -2.92800 27.23400 31.87600
C  -2.00900 26.70700 32.90900
H  -7.77300 22.72000 28.66400
H  -6.13800 23.15100 22.26500
H  -2.75200 28.40200 23.41300
H  -4.61100 25.43200 31.12700
H  -7.43700 24.38800 30.52200
H  -4.82900 23.24100 31.46100
H  -5.60400 22.21600 30.27600
H  -6.47900 22.53000 31.71200
H  -7.46600 26.27500 31.18700
H  -6.33700 27.56900 30.61100
H  -7.14100 27.32300 33.14900
H  -5.61400 27.74700 32.70300
H  -8.91500 20.10700 26.05000
H  -9.31400 21.49500 26.95600
H  -7.93700 20.55300 27.54600
H  -9.69500 19.97600 23.94500
H  -8.18000 19.12900 24.35100
H  -8.78100 19.08600 22.80100
H  -5.44200 25.31700 20.91200
H  -2.72200 26.16600 21.73000
H  -3.33200 23.28800 21.64300
H  -3.18700 24.24900 20.12700
H  -4.65600 23.23700 20.57000
H  -4.78300 28.28300 21.57100
H  -4.85200 27.16900 20.25300
H  -3.13700 29.38200 20.34800
H  -3.15700 28.09300 19.15900
H  -2.05200 27.88400 20.51700
H  -2.25300 30.44600 24.59500
H  -0.86800 29.72100 25.50000
H  -2.01800 30.80600 26.35900
H  -4.18300 28.60400 30.55300
H  -0.95700 26.85600 32.66800
H  -2.10700 25.62500 33.00200
H  -2.24900 27.10200 33.89600

