158

Mg 41.04400 41.14500 27.39600
C  40.56500 43.59800 29.79000
C  41.85900 38.89500 29.90800
C  42.08300 39.02500 25.09200
C  40.05800 43.33700 24.94600
N  41.27800 41.32500 29.60000
C  40.91700 42.37800 30.42300
C  40.85700 41.90800 31.91500
C  41.39400 40.40600 31.87500
C  41.52600 40.18100 30.35500
C  42.70200 40.19100 32.71700
C  39.56000 42.21100 32.57400
C  39.21300 41.55100 33.89000
H  38.64100 42.42400 34.98100
N  41.91300 39.23800 27.54200
C  42.05300 38.38900 28.64800
C  42.50700 37.11400 28.22800
C  42.84000 37.22400 26.82200
C  42.31700 38.59000 26.45400
C  42.70300 36.02000 29.25100
C  43.40500 36.17100 25.88300
O  43.61400 36.45900 24.65000
C  43.62600 34.82900 26.39500
N  41.19600 41.25200 25.30400
C  41.52400 40.22000 24.61000
C  41.37900 40.35600 23.08900
C  40.48500 41.62500 23.06900
C  40.54300 42.13400 24.51300
C  42.59200 40.46000 22.08800
C  39.04300 41.50900 22.54000
C  38.19200 40.53400 23.37300
N  40.59400 43.14600 27.36000
C  40.17000 43.92300 26.24300
C  39.88700 45.29200 26.73000
C  40.07500 45.10300 28.08000
C  40.49700 43.83900 28.42600
C  39.55500 46.47600 25.89300
C  40.04900 45.90100 29.35800
O  39.77400 47.09900 29.57400
C  40.20300 44.85100 30.47100
C  41.37200 45.25000 31.21300
O  42.51700 45.13000 30.81100
O  41.08400 45.49300 32.54600
C  42.28400 45.83500 33.34100
H  41.83000 38.19900 30.74900
H  42.35900 38.28800 24.33500
H  39.53400 44.03100 24.28700
H  41.60000 42.59000 32.32900
H  40.71100 39.63400 32.22600
H  42.50600 40.08000 33.78300
H  43.49100 40.90000 32.46300
H  43.19200 39.24100 32.50400
H  38.69400 41.91000 31.98400
H  39.68800 43.28900 32.67300
H  40.10100 41.04400 34.26800
H  38.52900 40.71000 33.77700
H  43.75200 35.73100 29.31200
H  42.29300 35.19000 28.67600
H  42.20100 36.14500 30.21100
H  44.08000 34.27700 25.57200
H  42.74100 34.33600 26.79800
H  44.38800 34.92800 27.16800
H  40.80300 39.46800 22.83100
H  40.88400 42.37600 22.38700
H  43.45900 40.76400 22.67600
H  42.28600 41.04200 21.21800
H  42.78700 39.49300 21.62500
H  39.05200 40.99600 21.57800
H  38.65100 42.52100 22.43900
H  37.62100 39.80200 22.80300
H  37.49300 41.19400 23.88500
H  38.77800 39.97800 24.10500
H  40.46200 46.65700 25.31500
H  39.28700 47.32900 26.51600
H  38.76000 46.26200 25.17900
H  39.31600 44.79900 31.10200
H  43.09500 45.13000 33.16200
H  41.95200 45.67900 34.36800
H  42.67700 46.84700 33.25200
Mg 5.75000 54.25700 40.60700
C  5.77400 50.72000 40.60800
C  9.04400 54.18400 39.66000
C  5.57000 57.51600 39.87700
C  2.17500 54.00800 41.01100
N  7.24500 52.54100 39.99900
C  7.05600 51.22700 40.28800
C  8.44100 50.44600 40.21900
C  9.47700 51.63400 40.10400
C  8.57500 52.87500 39.92000
C  10.34500 51.78200 41.34200
C  8.46500 49.46800 38.99700
C  8.29200 50.17500 37.58900
H  6.99300 49.84900 36.85600
N  7.16300 55.66700 39.97800
C  8.45500 55.43200 39.64800
C  9.09700 56.71400 39.42200
C  8.08000 57.70600 39.57600
C  6.89400 56.99800 39.83200
C  10.56700 57.04800 39.19800
C  8.28100 59.24000 39.46700
O  9.32300 59.78500 39.20400
C  7.13500 60.07800 39.86700
N  4.11200 55.54100 40.50300
C  4.32900 56.87600 40.06300
C  2.92000 57.58900 40.01500
C  1.86700 56.59500 40.44200
C  2.72200 55.24400 40.66300
C  2.86300 58.87500 40.90300
C  0.67700 56.57100 39.45800
C  -0.46000 57.41000 39.84700
N  4.23500 52.81000 40.91300
C  2.90700 52.81200 41.14500
C  2.41400 51.42300 41.45400
C  3.55800 50.68300 41.36300
C  4.56300 51.48700 40.84400
C  1.00200 50.98000 41.91800
C  3.99100 49.34900 41.64800
O  3.48500 48.39000 42.15600
C  5.40800 49.30300 40.98900
C  5.21200 48.34200 39.82100
O  4.73500 48.58100 38.73200
O  5.58800 47.11000 40.19900
C  5.16600 46.05600 39.22600
H  10.13000 54.22100 39.54700
H  5.35000 58.56100 39.64800
H  1.12000 53.94400 41.28700
H  8.60400 49.93100 41.16600
H  10.12900 51.42600 39.25500
H  11.38700 51.80700 41.02300
H  10.28100 50.87500 41.94400
H  10.06100 52.65000 41.93600
H  7.71800 48.67800 38.90600
H  9.48700 49.09500 39.04800
H  9.11200 49.91300 36.92000
H  8.35500 51.25500 37.72000
H  11.04800 57.37100 40.12100
H  10.69500 57.80400 38.42300
H  11.11700 56.15700 38.89700
H  6.41400 60.21300 39.06200
H  7.43800 61.08800 40.14600
H  6.59200 59.79300 40.76800
H  2.77400 57.99600 39.01400
H  1.33800 56.84000 41.36300
H  3.84600 59.31400 41.07300
H  2.44300 58.60400 41.87200
H  2.23500 59.64700 40.45900
H  0.44500 55.50700 39.41900
H  1.01400 56.91900 38.48100
H  -0.15300 58.25100 40.46800
H  -1.08700 56.79700 40.49600
H  -1.04100 57.76400 38.99500
H  1.15900 50.34400 42.78900
H  0.50500 50.54500 41.05100
H  0.27700 51.72700 42.24000
H  6.07500 48.85200 41.72300
H  6.02500 45.58900 38.74300
H  4.45800 46.30100 38.43500
H  4.65000 45.26800 39.77400

