158

Mg 16.38200 -0.71200 27.84300
C  15.59000 1.36400 30.52400
C  18.27300 -2.61100 30.00400
C  17.73700 -2.37300 25.10300
C  14.84800 1.52400 25.75500
N  16.92200 -0.57100 29.96600
C  16.41700 0.35000 30.87400
C  16.80000 -0.13400 32.29700
C  17.98200 -1.07600 32.03300
C  17.71100 -1.52800 30.56500
C  19.43300 -0.72200 32.33100
C  15.56000 -0.70200 33.08400
C  15.30600 0.09500 34.45100
H  16.53700 0.46600 35.34700
N  17.71500 -2.33600 27.65400
C  18.33900 -3.03100 28.66200
C  19.05400 -4.18300 28.13100
C  18.97600 -4.14000 26.69000
C  18.13100 -2.94700 26.43500
C  19.64000 -5.27300 29.01800
C  19.56700 -5.03200 25.61200
O  19.47300 -4.79400 24.40700
C  20.54100 -6.26700 25.91200
N  16.39300 -0.43600 25.71000
C  17.01200 -1.24400 24.77400
C  16.82500 -0.65900 23.39800
C  15.81300 0.43900 23.59600
C  15.64900 0.50700 25.04500
C  18.16500 -0.19200 22.71600
C  14.50700 0.27600 22.79300
C  13.28400 -0.22100 23.49300
N  15.32600 0.99300 28.05100
C  14.72100 1.79700 27.12300
C  14.04500 2.96100 27.76500
C  14.38300 2.76900 29.11600
C  15.17100 1.60000 29.23300
C  13.33500 4.08400 26.98400
C  14.16600 3.41700 30.44800
O  13.46800 4.36800 30.76400
C  14.97100 2.46300 31.44300
C  15.99000 3.29500 32.21700
O  17.09600 3.61200 31.86200
O  15.44200 3.69400 33.37600
C  16.21900 4.66200 34.21800
H  18.67500 -3.31200 30.73900
H  18.02500 -2.90400 24.19400
H  14.41300 2.21000 25.02500
H  17.25700 0.71600 32.80300
H  17.84000 -2.00300 32.59000
H  20.04700 -0.87300 31.44300
H  19.74400 -1.32900 33.18100
H  19.58700 0.31200 32.64000
H  15.72700 -1.73500 33.38800
H  14.66100 -0.57500 32.48000
H  14.59200 -0.44700 35.07000
H  14.92100 1.09000 34.22800
H  19.98800 -6.14200 28.45900
H  18.87400 -5.49900 29.75900
H  20.56700 -4.93300 29.47900
H  20.03900 -7.13900 26.33000
H  21.23000 -5.70000 26.53900
H  20.99800 -6.57900 24.97300
H  16.46800 -1.31000 22.60000
H  16.23200 1.40800 23.32400
H  19.06500 -0.70200 23.05900
H  18.37500 0.85700 22.92900
H  18.13300 -0.26400 21.62900
H  14.66100 -0.38500 21.94000
H  14.21600 1.24700 22.39200
H  12.75200 0.64100 23.89500
H  13.59500 -0.86300 24.31800
H  12.69300 -0.86000 22.83700
H  13.23600 4.94000 27.65100
H  12.38400 3.58800 26.79200
H  13.85300 4.34900 26.06200
H  14.22700 2.02300 32.10700
H  15.97600 4.40800 35.25000
H  16.01300 5.69100 33.92300
H  17.30900 4.65800 34.23300
Mg -10.65300 16.92400 40.29100
C  -7.26800 16.67900 40.30300
C  -10.40100 20.40800 40.16100
C  -13.97300 17.14200 39.45200
C  -10.96200 13.43800 39.81500
N  -9.01500 18.35700 40.23400
C  -7.66800 18.03500 40.20600
C  -6.81900 19.27100 39.88500
C  -7.83800 20.40200 40.28100
C  -9.15400 19.71600 40.24800
C  -7.57100 21.15900 41.56800
C  -6.34700 19.35500 38.37600
C  -4.87400 19.19600 38.11900
H  -4.26500 18.11100 37.21300
N  -12.05500 18.62800 39.87800
C  -11.68400 19.93600 39.94500
C  -12.95800 20.71100 39.78900
C  -14.06900 19.77200 39.68100
C  -13.41100 18.46100 39.68700
C  -13.15400 22.17100 39.83700
C  -15.57800 20.12900 39.54500
O  -16.00700 21.25900 39.58500
C  -16.61500 19.04600 39.30500
N  -12.20500 15.48800 39.81000
C  -13.47100 15.86600 39.61500
C  -14.46900 14.68700 39.32400
C  -13.37600 13.53900 39.13200
C  -12.10600 14.15800 39.77000
C  -15.50400 14.43800 40.36500
C  -13.22200 13.16700 37.63800
C  -13.40800 11.74200 37.20000
N  -9.45500 15.36400 40.12400
C  -9.69500 13.99600 40.00400
C  -8.39200 13.29200 39.96300
C  -7.41900 14.32400 40.08300
C  -8.09700 15.56000 40.25200
C  -8.20700 11.86500 39.80200
C  -6.01400 14.61700 40.10900
O  -5.08000 13.79100 39.87900
C  -5.81000 16.15100 40.31600
C  -5.03300 16.35100 41.58200
O  -5.05600 15.65700 42.61900
O  -4.28500 17.51500 41.52700
C  -3.33800 17.79800 42.65800
H  -10.34900 21.49800 40.10600
H  -15.03200 17.14800 39.18500
H  -10.91000 12.34900 39.75300
H  -5.89000 19.40600 40.43900
H  -7.94700 21.15900 39.50500
H  -6.78100 20.72600 42.18200
H  -8.46000 21.05100 42.19000
H  -7.30500 22.16900 41.25800
H  -6.79300 20.17500 37.81400
H  -6.82600 18.50800 37.88500
H  -4.40200 19.14400 39.09900
H  -4.50600 20.16800 37.79100
H  -13.85800 22.60600 39.12700
H  -12.19500 22.67500 39.95800
H  -13.57600 22.31300 40.83200
H  -17.62900 19.43300 39.41300
H  -16.57900 18.30100 40.10000
H  -16.34300 18.51400 38.39400
H  -14.91300 15.00800 38.38200
H  -13.67100 12.68300 39.73900
H  -15.18500 14.58700 41.39700
H  -16.00300 13.48500 40.19100
H  -16.23300 15.23200 40.20300
H  -12.30800 13.59600 37.22800
H  -13.99300 13.68600 37.06900
H  -14.48100 11.60300 37.06400
H  -13.13100 11.08300 38.02300
H  -12.79300 11.48800 36.33700
H  -7.14200 11.64000 39.86400
H  -8.69400 11.67300 38.84600
H  -8.63400 11.30100 40.63100
H  -5.23200 16.53000 39.47400
H  -3.85200 17.82500 43.61900
H  -2.73400 18.69200 42.50400
H  -2.63500 16.96700 42.71200

