158

Mg 35.42400 2.49000 29.84600
C  33.35500 3.41000 32.50400
C  38.19200 2.75300 32.01500
C  37.43700 1.73200 27.36100
C  32.67000 2.74700 27.72600
N  35.69800 2.98800 31.96300
C  34.69300 3.15800 32.91100
C  35.24700 3.21000 34.32700
C  36.79100 3.23900 34.14400
C  36.91300 2.90000 32.65000
C  37.46100 4.54100 34.67300
C  34.67300 1.99800 35.14300
C  34.17700 2.24100 36.63700
H  34.80500 3.49100 37.26000
N  37.60900 2.24300 29.63800
C  38.55200 2.41900 30.65900
C  39.86300 2.09900 30.12200
C  39.67300 1.79500 28.77100
C  38.19200 1.95200 28.49900
C  41.18900 2.29500 30.88200
C  40.70100 1.51000 27.66500
O  40.35600 1.08600 26.56600
C  42.24000 1.46700 27.90000
N  35.15000 2.36900 27.90200
C  36.13800 1.99300 26.98100
C  35.60900 1.89500 25.53300
C  34.04900 1.80900 25.77600
C  33.91700 2.39800 27.26800
C  35.98700 3.02000 24.61900
C  33.38500 0.45000 25.52700
C  32.57900 0.29100 24.29500
N  33.37600 3.01200 30.03000
C  32.40800 3.16400 29.05500
C  31.20600 3.69300 29.70500
C  31.45300 3.73200 31.06300
C  32.81900 3.33600 31.17400
C  29.97100 4.01100 28.83500
C  30.88200 4.04700 32.35400
O  29.78600 4.49600 32.58100
C  32.14800 3.71100 33.38100
C  32.15700 4.77400 34.40900
O  32.94800 5.75100 34.31100
O  31.17400 4.57700 35.34800
C  31.07100 5.72200 36.33500
H  39.06000 2.86100 32.66900
H  38.07900 1.71900 26.47800
H  31.78300 2.83600 27.09600
H  34.92600 4.10400 34.86200
H  37.33500 2.47700 34.70000
H  38.50800 4.41000 34.94600
H  36.86900 4.95800 35.48900
H  37.49900 5.35800 33.95300
H  35.48200 1.26800 35.18800
H  33.89800 1.57000 34.50700
H  34.31100 1.34600 37.24400
H  33.09700 2.37900 36.69100
H  41.87100 1.45500 30.74400
H  41.09300 2.22700 31.96500
H  41.74100 3.20500 30.64500
H  42.40900 0.69300 28.64800
H  42.46700 2.48000 28.23200
H  42.63900 1.21600 26.91800
H  35.94900 1.01500 24.98800
H  33.48000 2.50400 25.15900
H  36.33600 2.67700 23.64500
H  36.77700 3.65600 25.01600
H  35.13200 3.68500 24.49200
H  32.83000 0.27200 26.44800
H  34.19200 -0.28300 25.54000
H  32.79400 1.05000 23.54200
H  31.52000 0.27600 24.55300
H  32.74600 -0.67800 23.82700
H  30.13700 4.24100 27.78200
H  29.32900 4.75500 29.30700
H  29.31500 3.14200 28.79700
H  31.88300 2.79500 33.90900
H  30.69900 6.53600 35.71300
H  32.04500 5.96500 36.75900
H  30.28400 5.44800 37.03800
Mg 1.15500 41.44000 26.61600
C  2.93400 41.93800 29.52700
C  -1.53300 40.42300 28.37600
C  -0.41600 40.66000 23.71400
C  4.03600 42.25700 24.80600
N  0.64200 41.31900 28.84200
C  1.52000 41.58900 29.80200
C  0.77600 41.66700 31.16000
C  -0.58000 40.97200 30.80200
C  -0.54200 40.86600 29.30800
C  -1.05800 39.66800 31.54400
C  0.66300 43.15000 31.63000
C  0.78200 43.39000 33.14100
H  0.54500 42.24300 34.10100
N  -0.67400 40.66600 26.14100
C  -1.58700 40.17800 27.00800
C  -2.63800 39.47400 26.33100
C  -2.42100 39.73900 24.96100
C  -1.13000 40.35500 24.89100
C  -3.81500 38.75700 27.02500
C  -3.34300 39.34800 23.77200
O  -2.98600 39.45000 22.64500
C  -4.63600 38.81500 24.06300
N  1.68000 41.54100 24.59100
C  0.88800 41.13500 23.54600
C  1.45000 41.45100 22.08900
C  2.90300 41.89900 22.53900
C  2.86500 41.98000 24.09900
C  1.41200 40.24800 21.10500
C  3.46700 43.20500 21.91700
C  2.99000 44.48200 22.58100
N  3.01400 42.09400 27.00600
C  4.07200 42.40200 26.21600
C  5.20900 42.65700 26.96600
C  4.80000 42.37700 28.24000
C  3.47400 42.11300 28.19600
C  6.52900 43.14400 26.50400
C  5.32500 42.34600 29.62000
O  6.45700 42.52200 30.05900
C  4.02900 42.21000 30.51900
C  4.29100 41.15400 31.62900
O  4.06200 39.95900 31.52200
O  4.91400 41.67700 32.70600
C  5.50800 40.79600 33.74400
H  -2.47500 40.10200 28.82500
H  -0.82300 40.34800 22.75000
H  4.96400 42.43900 24.26000
H  1.44900 41.07000 31.77500
H  -1.39500 41.67500 30.97600
H  -0.53200 39.45200 32.47400
H  -0.96700 38.79000 30.90300
H  -2.12300 39.69200 31.77500
H  -0.29700 43.57500 31.33400
H  1.41800 43.78400 31.16500
H  0.07900 44.21100 33.27800
H  1.83600 43.65900 33.22000
H  -3.92900 37.75300 26.61500
H  -4.61500 39.47300 26.83500
H  -3.88200 38.61100 28.10300
H  -4.60100 37.75700 24.32100
H  -5.26900 38.96700 23.18900
H  -5.01400 39.43000 24.88100
H  0.96600 42.30400 21.61300
H  3.57000 41.05300 22.37400
H  2.44200 40.12000 20.77200
H  0.81200 40.37300 20.20300
H  0.97500 39.38800 21.61200
H  3.15000 43.13100 20.87700
H  4.55300 43.17500 22.00200
H  3.82300 44.92000 23.13200
H  2.12600 44.31100 23.22300
H  2.66700 45.28900 21.92300
H  7.04300 43.63000 27.33300
H  6.49700 43.78300 25.62200
H  7.11500 42.26500 26.23300
H  3.84100 43.21700 30.89200
H  6.20500 40.01800 33.43300
H  4.71800 40.24700 34.25600
H  5.91600 41.44200 34.52100

