158

Mg 54.21400 24.79600 45.46000
C  51.52700 26.96900 44.66700
C  52.03900 22.10800 44.63400
C  56.76100 22.83000 45.54900
C  56.07300 27.49300 46.18100
N  52.08300 24.70600 44.61800
C  51.17700 25.64300 44.45000
C  49.86200 25.10200 43.84600
C  49.94300 23.60100 44.37100
C  51.43800 23.46500 44.56100
C  49.05800 23.36400 45.68400
C  49.72200 25.11800 42.33600
C  48.33700 25.03300 41.73400
H  48.13900 24.31500 40.38700
N  54.40800 22.73500 45.08200
C  53.41300 21.83300 44.85000
C  53.95100 20.53700 44.89500
C  55.36500 20.62600 45.12000
C  55.63600 22.08700 45.30800
C  53.09600 19.27400 44.75900
C  56.27400 19.46700 45.08300
O  55.77800 18.32100 45.05600
C  57.70900 19.62600 45.12000
N  56.15200 25.13200 45.77400
C  57.04900 24.14700 45.75700
C  58.47900 24.65500 46.00300
C  58.28100 26.19600 46.31100
C  56.73500 26.32900 46.10900
C  59.26900 23.98300 47.09400
C  59.06400 27.17200 45.37800
C  59.66100 28.38600 46.15100
N  53.90000 26.81800 45.47000
C  54.77500 27.80800 45.83600
C  54.05200 29.11000 45.83000
C  52.81900 28.75400 45.34600
C  52.76800 27.39200 45.09000
C  54.47900 30.43200 46.39900
C  51.60500 29.43200 45.09900
O  51.32300 30.58900 45.11800
C  50.67800 28.23700 44.61000
C  50.16100 28.57000 43.26700
O  50.82000 28.77700 42.22900
O  48.78600 28.71000 43.26800
C  48.22800 28.93500 41.93100
H  51.23400 21.37100 44.62300
H  57.65000 22.20100 45.63400
H  56.65200 28.38400 46.43000
H  48.93500 25.56900 44.17800
H  49.50200 22.91500 43.64800
H  49.72100 23.16000 46.52400
H  48.32900 22.56000 45.58300
H  48.60000 24.29200 46.02800
H  50.30200 24.23500 42.06600
H  50.36000 25.88900 41.90500
H  48.18500 26.09000 41.51400
H  47.65500 24.64700 42.49200
H  53.27300 18.51500 45.52200
H  53.20200 18.90500 43.73900
H  52.11000 19.54000 45.13900
H  58.06300 18.65900 44.76200
H  58.04200 19.87200 46.12800
H  58.00700 20.34900 44.36100
H  59.12900 24.50500 45.14200
H  58.61400 26.34000 47.33900
H  59.52100 24.60600 47.95300
H  60.06600 23.35700 46.69200
H  58.65900 23.18800 47.52200
H  58.49800 27.50600 44.50900
H  59.91200 26.63700 44.95100
H  60.71900 28.29400 46.39600
H  59.09400 28.62800 47.04900
H  59.54800 29.29000 45.55200
H  54.25100 30.40000 47.46400
H  54.01200 31.32100 45.97300
H  55.56000 30.47900 46.27200
H  49.86100 28.12600 45.32400
H  47.38800 28.24100 41.88600
H  48.81400 28.86900 41.01500
H  47.88400 29.97000 41.94100
Mg 43.78600 41.76600 26.48400
C  42.73700 44.18000 28.83000
C  44.73900 39.79200 29.06900
C  44.77800 39.59500 24.22800
C  43.17900 44.24200 23.99000
N  43.89100 42.12200 28.71700
C  43.25200 43.07700 29.45200
C  43.15200 42.64500 30.96100
C  44.11400 41.43600 31.00700
C  44.37400 41.13400 29.50100
C  45.44800 41.66700 31.83700
C  41.63300 42.56900 31.37400
C  41.27700 41.70300 32.56900
H  40.61600 42.32400 33.84700
N  44.67700 39.97300 26.64900
C  44.95800 39.26400 27.79400
C  45.40300 37.90800 27.43900
C  45.52500 37.89000 26.05200
C  45.02100 39.15200 25.55500
C  45.74200 36.73400 28.48700
C  45.98000 36.73200 25.14500
O  45.88600 36.70100 23.91000
C  46.55400 35.46600 25.79100
N  43.92900 41.91200 24.34700
C  44.38600 40.87300 23.64800
C  44.33500 41.13700 22.12700
C  43.79400 42.64400 22.09600
C  43.60600 42.99200 23.52200
C  45.75300 41.02300 21.38000
C  42.52300 42.89300 21.20300
C  42.66100 43.98900 20.28000
N  43.08000 43.69900 26.33700
C  42.90000 44.58800 25.29100
C  42.32700 45.83300 25.76100
C  42.24900 45.67900 27.14700
C  42.77100 44.43100 27.46900
C  42.01100 46.93400 24.92800
C  41.90600 46.46700 28.40400
O  41.48000 47.56400 28.56400
C  42.11700 45.37500 29.55500
C  42.96500 45.99100 30.55500
O  44.11200 46.40900 30.41900
O  42.15500 46.25700 31.72400
C  42.82400 46.89500 32.87900
H  45.05100 39.04900 29.80600
H  45.02400 38.89300 23.42800
H  43.08800 45.05600 23.26800
H  43.54800 43.52500 31.46800
H  43.67300 40.55300 31.47100
H  46.34100 41.33300 31.30900
H  45.32500 40.99900 32.69000
H  45.52500 42.68900 32.21000
H  41.04100 42.14300 30.56400
H  41.37400 43.61600 31.53000
H  42.07500 41.04800 32.92000
H  40.55800 40.94600 32.25400
H  44.96600 35.98400 28.64000
H  45.85500 37.32300 29.39700
H  46.76000 36.35900 28.37700
H  46.93400 34.86500 24.96500
H  45.79000 34.95400 26.37500
H  47.40500 35.62800 26.45300
H  43.59100 40.49300 21.65900
H  44.61300 43.28900 21.77800
H  46.52800 41.38700 22.05500
H  45.77300 41.59100 20.45000
H  45.79600 39.96900 21.10800
H  41.76400 43.23100 21.90800
H  42.18200 41.99500 20.68800
H  43.64200 44.06600 19.81100
H  42.29100 44.90700 20.73600
H  42.02200 43.73900 19.43300
H  42.97800 47.43100 24.84400
H  41.39100 47.62200 25.50200
H  41.58400 46.65100 23.96600
H  41.12700 45.17800 29.96500
H  42.73900 46.29000 33.78200
H  42.55100 47.92600 33.10400
H  43.89100 46.93900 32.65900

