158

Mg 39.80400 9.83400 29.20300
C  41.76100 11.30200 31.65100
C  37.85000 8.31100 31.75200
C  38.03200 8.44200 26.89400
C  42.25200 10.58900 26.92000
N  39.91900 9.74000 31.49000
C  40.70500 10.57400 32.25400
C  40.35700 10.51600 33.69900
C  39.20400 9.42700 33.72500
C  38.95400 9.09800 32.18500
C  39.42800 8.12400 34.62400
C  39.99400 11.88700 34.37600
C  40.72500 12.23400 35.73500
H  39.78000 12.65700 36.92500
N  38.14100 8.54100 29.30200
C  37.51400 8.03800 30.41600
C  36.28800 7.33600 29.87700
C  36.26600 7.32400 28.43800
C  37.55500 8.12000 28.18400
C  35.24800 6.75900 30.82600
C  35.23400 6.80000 27.44700
O  35.19900 7.15100 26.29000
C  34.22000 5.80000 27.88700
N  40.03000 9.67400 27.15600
C  39.13500 9.05700 26.40300
C  39.30000 9.42500 24.94200
C  40.69100 10.12800 24.93600
C  41.05400 10.05700 26.44400
C  39.11800 8.13900 24.05100
C  40.67900 11.59700 24.47000
C  39.75800 12.60600 25.19100
N  41.60100 10.72200 29.19500
C  42.46600 10.98100 28.19500
C  43.58700 11.66700 28.73300
C  43.32300 11.82000 30.06800
C  42.15200 11.21900 30.35300
C  44.81000 12.16100 28.12500
C  43.82600 12.45900 31.26200
O  44.86700 13.02800 31.41500
C  42.80100 12.11700 32.37100
C  43.40600 11.22400 33.38400
O  43.76700 10.05200 33.15400
O  43.66000 11.84800 34.58600
C  44.41400 11.09000 35.67900
H  37.17300 7.77200 32.41800
H  37.41600 7.87200 26.19500
H  43.01700 10.62900 26.14100
H  41.06600 10.06100 34.39100
H  38.27700 9.88700 34.07000
H  39.36200 7.21400 34.02700
H  38.66800 8.03800 35.40100
H  40.33600 7.98200 35.21100
H  38.93100 11.92600 34.61600
H  40.28500 12.59300 33.59800
H  41.31800 13.11200 35.48100
H  41.42500 11.49000 36.11600
H  35.42700 5.71400 31.08000
H  34.23600 6.91000 30.45000
H  35.27500 7.39900 31.70700
H  34.59600 5.10300 28.63500
H  33.87600 5.19900 27.04500
H  33.38700 6.39700 28.25900
H  38.50000 10.13300 24.72300
H  41.33200 9.49300 24.32400
H  38.09700 8.08600 23.67200
H  39.44900 7.25700 24.59900
H  39.78400 8.37200 23.22100
H  40.30500 11.65100 23.44700
H  41.71200 11.94400 24.50500
H  39.32500 12.26800 26.13300
H  38.93900 12.94800 24.55900
H  40.30500 13.51500 25.44100
H  44.61600 12.50000 27.10800
H  45.57600 11.39400 28.01200
H  45.20000 12.86400 28.86000
H  42.30300 13.03100 32.69500
H  44.68000 11.79600 36.46600
H  45.32800 10.87400 35.12600
H  43.86100 10.28500 36.16200
Mg 26.89600 50.39800 26.73900
C  24.64300 51.43700 29.22700
C  29.31900 49.71900 29.25600
C  29.24300 49.92100 24.24200
C  24.64600 51.41000 24.32300
N  26.98700 50.74000 29.01200
C  25.88800 50.89300 29.79500
C  26.19300 50.62600 31.25800
C  27.67200 50.10200 31.24400
C  28.04800 50.16100 29.73700
C  28.63800 50.84000 32.16800
C  25.17800 49.68300 31.88900
C  24.64000 49.97800 33.31200
H  24.72700 48.96400 34.42700
N  28.92900 49.88600 26.73300
C  29.71300 49.58600 27.86700
C  31.00000 49.08800 27.43700
C  31.06500 49.24600 26.01100
C  29.73900 49.72600 25.56500
C  32.02800 48.71400 28.48600
C  32.19000 48.86300 25.09500
O  32.13800 49.03400 23.87300
C  33.50000 48.19200 25.60200
N  26.97800 50.69000 24.60100
C  27.95600 50.23800 23.77500
C  27.60500 50.42000 22.27100
C  26.05100 50.63900 22.38100
C  25.87600 50.97100 23.87000
C  28.42200 51.60100 21.60800
C  25.16700 49.47600 21.90100
C  24.11700 49.84000 20.83400
N  25.12200 51.38300 26.71500
C  24.29000 51.67000 25.67300
C  23.11700 52.32000 26.10500
C  23.19500 52.19700 27.51900
C  24.38300 51.56000 27.83900
C  21.96900 52.96400 25.26900
C  22.44400 52.46000 28.76100
O  21.35000 53.02800 28.90100
C  23.39700 51.95400 29.97100
C  23.79200 53.10400 30.74400
O  24.14500 54.16900 30.34700
O  23.75300 52.79800 32.03500
C  24.33800 53.83700 32.96400
H  29.88600 49.30200 30.09200
H  29.97200 49.75200 23.44700
H  24.02200 51.73500 23.48800
H  26.07000 51.53200 31.85100
H  27.59300 49.05300 31.52900
H  28.56600 50.55500 33.21800
H  28.22600 51.84200 32.28600
H  29.63300 51.04400 31.77300
H  25.71600 48.74600 32.02600
H  24.31300 49.59800 31.23000
H  23.57200 50.16300 33.19900
H  24.97500 50.94500 33.68700
H  32.77200 49.50900 28.43400
H  32.37500 47.69900 28.28700
H  31.63100 48.66400 29.49900
H  34.09600 49.01200 26.00200
H  33.85900 47.70800 24.69400
H  33.24800 47.39000 26.29600
H  27.85700 49.51900 21.71300
H  25.83300 51.59500 21.90600
H  28.98400 51.23800 20.74800
H  29.12800 51.82700 22.40700
H  27.68000 52.35800 21.35700
H  24.73400 48.96300 22.76000
H  25.84300 48.78700 21.39500
H  24.53400 49.80000 19.82800
H  23.77900 50.86900 20.95500
H  23.17600 49.29300 20.89200
H  21.13500 53.13800 25.94900
H  21.51100 52.16600 24.68300
H  22.22800 53.85500 24.69700
H  22.84500 51.24200 30.58500
H  24.76300 53.22600 33.76100
H  23.60300 54.50800 33.41000
H  25.11500 54.54700 32.68200

