158

Mg -1.24300 17.94700 27.35300
C  -2.21800 15.80400 30.08100
C  -1.53800 20.63200 29.31900
C  -0.95500 19.70500 24.56300
C  -1.46400 14.85000 25.34200
N  -1.85400 18.15300 29.41400
C  -2.05800 17.21200 30.40300
C  -2.37800 17.80600 31.76900
C  -2.31800 19.32900 31.39800
C  -1.82500 19.39700 29.99200
C  -3.68300 20.16100 31.74700
C  -1.27600 17.53700 32.87300
C  -1.71800 17.10000 34.20400
H  -0.61400 16.48100 35.14300
N  -1.16200 19.85800 27.01800
C  -1.27100 20.88000 27.96700
C  -1.04000 22.19600 27.31300
C  -0.91600 21.94300 25.93100
C  -0.97500 20.47600 25.76800
C  -1.20500 23.57700 27.98500
C  -0.82200 22.90000 24.68700
O  -0.87900 22.44500 23.52000
C  -0.67900 24.37800 24.89300
N  -1.53700 17.35100 25.23300
C  -1.17500 18.29500 24.33200
C  -0.90300 17.62300 22.91500
C  -0.88400 16.11600 23.27500
C  -1.33200 16.06500 24.74300
C  -1.80500 18.05700 21.75600
C  0.41800 15.34600 23.01100
C  1.68600 15.82900 23.77500
N  -1.79100 15.78200 27.59200
C  -1.68500 14.69800 26.73500
C  -2.00100 13.46000 27.40600
C  -2.26200 13.89100 28.73800
C  -2.15500 15.25300 28.80700
C  -2.07400 11.96800 26.81800
C  -2.70500 13.31600 30.03300
O  -3.00700 12.14900 30.34900
C  -2.67000 14.61600 30.91700
C  -1.66300 14.32700 32.01700
O  -0.46000 14.43700 31.82800
O  -2.22200 13.72000 33.10800
C  -1.27100 13.06000 34.08000
H  -1.71300 21.45100 30.02000
H  -0.82000 20.20700 23.60200
H  -1.63300 13.97400 24.71300
H  -3.33800 17.39100 32.07600
H  -1.64700 19.86400 32.07000
H  -3.90800 20.82000 30.90900
H  -3.44000 20.80500 32.59200
H  -4.48500 19.45100 31.95000
H  -0.78600 18.46200 33.17600
H  -0.42900 16.90900 32.59600
H  -2.40700 16.26800 34.05900
H  -2.29400 17.86100 34.73100
H  -1.86600 23.52400 28.85000
H  -1.72100 24.28200 27.33400
H  -0.25600 24.03100 28.27200
H  0.11800 24.38700 25.63600
H  -1.62200 24.77800 25.26500
H  -0.44300 24.84400 23.93600
H  0.07300 18.01000 22.62200
H  -1.64200 15.52400 22.76100
H  -2.86900 17.86400 21.88900
H  -1.61900 17.39100 20.91300
H  -1.57300 19.07900 21.45700
H  0.59600 15.43100 21.93900
H  0.22900 14.27900 23.12000
H  2.12300 14.84700 23.95800
H  1.44700 16.38900 24.67900
H  2.29800 16.35000 23.03800
H  -1.31200 11.35000 27.29300
H  -1.87500 11.99900 25.74700
H  -3.02600 11.53900 27.13000
H  -3.58300 14.77900 31.48900
H  -1.91300 13.07800 34.96100
H  -0.29200 13.49800 34.27600
H  -1.15100 12.02100 33.77500
Mg 16.56300 -1.91200 28.41600
C  15.38600 0.09700 31.12000
C  18.92700 -3.27100 30.67800
C  17.99600 -3.45900 25.86800
C  14.47200 -0.18600 26.30900
N  17.12200 -1.52800 30.63000
C  16.36600 -0.83400 31.47800
C  16.76200 -1.15500 32.91700
C  18.09500 -1.98100 32.84600
C  18.04500 -2.29700 31.30200
C  19.39500 -1.22600 33.25000
C  15.58800 -1.83900 33.67800
C  15.60200 -1.68300 35.19800
H  16.85200 -1.36200 35.99900
N  18.09800 -3.29300 28.33700
C  18.93600 -3.71700 29.31400
C  19.73500 -4.84000 28.76700
C  19.50100 -4.90300 27.39700
C  18.44700 -3.91200 27.11900
C  20.75200 -5.55700 29.56700
C  20.13900 -5.91200 26.31300
O  19.83000 -5.78000 25.17100
C  21.10700 -6.98000 26.69000
N  16.37800 -1.69100 26.44100
C  17.04500 -2.49300 25.51500
C  16.63000 -2.23700 24.03500
C  15.42500 -1.41100 24.31100
C  15.39000 -1.11400 25.81200
C  17.77200 -1.63700 23.17800
C  14.04300 -1.87900 23.71100
C  13.09800 -0.89800 22.94900
N  15.19900 -0.27700 28.59400
C  14.33000 0.17800 27.68800
C  13.44500 1.16000 28.26900
C  13.82800 1.17500 29.67500
C  14.96900 0.31400 29.77100
C  12.36800 1.92500 27.54400
C  13.49400 1.68500 30.99100
O  12.59200 2.43700 31.34600
C  14.54800 1.05900 31.97600
C  15.33200 2.09400 32.75100
O  16.06200 3.00500 32.24300
O  15.16500 2.05900 34.16000
C  15.91900 2.99700 35.07200
H  19.71800 -3.66800 31.31700
H  18.34300 -3.98400 24.97500
H  13.80400 0.28000 25.58100
H  16.93900 -0.19600 33.40400
H  17.92500 -2.93700 33.34100
H  20.06400 -1.53500 32.44700
H  19.55700 -1.70300 34.21600
H  19.33200 -0.14000 33.18500
H  15.73100 -2.89000 33.42600
H  14.72100 -1.56300 33.07900
H  15.21300 -2.57400 35.69100
H  14.89800 -0.87600 35.39800
H  20.89900 -5.18500 30.58100
H  21.76700 -5.58300 29.17100
H  20.32300 -6.53600 29.78000
H  21.26400 -7.61800 25.82100
H  20.60900 -7.66500 27.37600
H  22.06600 -6.55200 26.98300
H  16.39500 -3.23400 23.66100
H  15.59300 -0.39700 23.94700
H  17.71000 -0.55000 23.22800
H  17.60100 -1.84800 22.12300
H  18.78300 -1.89000 23.49900
H  13.50700 -2.21800 24.59800
H  14.26200 -2.70100 23.02900
H  12.04900 -0.91200 23.24400
H  13.09500 -1.15500 21.89000
H  13.56500 0.07800 23.08000
H  12.02600 1.40900 26.64700
H  12.73300 2.88800 27.18900
H  11.60100 2.01800 28.31300
H  14.02200 0.53400 32.77400
H  16.35300 2.42300 35.89000
H  15.16200 3.71600 35.38700
H  16.74600 3.53600 34.61100

