158

Mg 17.04100 52.69000 26.86100
C  18.96000 51.08600 29.24900
C  14.76200 53.50000 29.22400
C  15.17300 53.96200 24.47000
C  19.22300 51.27100 24.41000
N  16.84800 52.26500 29.02400
C  17.80300 51.69400 29.84400
C  17.49200 51.84300 31.24000
C  15.99000 52.47000 31.20900
C  15.83200 52.75700 29.71300
C  14.89200 51.55400 31.67600
C  18.49200 52.89400 31.82600
C  18.26000 53.54900 33.17300
H  17.38900 52.78200 34.13700
N  15.22800 53.59400 26.85300
C  14.49500 53.90500 27.95100
C  13.34200 54.74100 27.55300
C  13.33800 54.83400 26.14800
C  14.63800 54.15000 25.78100
C  12.39900 55.27600 28.54000
C  12.26500 55.58400 25.29500
O  12.31500 55.59900 24.04400
C  11.05200 56.25900 25.95300
N  17.12700 52.51600 24.70600
C  16.26400 53.19200 23.96100
C  16.64700 53.19500 22.50100
C  17.91300 52.29600 22.43400
C  18.15300 52.02900 23.93300
C  15.51800 52.54300 21.58900
C  19.10600 52.89000 21.68800
C  19.10400 52.54900 20.17500
N  18.67500 51.37600 26.79400
C  19.46600 50.92700 25.73200
C  20.58000 50.18700 26.20200
C  20.37800 50.11600 27.59800
C  19.22500 50.90300 27.90300
C  21.60100 49.50600 25.36800
C  20.97100 49.68600 28.87200
O  21.90100 48.90200 29.11600
C  20.07100 50.26800 30.03300
C  19.48800 49.19500 30.85700
O  18.91800 48.20100 30.45600
O  19.61100 49.51500 32.19400
C  19.26800 48.44000 33.18400
H  14.01100 53.75000 29.97600
H  14.59100 54.47600 23.70200
H  19.88000 50.83900 23.65200
H  17.54000 50.85200 31.69200
H  15.92200 53.38900 31.79300
H  14.71800 51.85100 32.71100
H  15.34800 50.56900 31.57900
H  14.01400 51.61200 31.03300
H  18.57100 53.69500 31.09200
H  19.42200 52.33900 31.94900
H  17.80900 54.53500 33.06500
H  19.21300 53.83100 33.62100
H  12.48400 56.36200 28.51600
H  12.71300 55.05400 29.56000
H  11.37700 54.98000 28.30200
H  10.47000 55.56500 26.55800
H  10.41400 56.55100 25.11800
H  11.27000 57.13400 26.56400
H  16.84400 54.25600 22.34500
H  17.74600 51.28500 22.06400
H  14.82100 52.03500 22.25600
H  15.89500 51.78000 20.90800
H  14.99600 53.31200 21.01900
H  20.07400 52.51500 22.01800
H  19.13000 53.95500 21.92300
H  19.29900 53.46300 19.61300
H  18.09700 52.27000 19.86400
H  19.85200 51.80500 19.90200
H  21.01400 48.65000 25.03500
H  22.44200 49.06000 25.89800
H  21.89100 50.25600 24.63100
H  20.77300 50.66700 30.76600
H  19.58800 48.89400 34.12100
H  19.72000 47.46500 33.00200
H  18.18200 48.34300 33.19100
Mg -11.21800 16.99500 41.97500
C  -7.76500 16.74900 42.32600
C  -10.80200 20.46200 41.46800
C  -14.52700 17.25400 41.45200
C  -11.38600 13.49000 42.06100
N  -9.45000 18.38900 41.84700
C  -8.11400 18.05100 42.05000
C  -7.22700 19.28500 42.02300
C  -8.28500 20.49000 42.21800
C  -9.61100 19.72700 41.82700
C  -8.28100 21.04300 43.71900
C  -6.45300 19.38000 40.62900
C  -4.92300 19.43300 40.74600
H  -4.21400 18.59400 39.69700
N  -12.48900 18.64200 41.57200
C  -12.09500 19.91900 41.27300
C  -13.23700 20.69400 40.88000
C  -14.36500 19.86800 41.10600
C  -13.86100 18.52100 41.43800
C  -13.13000 22.13000 40.37200
C  -15.80700 20.32500 41.10100
O  -16.16800 21.49600 40.87000
C  -16.90400 19.34800 41.56200
N  -12.70100 15.49600 41.50800
C  -14.03200 15.95700 41.62300
C  -14.87700 14.72100 41.71100
C  -13.90100 13.49500 41.92600
C  -12.57900 14.20500 41.79100
C  -16.04900 14.73200 42.72000
C  -14.11600 12.21600 41.06000
C  -14.63800 10.89900 41.68500
N  -9.88400 15.40800 42.17200
C  -10.11000 14.09500 42.14400
C  -8.85800 13.40200 42.45100
C  -7.89700 14.42300 42.56200
C  -8.60300 15.61500 42.36100
C  -8.64500 11.88600 42.57700
C  -6.47100 14.67800 42.75800
O  -5.51100 13.95400 42.96900
C  -6.40700 16.27000 42.70100
C  -5.88400 16.73200 44.01100
O  -6.57700 16.97100 44.95900
O  -4.46100 16.70500 44.05400
C  -3.84700 16.99600 45.33700
H  -10.65800 21.53000 41.29500
H  -15.60500 17.39100 41.34200
H  -11.59900 12.42800 42.19800
H  -6.50700 19.34000 42.84000
H  -8.05000 21.21700 41.44000
H  -7.49400 20.64300 44.35700
H  -9.26500 20.90900 44.16800
H  -8.17000 22.11400 43.54600
H  -6.62400 20.33600 40.13600
H  -6.81300 18.62900 39.92600
H  -4.66800 19.15000 41.76700
H  -4.48800 20.41800 40.58100
H  -13.42500 22.71600 41.24300
H  -13.75100 22.36600 39.50800
H  -12.10400 22.40000 40.12300
H  -17.68500 19.98100 41.98200
H  -16.47900 18.94500 42.48100
H  -17.12500 18.54600 40.85700
H  -15.35700 14.71300 40.73200
H  -14.11700 13.15400 42.93900
H  -16.17900 13.72400 43.11500
H  -16.94900 15.07900 42.21300
H  -15.83400 15.54700 43.41000
H  -13.23800 11.91800 40.48700
H  -14.82500 12.35200 40.24400
H  -14.67800 10.01300 41.05100
H  -15.55000 11.03400 42.26600
H  -13.89300 10.67300 42.44700
H  -9.64100 11.49800 42.78700
H  -7.92000 11.58400 43.33400
H  -8.23200 11.42400 41.68100
H  -5.67100 16.56100 41.95200
H  -4.50400 16.83800 46.19200
H  -3.30100 17.93100 45.21400
H  -3.06700 16.23600 45.37400

