158

Mg 47.28000 17.02400 28.18100
C  45.39500 16.69800 31.19300
C  49.66800 18.39200 30.01700
C  48.92900 17.27500 25.36900
C  44.58000 15.72800 26.44300
N  47.50400 17.45900 30.33300
C  46.65000 17.32700 31.40000
C  47.30600 17.80400 32.71200
C  48.54400 18.63000 32.21200
C  48.51900 18.18300 30.76300
C  48.38800 20.18300 32.36200
C  47.72900 16.63300 33.57300
C  48.19100 16.92700 35.06200
H  47.78500 18.26300 35.78400
N  49.06100 17.65500 27.81900
C  49.97000 18.08600 28.65600
C  51.23700 18.39300 27.92300
C  51.03600 18.03200 26.57000
C  49.65100 17.56900 26.57500
C  52.39100 18.87300 28.69800
C  51.96700 18.03700 25.44600
O  51.67400 17.67300 24.30000
C  53.40600 18.56300 25.59800
N  46.92400 16.21900 26.22000
C  47.72400 16.63500 25.22000
C  47.00700 16.49100 23.81800
C  45.56900 15.95300 24.28200
C  45.68200 16.04600 25.71600
C  46.79400 17.84600 23.04800
C  45.14000 14.54500 23.86400
C  45.55500 14.24200 22.45000
N  45.45900 16.30600 28.70100
C  44.47500 15.71100 27.87300
C  43.37800 15.32500 28.70700
C  43.67300 15.66600 30.01100
C  44.94300 16.28800 29.95500
C  42.10800 14.68500 28.13000
C  43.18500 15.54800 31.39500
O  42.10300 15.15100 31.89200
C  44.32900 16.17700 32.23700
C  43.63100 17.24500 33.05700
O  43.51700 18.47500 32.79400
O  43.15700 16.57200 34.18400
C  42.71300 17.58500 35.15100
H  50.41100 18.91200 30.62700
H  49.40000 17.50800 24.41100
H  43.69000 15.40500 25.89900
H  46.63400 18.50000 33.21400
H  49.45600 18.37400 32.75200
H  49.32000 20.47800 32.84400
H  47.63300 20.48900 33.08600
H  48.15900 20.58200 31.37300
H  48.68300 16.30300 33.16200
H  47.04900 15.78400 33.63700
H  49.27800 16.87100 35.12300
H  47.81500 16.12400 35.69500
H  52.13700 18.70500 29.74500
H  52.68400 19.91700 28.58200
H  53.29600 18.34200 28.40200
H  54.02200 17.82700 26.11300
H  53.42200 19.52500 26.11000
H  53.79800 18.66900 24.58600
H  47.56400 15.84900 23.13500
H  44.71800 16.61800 24.13700
H  45.73800 18.09700 22.94800
H  47.23200 17.90800 22.05200
H  47.14100 18.70900 23.61700
H  44.09500 14.24600 23.77900
H  45.63600 13.79600 24.48100
H  46.47600 13.69600 22.65300
H  45.63900 15.08900 21.76900
H  44.94800 13.49900 21.93200
H  41.34000 15.44600 28.26800
H  41.82900 13.75800 28.63100
H  42.28900 14.28900 27.13100
H  44.64100 15.44700 32.98300
H  43.47600 18.33900 35.34900
H  42.56800 17.07400 36.10300
H  41.74400 17.97100 34.83600
Mg -0.74900 34.11000 26.52700
C  -2.58200 32.50500 29.06500
C  0.75600 36.13600 28.93200
C  0.29500 36.12600 24.06800
C  -2.75500 32.35300 24.23500
N  -0.95100 34.33000 28.80100
C  -1.69800 33.48400 29.55900
C  -1.45500 33.87500 31.02200
C  -0.44100 35.15500 30.95600
C  -0.16200 35.24100 29.49100
C  -1.04400 36.41500 31.52900
C  -0.90300 32.62300 31.74500
C  -1.74700 32.14500 33.00900
H  -1.02300 32.03800 34.38900
N  0.41800 35.79600 26.44700
C  1.07500 36.46000 27.57000
C  2.05900 37.42600 27.06900
C  1.86300 37.48200 25.64900
C  0.82600 36.45800 25.35300
C  3.00700 38.08400 28.02800
C  2.50700 38.38700 24.56100
O  2.25700 38.34200 23.37100
C  3.54700 39.21100 25.05500
N  -1.19300 34.19500 24.46000
C  -0.62600 35.14000 23.65300
C  -0.94500 35.00500 22.18800
C  -1.70700 33.62300 22.19900
C  -1.85300 33.30400 23.71300
C  -1.72700 36.15500 21.57900
C  -1.04800 32.45200 21.47900
C  0.06500 31.62800 22.21100
N  -2.23500 32.57300 26.57500
C  -2.90400 31.95900 25.54600
C  -3.84900 31.00000 26.13600
C  -3.79300 31.19600 27.49900
C  -2.77800 32.15900 27.67000
C  -4.70900 30.07400 25.39000
C  -4.27400 30.83800 28.79900
O  -5.21900 30.13000 29.07800
C  -3.55000 31.72100 29.90100
C  -4.59300 32.54700 30.61500
O  -5.04100 33.61000 30.23100
O  -4.94500 31.80700 31.77100
C  -5.86700 32.53900 32.63800
H  1.33100 36.64500 29.70800
H  0.71500 36.74100 23.27000
H  -3.36100 31.80200 23.51300
H  -2.42500 34.30500 31.27000
H  0.49500 34.95700 31.47800
H  -1.63600 36.96500 30.79900
H  -0.25200 37.06200 31.90600
H  -1.57300 36.08400 32.42300
H  0.01700 32.91700 32.25200
H  -0.77100 31.81400 31.02600
H  -2.02200 31.12300 32.74700
H  -2.73300 32.60900 33.02800
H  3.34300 37.38700 28.79600
H  2.50100 38.89600 28.55100
H  3.95100 38.41200 27.59300
H  3.30500 39.93600 25.83100
H  3.90100 39.65400 24.12400
H  4.32600 38.51500 25.37000
H  0.02300 35.00100 21.68700
H  -2.70600 33.67700 21.76600
H  -1.50300 37.04400 22.17000
H  -2.79800 35.97500 21.48700
H  -1.39100 36.45200 20.58600
H  -0.62700 32.91100 20.58400
H  -1.91600 31.84700 21.21500
H  0.29200 32.05000 23.19000
H  0.87900 31.68800 21.48900
H  -0.26900 30.60900 22.40700
H  -5.34500 29.46200 26.03000
H  -4.11800 29.30200 24.89600
H  -5.31800 30.64900 24.69300
H  -3.02700 30.96600 30.48800
H  -6.52200 33.23300 32.11100
H  -5.29100 33.04000 33.41500
H  -6.50000 31.84000 33.18400

