158

Mg -2.40200 17.70000 25.55200
C  -2.58300 15.56700 28.36800
C  -2.88100 20.47100 27.54900
C  -2.57100 19.60800 22.86300
C  -2.54200 14.77300 23.54200
N  -2.69700 17.93000 27.70300
C  -2.85200 16.95400 28.66900
C  -3.15700 17.59000 30.12300
C  -3.53400 19.09500 29.71600
C  -2.99400 19.21800 28.28700
C  -5.05300 19.32600 29.64700
C  -1.91900 17.47400 31.09800
C  -2.21300 17.95800 32.49100
H  -1.36900 17.38200 33.64600
N  -2.47700 19.80500 25.26100
C  -2.50000 20.78400 26.22400
C  -2.32500 22.08800 25.60400
C  -2.00300 21.79100 24.26400
C  -2.38900 20.38500 24.05300
C  -2.23200 23.32900 26.40900
C  -1.47700 22.70300 23.20300
O  -1.20500 22.35000 22.07200
C  -1.04600 24.14700 23.49700
N  -2.56800 17.24100 23.60700
C  -2.62000 18.24300 22.64500
C  -2.68500 17.72500 21.20600
C  -2.60800 16.20100 21.45200
C  -2.57500 16.06700 22.93700
C  -3.84400 18.18300 20.38900
C  -1.41800 15.53600 20.65000
C  0.02400 15.88300 21.00900
N  -2.47700 15.62900 25.84900
C  -2.49500 14.58000 24.93300
C  -2.37300 13.32500 25.64100
C  -2.37700 13.65300 26.99300
C  -2.54200 15.09700 27.06800
C  -2.26400 11.95400 24.99000
C  -2.37100 13.07000 28.33000
O  -2.25400 11.94000 28.70700
C  -2.50600 14.28500 29.25400
C  -1.18400 14.28800 30.00300
O  -0.20200 14.78200 29.52700
O  -1.26800 13.71600 31.23000
C  -0.09600 13.74800 32.15400
H  -3.13600 21.37900 28.09700
H  -2.59200 20.28400 22.00600
H  -2.44400 13.90200 22.89000
H  -4.07100 17.10800 30.46700
H  -3.09600 19.87100 30.34300
H  -5.55200 18.51700 30.18000
H  -5.37300 19.34400 28.60500
H  -5.38300 20.23400 30.15100
H  -1.11100 18.09100 30.70600
H  -1.57600 16.44200 31.17600
H  -3.28600 17.89300 32.67400
H  -2.01200 19.02100 32.36300
H  -2.23500 23.13500 27.48100
H  -3.13900 23.89600 26.19900
H  -1.35200 23.92700 26.17200
H  -0.16900 24.06400 24.13800
H  -1.81400 24.75800 23.97100
H  -0.74200 24.56400 22.53700
H  -1.81800 18.04500 20.62800
H  -3.51000 15.71000 21.08600
H  -3.43300 18.96400 19.75000
H  -4.59400 18.50400 21.11200
H  -4.11400 17.31700 19.78400
H  -1.60000 15.93000 19.65100
H  -1.52700 14.46200 20.80000
H  0.11300 16.26600 22.02600
H  0.42200 16.60700 20.29800
H  0.55000 14.93900 21.15000
H  -3.22400 11.44300 24.91600
H  -1.62600 11.35000 25.63500
H  -1.70100 11.96900 24.05700
H  -3.26000 14.28100 30.04100
H  -0.04400 12.74000 32.56500
H  -0.19600 14.45700 32.97600
H  0.79900 13.97300 31.57300
Mg 47.66200 44.95400 42.94700
C  44.44300 43.98600 43.05300
C  48.48800 41.57100 42.21700
C  50.68000 45.83800 42.10900
C  46.66300 48.23600 42.96100
N  46.50600 43.09500 42.45600
C  45.22100 42.92600 42.72000
C  44.82800 41.46400 42.62300
C  46.14100 40.74600 42.37100
C  47.12800 41.85700 42.31500
C  46.49300 39.65800 43.44400
C  43.74900 41.18600 41.52100
C  43.50300 42.10900 40.31600
H  43.29500 41.56200 38.88800
N  49.37200 43.85700 42.39400
C  49.58300 42.49600 42.15900
C  50.94200 42.18700 41.86500
C  51.58800 43.41700 41.71700
C  50.56000 44.43700 42.10600
C  51.52700 40.77600 41.60700
C  53.03900 43.61900 41.17700
O  53.73600 42.69900 40.80500
C  53.58700 44.99800 40.96500
N  48.51800 46.70000 42.54700
C  49.83700 46.87700 42.37800
C  50.28400 48.30700 42.52200
C  48.94900 49.09500 42.52100
C  47.97500 47.90900 42.69500
C  51.13600 48.59600 43.75800
C  48.58400 49.84900 41.20900
C  48.71300 51.40100 41.20100
N  45.91800 45.97000 43.02300
C  45.64700 47.28500 43.07100
C  44.20700 47.48800 43.30000
C  43.76600 46.14400 43.39400
C  44.81800 45.30400 43.16900
C  43.41500 48.72700 43.49800
C  42.53900 45.39200 43.67900
O  41.42400 45.80600 44.05800
C  42.90000 43.92500 43.45300
C  42.69100 43.16400 44.72900
O  43.40800 43.24700 45.66100
O  41.58200 42.43800 44.68400
C  41.20900 41.77300 45.89700
H  48.59700 40.49000 42.11200
H  51.70600 46.19900 42.00900
H  46.50800 49.31600 42.94000
H  44.45700 41.12900 43.59100
H  46.30700 40.23300 41.42400
H  45.58500 39.07000 43.57500
H  46.69400 40.18400 44.37800
H  47.39000 39.05400 43.30700
H  42.80500 41.03800 42.04600
H  44.08000 40.23700 41.10100
H  44.11000 43.00400 40.18100
H  42.47400 42.41500 40.50600
H  52.06400 40.42700 42.49000
H  52.15900 40.69400 40.72300
H  50.73200 40.03200 41.57200
H  52.91400 45.57200 40.32700
H  54.61300 45.06300 40.60400
H  53.61900 45.46600 41.94900
H  50.89800 48.58400 41.66500
H  48.80900 49.75200 43.38000
H  51.31600 47.65000 44.26900
H  50.54700 49.09000 44.53000
H  52.10800 49.03300 43.53000
H  47.52000 49.72400 41.00700
H  49.04500 49.46900 40.29700
H  49.46300 51.73800 40.48400
H  48.96700 51.77900 42.19200
H  47.73500 51.82400 40.97000
H  43.33500 49.20900 42.52300
H  43.89500 49.35800 44.24600
H  42.41800 48.45700 43.84600
H  42.20200 43.43400 42.77600
H  40.53800 40.93600 45.70300
H  40.71500 42.49500 46.54700
H  42.07000 41.32500 46.39300

