158

Mg 47.02500 16.13300 28.07000
C  44.75200 15.84800 30.74100
C  49.22100 17.99700 30.09800
C  48.81700 17.04200 25.36200
C  44.44700 15.12100 25.94100
N  47.00600 16.88000 30.20200
C  46.05300 16.49100 31.10900
C  46.38400 17.00500 32.49300
C  47.76000 17.70500 32.29900
C  48.03000 17.60500 30.73300
C  48.01700 19.21800 32.61200
C  46.47700 15.83700 33.49900
C  45.76200 15.95600 34.83500
H  45.25400 17.40900 35.32400
N  48.92100 17.13800 27.79700
C  49.73200 17.73300 28.73800
C  50.96000 18.06600 28.17300
C  50.88700 17.83800 26.74300
C  49.49200 17.28200 26.56800
C  52.16900 18.62200 28.92100
C  51.92100 18.07000 25.61500
O  51.72900 17.81800 24.43000
C  53.22300 18.63400 25.95900
N  46.70000 16.06700 25.95000
C  47.56900 16.51400 25.04100
C  46.96900 16.47600 23.61900
C  45.77000 15.59600 23.82800
C  45.62700 15.57100 25.32200
C  46.61200 17.90900 23.13700
C  45.98100 14.20800 23.25200
C  44.76100 13.69900 22.52400
N  45.00200 15.63700 28.18700
C  44.11500 15.16500 27.29500
C  42.93700 14.59300 27.98100
C  43.16100 14.84500 29.27900
C  44.44100 15.47000 29.40800
C  41.70100 14.09200 27.36900
C  42.49700 14.80200 30.55300
O  41.38600 14.35700 30.87300
C  43.50900 15.42200 31.57800
C  42.87700 16.57600 32.25500
O  42.72700 17.66300 31.69100
O  42.37800 16.22700 33.47300
C  41.39400 17.14600 34.05700
H  49.95000 18.46600 30.76300
H  49.48100 17.25600 24.52100
H  43.63000 14.77700 25.30300
H  45.59900 17.59200 32.97100
H  48.60600 17.29200 32.84900
H  47.16100 19.64800 33.13200
H  48.23500 19.88300 31.77600
H  48.89100 19.30600 33.25800
H  47.50000 15.46200 33.53700
H  45.96000 15.00800 33.01700
H  46.34400 15.40200 35.57200
H  44.81300 15.42900 34.74000
H  53.06400 18.07300 28.62600
H  51.97800 18.58200 29.99400
H  52.29000 19.70100 28.83300
H  53.79000 17.84300 26.45100
H  53.07500 19.53500 26.55400
H  53.67600 18.94500 25.01800
H  47.75300 16.10700 22.95700
H  44.85900 15.95400 23.34700
H  45.55000 18.05600 22.94400
H  47.24200 18.19800 22.29500
H  46.98500 18.52300 23.95600
H  46.20200 13.52600 24.07300
H  46.84000 14.09100 22.59100
H  43.85300 13.98500 23.05500
H  44.59300 12.62300 22.57300
H  44.80600 14.00900 21.48000
H  41.02100 13.83200 28.18100
H  41.74200 13.20500 26.73800
H  41.07000 14.84800 26.90200
H  43.88600 14.69000 32.29300
H  40.40000 16.88600 33.69300
H  41.60900 18.15400 33.70100
H  41.28900 17.09000 35.14000
Mg -11.44600 38.21900 42.73100
C  -9.39400 35.53800 41.49200
C  -9.27700 40.41400 41.33400
C  -13.92400 40.42700 43.18600
C  -13.71600 35.62800 43.57600
N  -9.63100 37.97700 41.54200
C  -8.92800 36.83800 41.14300
C  -7.70100 37.08900 40.25600
C  -7.59400 38.62800 40.53300
C  -8.92200 39.06000 41.17300
C  -6.36600 38.99700 41.33400
C  -8.01700 36.69900 38.76400
C  -7.18500 35.62600 38.06400
H  -6.14500 35.90900 36.97800
N  -11.56800 40.17600 42.30200
C  -10.54400 40.95900 41.78200
C  -10.96600 42.36800 41.93300
C  -12.25300 42.35000 42.56500
C  -12.64400 40.96100 42.68400
C  -10.07400 43.55400 41.59700
C  -12.97400 43.64600 42.89200
O  -12.62900 44.78800 42.58300
C  -14.18700 43.49900 43.62100
N  -13.52600 38.04500 43.30700
C  -14.30600 39.14200 43.47500
C  -15.78900 38.81000 43.73400
C  -15.69900 37.24400 43.98600
C  -14.24900 36.94500 43.52100
C  -16.35800 39.43800 45.04700
C  -16.74800 36.35900 43.39800
C  -18.03000 36.42600 44.25000
N  -11.48900 36.01500 42.83000
C  -12.50100 35.16800 43.16600
C  -11.96500 33.77800 43.14900
C  -10.75700 33.84600 42.40000
C  -10.50000 35.29100 42.27300
C  -12.52500 32.53800 43.72500
C  -9.57800 33.13500 41.84300
O  -9.30500 31.98500 41.86500
C  -8.61000 34.21600 41.26200
C  -7.14800 34.09700 41.58700
O  -6.60700 34.39700 42.64700
O  -6.40900 33.42000 40.65600
C  -5.03600 33.02800 40.98200
H  -8.45300 41.12600 41.24700
H  -14.86100 40.97900 43.28000
H  -14.33800 34.82100 43.96800
H  -6.83300 36.58400 40.67900
H  -7.51500 39.16700 39.58800
H  -6.62700 39.56600 42.22700
H  -5.64400 39.48400 40.67800
H  -5.84300 38.10800 41.68600
H  -8.18500 37.55800 38.11400
H  -8.99600 36.24200 38.90800
H  -7.88500 34.86500 37.71900
H  -6.57500 35.13400 38.82200
H  -10.56700 44.15900 40.83500
H  -9.07400 43.25800 41.27900
H  -9.89600 44.07300 42.53800
H  -14.90400 42.91400 43.04400
H  -14.59200 44.50200 43.75800
H  -14.13000 43.04200 44.60900
H  -16.40700 39.05500 42.87000
H  -15.57900 37.03200 45.04900
H  -16.72000 38.70200 45.76500
H  -17.25800 40.00100 44.80200
H  -15.65700 40.09200 45.56600
H  -16.55200 35.28800 43.35000
H  -16.85000 36.78100 42.39800
H  -17.88300 36.89700 45.22200
H  -18.56100 35.47600 44.31800
H  -18.80500 37.02900 43.77600
H  -11.72700 31.99200 44.22800
H  -13.17400 31.99100 43.04100
H  -13.27300 32.74600 44.49100
H  -8.66500 33.84100 40.24000
H  -4.85400 32.97100 42.05500
H  -4.47000 33.87900 40.60500
H  -4.61800 32.18900 40.42500

