158

Mg 52.44100 22.70100 43.52100
C  49.66000 24.68100 42.68500
C  50.69000 19.89300 43.09200
C  55.39000 21.01500 43.15600
C  54.34400 25.82400 43.17800
N  50.53800 22.35400 42.66000
C  49.53600 23.27700 42.47000
C  48.20600 22.53400 42.11900
C  48.52800 21.14900 42.69100
C  49.97500 21.11900 42.89100
C  47.80400 20.76100 44.05900
C  47.85900 22.63500 40.58200
C  46.32800 22.28000 40.34600
H  46.03500 21.00900 39.47100
N  52.95300 20.67700 43.39500
C  52.05000 19.67200 43.18400
C  52.78300 18.43600 43.13000
C  54.16300 18.72300 43.20000
C  54.26000 20.19200 43.27100
C  52.06300 17.12300 42.89400
C  55.22800 17.62000 43.18700
O  54.92800 16.42600 43.21700
C  56.68700 17.90000 43.19900
N  54.44500 23.29500 43.07600
C  55.48800 22.38800 43.06200
C  56.83800 23.09000 42.87600
C  56.51200 24.65200 42.84900
C  55.01000 24.63000 42.97400
C  57.92800 22.73400 43.86400
C  57.00900 25.34100 41.53100
C  56.40700 24.76700 40.19100
N  52.07000 24.83200 43.19100
C  52.95300 25.98000 43.24800
C  52.05700 27.17600 43.37200
C  50.77700 26.65400 43.04500
C  50.85000 25.27800 42.95400
C  52.49800 28.63600 43.47100
C  49.38100 27.16200 42.88700
O  48.86800 28.28300 42.84700
C  48.63700 25.87200 42.45100
C  48.27800 26.06500 40.98000
O  49.07000 26.28400 40.09000
O  46.91400 26.12500 40.82600
C  46.33700 26.29000 39.47300
H  50.07300 18.99700 43.18100
H  56.34000 20.50900 42.97300
H  54.92000 26.75100 43.19800
H  47.41200 23.13000 42.56900
H  48.23500 20.33600 42.02700
H  47.15200 21.58800 44.34300
H  48.48300 20.64800 44.90400
H  47.22800 19.83600 44.05400
H  48.47500 21.88400 40.08800
H  47.99500 23.61900 40.13300
H  45.87300 23.07600 39.75600
H  45.71000 22.11100 41.22800
H  52.34900 16.65100 41.95400
H  50.98100 17.20100 42.78900
H  52.27700 16.52300 43.77800
H  57.34100 17.03000 43.25400
H  56.99100 18.60900 43.96900
H  56.85900 18.38300 42.23700
H  57.19200 22.84500 41.87500
H  56.97000 25.22200 43.65700
H  58.56000 23.59700 44.07400
H  58.61800 21.98200 43.48000
H  57.54200 22.37900 44.81900
H  58.08400 25.17300 41.47000
H  56.74500 26.38900 41.67400
H  55.85300 25.61900 39.79700
H  55.73600 23.92500 40.36400
H  57.19000 24.48200 39.48900
H  51.95600 29.33200 44.11100
H  52.56300 29.01700 42.45200
H  53.51800 28.72200 43.84300
H  47.68900 25.72700 42.96900
H  45.57400 25.51200 39.45100
H  46.98400 26.53500 38.63100
H  45.77800 27.22400 39.41200
Mg 6.90700 57.45000 41.70200
C  5.52000 54.26000 41.65100
C  9.79300 56.14100 40.53800
C  7.97100 60.56100 41.22200
C  3.64900 58.63400 42.36400
N  7.54700 55.51200 41.08400
C  6.79600 54.39200 41.08600
C  7.71800 53.19000 40.59300
C  9.12300 53.79100 40.81500
C  8.84500 55.28000 40.79800
C  9.88600 53.27300 42.11600
C  7.45500 52.90200 39.10000
C  7.64000 51.40200 38.79500
H  6.65000 50.67300 37.83200
N  8.71100 58.20900 40.95600
C  9.76000 57.53200 40.50900
C  10.87400 58.40800 40.25100
C  10.37900 59.76400 40.36200
C  8.96500 59.58000 40.94500
C  12.26000 57.90200 39.86200
C  11.18600 61.03700 40.17200
O  12.38300 60.98600 39.95700
C  10.58100 62.39000 40.49000
N  5.84700 59.31600 41.47200
C  6.63500 60.41100 41.50800
C  5.71000 61.69500 41.74800
C  4.28900 61.10500 41.94700
C  4.56300 59.59500 41.92000
C  6.21400 62.75600 42.77300
C  3.09800 61.45900 40.96900
C  1.90800 62.27600 41.55200
N  4.96700 56.64100 42.09800
C  3.75600 57.20700 42.45600
C  2.74900 56.24600 42.79000
C  3.44300 55.00300 42.55400
C  4.76000 55.37400 42.09200
C  1.32900 56.47200 43.18500
C  3.37900 53.54700 42.63400
O  2.43900 52.85600 43.07100
C  4.72800 53.02300 42.07100
C  4.48400 51.98900 41.08400
O  3.87500 52.16000 40.03700
O  4.77400 50.75700 41.66800
C  4.37200 49.58100 40.86800
H  10.73500 55.77900 40.12300
H  8.29800 61.59800 41.32200
H  2.71300 59.16800 42.54100
H  7.49800 52.30600 41.19200
H  9.73000 53.44400 39.97800
H  10.68300 52.69700 41.64600
H  9.35200 52.56500 42.74900
H  10.15400 54.10000 42.77300
H  8.18100 53.46800 38.51600
H  6.46300 53.27100 38.84100
H  7.65800 50.77500 39.68600
H  8.61800 51.22700 38.34800
H  12.26800 57.85800 38.77300
H  12.50500 56.87500 40.13000
H  13.01600 58.58200 40.25400
H  10.17100 62.69100 41.45500
H  9.76000 62.52300 39.78500
H  11.24500 63.18500 40.15100
H  5.70800 62.17500 40.76900
H  4.02000 61.28300 42.98800
H  5.53100 62.94000 43.60300
H  6.31400 63.75100 42.34100
H  7.12700 62.50200 43.31200
H  2.60300 60.69000 40.37600
H  3.50600 62.13400 40.21700
H  2.02000 62.21000 42.63500
H  0.92400 61.83800 41.39000
H  1.83600 63.32900 41.27800
H  1.07800 57.43600 42.74300
H  1.10200 56.57100 44.24600
H  0.56700 55.76900 42.84700
H  5.28600 52.60200 42.90700
H  3.87800 48.94800 41.60600
H  5.09300 48.97100 40.32300
H  3.67700 49.86500 40.07800

