158

Mg 47.20200 16.20800 28.54700
C  44.88700 16.13800 31.23500
C  49.16400 18.37200 30.53300
C  48.92200 17.02300 25.84400
C  44.61600 15.14800 26.56800
N  47.04300 17.06300 30.71100
C  46.07100 16.79800 31.60100
C  46.37100 17.41100 32.97000
C  47.67900 18.21400 32.67700
C  48.05600 17.87300 31.21900
C  47.53000 19.82300 32.85000
C  46.52600 16.22600 34.03900
C  46.03900 16.49800 35.46900
H  45.80500 18.01400 35.90700
N  48.97900 17.30300 28.28600
C  49.58800 18.13700 29.23400
C  50.73200 18.72000 28.53300
C  50.74400 18.32600 27.21000
C  49.48800 17.49300 27.03200
C  51.98100 19.47900 29.29400
C  51.70300 18.69000 26.03300
O  51.54400 18.19600 24.85300
C  52.65600 19.71900 26.28200
N  46.76700 16.23600 26.52400
C  47.70400 16.39500 25.59200
C  47.22500 16.14900 24.16100
C  45.97000 15.34200 24.47000
C  45.74200 15.61600 25.89100
C  46.99600 17.46300 23.33400
C  45.97800 13.92100 23.91800
C  46.77500 12.86000 24.72700
N  45.25800 15.37800 28.80200
C  44.27300 15.09900 27.89300
C  43.13200 14.49600 28.60100
C  43.30600 14.98200 29.87600
C  44.61400 15.57600 29.96900
C  41.81000 13.95300 28.16000
C  42.66600 15.04800 31.18700
O  41.53800 14.68200 31.56600
C  43.64800 15.74400 32.12200
C  42.92200 17.00300 32.74600
O  42.86400 18.03800 32.12400
O  42.50800 16.82000 34.05000
C  41.76700 17.95900 34.61200
H  49.84800 19.05400 31.04300
H  49.49200 17.18100 24.92600
H  43.79300 14.67000 26.03200
H  45.54400 18.06200 33.25300
H  48.57000 17.94500 33.24400
H  46.59400 20.01800 33.37400
H  47.33100 20.24100 31.86300
H  48.47900 20.08800 33.31500
H  47.57500 15.93100 34.06100
H  46.00400 15.36400 33.62300
H  46.79800 16.06800 36.12200
H  45.09200 15.97100 35.59300
H  51.82800 19.21300 30.34000
H  52.09900 20.54300 29.08900
H  52.87800 18.97800 28.92900
H  52.02600 20.54000 26.62300
H  53.02400 19.95600 25.28300
H  53.48200 19.37100 26.90100
H  47.99600 15.54400 23.68400
H  45.16300 15.81400 23.90900
H  47.84800 17.65200 22.68100
H  46.94300 18.32300 24.00100
H  46.06300 17.47400 22.77100
H  46.31100 14.00800 22.88400
H  44.95300 13.55100 23.88900
H  47.15200 13.33700 25.63100
H  47.55100 12.42800 24.09500
H  46.09700 12.05200 25.00200
H  41.84100 12.89800 28.43100
H  41.55600 14.19200 27.12700
H  41.03100 14.46000 28.72900
H  43.96200 15.06400 32.91400
H  40.86700 18.02300 34.00000
H  42.30300 18.90800 34.63800
H  41.33900 17.63400 35.56000
Mg 48.27600 35.37000 27.95500
C  46.15400 33.80200 30.41500
C  48.22600 38.20700 29.85700
C  49.43600 37.22400 25.29800
C  47.57800 32.74400 25.73400
N  47.43200 35.80800 30.03400
C  46.64000 35.07200 30.79200
C  46.56500 35.80600 32.16200
C  46.69100 37.27000 31.71700
C  47.45100 37.10000 30.41800
C  45.40800 37.98500 31.52200
C  47.63100 35.26900 33.16800
C  48.70100 36.11400 33.88700
H  48.39400 36.58000 35.33900
N  49.08500 37.31900 27.73000
C  49.04600 38.31800 28.70100
C  49.62200 39.51200 28.19100
C  50.13900 39.19300 26.87600
C  49.52100 37.84900 26.60600
C  49.79700 40.81700 28.92600
C  50.98800 40.04500 25.93600
O  51.25900 39.56400 24.86500
C  51.35800 41.49700 26.17900
N  48.59500 34.95900 25.87600
C  49.09700 35.88800 25.01300
C  49.07600 35.33700 23.57000
C  48.70700 33.78400 23.71700
C  48.21900 33.82700 25.20200
C  48.24300 36.14600 22.50000
C  49.81500 32.73400 23.37200
C  49.24300 31.39200 22.90500
N  47.19200 33.56100 28.04000
C  46.97100 32.60900 27.03300
C  46.13500 31.47600 27.60900
C  45.80200 31.95200 28.90300
C  46.45900 33.18500 29.15300
C  45.80100 30.12900 26.98600
C  45.11400 31.53800 30.14600
O  44.43300 30.51900 30.32400
C  45.24200 32.82700 31.11000
C  45.78700 32.40800 32.44700
O  46.89900 32.03900 32.67700
O  44.78100 32.46700 33.36800
C  45.13100 32.24400 34.78700
H  48.15300 39.12700 30.44100
H  49.69200 37.76400 24.38400
H  47.41100 31.89200 25.07200
H  45.60700 35.40200 32.49000
H  47.20800 37.85400 32.47800
H  45.12300 38.53600 32.41800
H  44.59600 37.28200 31.33800
H  45.49900 38.75200 30.75100
H  48.21700 34.56500 32.57700
H  47.12100 34.75400 33.98200
H  49.02300 36.95300 33.27100
H  49.60700 35.52500 34.02800
H  49.44900 41.70300 28.39400
H  50.84400 40.95600 29.19400
H  49.18500 40.78200 29.82700
H  50.49400 42.13900 26.35300
H  51.71200 41.81400 25.19800
H  52.14400 41.57900 26.92900
H  50.10800 35.38500 23.22400
H  47.82200 33.62600 23.10200
H  48.76800 36.42300 21.58600
H  47.69200 36.98700 22.92000
H  47.49100 35.57400 21.95600
H  50.35700 32.59700 24.30700
H  50.52500 33.12900 22.64600
H  48.15400 31.43300 22.90600
H  49.59300 30.52200 23.46100
H  49.54500 31.31700 21.86000
H  46.41800 29.35000 27.43300
H  45.83200 30.10800 25.89700
H  44.78500 29.81700 27.22800
H  44.19600 33.13100 31.08300
H  46.16100 32.54000 34.98900
H  45.01600 31.20100 35.08200
H  44.38800 32.79600 35.36300

