158

Mg 24.03100 -5.49500 45.16800
C  26.02900 -3.11300 43.73000
C  21.59900 -4.64200 42.94400
C  22.33600 -8.33600 46.10700
C  26.74000 -6.79100 46.87800
N  23.87800 -4.09100 43.33600
C  24.74700 -3.19600 43.06500
C  24.24900 -2.26300 41.85900
C  22.73900 -2.57300 41.91200
C  22.73000 -3.83100 42.75400
C  21.87500 -1.41300 42.44900
C  24.91200 -2.71800 40.53600
C  25.70700 -1.59900 39.93000
H  25.19300 -1.11500 38.60400
N  22.18600 -6.28000 44.80600
C  21.34900 -5.74300 43.86500
C  20.18400 -6.60300 43.76100
C  20.39600 -7.69700 44.57100
C  21.69400 -7.46900 45.23300
C  18.95200 -6.17800 42.95300
C  19.36900 -8.74800 44.85800
O  18.39600 -8.87700 44.12500
C  19.50300 -9.79500 45.85300
N  24.53100 -7.49300 46.24800
C  23.59500 -8.28300 46.69700
C  24.11400 -9.28700 47.82300
C  25.55600 -8.71600 48.06400
C  25.61500 -7.67200 47.00300
C  23.14100 -9.57100 48.99500
C  26.66300 -9.80200 47.80700
C  28.00900 -9.88200 48.56400
N  25.93800 -5.07600 45.40100
C  26.86900 -5.59300 46.18100
C  28.16500 -4.86800 45.92000
C  27.81800 -3.90300 44.98300
C  26.51000 -4.07600 44.66600
C  29.48800 -5.27600 46.37600
C  28.38500 -2.78600 44.14100
O  29.55100 -2.34000 44.11700
C  27.18700 -2.20400 43.37800
C  26.95300 -0.70200 43.57000
O  26.02700 -0.14800 44.11200
O  28.01700 -0.18600 42.85400
C  27.91400 1.28200 42.88000
H  20.81600 -4.44100 42.20900
H  21.81400 -9.15800 46.60100
H  27.59800 -6.93000 47.54000
H  24.34500 -1.23800 42.21900
H  22.32300 -2.64000 40.90700
H  22.29800 -0.46800 42.10900
H  21.91400 -1.58000 43.52600
H  20.84500 -1.51700 42.10800
H  24.21300 -3.15400 39.82200
H  25.65800 -3.46700 40.79600
H  26.71400 -1.97600 39.75100
H  25.87700 -0.72800 40.56200
H  18.76400 -5.13100 42.71700
H  18.16500 -6.42400 43.66600
H  19.00700 -6.73000 42.01400
H  18.52100 -10.23500 46.03000
H  19.88900 -9.34600 46.76800
H  20.17200 -10.47600 45.32700
H  24.33500 -10.28600 47.44600
H  25.57900 -8.35500 49.09200
H  22.62400 -10.51700 48.83200
H  22.52700 -8.67500 49.08300
H  23.70800 -9.70200 49.91700
H  26.89800 -9.73100 46.74500
H  26.24000 -10.80500 47.86400
H  28.81600 -9.59100 47.89300
H  28.18100 -10.89000 48.94100
H  28.07500 -9.14100 49.36100
H  29.37800 -5.64600 47.39500
H  30.14200 -4.40700 46.30200
H  29.97700 -6.05200 45.78700
H  27.31800 -2.38300 42.31100
H  28.73900 1.50200 42.20300
H  28.07000 1.74000 43.85700
H  27.04600 1.68700 42.35900
Mg 48.21800 24.84300 29.70600
C  49.32000 27.33200 31.96600
C  46.52800 23.23100 32.35300
C  47.70500 22.30800 27.64200
C  50.04100 26.52300 27.26800
N  48.16500 25.18000 31.92200
C  48.55700 26.33700 32.56500
C  48.14000 26.26600 34.03700
C  47.54500 24.83100 34.17000
C  47.34100 24.37200 32.75000
C  48.45200 23.81000 34.87200
C  47.15200 27.44200 34.44900
C  47.72800 28.36000 35.50600
H  46.87100 28.57300 36.73000
N  47.11800 23.05300 29.93600
C  46.50500 22.60700 31.05400
C  45.74600 21.40100 30.67300
C  46.09000 21.06300 29.32500
C  47.05800 22.15800 28.91100
C  44.99100 20.53000 31.70100
C  45.67500 19.90700 28.52900
O  46.14700 19.70200 27.43400
C  44.63800 19.10000 28.98300
N  48.96000 24.43000 27.79100
C  48.45000 23.32400 27.14300
C  48.82900 23.41700 25.63200
C  49.27300 24.93100 25.42700
C  49.43600 25.32400 26.88100
C  49.90400 22.34300 25.26800
C  48.20400 25.86600 24.88600
C  48.77700 27.04100 23.98000
N  49.31000 26.60400 29.53800
C  49.98000 27.11200 28.49900
C  50.71500 28.33400 28.86200
C  50.39700 28.50600 30.26600
C  49.54000 27.38900 30.57600
C  51.58300 29.12700 28.00500
C  50.72300 29.33900 31.44100
O  51.37500 30.36800 31.53100
C  50.04200 28.52500 32.63200
C  51.07100 28.22100 33.69500
O  51.89000 27.33700 33.63200
O  51.01700 29.10700 34.74100
C  51.99600 29.01300 35.82100
H  45.99200 22.74600 33.17100
H  47.40100 21.47700 27.00200
H  50.53200 27.07300 26.46200
H  49.05000 26.33300 34.63400
H  46.55400 24.79000 34.62200
H  48.65200 22.97600 34.19900
H  47.88200 23.26800 35.62700
H  49.40700 24.19500 35.23000
H  46.24300 26.91800 34.74300
H  46.93400 27.99200 33.53300
H  47.88900 29.35500 35.09100
H  48.75300 28.18000 35.83200
H  45.23600 20.74900 32.74000
H  45.31900 19.49100 31.73700
H  43.91400 20.52800 31.53100
H  43.80500 19.75500 29.23900
H  45.03800 18.60900 29.87000
H  44.30200 18.40000 28.21700
H  47.95800 23.23900 25.00000
H  50.21000 25.10600 24.89800
H  49.42300 21.36500 25.26500
H  50.59100 22.00500 26.04400
H  50.36900 22.41200 24.28500
H  47.73700 26.43000 25.69400
H  47.51600 25.25100 24.30500
H  49.58400 26.58900 23.40200
H  49.12500 27.83100 24.64600
H  47.96300 27.30900 23.30700
H  51.29000 28.97700 26.96600
H  52.62500 28.87700 28.20200
H  51.38700 30.14900 28.32900
H  49.39800 29.28700 33.07000
H  52.01000 29.98300 36.31800
H  52.98800 28.76900 35.43900
H  51.58300 28.28800 36.52200

