158

Mg 0.41100 7.56800 26.63200
C  1.20200 9.29200 29.55300
C  0.59300 4.56800 28.53300
C  -0.01500 5.81300 23.81700
C  1.34400 10.39900 24.77000
N  0.82400 7.07400 28.78700
C  0.91100 7.97900 29.79900
C  0.72400 7.36300 31.18100
C  0.93200 5.81900 30.88500
C  0.84600 5.80500 29.29500
C  2.12500 4.97700 31.45900
C  -0.67600 7.74300 31.75300
C  -0.78500 8.04000 33.23900
H  0.31700 7.63200 34.23900
N  0.15600 5.51400 26.26100
C  0.09800 4.47900 27.14400
C  -0.16800 3.19400 26.50300
C  -0.28800 3.52700 25.10400
C  0.02400 4.99000 24.99400
C  -0.07000 1.85800 27.28700
C  -0.50700 2.63400 23.93100
O  -0.44000 3.06800 22.75100
C  -0.89500 1.24000 24.06700
N  0.59100 8.05600 24.62600
C  0.21700 7.18800 23.64900
C  0.30600 7.81600 22.24600
C  0.58600 9.32300 22.62200
C  0.83300 9.30100 24.13200
C  1.39300 7.22700 21.28900
C  -0.77100 10.31900 22.40200
C  -0.56400 11.64400 21.69300
N  1.00600 9.49900 27.00300
C  1.36500 10.53200 26.17400
C  1.74600 11.62200 26.94200
C  1.63600 11.22300 28.26000
C  1.25400 9.87800 28.26900
C  2.14900 12.99400 26.42100
C  1.82500 11.66400 29.62400
O  2.17500 12.75200 29.98800
C  1.45900 10.44400 30.51700
C  2.61000 10.26600 31.39000
O  3.58100 9.49500 31.25000
O  2.56500 11.26300 32.33300
C  3.76900 11.51900 33.11000
H  0.55100 3.68900 29.18000
H  -0.29900 5.33800 22.87600
H  1.49900 11.33000 24.22100
H  1.49600 7.83500 31.78900
H  0.06700 5.31400 31.31500
H  1.70000 4.06100 31.87000
H  2.67900 5.53200 32.21700
H  2.76900 4.81000 30.59600
H  -1.42100 6.95900 31.61900
H  -0.88600 8.59200 31.10200
H  -1.70400 7.48600 33.42600
H  -1.11500 9.06900 33.37400
H  0.96900 1.67700 27.56200
H  -0.55600 0.97700 26.86700
H  -0.63400 2.11400 28.18300
H  -1.83200 1.16700 24.61800
H  -0.17700 0.65900 24.64500
H  -1.13200 0.76000 23.11700
H  -0.64000 7.75800 21.70700
H  1.46200 9.73500 22.12200
H  1.99200 7.96400 20.75400
H  1.10100 6.46500 20.56500
H  2.18000 6.76700 21.88500
H  -1.20600 10.48400 23.38800
H  -1.55400 9.84900 21.80700
H  -0.81100 11.41500 20.65600
H  0.44900 12.03400 21.79200
H  -1.29400 12.39700 21.99000
H  1.84300 13.72700 27.16700
H  1.51400 13.17700 25.55400
H  3.18500 13.15900 26.12700
H  0.61100 10.70700 31.14900
H  3.45900 11.74400 34.13100
H  4.34000 12.36700 32.73400
H  4.40400 10.63500 33.16800
Mg 47.60000 16.48200 28.75500
C  45.73700 16.25600 31.67500
C  49.91700 18.50600 30.58300
C  49.11600 17.16100 25.87200
C  45.01300 14.96300 27.04200
N  47.71800 17.28900 30.82500
C  46.90200 16.97500 31.87300
C  47.31600 17.53800 33.25000
C  48.58900 18.42300 32.79800
C  48.76200 18.06900 31.31100
C  48.39100 19.95000 33.04900
C  47.78000 16.32700 34.20000
C  47.19900 16.36900 35.57500
H  46.94300 17.77800 36.22300
N  49.28200 17.67400 28.31100
C  50.12100 18.41500 29.19500
C  51.23000 18.93400 28.45000
C  51.00400 18.46600 27.07500
C  49.80200 17.66500 26.99600
C  52.41000 19.65600 29.06300
C  51.95000 18.62300 25.80700
O  51.75500 18.14700 24.73600
C  53.18900 19.61500 25.90900
N  47.06100 16.14800 26.82400
C  47.88500 16.49800 25.79600
C  47.36000 16.16100 24.40000
C  46.22400 15.18700 24.78000
C  46.06300 15.45900 26.27300
C  46.81100 17.30600 23.54900
C  46.55800 13.70600 24.50600
C  45.72000 13.04900 23.41600
N  45.72200 15.72800 29.23800
C  44.80700 15.07000 28.44600
C  43.64600 14.64000 29.24400
C  43.97300 15.10200 30.51800
C  45.25400 15.69600 30.46200
C  42.50900 13.90500 28.83500
C  43.47100 15.14300 31.92600
O  42.50400 14.55300 32.43900
C  44.67400 15.95000 32.67600
C  44.04900 17.09500 33.28200
O  43.96000 18.24200 32.84600
O  43.51000 16.72600 34.49300
C  42.74600 17.77400 35.10100
H  50.67700 19.07800 31.12000
H  49.53400 17.32600 24.87600
H  44.24200 14.40400 26.50800
H  46.55800 18.23700 33.60300
H  49.52900 18.07200 33.22500
H  48.62200 20.40500 32.08500
H  49.13900 20.35100 33.73300
H  47.36700 20.23500 33.29100
H  48.82700 16.31800 34.50300
H  47.65000 15.39900 33.64300
H  47.85500 15.75600 36.19300
H  46.25000 15.85300 35.43200
H  53.32100 19.09200 28.86100
H  52.34900 19.74900 30.14700
H  52.54400 20.64300 28.61900
H  52.85500 20.63200 26.11400
H  53.54900 19.52800 24.88400
H  54.01800 19.19500 26.47800
H  48.15400 15.70300 23.81000
H  45.29400 15.40500 24.25600
H  45.75000 17.13700 23.36500
H  47.35100 17.37400 22.60500
H  46.82500 18.19400 24.18100
H  46.41300 13.11400 25.40900
H  47.56800 13.40300 24.23000
H  46.41100 12.35900 22.93100
H  45.29000 13.72500 22.67800
H  44.90500 12.40200 23.74000
H  41.64500 14.56500 28.91800
H  42.21000 13.09400 29.49800
H  42.67800 13.63700 27.79200
H  44.94300 15.16200 33.37900
H  43.38900 18.61800 35.35000
H  42.26200 17.52300 36.04500
H  41.94100 18.16200 34.47700

