158

Mg 55.30500 23.42300 45.10900
C  53.16700 25.98800 44.18600
C  53.40700 21.14500 43.61400
C  58.02000 21.31800 45.13300
C  57.50100 25.95500 46.39600
N  53.44800 23.57000 43.99100
C  52.65000 24.75700 43.79500
C  51.31800 24.29400 43.12400
C  51.29800 22.75500 43.34300
C  52.77500 22.41000 43.66600
C  50.29400 22.13100 44.40500
C  51.21000 24.74800 41.59400
C  49.74400 25.05300 41.11700
H  49.23600 24.39900 39.77300
N  55.68700 21.51000 44.42500
C  54.71200 20.76300 43.89100
C  55.26900 19.45800 43.62200
C  56.63000 19.53100 43.98700
C  56.82900 20.85200 44.49900
C  54.49300 18.40300 42.74400
C  57.52800 18.30100 43.77400
O  57.08000 17.25900 43.40700
C  58.96300 18.37500 43.93300
N  57.41000 23.49700 45.81300
C  58.34300 22.47500 45.74500
C  59.65200 22.86600 46.52800
C  59.47300 24.39600 46.78700
C  58.02100 24.69400 46.30300
C  59.81400 22.03200 47.77400
C  60.62600 25.28100 46.34500
C  60.48300 25.85500 44.94200
N  55.38900 25.53400 45.37600
C  56.30700 26.37400 45.91800
C  55.88000 27.73500 45.88600
C  54.61800 27.66700 45.21100
C  54.37400 26.27300 44.87000
C  56.74800 28.99700 46.19300
C  53.48600 28.49100 44.69100
O  53.26200 29.69900 44.60100
C  52.55700 27.43500 43.98600
C  52.50200 27.81700 42.54500
O  53.48900 27.81000 41.80100
O  51.20400 28.01700 42.13900
C  51.19400 28.43000 40.72400
H  52.75500 20.38100 43.18500
H  58.77300 20.56600 45.37700
H  58.09300 26.72600 46.89400
H  50.59400 24.86400 43.70600
H  51.03800 22.26800 42.40300
H  50.87300 21.39300 44.96000
H  49.46600 21.57200 43.96900
H  49.87800 22.87100 45.08900
H  51.53500 23.94800 40.92900
H  51.88100 25.55800 41.30600
H  49.60900 26.11800 40.93300
H  48.94100 24.80300 41.81100
H  55.16000 17.83900 42.09300
H  53.67900 18.87500 42.19400
H  54.04600 17.78500 43.52400
H  59.31300 19.34800 43.58700
H  59.43300 17.51800 43.45000
H  59.27600 18.31000 44.97500
H  60.51300 22.67900 45.88700
H  59.42800 24.64900 47.84600
H  60.78300 21.53400 47.74500
H  58.99200 21.32300 47.87200
H  59.75200 22.61200 48.69500
H  61.61700 24.82700 46.34300
H  60.60700 26.16000 46.98900
H  59.79200 25.24200 44.36300
H  61.48800 25.80900 44.52200
H  60.12000 26.88000 44.87000
H  57.61900 28.93200 45.54200
H  57.06900 28.91500 47.23200
H  56.18500 29.89600 45.94300
H  51.55900 27.67100 44.35600
H  52.13300 28.87500 40.39300
H  50.29900 29.05100 40.73200
H  50.94300 27.62200 40.03700
Mg 5.59200 54.55400 40.99700
C  5.42100 51.00900 41.25100
C  8.90000 54.19000 39.73700
C  5.60100 57.71000 40.25500
C  2.36300 54.75700 42.18400
N  6.93700 52.73100 40.39000
C  6.61800 51.39400 40.65100
C  7.87300 50.55900 40.35200
C  9.03800 51.59100 40.21000
C  8.23700 52.96700 40.08600
C  10.17500 51.70000 41.33500
C  7.83300 49.56000 39.10800
C  6.77600 49.80500 37.97900
H  7.32200 50.49600 36.79900
N  7.05200 55.75400 40.06000
C  8.36200 55.50200 39.71100
C  8.95200 56.72700 39.22400
C  7.98500 57.70500 39.19900
C  6.77100 57.07600 39.80400
C  10.41800 56.82200 38.75300
C  8.18700 59.06900 38.65900
O  9.28500 59.40700 38.24300
C  6.94500 60.08200 38.38300
N  4.10100 56.01900 41.06200
C  4.45800 57.28800 40.96500
C  3.37700 58.30600 41.39500
C  2.26100 57.29500 41.97400
C  2.92900 55.93600 41.72600
C  3.85000 59.32200 42.47400
C  0.84800 57.39500 41.23700
C  -0.36900 57.32700 42.20200
N  4.16100 53.23900 41.60200
C  2.91900 53.45300 42.19100
C  2.35800 52.17600 42.71400
C  3.31600 51.22100 42.40200
C  4.37100 51.87300 41.69400
C  1.16200 51.96000 43.55800
C  3.69500 49.82000 42.51100
O  3.20800 48.90400 43.10800
C  5.05700 49.61500 41.70600
C  4.70800 48.67200 40.62800
O  4.06000 49.03100 39.64300
O  5.23700 47.43900 40.87800
C  5.06800 46.47100 39.79000
H  9.88400 54.08600 39.27400
H  5.65800 58.80000 40.24700
H  1.33900 54.62400 42.54000
H  8.08900 49.96700 41.24200
H  9.59800 51.42900 39.28900
H  10.07600 50.78300 41.91600
H  9.97100 52.58700 41.93500
H  11.16300 51.78700 40.88100
H  7.65000 48.59500 39.58000
H  8.77100 49.37300 38.58600
H  5.96100 50.45800 38.29000
H  6.29200 48.86000 37.73200
H  10.94800 55.87400 38.66700
H  11.07500 57.45700 39.34900
H  10.45800 57.16100 37.71700
H  6.05400 59.49900 38.14700
H  7.28400 60.66600 37.52800
H  6.66300 60.64800 39.27000
H  3.12700 58.83100 40.47300
H  2.20600 57.49000 43.04500
H  3.67600 59.01000 43.50400
H  3.32700 60.27200 42.36000
H  4.91000 59.55400 42.37100
H  0.86000 56.58800 40.50600
H  0.80600 58.37400 40.75900
H  -0.88100 58.28900 42.18000
H  -0.12500 57.21900 43.25900
H  -1.10700 56.57600 41.91900
H  0.88700 50.90900 43.46400
H  0.30500 52.58800 43.31800
H  1.36800 52.13400 44.61500
H  5.80700 49.12200 42.32600
H  5.62100 45.55000 39.97300
H  5.48900 46.85200 38.86000
H  4.01600 46.19500 39.73100

