158

Mg -1.49400 16.99200 26.04600
C  -1.79600 15.02400 28.92600
C  -1.86400 19.82500 28.10500
C  -1.67300 18.90600 23.33100
C  -1.55900 14.18800 24.11300
N  -1.78900 17.33900 28.27800
C  -1.92400 16.32500 29.23400
C  -2.32800 16.93000 30.59800
C  -2.35100 18.48800 30.29600
C  -2.00000 18.57400 28.79300
C  -3.78900 19.24000 30.47800
C  -1.41500 16.50300 31.71200
C  -1.83000 17.04800 33.04700
H  -1.63400 16.28100 34.33200
N  -1.49900 19.10000 25.81100
C  -1.68300 20.12000 26.77600
C  -1.63600 21.36400 26.05500
C  -1.34600 21.14100 24.70000
C  -1.57300 19.65100 24.55700
C  -1.71500 22.68300 26.77800
C  -0.95700 22.11000 23.65900
O  -0.97200 21.86000 22.46900
C  -0.58200 23.47600 23.98000
N  -1.76000 16.62000 24.03500
C  -1.65300 17.59300 23.09700
C  -1.81100 17.01000 21.70800
C  -1.30800 15.51100 21.97300
C  -1.59600 15.39900 23.45300
C  -3.27500 17.04800 21.10400
C  0.18500 15.25800 21.57000
C  0.44200 15.12300 20.09500
N  -1.57800 15.03500 26.40200
C  -1.68200 14.01500 25.49000
C  -1.92000 12.79200 26.17100
C  -1.88100 13.13400 27.50600
C  -1.68600 14.54400 27.62800
C  -2.22700 11.53800 25.50300
C  -2.06500 12.51000 28.78000
O  -2.14300 11.32100 29.15300
C  -2.04500 13.77300 29.75700
C  -0.90900 13.33700 30.60800
O  0.18600 13.77300 30.46200
O  -1.39400 12.59900 31.68300
C  -0.47400 12.32100 32.79600
H  -2.05700 20.72900 28.68800
H  -1.57000 19.59600 22.49100
H  -1.53400 13.35100 23.41200
H  -3.30500 16.62200 30.97000
H  -1.62400 19.08900 30.84300
H  -3.52100 20.21600 30.88100
H  -4.61200 18.79800 31.04000
H  -4.25800 19.28900 29.49600
H  -0.41100 16.67000 31.32000
H  -1.49000 15.42900 31.88300
H  -2.87100 17.33600 32.90400
H  -1.23400 17.96000 33.07300
H  -2.12500 22.55300 27.77900
H  -2.36800 23.37800 26.25100
H  -0.72300 23.11100 26.92500
H  -1.15900 24.07000 24.69000
H  -0.29000 24.04500 23.09700
H  0.35900 23.17800 24.44100
H  -1.16600 17.58300 21.04200
H  -1.90900 14.82900 21.37200
H  -3.75800 16.07300 21.04700
H  -3.14400 17.53900 20.13900
H  -3.92300 17.72600 21.66000
H  0.56700 14.44000 22.18200
H  0.74200 16.13500 21.90000
H  1.41800 15.58400 19.94500
H  -0.32100 15.59600 19.47700
H  0.40000 14.05700 19.87100
H  -1.35000 10.89200 25.45700
H  -2.52400 11.73700 24.47300
H  -2.92000 10.91400 26.06700
H  -2.95300 13.79000 30.36000
H  0.57200 12.23000 32.50500
H  -0.86900 11.46000 33.33600
H  -0.53500 13.21200 33.42200
Mg 1.39700 7.64000 26.14800
C  2.14600 9.77300 28.79100
C  1.49300 4.93900 28.35700
C  0.71700 5.67100 23.57000
C  1.71700 10.40700 23.90600
N  1.71300 7.44800 28.33800
C  1.97500 8.45800 29.18900
C  1.88300 7.96000 30.59800
C  1.73400 6.39700 30.49100
C  1.63100 6.23100 28.97900
C  2.96200 5.58700 30.99700
C  0.65000 8.58800 31.33600
C  0.73700 8.77300 32.91200
H  1.85500 7.95400 33.56800
N  1.26400 5.61800 25.98000
C  1.39100 4.66100 26.95500
C  1.19400 3.33300 26.38500
C  0.86200 3.55700 25.03000
C  0.95500 4.99500 24.76500
C  1.15300 2.03300 27.23300
C  0.70800 2.50700 23.97700
O  0.58800 2.81100 22.78300
C  0.55600 1.05200 24.32800
N  1.38600 8.00000 23.98200
C  0.92400 6.95300 23.21500
C  0.87100 7.37200 21.67700
C  0.77100 8.92400 21.91300
C  1.32600 9.14300 23.31300
C  2.16100 6.84900 20.95700
C  -0.55200 9.70600 21.56700
C  -0.76600 10.67300 20.37500
N  1.65700 9.68600 26.23100
C  1.78600 10.68300 25.27000
C  2.11000 11.98200 25.87000
C  2.22200 11.63000 27.27100
C  2.06600 10.20700 27.45600
C  1.91100 13.36700 25.33400
C  2.48200 12.14600 28.62900
O  2.69000 13.28600 29.05600
C  2.37200 11.02200 29.63700
C  3.56300 11.08900 30.58600
O  4.63400 10.59000 30.33100
O  3.12600 11.70000 31.77700
C  4.04300 11.95200 32.92700
H  1.37900 4.05500 28.98700
H  0.56700 5.01800 22.70800
H  1.87800 11.22700 23.20200
H  2.78900 8.25700 31.12800
H  0.83100 6.12600 31.03800
H  2.61500 4.55800 31.09200
H  3.47900 5.97400 31.87500
H  3.69500 5.60400 30.18900
H  -0.31000 8.17500 31.02700
H  0.60400 9.59400 30.91800
H  -0.21800 8.41200 33.29500
H  0.79400 9.82500 33.19100
H  1.75900 1.29100 26.71300
H  0.13700 1.64500 27.30700
H  1.47300 2.16100 28.26600
H  1.54200 0.64000 24.54200
H  0.22200 0.48400 23.45900
H  -0.05300 0.95400 25.22600
H  -0.07700 7.14000 21.19100
H  1.58200 9.29900 21.29000
H  2.75500 6.27800 21.67100
H  2.75800 7.66000 20.54000
H  1.84100 6.09400 20.23900
H  -0.78000 10.25900 22.47800
H  -1.34100 8.95800 21.48300
H  0.10800 10.77000 19.73000
H  -0.91600 11.65200 20.83000
H  -1.64600 10.51900 19.75200
H  1.61400 13.46500 24.28900
H  2.94200 13.71400 25.28300
H  1.23400 13.96100 25.94800
H  1.47600 11.32000 30.18100
H  4.78300 12.71000 32.67000
H  4.79500 11.17000 33.03400
H  3.61400 12.12000 33.91500

