158

Mg 47.20100 25.55700 28.73500
C  48.16900 27.63100 31.43600
C  46.12700 23.26900 30.95200
C  46.77800 23.53500 26.08900
C  48.70900 27.95000 26.52200
N  47.09300 25.56000 30.88800
C  47.50400 26.47800 31.82500
C  47.15400 26.03300 33.24800
C  46.55200 24.61200 33.08200
C  46.58200 24.45900 31.56100
C  47.16900 23.52300 33.90700
C  46.25200 27.12900 34.00700
C  46.84700 27.74400 35.21100
H  45.76900 28.27700 36.19200
N  46.43100 23.71300 28.53300
C  45.97900 22.95200 29.58900
C  45.40000 21.78600 29.00200
C  45.57100 21.80800 27.57300
C  46.26700 23.06600 27.33800
C  44.98000 20.57900 29.86200
C  45.18000 20.76600 26.56700
O  45.55400 20.90000 25.40300
C  44.35600 19.60300 26.90500
N  47.90500 25.59100 26.62800
C  47.52200 24.62800 25.71400
C  47.82900 25.08600 24.26300
C  48.10500 26.61500 24.45200
C  48.31600 26.72400 25.97400
C  49.04900 24.28300 23.77000
C  46.93000 27.47000 23.95100
C  45.57800 27.36900 24.64400
N  48.33000 27.34800 28.89100
C  48.86400 28.16600 27.94100
C  49.47300 29.35200 28.42700
C  49.22100 29.13900 29.83900
C  48.55300 27.90500 30.07600
C  50.25200 30.43000 27.73400
C  49.49400 29.79100 31.14700
O  50.06100 30.82500 31.39500
C  48.93200 28.71500 32.21900
C  49.96200 28.31500 33.20200
O  50.66000 27.33800 33.11500
O  49.83100 29.07700 34.29200
C  50.64500 28.67100 35.47700
H  45.71900 22.53000 31.64400
H  46.34800 23.02300 25.22600
H  49.08300 28.67000 25.79100
H  48.12000 25.99800 33.75200
H  45.46700 24.67900 33.16900
H  47.84400 23.80400 34.71600
H  47.70300 22.79600 33.29600
H  46.38500 22.93200 34.38000
H  45.32200 26.62700 34.27300
H  46.00200 27.92900 33.31100
H  47.33900 28.69100 34.98900
H  47.45900 27.01600 35.74400
H  43.90400 20.44700 29.98000
H  45.35600 20.57400 30.88500
H  45.41600 19.72600 29.34200
H  44.93700 18.83900 27.42300
H  43.90100 19.30000 25.96200
H  43.61000 19.95000 27.61900
H  46.89100 24.83500 23.76700
H  48.96700 27.04500 23.94300
H  49.32200 23.38000 24.31700
H  49.86600 24.96600 23.53800
H  48.75100 23.89300 22.79600
H  46.64000 27.08000 22.97500
H  47.28400 28.50100 23.92700
H  45.79300 26.85300 25.58000
H  44.88700 26.76000 24.06000
H  45.12100 28.34100 24.83200
H  50.45400 30.09900 26.71500
H  51.15500 30.63000 28.31200
H  49.48400 31.20200 27.69400
H  48.18900 29.22000 32.83600
H  50.13300 27.87500 36.01800
H  50.65100 29.57300 36.09000
H  51.68800 28.38400 35.34700
Mg 9.48000 47.40000 26.77300
C  7.64700 47.32300 29.81900
C  12.20700 48.68900 28.55500
C  10.99400 47.44800 23.92900
C  6.45200 46.42700 25.13800
N  9.90400 47.83100 28.84900
C  8.99500 47.69300 29.92000
C  9.63600 48.10700 31.24400
C  10.77900 48.99400 30.70100
C  11.01600 48.49300 29.30500
C  10.43800 50.49900 30.68900
C  10.04100 46.92700 32.10100
C  9.56500 47.07100 33.60700
H  9.32300 45.83000 34.49000
N  11.39000 47.99500 26.32600
C  12.37400 48.44100 27.12600
C  13.53500 48.50100 26.27300
C  13.24800 48.09700 24.95700
C  11.81000 47.89200 25.01600
C  14.85200 49.08500 26.85500
C  14.19900 47.92800 23.65200
O  13.86600 47.57500 22.50900
C  15.64000 48.21500 23.78000
N  8.75500 46.92800 24.77800
C  9.63600 47.02100 23.78500
C  9.01700 46.62100 22.40100
C  7.57600 46.09600 22.90200
C  7.55100 46.56700 24.31500
C  9.12400 47.83400 21.43600
C  7.33700 44.59200 22.78500
C  8.24900 43.52000 23.40900
N  7.37700 47.09900 27.30400
C  6.26900 46.70900 26.52100
C  5.07300 46.74900 27.29500
C  5.58300 46.94900 28.65900
C  6.99700 47.12600 28.54300
C  3.69200 46.45500 26.76700
C  5.22900 46.99200 30.00900
O  4.12300 46.92800 30.62100
C  6.61500 47.11100 30.83600
C  6.61800 45.77200 31.59800
O  7.06600 44.69000 31.15100
O  5.97900 45.97600 32.73900
C  5.61200 44.75100 33.46100
H  13.09400 48.93000 29.14500
H  11.50500 47.43700 22.96400
H  5.51900 46.18000 24.62800
H  8.99100 48.80500 31.77900
H  11.71800 48.82800 31.22900
H  11.15400 51.19500 31.12500
H  9.52300 50.66900 31.25700
H  10.23800 50.83400 29.67100
H  11.12500 46.81400 32.06200
H  9.67300 46.01400 31.63500
H  8.68500 47.70500 33.71100
H  10.47600 47.48100 34.04300
H  14.83400 49.35200 27.91200
H  15.14300 49.94800 26.25700
H  15.64300 48.33900 26.78100
H  15.94900 47.88500 24.77300
H  15.81600 49.29000 23.76300
H  16.15900 47.60800 23.03800
H  9.53700 45.83900 21.84800
H  6.78000 46.61400 22.36800
H  9.39500 48.72600 22.00100
H  8.19500 48.04100 20.90500
H  9.90700 47.66100 20.69800
H  7.27900 44.36100 21.72200
H  6.32900 44.26900 23.04400
H  8.69100 44.00500 24.27900
H  8.91100 43.15700 22.62300
H  7.72400 42.65500 23.81400
H  3.27700 47.17400 26.06100
H  2.98600 46.22200 27.56400
H  3.68400 45.52100 26.20500
H  6.56600 47.96600 31.50900
H  5.59600 44.95400 34.53200
H  6.33300 43.95900 33.25500
H  4.62000 44.43000 33.14400

