158

Mg 26.31400 -0.01300 29.46700
C  27.86800 0.10200 32.53600
C  23.18800 0.21500 31.33300
C  24.42800 -0.29200 26.64600
C  29.15400 -0.91100 27.84200
N  25.53300 0.13600 31.68200
C  26.44800 0.29600 32.73900
C  25.74900 0.55500 34.12500
C  24.28400 0.50000 33.68500
C  24.32500 0.24600 32.17000
C  23.43100 -0.54900 34.37500
C  26.07800 1.85500 34.99800
C  26.61000 1.51500 36.39500
H  26.43100 2.45500 37.54000
N  24.12600 0.04900 29.03800
C  23.10200 0.11500 29.90700
C  21.85500 0.17700 29.18200
C  22.18900 0.00400 27.80900
C  23.64100 -0.00700 27.75100
C  20.53900 0.54900 29.84800
C  21.22000 -0.02100 26.63600
O  21.62000 -0.11600 25.47300
C  19.72700 0.15700 26.80000
N  26.66800 -0.70800 27.58300
C  25.76600 -0.65400 26.55700
C  26.42200 -0.91700 25.17800
C  27.96200 -1.07600 25.54400
C  27.90900 -0.93800 27.10200
C  25.78200 -2.07500 24.37000
C  28.82100 0.07700 24.92900
C  28.85000 1.46600 25.55000
N  28.13900 -0.45100 30.01700
C  29.25100 -0.73000 29.24400
C  30.39200 -0.76000 30.06800
C  29.98500 -0.39800 31.35300
C  28.51100 -0.27300 31.34100
C  31.85500 -1.00100 29.69200
C  30.36700 -0.08500 32.70500
O  31.48600 0.13600 33.21200
C  29.08100 0.17100 33.54000
C  29.00300 -0.87200 34.64900
O  28.64900 -2.01600 34.47600
O  29.45900 -0.31600 35.78500
C  29.26400 -1.19700 36.89400
H  22.28800 0.30800 31.94300
H  23.89400 -0.34900 25.69500
H  30.03400 -1.11400 27.22700
H  26.10200 -0.39100 34.53600
H  23.84100 1.49500 33.72200
H  22.59900 -0.00200 34.81800
H  23.97900 -1.04100 35.17800
H  23.14800 -1.38900 33.74100
H  25.26100 2.56800 35.11300
H  26.75600 2.51300 34.45400
H  27.68600 1.35900 36.31900
H  26.10300 0.59500 36.68700
H  20.08200 1.35800 29.27800
H  20.73500 0.96600 30.83600
H  19.88900 -0.31300 30.00300
H  19.23200 -0.00200 25.84200
H  19.54000 1.16500 27.17100
H  19.32300 -0.56200 27.51300
H  26.20900 -0.02100 24.59500
H  28.35000 -2.06400 25.29500
H  24.74700 -2.25500 24.66100
H  26.33300 -3.01500 24.40600
H  25.68700 -1.67400 23.36100
H  28.48300 0.25900 23.90800
H  29.82000 -0.35400 24.86400
H  28.34500 1.56600 26.51000
H  28.41100 2.16400 24.83700
H  29.86900 1.72500 25.83800
H  32.15600 -1.98700 30.04600
H  32.48200 -0.33000 30.27900
H  31.95800 -0.78000 28.63000
H  29.08500 1.16300 33.99100
H  29.77200 -2.12500 36.63300
H  28.19000 -1.28600 37.05800
H  29.69100 -0.66700 37.74600
Mg 46.66700 16.19100 27.56500
C  44.92900 15.80800 30.50600
C  48.97600 18.29900 29.13700
C  48.01800 17.14600 24.49400
C  44.15400 14.55700 25.88400
N  46.92900 16.95500 29.65400
C  46.16100 16.50900 30.72100
C  46.77800 17.01300 32.03500
C  47.99300 17.91900 31.55300
C  47.96400 17.75800 30.02000
C  47.92700 19.38600 31.96800
C  47.10300 15.83500 33.00000
C  46.39600 16.00100 34.38700
H  46.05100 17.40700 34.87900
N  48.32100 17.39500 26.92800
C  49.21700 18.00700 27.76600
C  50.27500 18.57600 27.01500
C  49.95500 18.45100 25.62300
C  48.69100 17.65600 25.64300
C  51.38800 19.42600 27.66000
C  50.72800 18.89900 24.36200
O  50.33900 18.57100 23.25300
C  51.93500 19.79800 24.56800
N  46.14200 15.88300 25.49700
C  46.89300 16.32100 24.44500
C  46.38900 15.77500 23.15600
C  45.15900 14.86700 23.53300
C  45.14900 15.00700 25.07300
C  46.12200 16.85800 22.06000
C  45.16000 13.44500 22.94600
C  45.22900 13.31100 21.38100
N  44.98100 15.15800 28.11500
C  44.02700 14.60800 27.29300
C  42.89000 14.10600 28.07500
C  43.30100 14.44700 29.37900
C  44.45300 15.24800 29.30400
C  41.60700 13.51300 27.53600
C  42.86100 14.53200 30.75600
O  41.81800 14.15000 31.29600
C  43.93800 15.35700 31.55500
C  43.12000 16.35600 32.34100
O  42.92400 17.49500 31.92200
O  42.80100 15.90500 33.58300
C  41.97400 16.70800 34.44400
H  49.77600 18.83600 29.64900
H  48.38800 17.37500 23.49200
H  43.32400 13.99900 25.44500
H  45.95200 17.61900 32.40500
H  48.92800 17.50000 31.92300
H  48.82200 19.51700 32.57500
H  46.99900 19.51500 32.52600
H  47.99400 20.07300 31.12400
H  48.17500 15.89700 33.18800
H  46.94300 14.89800 32.46600
H  47.08400 15.53500 35.09300
H  45.51200 15.36900 34.30900
H  51.45800 19.43800 28.74800
H  51.19700 20.48800 27.50400
H  52.32500 19.11500 27.19900
H  52.66900 19.25600 25.16400
H  51.54700 20.64800 25.12900
H  52.33500 20.09900 23.60000
H  47.25000 15.17600 22.85900
H  44.27800 15.33600 23.09400
H  45.19500 16.73600 21.50100
H  46.85200 16.71800 21.26300
H  46.22700 17.92200 22.27500
H  44.33100 12.79000 23.21300
H  45.98400 12.97200 23.48100
H  46.15100 12.75900 21.19500
H  45.21600 14.28000 20.88200
H  44.36000 12.77800 20.99600
H  41.97100 12.83400 26.76500
H  40.87000 14.26200 27.24500
H  41.22500 12.83300 28.29700
H  44.38500 14.79400 32.37400
H  42.45900 16.57800 35.41100
H  41.05100 16.16800 34.65500
H  41.63100 17.69000 34.11700

