158

Mg 26.73100 1.09100 28.91500
C  28.70400 0.56800 31.80000
C  23.99200 0.94200 30.92600
C  24.97200 1.30400 26.22400
C  29.61500 0.23400 27.01600
N  26.42000 0.73500 31.09300
C  27.32600 0.75400 32.10600
C  26.76000 0.83700 33.50900
C  25.22400 0.90400 33.13700
C  25.22200 0.75800 31.63100
C  24.23400 -0.06500 33.89600
C  27.22200 2.04900 34.33700
C  26.40800 2.67200 35.49600
H  26.87100 2.07600 36.85200
N  24.72300 1.39600 28.63900
C  23.73200 1.30800 29.57900
C  22.35600 1.39300 28.90400
C  22.69600 1.48300 27.45600
C  24.16600 1.47500 27.39800
C  21.04300 1.29100 29.58700
C  21.76100 1.75400 26.29500
O  22.19700 2.06700 25.15100
C  20.30600 1.72000 26.45700
N  27.22600 0.78800 26.90100
C  26.30800 0.97200 25.97100
C  26.82500 0.85900 24.52100
C  28.30500 0.52400 24.79400
C  28.45200 0.60600 26.29900
C  26.14900 -0.20200 23.60400
C  29.30700 1.51500 24.03300
C  29.99800 2.62100 24.69900
N  28.71700 0.46200 29.24900
C  29.78600 0.10700 28.41400
C  30.92700 -0.29000 29.18800
C  30.58000 0.01500 30.47700
C  29.19200 0.38700 30.46000
C  32.26900 -0.74400 28.68400
C  31.16600 -0.01500 31.85400
O  32.31700 -0.17700 32.29700
C  29.88600 0.29200 32.76200
C  29.60200 -0.78800 33.65300
O  29.22500 -1.91400 33.30600
O  29.80400 -0.40600 34.92600
C  29.49900 -1.40100 35.95000
H  23.09700 0.95800 31.55100
H  24.29000 1.24700 25.37300
H  30.49700 -0.02700 26.42700
H  27.04200 0.02900 34.18300
H  24.83600 1.85100 33.51200
H  24.22800 -1.04300 33.41500
H  23.22500 0.34600 33.91000
H  24.63100 -0.23400 34.89700
H  27.33100 2.92700 33.70100
H  28.23500 1.80900 34.66200
H  25.38900 2.29000 35.43500
H  26.42600 3.76200 35.47700
H  20.53700 2.24500 29.43600
H  21.21200 1.14000 30.65400
H  20.47700 0.42000 29.26000
H  19.88100 1.83400 25.46000
H  20.00900 2.39600 27.25900
H  20.10900 0.71300 26.82300
H  26.78800 1.86100 24.09400
H  28.58000 -0.50100 24.54200
H  26.76300 -1.09200 23.46600
H  25.94700 0.13200 22.58600
H  25.30000 -0.53500 24.20100
H  28.81200 1.86600 23.12800
H  30.14500 0.86400 23.78500
H  29.99000 3.46100 24.00400
H  31.00100 2.35300 25.03200
H  29.38100 3.10100 25.45800
H  32.64600 0.12900 28.15100
H  32.30300 -1.52000 27.92000
H  32.97100 -1.03000 29.46800
H  30.05400 1.23500 33.28100
H  30.09200 -2.28700 35.72100
H  28.46600 -1.73200 36.06100
H  29.85900 -1.05600 36.91900
Mg -11.01100 17.19700 41.24600
C  -7.47300 16.75900 41.60400
C  -10.30600 20.43800 40.67600
C  -14.11400 17.50500 40.47400
C  -11.26300 13.59000 41.44900
N  -9.10600 18.44300 41.09900
C  -7.80900 18.12600 41.34800
C  -6.84800 19.35500 41.21000
C  -7.86000 20.51900 41.44400
C  -9.20100 19.78500 41.01100
C  -7.95100 21.01500 42.93900
C  -6.15100 19.42700 39.78500
C  -4.68700 19.28700 39.83700
H  -4.10600 18.47200 38.68100
N  -12.09100 18.73100 40.51700
C  -11.60300 19.99000 40.38100
C  -12.71800 20.79100 39.95900
C  -13.90400 20.05900 39.86800
C  -13.44400 18.72800 40.31300
C  -12.54600 22.26100 39.67200
C  -15.29100 20.47100 39.37100
O  -15.55500 21.61000 38.97200
C  -16.47200 19.52200 39.47900
N  -12.34900 15.68400 40.75600
C  -13.63500 16.22800 40.80100
C  -14.61700 15.07900 40.90000
C  -13.79500 13.80900 41.20900
C  -12.34700 14.34700 41.15500
C  -15.81100 15.33800 41.81800
C  -14.01700 12.61000 40.18400
C  -14.70500 11.31200 40.67700
N  -9.73700 15.48900 41.61800
C  -10.01200 14.14200 41.64100
C  -8.77100 13.44300 41.93200
C  -7.68900 14.37400 41.96000
C  -8.34100 15.61800 41.73700
C  -8.75700 11.85900 42.19200
C  -6.28500 14.63700 42.17100
O  -5.37200 13.89000 42.48300
C  -6.06300 16.18200 41.89200
C  -5.36600 16.71200 43.13800
O  -4.14900 16.98700 43.21500
O  -6.18100 16.72800 44.26600
C  -5.61700 16.92500 45.58300
H  -10.11700 21.51100 40.76200
H  -15.18400 17.45100 40.26400
H  -11.56700 12.55000 41.59000
H  -6.17000 19.18800 42.04700
H  -7.46300 21.33300 40.83700
H  -7.38100 20.25900 43.48000
H  -8.96700 21.15700 43.30700
H  -7.43900 21.96000 43.11500
H  -6.25000 20.44900 39.42200
H  -6.49900 18.75300 39.00200
H  -4.32000 18.81100 40.74500
H  -4.09400 20.19600 39.93500
H  -12.28000 22.30100 38.61500
H  -11.75500 22.72700 40.25900
H  -13.50900 22.75300 39.80800
H  -16.31000 18.61200 38.90200
H  -17.31100 20.03500 39.00800
H  -16.55100 19.33400 40.55000
H  -15.17000 15.13200 39.96200
H  -13.96900 13.52100 42.24600
H  -16.24000 14.33600 41.82000
H  -16.48600 16.05800 41.35700
H  -15.54000 15.85700 42.73800
H  -13.07500 12.26600 39.75700
H  -14.56700 13.01700 39.33500
H  -14.70000 11.34600 41.76700
H  -14.10600 10.42700 40.46400
H  -15.77100 11.28000 40.45200
H  -8.35400 11.29400 41.35100
H  -9.71700 11.45900 42.51600
H  -8.04100 11.67600 42.99300
H  -5.29200 16.25400 41.12500
H  -6.41000 16.91300 46.33200
H  -5.27300 17.95900 45.57800
H  -4.84600 16.16800 45.72600

