158

Mg 47.01600 24.40500 28.17300
C  47.59800 26.76100 30.61800
C  46.08200 22.28300 30.63900
C  46.74600 22.05600 25.79300
C  48.47600 26.59100 25.76200
N  46.73000 24.60300 30.39600
C  46.96200 25.63600 31.21000
C  46.61000 25.37400 32.64600
C  46.36900 23.83100 32.59600
C  46.40500 23.55200 31.14100
C  47.30500 22.97000 33.45700
C  45.51400 26.25100 33.19100
C  45.05200 26.00900 34.66200
H  45.47800 26.94800 35.74400
N  46.55400 22.36700 28.23100
C  46.08300 21.73400 29.34500
C  45.66500 20.39700 28.95100
C  45.73800 20.35100 27.51900
C  46.36400 21.62200 27.09400
C  45.04700 19.40500 29.94700
C  45.15800 19.22600 26.54400
O  45.16900 19.28400 25.31200
C  44.57100 18.01200 27.18900
N  47.57600 24.29600 26.06900
C  47.17800 23.26300 25.31200
C  47.42500 23.47800 23.85000
C  47.92900 24.99300 23.76800
C  48.03700 25.33800 25.29100
C  48.49100 22.54600 23.23000
C  46.86300 25.82400 23.10500
C  45.42100 26.05300 23.74600
N  47.76200 26.31200 28.10400
C  48.36500 27.04900 27.11200
C  48.89500 28.23200 27.69700
C  48.56500 28.25000 29.04600
C  47.91400 27.03000 29.22800
C  49.65800 29.32100 26.93100
C  48.59800 29.06700 30.31100
O  48.97200 30.21900 30.51900
C  47.92100 28.04800 31.33800
C  48.88600 27.80400 32.44200
O  49.99700 27.24600 32.46400
O  48.23800 28.26500 33.58900
C  49.04700 28.11600 34.83900
H  45.66100 21.71200 31.46900
H  46.52000 21.36800 24.97500
H  48.87300 27.29200 25.02500
H  47.47200 25.63400 33.26100
H  45.37600 23.65200 33.00800
H  48.21300 22.78000 32.88400
H  46.77700 22.07400 33.78500
H  47.49000 23.51500 34.38200
H  44.59800 25.96400 32.67600
H  45.64700 27.32000 33.02500
H  45.41300 25.00400 34.88400
H  43.96900 25.92100 34.58300
H  44.02500 19.13800 29.67800
H  45.20200 19.81900 30.94300
H  45.68000 18.51900 29.99200
H  43.58600 18.30300 27.55400
H  45.15600 17.61200 28.01800
H  44.46600 17.24400 26.42200
H  46.44900 23.38400 23.37400
H  48.92800 25.15700 23.36300
H  48.05900 21.88900 22.47600
H  48.89300 21.89500 24.00600
H  49.29500 23.14900 22.80800
H  46.69400 25.42600 22.10400
H  47.41200 26.76500 23.08700
H  45.25000 27.10800 23.96100
H  45.23500 25.48000 24.65500
H  44.64200 25.81300 23.02200
H  49.05900 30.22000 26.78900
H  49.96200 29.06000 25.91700
H  50.53800 29.56000 27.52800
H  46.99500 28.54900 31.61900
H  49.60900 27.18500 34.91300
H  48.48000 28.31200 35.74900
H  49.72400 28.97100 34.83500
Mg 30.73900 57.64400 40.48400
C  27.61500 56.11500 39.68000
C  32.32400 54.92900 39.19200
C  33.40200 59.41200 40.53000
C  28.69100 60.62100 40.97900
N  30.06300 55.69500 39.79100
C  28.78700 55.36100 39.44300
C  28.70200 54.04200 38.69400
C  30.18200 53.42900 39.01500
C  30.91000 54.75400 39.36000
C  30.36700 52.57900 40.24000
C  28.53400 54.29300 37.15500
C  28.22600 53.07100 36.28400
H  27.54100 53.27700 34.90900
N  32.69300 57.18800 39.92500
C  33.20100 56.07400 39.37900
C  34.63900 56.27800 39.15900
C  34.98700 57.55300 39.66100
C  33.68100 58.10300 39.97800
C  35.47900 55.19000 38.59700
C  36.41600 58.06500 39.82400
O  37.35300 57.32400 39.64400
C  36.70400 59.50100 40.27700
N  31.03200 59.74500 40.76400
C  32.28000 60.15800 40.77600
C  32.33900 61.59600 41.14800
C  30.85600 62.04300 41.23700
C  30.12200 60.75800 40.99200
C  33.20000 61.93700 42.32800
C  30.58700 63.13100 40.19000
C  30.81900 64.64200 40.68900
N  28.51700 58.18600 40.58600
C  27.94000 59.44300 40.73200
C  26.47600 59.36800 40.42200
C  26.29100 58.04700 39.99400
C  27.57500 57.38800 40.11300
C  25.42100 60.46800 40.52100
C  25.34200 57.02700 39.44900
O  24.18000 57.10700 39.23000
C  26.17500 55.76300 39.38800
C  25.67200 54.71300 40.30600
O  25.73200 54.77500 41.48100
O  25.23400 53.58800 39.56300
C  24.60900 52.54100 40.40400
H  32.89800 54.05100 38.88800
H  34.33100 59.97500 40.64000
H  28.12800 61.53000 41.20500
H  27.84300 53.44900 39.00600
H  30.67700 52.88200 38.21300
H  31.17000 52.76900 40.95200
H  30.63400 51.57300 39.91800
H  29.44300 52.52900 40.81600
H  29.55600 54.48100 36.82500
H  27.86400 55.13400 36.97700
H  27.55600 52.39200 36.81200
H  29.10300 52.46500 36.05900
H  36.22800 55.50000 37.86900
H  34.85900 54.46400 38.07100
H  35.94900 54.70900 39.45500
H  36.10900 60.23500 39.73300
H  37.76900 59.64400 40.09100
H  36.47800 59.52400 41.34300
H  32.80300 62.04600 40.26900
H  30.71300 62.28700 42.29000
H  33.78900 61.11100 42.72700
H  32.55500 62.35700 43.10000
H  33.96500 62.68800 42.13200
H  29.51200 62.98900 40.07500
H  31.02400 62.91000 39.21600
H  31.33900 64.79000 41.63600
H  29.78600 64.98000 40.77400
H  31.35500 65.26500 39.97300
H  25.06800 60.73800 41.51600
H  24.59300 60.21500 39.85800
H  25.93300 61.35200 40.14200
H  26.11700 55.31100 38.39800
H  25.47500 52.05900 40.85800
H  24.12000 51.79000 39.78300
H  23.86100 52.85300 41.13200

