158

Mg 36.15500 2.57900 30.34600
C  33.87200 3.34600 32.95700
C  38.76900 3.03900 32.66000
C  38.42600 2.39000 27.94000
C  33.59900 2.71500 28.02900
N  36.22600 3.10200 32.60900
C  35.20800 3.36600 33.42300
C  35.67200 3.52400 34.89300
C  37.24700 3.50800 34.70000
C  37.43000 3.26900 33.19700
C  37.84900 4.96300 35.11800
C  35.27700 2.31800 35.80800
C  34.78200 2.68300 37.25600
H  35.59400 3.78000 37.99100
N  38.30100 2.37700 30.34100
C  39.13000 2.51500 31.37700
C  40.38300 1.97300 31.01500
C  40.34000 1.81500 29.62400
C  39.00500 2.24200 29.21200
C  41.43500 1.61700 31.99300
C  41.39600 1.32200 28.72000
O  41.23300 1.25900 27.51300
C  42.81900 0.86700 29.13800
N  35.97100 2.69200 28.22800
C  37.10200 2.50600 27.46200
C  36.66900 2.31800 25.96000
C  35.09900 2.27600 25.99900
C  34.87500 2.48800 27.50900
C  37.27500 3.22200 24.87100
C  34.46600 0.97000 25.59300
C  33.04600 1.09300 24.96200
N  34.12300 2.88100 30.43800
C  33.20300 2.92200 29.43300
C  31.87000 3.33800 29.97700
C  32.06700 3.43600 31.37100
C  33.45300 3.15800 31.58200
C  30.62700 3.80000 29.25500
C  31.52200 3.85500 32.61300
O  30.38800 4.19400 32.88300
C  32.56700 3.65300 33.77300
C  32.60500 4.91600 34.54000
O  33.13900 5.94900 34.10600
O  32.13000 4.76100 35.83600
C  32.16300 5.87500 36.71400
H  39.58000 3.10000 33.38900
H  39.10100 2.27600 27.09000
H  32.88000 2.72700 27.20700
H  35.31700 4.45800 35.32700
H  37.71800 2.68500 35.23700
H  38.44300 5.31400 34.27500
H  38.55600 4.73600 35.91600
H  37.07300 5.68600 35.36800
H  36.11700 1.64200 35.96500
H  34.39000 1.79200 35.45400
H  34.73400 1.73200 37.78700
H  33.74200 2.97700 37.11800
H  41.83200 0.61100 31.85600
H  41.10500 1.71800 33.02700
H  42.29200 2.27800 31.86200
H  43.40400 0.43700 28.32600
H  42.76700 0.03200 29.83700
H  43.36300 1.67600 29.62700
H  36.91800 1.30300 25.65000
H  34.71800 3.15400 25.47700
H  37.65300 2.66900 24.01200
H  38.07500 3.78300 25.35400
H  36.50800 3.89400 24.48700
H  34.52100 0.28100 26.43600
H  35.13800 0.53800 24.85100
H  32.86900 0.29700 24.23900
H  32.87000 2.14000 24.71200
H  32.35300 0.72900 25.72000
H  30.01600 3.72800 30.15500
H  30.43600 3.06400 28.47400
H  30.73900 4.76700 28.76500
H  32.23800 2.85000 34.43300
H  32.09800 5.63500 37.77600
H  31.47300 6.65900 36.40200
H  33.15000 6.32800 36.61900
Mg 9.06900 49.01700 25.51000
C  6.80500 49.05700 28.28400
C  11.51400 49.96200 27.74800
C  11.28100 48.86700 23.03600
C  6.46700 48.52800 23.46800
N  9.00800 49.61100 27.80000
C  8.11200 49.28600 28.75900
C  8.70800 49.34600 30.12300
C  9.97400 50.24800 29.82900
C  10.26700 49.88400 28.34500
C  9.75900 51.74600 29.93900
C  9.00900 47.93400 30.74100
C  9.61600 47.92900 32.21500
H  8.82600 47.08600 33.19200
N  11.18500 49.20100 25.47300
C  12.00300 49.64600 26.45600
C  13.35400 49.67800 26.02600
C  13.33000 49.27700 24.66000
C  11.87800 49.09600 24.30000
C  14.48800 50.16800 26.92700
C  14.52900 49.10800 23.77600
O  14.43400 48.80000 22.59600
C  15.83200 49.11900 24.36100
N  8.90500 48.95400 23.44100
C  9.94700 48.69900 22.63600
C  9.36200 48.46600 21.19800
C  7.83300 48.28000 21.37300
C  7.73300 48.77700 22.83300
C  9.81500 49.47400 20.05400
C  7.28300 46.86200 21.00200
C  7.39300 45.84300 22.17300
N  7.06900 48.80900 25.74800
C  6.14900 48.47500 24.79900
C  4.80000 48.34100 25.34800
C  5.07900 48.59400 26.73900
C  6.43900 48.87000 26.93500
C  3.47000 48.23800 24.61800
C  4.41600 48.64000 28.03100
O  3.24400 48.61800 28.40400
C  5.53700 49.05100 29.01000
C  5.46800 48.18800 30.25300
O  5.79700 47.06600 30.39700
O  4.71100 48.86100 31.15900
C  4.50500 48.11900 32.39800
H  12.25900 50.14300 28.52700
H  11.99600 48.86500 22.21000
H  5.62200 48.25200 22.83400
H  8.05100 49.86100 30.82500
H  10.85000 49.99000 30.42400
H  8.70600 51.96300 29.76000
H  10.39100 52.21300 29.18400
H  10.17100 52.22300 30.82800
H  9.78900 47.51500 30.10500
H  8.22700 47.17700 30.67500
H  9.73500 48.92600 32.63900
H  10.60200 47.48400 32.08100
H  15.21400 50.76900 26.37900
H  15.05300 49.33200 27.34000
H  14.03700 50.71500 27.75500
H  16.45100 48.51400 23.69900
H  15.70000 48.60000 25.31100
H  16.20200 50.12800 24.54200
H  9.79700 47.47900 21.04000
H  7.11900 48.88300 20.81100
H  8.94900 49.73200 19.44500
H  10.59400 48.96000 19.49000
H  10.33800 50.34900 20.44000
H  7.86000 46.43800 20.18000
H  6.24900 46.89500 20.65800
H  6.36300 45.66200 22.47900
H  7.85900 46.20700 23.08800
H  7.87700 44.93600 21.81000
H  3.08600 47.24000 24.83300
H  3.59100 48.32300 23.53800
H  2.85700 49.06700 24.97100
H  5.38000 50.08300 29.32500
H  4.11100 48.71700 33.21900
H  5.40200 47.62400 32.77100
H  3.78700 47.30500 32.29500

