158

Mg 25.93100 1.17800 29.84000
C  27.94600 0.88200 32.83400
C  23.23700 1.38600 31.85000
C  24.08600 1.05000 27.09400
C  28.73400 0.36100 28.00500
N  25.71200 1.24500 32.13500
C  26.62700 1.05100 33.14800
C  25.97100 1.14200 34.57500
C  24.47000 1.23900 34.15600
C  24.38700 1.17200 32.62100
C  23.55300 0.17200 34.84200
C  26.56000 2.31400 35.44800
C  26.74600 1.93500 36.94700
H  26.49700 3.10600 37.84200
N  23.89100 1.32100 29.54800
C  22.93300 1.37600 30.52500
C  21.61300 1.53800 29.93600
C  21.84300 1.37100 28.54200
C  23.33500 1.24600 28.32900
C  20.44900 1.74400 30.83000
C  20.82400 1.29100 27.42600
O  21.26500 1.02300 26.27700
C  19.41600 1.61100 27.66400
N  26.28100 0.65700 27.89900
C  25.37500 0.84600 26.88400
C  25.99700 0.62700 25.48600
C  27.52100 0.55500 25.85200
C  27.50500 0.53900 27.39500
C  25.51400 -0.73200 24.84600
C  28.41200 1.76600 25.39200
C  29.82900 1.32800 25.02700
N  27.92200 0.76200 30.28700
C  28.94400 0.45200 29.41900
C  30.15800 0.18500 30.13000
C  29.77500 0.38000 31.44300
C  28.43000 0.73300 31.51800
C  31.47500 -0.24700 29.67100
C  30.28000 0.30600 32.79500
O  31.43100 -0.04700 33.17500
C  29.08800 0.76400 33.70700
C  28.94700 -0.35000 34.68700
O  28.47200 -1.44800 34.47300
O  29.39000 0.07400 35.94200
C  29.25400 -1.02400 36.94600
H  22.34600 1.32300 32.47900
H  23.52900 0.98500 26.15700
H  29.58900 0.12500 27.36900
H  26.20200 0.21000 35.09100
H  24.06700 2.22900 34.37100
H  22.86500 -0.29300 34.13600
H  22.93100 0.65700 35.59400
H  24.17800 -0.60000 35.28900
H  25.74200 3.03400 35.49100
H  27.37700 2.86900 34.98800
H  27.79500 1.69300 37.11400
H  26.18100 1.02900 37.16900
H  20.64000 2.53300 31.55700
H  20.17500 0.87500 31.42900
H  19.52200 2.00800 30.32100
H  19.02900 0.85500 28.34700
H  18.94400 1.53200 26.68500
H  19.23200 2.61800 28.03900
H  25.86700 1.45800 24.79300
H  27.94700 -0.41800 25.60900
H  24.77200 -1.22300 25.47600
H  26.26800 -1.50700 24.70800
H  25.15400 -0.60600 23.82500
H  28.64400 2.49900 26.16600
H  27.85600 2.35100 24.65900
H  29.97800 1.48200 23.95900
H  30.05500 0.30200 25.31700
H  30.49800 1.98500 25.58500
H  32.07500 -0.18600 30.57900
H  31.90000 0.41100 28.91300
H  31.42500 -1.28900 29.35600
H  29.13400 1.72300 34.22200
H  29.75800 -0.62700 37.82700
H  29.73500 -1.92200 36.55800
H  28.22700 -1.27600 37.21100
Mg -6.12300 26.05300 26.66000
C  -4.30700 27.57300 29.22000
C  -7.71600 24.14300 28.83500
C  -7.59100 24.57800 24.03700
C  -3.90100 27.69900 24.36200
N  -5.96400 25.88900 28.74300
C  -5.22100 26.60900 29.68300
C  -5.77700 26.37100 31.10500
C  -6.44000 24.99100 30.96700
C  -6.78800 25.07600 29.44900
C  -5.53100 23.78200 31.37500
C  -6.65500 27.63000 31.51500
C  -6.97800 27.83600 33.02100
H  -6.51500 26.73800 33.98500
N  -7.50800 24.53800 26.45900
C  -8.09800 23.87400 27.49000
C  -9.15200 23.04700 26.98600
C  -9.12800 23.12700 25.56700
C  -8.02800 24.09500 25.26500
C  -10.06300 22.25600 27.96800
C  -9.83700 22.33200 24.55900
O  -9.73700 22.52600 23.38600
C  -10.73100 21.21800 25.00300
N  -5.75900 26.09900 24.49300
C  -6.54200 25.40500 23.67200
C  -6.05500 25.47700 22.16200
C  -4.95000 26.59600 22.27000
C  -4.82400 26.88000 23.74500
C  -5.61600 24.11300 21.54000
C  -5.35700 27.84700 21.45000
C  -4.27200 28.39200 20.34000
N  -4.47600 27.46700 26.73300
C  -3.72400 28.04200 25.73800
C  -2.78600 28.95700 26.30700
C  -2.98200 28.79100 27.72900
C  -4.00700 27.91400 27.88800
C  -2.09000 29.89000 25.46500
C  -2.58900 29.23000 29.06200
O  -1.83600 30.08800 29.41400
C  -3.49100 28.43600 30.07000
C  -2.69300 27.73900 31.08200
O  -2.01000 26.69700 30.88300
O  -2.83600 28.40800 32.25300
C  -1.98300 27.90100 33.35500
H  -8.34900 23.65900 29.58100
H  -8.09100 24.25500 23.12200
H  -3.27300 28.21700 23.63400
H  -4.90100 26.27300 31.74800
H  -7.39400 24.98800 31.49400
H  -5.33400 23.13100 30.52300
H  -6.00400 23.30900 32.23500
H  -4.60900 24.21200 31.76700
H  -7.57300 27.61700 30.92600
H  -6.06600 28.47000 31.14900
H  -8.05600 27.94300 33.14200
H  -6.51600 28.76200 33.36500
H  -11.06200 22.21800 27.53300
H  -10.10200 22.58300 29.00700
H  -9.66300 21.25100 28.10400
H  -10.10600 20.46000 25.47700
H  -11.14900 20.68900 24.14600
H  -11.56500 21.55300 25.61900
H  -6.90400 25.93300 21.65400
H  -3.98700 26.18200 21.97300
H  -6.55900 23.56800 21.57700
H  -4.88100 23.69900 22.23000
H  -5.30000 24.23700 20.50400
H  -5.36800 28.73800 22.07700
H  -6.38000 27.81400 21.07500
H  -3.51500 27.69100 19.98900
H  -3.69900 29.04500 20.99800
H  -4.70800 29.03600 19.57600
H  -1.68600 30.80000 25.90800
H  -2.75900 30.30500 24.71200
H  -1.32200 29.34900 24.91100
H  -4.16300 29.20500 30.45100
H  -2.22500 26.85300 33.53300
H  -2.08800 28.41400 34.31100
H  -0.92500 28.02500 33.12300

