158

Mg -10.92100 16.37300 41.90400
C  -7.56700 15.66900 41.72400
C  -10.32000 19.47400 40.64200
C  -14.21800 16.70000 41.70800
C  -11.43600 12.93300 42.80000
N  -9.13100 17.38200 41.14200
C  -7.86500 16.97400 41.21600
C  -6.95400 18.13100 40.73800
C  -7.84200 19.37200 40.61200
C  -9.19900 18.71600 40.86800
C  -7.58400 20.61600 41.56600
C  -6.17500 17.80000 39.36100
C  -4.76900 18.23200 39.21200
H  -4.17600 18.59700 37.86900
N  -12.14500 17.94400 41.20600
C  -11.71700 19.18000 40.71100
C  -12.86200 20.02300 40.44200
C  -14.03700 19.28200 40.85000
C  -13.51500 17.88900 41.23900
C  -12.74400 21.46000 39.91300
C  -15.49300 19.80400 40.83200
O  -15.69400 20.93700 40.38000
C  -16.68100 19.07800 41.20200
N  -12.58400 14.95100 42.04700
C  -13.86500 15.40100 42.04100
C  -14.81800 14.27000 42.43700
C  -13.99600 13.02700 42.34700
C  -12.56600 13.66100 42.51800
C  -15.35100 14.48400 43.87800
C  -14.15900 12.28500 41.01200
C  -15.58200 11.64700 40.68300
N  -9.78300 14.62300 42.24000
C  -10.10900 13.29600 42.54200
C  -8.96000 12.50800 42.71900
C  -7.93100 13.45200 42.43900
C  -8.44500 14.76700 42.27000
C  -8.92900 11.07700 43.20400
C  -6.47500 13.50000 42.37200
O  -5.61500 12.63300 42.52700
C  -6.17700 14.97700 41.91700
C  -5.17500 15.67300 42.87100
O  -5.29700 15.95500 44.06400
O  -4.15300 16.08100 42.06000
C  -2.90300 16.79000 42.58600
H  -9.99100 20.44100 40.25700
H  -15.29300 16.89400 41.70600
H  -11.63300 11.88800 43.04800
H  -6.24300 18.26400 41.55400
H  -7.87200 19.81300 39.61500
H  -7.87400 21.51400 41.02000
H  -6.51800 20.74200 41.75100
H  -8.20800 20.54500 42.45700
H  -6.80800 18.28500 38.61700
H  -6.33800 16.74000 39.16600
H  -4.16200 17.36500 39.47400
H  -4.51100 19.03800 39.89800
H  -13.31000 21.59200 38.99100
H  -11.70100 21.77100 39.95700
H  -13.24500 22.06000 40.67300
H  -17.60600 19.65500 41.23800
H  -16.55000 18.85300 42.26100
H  -16.86900 18.17100 40.62700
H  -15.66700 14.17500 41.76100
H  -14.15300 12.26400 43.10800
H  -16.44000 14.53000 43.84800
H  -14.91100 15.38200 44.31200
H  -15.07700 13.74400 44.63000
H  -13.26500 11.69200 40.81700
H  -13.99100 13.03600 40.24000
H  -15.56800 10.56700 40.83000
H  -15.83900 11.80600 39.63600
H  -16.32900 12.03200 41.37800
H  -7.99000 10.58900 42.94400
H  -9.73300 10.42900 42.85400
H  -8.98500 10.90700 44.27900
H  -5.63700 14.86900 40.97600
H  -3.07100 17.15900 43.59700
H  -2.66800 17.58100 41.87300
H  -2.10800 16.04900 42.50300
Mg -5.81700 25.50600 26.18300
C  -4.10500 26.70300 28.95900
C  -7.15500 22.95100 28.14700
C  -6.96400 23.93200 23.37700
C  -4.00900 27.75900 24.22500
N  -5.47400 24.80600 28.28300
C  -4.93900 25.55900 29.28300
C  -5.42000 25.12000 30.63600
C  -6.21600 23.80300 30.34700
C  -6.31500 23.86900 28.83800
C  -5.57100 22.44600 30.88200
C  -6.26100 26.24400 31.34400
C  -5.88400 26.69400 32.78400
H  -5.55500 25.68100 33.86100
N  -6.93700 23.73100 25.84900
C  -7.40700 22.87500 26.82500
C  -8.31400 21.96800 26.20800
C  -8.11300 22.08100 24.82100
C  -7.33400 23.29800 24.63300
C  -9.26000 21.06400 27.01400
C  -8.74300 21.27900 23.72700
O  -8.58800 21.45800 22.47900
C  -9.50100 19.99200 24.17100
N  -5.49300 25.82000 24.02800
C  -6.11900 25.06000 23.14000
C  -5.94900 25.63300 21.71100
C  -5.14500 26.99100 21.92900
C  -4.94900 26.93900 23.46800
C  -5.26400 24.63700 20.79000
C  -5.88600 28.29200 21.50400
C  -5.40400 29.12400 20.32900
N  -4.30900 26.93700 26.48800
C  -3.68200 27.79700 25.59700
C  -2.76500 28.65700 26.31700
C  -2.90000 28.23400 27.71400
C  -3.87400 27.25700 27.73100
C  -2.01100 29.66500 25.73800
C  -2.56200 28.56700 29.01500
O  -1.87700 29.44200 29.48000
C  -3.34200 27.52800 29.93400
C  -2.26300 26.73300 30.63300
O  -1.33100 26.12300 30.05700
O  -2.45200 26.80900 32.01900
C  -1.38700 26.34700 32.90300
H  -7.66800 22.21000 28.76400
H  -7.52400 23.67100 22.47700
H  -3.47300 28.47400 23.59700
H  -4.51800 24.94700 31.22300
H  -7.26600 23.79800 30.63900
H  -6.22500 22.34600 31.74800
H  -4.54500 22.71200 31.13900
H  -5.59900 21.54500 30.27000
H  -7.32200 25.99600 31.34900
H  -6.15100 27.14400 30.74000
H  -6.82000 27.16500 33.08600
H  -5.12900 27.48000 32.75800
H  -8.83600 20.06100 27.07100
H  -10.29400 21.08200 26.66800
H  -9.33700 21.43400 28.03700
H  -9.74400 19.52400 23.21700
H  -10.41900 20.28500 24.68200
H  -8.92000 19.32300 24.80500
H  -6.91600 25.98900 21.35500
H  -4.20100 27.01800 21.38600
H  -5.91300 23.79400 20.55400
H  -4.35900 24.21400 21.22800
H  -5.03500 25.11500 19.83700
H  -5.80300 29.02600 22.30600
H  -6.96900 28.18800 21.43400
H  -5.09500 30.09300 20.72200
H  -6.25000 29.17700 19.64400
H  -4.51500 28.63500 19.92900
H  -2.38000 30.60500 26.14800
H  -2.03600 29.72900 24.65000
H  -1.06500 29.39100 26.20500
H  -4.03100 28.12100 30.53400
H  -0.73400 25.55200 32.54300
H  -1.96800 26.06700 33.78300
H  -0.90600 27.29700 33.13600

