158

Mg 3.23800 -0.73700 43.94100
C  6.66500 -0.18000 43.75000
C  2.79200 2.21900 42.26600
C  0.24700 -1.90400 43.19600
C  4.02400 -3.94500 45.38000
N  4.63500 0.81900 42.92700
C  5.96100 0.83600 43.00400
C  6.55700 2.02600 42.21700
C  5.27400 2.91800 42.16400
C  4.18500 1.95800 42.46200
C  5.23200 4.11300 43.25600
C  7.11200 1.41100 40.94100
C  8.59400 1.65500 40.77000
H  9.11700 1.86600 39.35400
N  1.68900 0.11500 43.00000
C  1.68400 1.33700 42.40400
C  0.40100 1.65400 41.85000
C  -0.42600 0.44900 42.08900
C  0.47300 -0.51700 42.88300
C  0.06200 2.97000 41.16000
C  -1.92000 0.21000 41.71500
O  -2.56000 0.93300 40.98300
C  -2.68800 -0.95200 42.25100
N  2.25200 -2.77900 44.25200
C  0.95000 -2.96600 43.85100
C  0.36300 -4.33800 44.38500
C  1.64300 -4.93100 45.17400
C  2.65400 -3.76300 45.03300
C  -0.94900 -4.21300 45.23200
C  2.18900 -6.27900 44.67900
C  2.58400 -7.38600 45.61400
N  4.91500 -1.84500 44.47100
C  5.07200 -3.00200 45.18200
C  6.48700 -3.15300 45.58500
C  7.13300 -1.98900 45.11800
C  6.12200 -1.27800 44.41000
C  7.07800 -4.33000 46.34200
C  8.40500 -1.29800 44.99500
O  9.53700 -1.62900 45.35900
C  8.14300 -0.09400 44.16200
C  8.28700 1.13600 44.99400
O  7.66500 1.33800 45.98000
O  9.06600 2.07900 44.34300
C  9.00700 3.42200 44.87500
H  2.50900 3.19300 41.86200
H  -0.64500 -2.33500 42.73800
H  4.19700 -4.95400 45.76100
H  7.34400 2.64100 42.65300
H  5.20300 3.31000 41.14900
H  6.11000 4.06200 43.89900
H  4.33300 4.12200 43.87300
H  5.24300 5.03900 42.68100
H  6.64300 1.81900 40.04500
H  7.04400 0.32600 40.86300
H  9.27800 0.98000 41.28400
H  8.99200 2.51000 41.31600
H  0.75500 3.31400 40.39300
H  0.09800 3.71500 41.95400
H  -0.95200 3.00800 40.76100
H  -3.74800 -0.79100 42.05000
H  -2.49100 -1.04700 43.31900
H  -2.37500 -1.85700 41.73100
H  0.06700 -4.93900 43.52500
H  1.42300 -4.98300 46.24000
H  -1.70800 -4.58100 44.54200
H  -1.07900 -3.18700 45.57600
H  -0.96700 -4.95400 46.03200
H  3.13100 -6.07600 44.17000
H  1.48300 -6.69800 43.96100
H  3.58000 -7.75600 45.36700
H  1.84600 -8.18500 45.54300
H  2.65700 -6.98600 46.62500
H  6.50200 -5.25400 46.38600
H  7.32800 -4.06700 47.37000
H  7.99900 -4.70600 45.89600
H  8.75100 0.00200 43.26300
H  9.96200 3.62500 45.35900
H  8.27500 3.71300 45.62900
H  8.78100 4.17200 44.11800
Mg -2.49700 35.71900 26.75900
C  -4.05600 33.67800 29.15900
C  -0.86800 37.22300 29.16300
C  -1.54500 37.83100 24.39800
C  -4.29500 33.80800 24.24900
N  -2.63100 35.50000 28.98700
C  -3.25000 34.63600 29.82600
C  -2.95700 34.92400 31.35700
C  -2.00300 36.20800 31.22900
C  -1.85300 36.32500 29.70400
C  -2.50200 37.51700 31.85000
C  -2.27400 33.66200 32.10000
C  -2.99100 33.18400 33.36800
H  -2.27800 33.20300 34.71400
N  -1.43400 37.32400 26.77900
C  -0.69900 37.69300 27.89800
C  0.09100 38.83800 27.51700
C  -0.02500 39.01800 26.12800
C  -1.05300 38.05800 25.67700
C  0.89600 39.62900 28.56300
C  0.65200 39.90500 25.21500
O  0.44500 40.02800 23.98400
C  1.80600 40.62000 25.83800
N  -2.86600 35.80500 24.63600
C  -2.29900 36.78300 23.86300
C  -2.46300 36.46100 22.37200
C  -3.33200 35.19200 22.30800
C  -3.55000 34.90500 23.81100
C  -3.04300 37.63100 21.50100
C  -2.73100 33.94100 21.54300
C  -2.55500 34.26600 20.03400
N  -3.97900 34.12400 26.66400
C  -4.42800 33.37900 25.57500
C  -5.14700 32.23000 26.06500
C  -5.01900 32.28200 27.49700
C  -4.35600 33.50000 27.76100
C  -5.74400 31.10500 25.25400
C  -5.27300 31.57600 28.71100
O  -5.75900 30.47800 28.94000
C  -4.72500 32.50400 29.85700
C  -5.94300 33.00400 30.56800
O  -6.87000 33.59900 30.05400
O  -5.91800 32.76500 31.81500
C  -6.93800 33.29500 32.67200
H  -0.12600 37.49700 29.91500
H  -1.17800 38.48000 23.60000
H  -4.68400 33.17300 23.45000
H  -3.94200 35.23700 31.70300
H  -1.03700 35.98400 31.68100
H  -3.43100 37.34800 32.39500
H  -2.79400 38.24900 31.09800
H  -1.87700 37.81600 32.69200
H  -1.23000 33.82900 32.36200
H  -2.21700 32.88300 31.34000
H  -3.49200 32.23700 33.16600
H  -3.88800 33.78900 33.49700
H  0.65200 39.43500 29.60700
H  0.67800 40.68400 28.39400
H  1.93200 39.32100 28.41800
H  1.43400 41.41700 26.48100
H  2.41800 40.98200 25.01200
H  2.42600 39.91900 26.39600
H  -1.53800 36.12900 21.90100
H  -4.36000 35.33000 21.97500
H  -3.14100 38.58600 22.01700
H  -4.05500 37.33500 21.22600
H  -2.34800 37.81100 20.68000
H  -3.40800 33.08900 21.61000
H  -1.83500 33.65700 22.09400
H  -2.52300 35.34600 19.89600
H  -3.48500 33.98200 19.54100
H  -1.67200 33.80300 19.59300
H  -5.56500 31.19800 24.18300
H  -6.82000 31.05500 25.42500
H  -5.31900 30.14100 25.53300
H  -4.11400 31.88200 30.51100
H  -7.45000 34.18400 32.30100
H  -6.42100 33.60000 33.58200
H  -7.65800 32.49200 32.82300

