158

Mg 35.01800 2.66700 30.09700
C  32.56300 3.53300 32.57100
C  37.36300 2.66200 32.52600
C  37.45200 2.27800 27.79100
C  32.59800 3.00600 27.70500
N  34.91800 2.91400 32.23700
C  33.86000 3.21900 33.03800
C  34.27700 3.27700 34.47900
C  35.80500 3.42600 34.44600
C  36.04700 2.92500 32.97000
C  36.39300 4.79800 34.97900
C  33.69800 2.14000 35.42400
C  33.23500 2.55800 36.87300
H  33.88400 3.76200 37.62700
N  37.05300 2.30700 30.19900
C  37.84200 2.37500 31.29500
C  39.29500 2.27500 30.93100
C  39.36400 2.17700 29.51900
C  37.93900 2.27100 29.07500
C  40.42600 2.35800 31.91500
C  40.58600 1.94900 28.58500
O  40.51300 1.83800 27.36800
C  42.04600 1.71900 29.05400
N  35.04500 2.54700 28.07300
C  36.12300 2.32500 27.31200
C  35.73100 2.24700 25.82100
C  34.19700 2.48800 25.81900
C  33.93700 2.68200 27.30400
C  36.48600 3.26100 24.92200
C  33.32300 1.34600 25.16400
C  32.50200 1.69500 23.93700
N  33.05200 3.18900 30.05400
C  32.15000 3.28100 29.07600
C  30.85700 3.68400 29.49300
C  30.99000 3.88600 30.89800
C  32.33100 3.46000 31.19200
C  29.64400 3.98200 28.61700
C  30.29600 4.26700 32.12000
O  29.15200 4.73300 32.30300
C  31.34900 4.09300 33.25000
C  31.55700 5.40500 33.90000
O  32.37800 6.23400 33.53000
O  30.65800 5.58800 34.94200
C  30.57900 6.94600 35.48100
H  38.06600 2.81800 33.34700
H  38.22600 2.24400 27.02000
H  31.91200 3.27600 26.89900
H  33.79900 4.18900 34.83800
H  36.22900 2.65600 35.09100
H  35.81600 5.46300 35.62200
H  36.60000 5.48900 34.16200
H  37.20900 4.50300 35.63900
H  34.35600 1.28000 35.54500
H  32.78700 1.82700 34.91300
H  33.23800 1.64000 37.46100
H  32.16800 2.76400 36.78700
H  41.00600 1.43800 31.84200
H  40.01600 2.33800 32.92500
H  41.04300 3.24000 31.74700
H  42.59500 1.14100 28.31100
H  42.10300 1.14200 29.97700
H  42.63000 2.63000 29.18800
H  35.86700 1.19200 25.58000
H  33.87800 3.36900 25.26200
H  36.79500 4.16400 25.44900
H  35.91200 3.44600 24.01400
H  37.37700 2.82500 24.46900
H  32.70500 0.96000 25.97500
H  33.99300 0.54300 24.85700
H  32.72200 2.69800 23.57200
H  31.44900 1.72200 24.21900
H  32.65400 0.96200 23.14400
H  29.70800 4.89300 28.02100
H  28.81800 4.08200 29.32000
H  29.49500 3.12400 27.96200
H  31.02900 3.50800 34.11200
H  30.42900 7.66600 34.67600
H  31.49500 7.30100 35.95500
H  29.72900 7.09000 36.14700
Mg 9.94500 48.98400 26.55200
C  7.95300 48.63100 29.46900
C  12.57300 50.03900 28.43300
C  11.68300 49.04800 23.71100
C  7.04700 48.18600 24.72800
N  10.08500 49.61800 28.69900
C  9.22800 49.25500 29.70400
C  9.86300 49.54900 31.09600
C  11.35400 50.09800 30.67700
C  11.36100 49.92300 29.19800
C  11.59500 51.52400 31.09700
C  9.83800 48.26200 31.99000
C  8.91600 48.40600 33.26500
H  9.48500 49.28800 34.42400
N  11.84200 49.64000 26.11300
C  12.85200 49.91000 27.03900
C  14.10100 50.04500 26.37300
C  13.94600 49.74500 24.96500
C  12.41600 49.45500 24.89800
C  15.35700 50.39600 27.12500
C  14.92200 49.58200 23.82800
O  14.46500 49.41400 22.67400
C  16.41300 49.36200 24.19700
N  9.39800 48.86600 24.51700
C  10.30100 48.80900 23.51400
C  9.77300 48.41200 22.09400
C  8.38000 47.84900 22.54300
C  8.23100 48.33300 24.02900
C  9.91000 49.71200 21.19500
C  8.18300 46.30500 22.37600
C  9.19800 45.29500 22.73300
N  7.83800 48.56400 26.92900
C  6.76900 48.31900 26.07900
C  5.55500 47.94300 26.91000
C  5.96300 48.07000 28.21300
C  7.38300 48.44400 28.18900
C  4.20300 47.58500 26.36700
C  5.61300 47.98200 29.61200
O  4.56000 47.72300 30.22700
C  6.94900 48.28200 30.44900
C  7.17400 46.90800 31.03800
O  7.80100 45.98600 30.53800
O  6.34700 46.72500 32.15000
C  6.36200 45.38800 32.80200
H  13.46400 50.21800 29.03800
H  12.21500 48.83800 22.78100
H  6.15500 47.93800 24.14900
H  9.32100 50.40500 31.49600
H  12.01200 49.41100 31.20900
H  12.45800 51.48900 31.76200
H  10.77100 51.82500 31.74400
H  11.67000 52.11700 30.18600
H  10.84000 48.15100 32.40500
H  9.56300 47.38500 31.40400
H  8.93400 47.40700 33.70100
H  7.93100 48.85700 33.14200
H  15.03600 51.00600 27.97000
H  15.95400 51.08800 26.53100
H  15.88500 49.50700 27.47000
H  16.53900 48.79500 25.11900
H  17.01600 50.26100 24.31800
H  16.82100 48.86900 23.31400
H  10.50300 47.65500 21.81000
H  7.49900 48.23800 22.03200
H  8.98800 50.04100 20.71600
H  10.76900 49.56400 20.53900
H  10.27000 50.52200 21.83000
H  7.93100 46.15100 21.32700
H  7.26100 46.04800 22.89800
H  8.74600 44.52100 23.35300
H  9.99100 45.73200 23.34000
H  9.50500 44.76500 21.83200
H  4.46600 46.90500 25.55700
H  3.72400 48.51100 26.05000
H  3.55200 47.14100 27.12100
H  6.81100 49.03500 31.22500
H  6.68000 45.50500 33.83800
H  7.01900 44.68800 32.28600
H  5.39900 44.88400 32.87800

