158

Mg 7.46500 2.80300 28.09900
C  8.80700 1.32200 30.95700
C  5.26000 4.52100 30.09400
C  6.06400 3.97200 25.27900
C  9.62500 0.90900 26.14500
N  7.02900 2.76700 30.25600
C  7.82800 2.29100 31.25800
C  7.38100 2.68600 32.67100
C  6.15700 3.61500 32.37000
C  6.13100 3.67800 30.79500
C  4.87500 3.22300 33.00700
C  8.49400 3.33900 33.50400
C  8.48700 2.80700 34.99200
H  8.78400 3.92100 35.99900
N  5.94700 4.20500 27.76800
C  5.14300 4.76400 28.68200
C  4.25400 5.70400 28.09600
C  4.59100 5.66000 26.67900
C  5.54700 4.52200 26.49000
C  3.35500 6.56600 28.85100
C  4.18900 6.49700 25.52800
O  4.60100 6.44000 24.37100
C  3.14900 7.58800 25.93600
N  7.75500 2.45100 25.94300
C  7.02100 3.01600 25.07900
C  7.39100 2.67200 23.64000
C  8.59000 1.72000 23.87000
C  8.64600 1.69700 25.39300
C  6.20400 1.96400 22.82500
C  9.99300 2.18600 23.26800
C  10.70300 3.31800 23.89600
N  8.85200 1.30700 28.41200
C  9.66700 0.68100 27.54300
C  10.55700 -0.28300 28.19300
C  10.33400 -0.01100 29.56100
C  9.25600 0.93800 29.63600
C  11.62400 -1.15200 27.57800
C  10.73900 -0.37300 30.90600
O  11.64200 -1.05900 31.34500
C  9.77100 0.55200 31.88400
C  9.02800 -0.34100 32.82000
O  8.10400 -0.98400 32.50000
O  9.67300 -0.36800 34.05400
C  9.27900 -1.34000 35.08200
H  4.65500 5.12600 30.77300
H  5.52300 4.18100 24.35400
H  10.34200 0.31800 25.57200
H  7.04100 1.78800 33.18700
H  6.41000 4.61100 32.73200
H  4.68200 3.95600 33.79000
H  4.97000 2.26700 33.52200
H  3.99900 3.32900 32.36700
H  8.34200 4.41300 33.39800
H  9.52000 3.23700 33.14900
H  9.19500 2.00700 35.21000
H  7.45100 2.53900 35.19500
H  3.79100 7.56400 28.80800
H  3.22600 6.35000 29.91200
H  2.34400 6.57500 28.44300
H  2.25200 7.11000 26.33100
H  2.91900 8.09000 24.99600
H  3.54800 8.38000 26.57000
H  7.81100 3.53700 23.12700
H  8.41600 0.69100 23.55800
H  5.25100 2.12000 23.33000
H  6.31900 0.89700 22.63600
H  6.10300 2.39900 21.83100
H  9.80000 2.55400 22.26100
H  10.67500 1.35800 23.07400
H  10.25800 3.72100 24.80600
H  10.68500 4.11200 23.15000
H  11.72600 3.06400 24.17300
H  11.12800 -2.10500 27.39300
H  12.44200 -1.34900 28.27100
H  11.96400 -0.79000 26.60700
H  10.39500 1.21700 32.48000
H  8.64700 -2.12400 34.66500
H  8.70200 -0.82400 35.84900
H  10.21800 -1.64400 35.54500
Mg 43.40200 42.58200 26.26800
C  42.19200 44.62300 28.83500
C  44.89300 40.66100 28.60400
C  44.30500 40.56400 23.68400
C  42.21500 45.00200 23.98200
N  43.66800 42.81100 28.46200
C  42.88800 43.53100 29.24300
C  43.05000 43.09200 30.78700
C  43.82800 41.73700 30.70100
C  44.23300 41.78200 29.15300
C  45.10100 41.59700 31.61100
C  41.64800 42.92700 31.51400
C  41.53500 41.85900 32.67800
H  40.74800 42.21600 33.93300
N  44.52500 40.88200 26.12500
C  45.10400 40.27700 27.24200
C  45.90400 39.14100 26.76000
C  45.58800 38.95100 25.33700
C  44.75400 40.16700 24.98300
C  46.78900 38.27100 27.75300
C  46.08900 37.88000 24.38000
O  45.88600 38.03100 23.17300
C  46.97200 36.79100 24.84200
N  43.43900 42.85600 24.03500
C  43.70300 41.74700 23.25400
C  43.38500 42.10500 21.81900
C  42.66300 43.50600 21.93300
C  42.62400 43.79400 23.42900
C  44.58400 42.16000 20.85400
C  41.20600 43.62100 21.24100
C  40.00700 43.05000 22.00400
N  42.51900 44.46400 26.33100
C  42.05900 45.31900 25.36000
C  41.47500 46.49700 25.92900
C  41.40900 46.20200 27.28100
C  42.07900 44.99400 27.44900
C  41.00400 47.66900 25.19900
C  40.92500 46.76400 28.54400
O  40.25800 47.78800 28.74100
C  41.40400 45.74800 29.64100
C  42.10300 46.49500 30.66100
O  43.27000 46.85200 30.54100
O  41.37600 46.67200 31.86700
C  42.11000 47.33600 32.91100
H  45.34500 39.97000 29.31900
H  44.75700 39.87200 22.97100
H  41.76400 45.69800 23.27100
H  43.72500 43.85800 31.16900
H  43.24100 40.82400 30.80800
H  45.15600 42.28600 32.45300
H  45.98500 41.75100 30.99200
H  45.12300 40.62300 32.10100
H  40.80600 42.74900 30.84500
H  41.58800 43.87700 32.04400
H  42.58300 41.77300 32.96400
H  41.22300 40.88300 32.30400
H  46.26900 37.34400 27.99400
H  46.90000 38.84600 28.67200
H  47.75500 38.09600 27.27800
H  46.58200 36.15000 25.63300
H  47.91800 37.25800 25.11500
H  47.02200 36.18900 23.93500
H  42.69500 41.41300 21.33700
H  43.22900 44.34800 21.53500
H  44.82800 43.14200 20.44800
H  44.58200 41.48300 20.00000
H  45.49200 42.01400 21.44000
H  41.25600 43.19600 20.23800
H  40.89600 44.65300 21.07300
H  39.49200 42.21900 21.52000
H  39.29800 43.84100 22.24800
H  40.40100 42.59300 22.91100
H  40.10500 47.40900 24.64000
H  41.76000 47.99400 24.48400
H  40.81300 48.50900 25.86600
H  40.53600 45.29400 30.11900
H  42.80500 46.62000 33.35000
H  41.41000 47.80000 33.60500
H  42.74700 48.14200 32.54800

