158

Mg 0.96100 6.86400 26.20300
C  1.99000 9.37600 28.66500
C  1.00000 4.61200 28.71000
C  0.24000 4.77300 23.92400
C  1.68000 9.47400 23.76400
N  1.44700 7.04100 28.45200
C  1.75000 8.07800 29.25300
C  1.56200 7.76000 30.68500
C  1.52300 6.19000 30.66500
C  1.31600 5.91400 29.17400
C  2.79000 5.46200 31.18200
C  0.28000 8.49900 31.41000
C  0.45400 8.72700 32.97000
H  1.75500 8.36900 33.72600
N  0.63300 4.96900 26.28300
C  0.74600 4.11100 27.38300
C  0.37600 2.72100 26.99900
C  0.01500 2.78900 25.60900
C  0.38500 4.17100 25.18000
C  0.19000 1.58100 28.06000
C  -0.50200 1.66300 24.71300
O  -0.95200 1.86600 23.61500
C  -0.52700 0.23800 25.26100
N  1.32200 7.00200 23.97000
C  0.65500 6.00100 23.33300
C  0.07400 6.48300 21.95000
C  0.58400 8.00400 21.88800
C  1.17500 8.24200 23.30900
C  0.45100 5.61200 20.72800
C  -0.43400 9.08100 21.49600
C  -0.05200 10.27500 20.62200
N  1.72100 9.00700 26.14500
C  1.92200 9.88700 25.08700
C  2.42300 11.10200 25.57300
C  2.38100 10.96100 26.93700
C  2.00200 9.66100 27.24900
C  3.08100 12.22800 24.72800
C  2.64300 11.71100 28.14200
O  3.00300 12.87700 28.25700
C  2.25300 10.76700 29.33100
C  3.40100 10.61900 30.20200
O  4.45700 10.08500 29.86200
O  3.14100 11.28600 31.40700
C  4.27400 11.50900 32.29900
H  0.99200 3.84300 29.48500
H  -0.09900 4.04400 23.18600
H  1.66100 10.28200 23.02900
H  2.40500 8.19900 31.21800
H  0.64700 5.92200 31.25700
H  2.52700 4.82600 32.02700
H  3.59000 6.14800 31.45900
H  3.08900 4.77200 30.39300
H  -0.62500 7.89500 31.47000
H  0.11900 9.46100 30.92500
H  -0.35500 8.17500 33.44900
H  0.20800 9.74300 33.28100
H  0.57300 0.61600 27.72900
H  -0.87900 1.50800 28.25900
H  0.56500 2.04300 28.97300
H  -0.96100 0.05600 26.24400
H  0.52700 0.04600 25.46300
H  -0.75200 -0.54900 24.54200
H  -1.01400 6.42300 21.97800
H  1.45000 8.04100 21.22700
H  0.98500 4.69500 20.97900
H  1.21900 6.11000 20.13700
H  -0.35300 5.36500 20.03500
H  -0.71700 9.45400 22.48100
H  -1.26300 8.64600 20.93900
H  -0.91100 10.75200 20.14900
H  0.63000 10.00800 19.81500
H  0.23400 11.07700 21.30300
H  2.38400 12.71900 24.04900
H  3.77600 11.77200 24.02200
H  3.47900 13.05500 25.31600
H  1.39600 11.03400 29.94900
H  4.83100 12.39500 31.99300
H  4.91900 10.65200 32.49200
H  3.83700 11.81400 33.25000
Mg 48.67400 44.41600 42.90600
C  45.26100 44.22200 42.72200
C  48.69600 40.95200 42.42900
C  52.12100 44.43700 42.97500
C  48.59600 47.87900 42.43500
N  47.14900 42.74200 42.72700
C  45.77300 42.94400 42.61800
C  44.95600 41.62500 42.65800
C  46.14700 40.62000 42.84500
C  47.42200 41.48100 42.62200
C  46.07700 39.96400 44.25500
C  44.04800 41.41600 41.40300
C  44.26000 42.25200 40.10000
H  44.73600 41.52300 38.85000
N  50.16700 42.94500 42.84100
C  49.99100 41.54400 42.55200
C  51.35200 40.91800 42.52400
C  52.28300 41.85700 42.91400
C  51.53500 43.14000 42.97500
C  51.63600 39.43200 42.19800
C  53.74500 41.49700 43.13200
O  54.17200 40.34400 42.96500
C  54.74800 42.47800 43.63100
N  50.17500 45.96700 42.67400
C  51.50700 45.71000 42.81900
C  52.25500 47.06600 42.88500
C  51.13600 48.17800 42.86800
C  49.87400 47.28800 42.61900
C  53.23100 47.12500 44.18300
C  51.31500 49.50000 42.00100
C  51.29900 50.86400 42.72800
N  47.30000 45.84000 42.56100
C  47.32700 47.19800 42.43100
C  46.03400 47.79300 42.41400
C  45.16700 46.63900 42.49500
C  45.96500 45.44100 42.58500
C  45.68100 49.25300 42.46900
C  43.75900 46.27400 42.57300
O  42.73800 46.97400 42.62300
C  43.79600 44.63000 42.75400
C  43.08800 44.35700 43.95500
O  42.07100 43.72700 43.97700
O  43.83800 44.75000 45.03300
C  43.41400 44.09500 46.29400
H  48.73500 39.88700 42.19100
H  53.20800 44.54000 42.95000
H  48.43900 48.95900 42.44600
H  44.32700 41.63600 43.54700
H  46.02300 39.84900 42.08500
H  47.06200 40.08000 44.70800
H  45.83600 38.91500 44.08100
H  45.28000 40.44900 44.81900
H  43.02200 41.30300 41.75300
H  44.32300 40.39900 41.12300
H  44.93200 43.08100 40.32200
H  43.33700 42.74800 39.80100
H  52.31800 39.32500 41.35400
H  50.69000 38.92400 42.01000
H  52.16300 38.98100 43.03900
H  55.17300 43.14300 42.87900
H  55.63400 41.97200 44.01200
H  54.27800 42.88600 44.52600
H  52.79000 47.21200 41.94700
H  51.00400 48.36300 43.93400
H  53.18500 46.17400 44.71400
H  52.78800 47.88500 44.82700
H  54.22300 47.43700 43.85700
H  50.55800 49.51800 41.21700
H  52.26400 49.52600 41.46500
H  52.26400 51.35300 42.60000
H  51.09100 50.67800 43.78200
H  50.56200 51.47200 42.20300
H  45.60900 49.67300 41.46600
H  46.42200 49.79600 43.05600
H  44.74600 49.44900 42.99400
H  43.32500 44.12100 41.91300
H  44.03000 43.19600 46.33300
H  42.35600 43.86400 46.41400
H  43.63800 44.67000 47.19300

