158

Mg 44.96100 4.27900 47.09600
C  42.87500 6.98200 47.23200
C  42.23100 2.20300 47.10300
C  47.01200 1.77200 46.34000
C  47.75700 6.49000 46.81800
N  42.83400 4.56600 47.10100
C  42.13100 5.76500 47.06200
C  40.66600 5.58700 46.97300
C  40.55800 4.04900 47.34200
C  41.98100 3.54900 47.20700
C  39.79200 3.68500 48.67600
C  39.93700 5.86600 45.60200
C  40.71000 5.74400 44.27400
H  40.58200 6.73600 43.10500
N  44.64500 2.24500 46.70500
C  43.47200 1.55100 46.83300
C  43.65400 0.19700 46.58600
C  45.03800 0.10800 46.19100
C  45.61700 1.39500 46.43100
C  42.61200 -0.86800 46.55200
C  45.66000 -1.05200 45.52500
O  45.01000 -2.06300 45.22000
C  47.13900 -1.17200 45.13500
N  47.10600 4.21600 46.30900
C  47.72300 2.99500 46.52400
C  49.24800 3.09700 46.38100
C  49.47300 4.64300 46.61200
C  48.02800 5.18500 46.56100
C  49.97300 2.27400 47.50200
C  50.36700 5.19300 45.52400
C  49.70400 5.23800 44.11500
N  45.35300 6.34600 47.08000
C  46.49600 7.07500 46.93700
C  46.17200 8.47600 47.00700
C  44.77000 8.45600 47.20300
C  44.35400 7.14900 47.21500
C  47.09900 9.69400 46.88800
C  43.57100 9.31000 47.41000
O  43.47400 10.54800 47.51000
C  42.31100 8.36300 47.37800
C  41.39100 8.60200 48.51000
O  41.41200 7.96400 49.53900
O  40.47000 9.60500 48.24000
C  39.32100 9.67000 49.10200
H  41.39600 1.50100 47.07800
H  47.72000 0.94400 46.27500
H  48.63300 7.13100 46.93500
H  40.20100 6.13800 47.79100
H  39.96000 3.48400 46.62600
H  38.74300 3.59000 48.39600
H  39.96300 4.50200 49.37600
H  40.14500 2.79200 49.19100
H  39.65400 6.91800 45.65200
H  38.99600 5.33200 45.47000
H  40.38100 4.72700 44.05700
H  41.75300 5.59800 44.55700
H  42.30100 -0.99100 45.51500
H  41.73500 -0.62100 47.15000
H  42.92900 -1.88500 46.78000
H  47.72000 -1.24600 46.05500
H  47.39100 -0.40400 44.40400
H  47.29700 -2.13600 44.65100
H  49.38400 2.70200 45.37400
H  50.01400 4.83500 47.53900
H  50.11800 1.19700 47.41100
H  49.24700 2.27300 48.31500
H  50.93100 2.72000 47.77000
H  51.26400 4.57400 45.49700
H  50.73500 6.16800 45.84100
H  50.37100 4.84100 43.34900
H  49.64000 6.31500 43.96100
H  48.72700 4.76100 44.03300
H  47.38900 9.81700 45.84400
H  48.00200 9.67500 47.49800
H  46.51100 10.57500 47.14200
H  41.71000 8.73500 46.54800
H  38.61000 8.85600 48.95900
H  38.88100 10.63700 48.85800
H  39.56600 9.73400 50.16200
Mg 6.90200 53.59700 41.75600
C  6.57100 50.06600 41.25700
C  10.08100 53.41600 40.49200
C  7.06400 56.94100 41.76300
C  3.60500 53.65900 43.07600
N  8.09900 51.96900 40.83700
C  7.77300 50.64800 40.63600
C  8.97800 49.89700 39.94100
C  10.19600 50.88400 40.18200
C  9.44400 52.22300 40.51500
C  11.11200 50.38600 41.39300
C  8.82300 49.37900 38.42900
C  7.81900 50.15200 37.58500
H  7.04000 49.32500 36.43200
N  8.34500 55.04500 41.12200
C  9.62300 54.74500 40.72700
C  10.36500 55.99000 40.60000
C  9.44500 57.03600 40.77600
C  8.20400 56.33800 41.22000
C  11.79300 56.12700 40.17200
C  9.63900 58.53800 40.53200
O  10.70000 58.94200 40.05700
C  8.49700 59.53800 40.68700
N  5.44900 55.09400 42.27500
C  5.81000 56.39900 42.30900
C  4.76700 57.23500 43.00500
C  3.58800 56.20900 43.21700
C  4.22900 54.88300 42.85900
C  5.04700 57.97100 44.28200
C  2.26600 56.40900 42.46700
C  1.48300 57.65000 43.02900
N  5.33000 52.21200 42.20000
C  4.09400 52.38400 42.73800
C  3.56700 51.04100 42.94500
C  4.51200 50.12000 42.41600
C  5.56800 50.89800 41.93600
C  2.32400 50.72100 43.62200
C  4.75300 48.70600 42.28200
O  4.08400 47.79800 42.66300
C  6.13200 48.61800 41.45300
C  5.77300 47.94700 40.21800
O  4.97800 48.46300 39.45700
O  6.39600 46.78700 40.00800
C  5.89900 46.16400 38.78600
H  11.13400 53.33600 40.21400
H  7.00300 58.02800 41.85600
H  2.66200 53.63100 43.62500
H  9.09800 48.95700 40.48100
H  10.78700 51.03400 39.27800
H  11.24600 51.15900 42.15000
H  12.08900 50.04500 41.05100
H  10.67400 49.50400 41.85900
H  8.61300 48.31400 38.53000
H  9.76100 49.51000 37.88800
H  8.47300 50.89300 37.12700
H  7.10000 50.70300 38.19000
H  11.90300 56.21600 39.09200
H  12.39000 55.26300 40.46800
H  12.35400 56.94400 40.62600
H  8.28500 59.79700 41.72500
H  7.63000 59.16400 40.14300
H  8.63000 60.51900 40.23000
H  4.34600 57.88000 42.23300
H  3.24500 56.05000 44.23900
H  6.11000 57.84200 44.48300
H  4.67000 57.53100 45.20500
H  4.80300 59.02800 44.38000
H  1.61000 55.54200 42.55100
H  2.52900 56.60400 41.42800
H  1.85900 58.21300 43.88300
H  0.49700 57.38000 43.40500
H  1.28200 58.43000 42.29500
H  1.80500 50.00400 42.98600
H  1.76800 51.65800 43.65800
H  2.31900 50.36700 44.65300
H  6.73000 47.91900 42.03800
H  6.21100 46.73900 37.91500
H  4.84000 45.90800 38.82000
H  6.43500 45.21500 38.76400

