158

Mg 24.22300 -6.90000 46.77000
C  26.80300 -4.77800 45.83000
C  22.23800 -5.40900 44.46400
C  22.28000 -9.61900 46.90700
C  26.71500 -8.80600 48.65100
N  24.52800 -5.36300 45.38500
C  25.60600 -4.53700 45.22700
C  25.34800 -3.47100 44.14900
C  23.78300 -3.48900 43.89900
C  23.45200 -4.78700 44.66800
C  23.10900 -2.20300 44.50100
C  26.15400 -3.69900 42.84700
C  26.47000 -2.48600 41.91800
H  25.68600 -2.46400 40.51300
N  22.42100 -7.33100 45.88600
C  21.70700 -6.62400 44.97700
C  20.46000 -7.30100 44.73300
C  20.37000 -8.50900 45.46600
C  21.74200 -8.55100 46.17700
C  19.43600 -6.86900 43.82600
C  19.24500 -9.53200 45.49700
O  18.19900 -9.30500 44.92500
C  19.32400 -10.71200 46.44600
N  24.56700 -8.98900 47.39700
C  23.48400 -9.79300 47.59200
C  23.85700 -11.10300 48.37300
C  25.32500 -10.92300 48.76000
C  25.54400 -9.40200 48.27100
C  22.94700 -11.57500 49.51000
C  26.29600 -11.89300 48.06000
C  26.86400 -12.95600 48.87900
N  26.30200 -6.73700 47.38700
C  27.11100 -7.54200 48.19700
C  28.42400 -6.91700 48.26400
C  28.39100 -5.77800 47.35900
C  27.07300 -5.71700 46.83600
C  29.60300 -7.45500 49.08800
C  29.08600 -4.67100 46.78500
O  30.23000 -4.29700 46.91700
C  28.19900 -4.00000 45.72400
C  28.23700 -2.46500 45.97900
O  29.12900 -1.75200 45.54300
O  27.19900 -2.16600 46.74500
C  27.12300 -0.73700 47.09000
H  21.59700 -5.00300 43.67900
H  21.86300 -10.61600 47.06600
H  27.28600 -9.32600 49.42400
H  25.63400 -2.49100 44.53100
H  23.38400 -3.62800 42.89400
H  22.47400 -2.34700 45.37500
H  22.48600 -1.70700 43.75600
H  23.71500 -1.39400 44.91000
H  25.55200 -4.40900 42.28000
H  27.14200 -4.13100 43.00000
H  27.52500 -2.47700 41.64400
H  26.24900 -1.63600 42.56300
H  18.65800 -6.34100 44.37700
H  18.94700 -7.67900 43.28500
H  19.83300 -6.14500 43.11400
H  19.63400 -10.43800 47.45400
H  20.05100 -11.40500 46.02100
H  18.35200 -11.16100 46.64900
H  23.72300 -11.89800 47.64000
H  25.43600 -10.96000 49.84300
H  22.69700 -12.63500 49.46800
H  21.97200 -11.08600 49.48600
H  23.33200 -11.30200 50.49200
H  27.21600 -11.34900 47.84500
H  25.95900 -12.20200 47.07000
H  27.00200 -13.84900 48.26900
H  26.14800 -13.24000 49.65000
H  27.79100 -12.64700 49.36200
H  29.36200 -8.50300 49.26300
H  29.44700 -7.00800 50.07000
H  30.61000 -7.36600 48.68000
H  28.73800 -4.23500 44.80600
H  28.06800 -0.33400 47.45400
H  26.44100 -0.36800 47.85600
H  26.90500 -0.18400 46.17600
Mg 26.18600 -0.56700 29.82800
C  27.80700 -0.69700 32.98400
C  23.13400 -0.30900 31.57700
C  24.58300 -0.55900 26.87400
C  29.31000 -1.11400 28.29000
N  25.54000 -0.48700 32.05100
C  26.41000 -0.46300 33.18200
C  25.58000 -0.21400 34.46200
C  24.08700 -0.13900 33.95500
C  24.25400 -0.28800 32.45800
C  23.13100 -1.15500 34.63600
C  26.01500 0.98600 35.41800
C  26.00600 0.36300 36.83100
H  26.48700 1.19400 37.96900
N  24.14400 -0.24300 29.30900
C  23.01600 -0.23200 30.13400
C  21.83200 -0.08900 29.36800
C  22.30700 0.02700 28.00000
C  23.72400 -0.27300 27.98400
C  20.43000 0.19100 29.89800
C  21.53400 0.53700 26.80000
O  22.04400 0.50700 25.64600
C  20.08900 1.05600 26.83800
N  26.80000 -0.79900 27.94800
C  25.98000 -0.75500 26.85800
C  26.80000 -1.05800 25.58800
C  28.18200 -0.72100 26.09000
C  28.14400 -0.91900 27.57900
C  26.63700 -2.54300 25.03000
C  28.66300 0.75600 25.78900
C  29.66400 0.80500 24.63100
N  28.12000 -1.19900 30.52000
C  29.32000 -1.29100 29.76000
C  30.41800 -1.53600 30.63700
C  29.89300 -1.19300 31.92700
C  28.48700 -1.02500 31.77700
C  31.76500 -1.89100 30.18800
C  30.23500 -1.18200 33.32300
O  31.31000 -1.35800 33.92900
C  28.92200 -0.81400 34.04100
C  28.51600 -1.84500 34.99500
O  27.72800 -2.75500 34.80000
O  29.11300 -1.59200 36.18600
C  29.06700 -2.74000 37.09100
H  22.17400 -0.32800 32.09800
H  24.17100 -0.64000 25.86600
H  30.25800 -1.08800 27.74700
H  25.76800 -1.11100 35.05200
H  23.65000 0.82600 34.21000
H  22.41900 -0.56800 35.21600
H  23.64900 -1.81700 35.33000
H  22.56800 -1.72800 33.90000
H  25.24900 1.76100 35.42000
H  26.97800 1.45300 35.21200
H  26.67400 -0.49100 36.93800
H  25.02700 0.00600 37.14900
H  20.42800 1.19300 30.32700
H  20.16600 -0.52600 30.67600
H  19.76500 -0.05900 29.07200
H  19.64400 1.33000 25.88100
H  19.95100 1.86500 27.55500
H  19.43100 0.23500 27.12500
H  26.30700 -0.50900 24.78600
H  28.87100 -1.47200 25.70500
H  26.09300 -3.16400 25.74100
H  27.61100 -3.01900 24.91700
H  26.12700 -2.56300 24.06700
H  29.16900 1.10900 26.68800
H  27.85900 1.47600 25.63900
H  29.99500 -0.20500 24.39100
H  30.47300 1.50300 24.84500
H  29.23300 1.21600 23.71800
H  32.17200 -2.41900 31.05100
H  32.45200 -1.12800 29.82300
H  31.68800 -2.59400 29.35800
H  29.01700 0.13700 34.56500
H  29.78600 -3.47200 36.72400
H  28.09900 -3.23700 37.16100
H  29.35100 -2.53000 38.12200

