158

Mg -2.55300 17.16100 27.25400
C  -3.07200 14.84600 29.84500
C  -2.95800 19.62000 29.55100
C  -2.71300 19.21400 24.68400
C  -2.65200 14.47000 24.92200
N  -3.10700 17.15500 29.39600
C  -3.07000 16.16500 30.24900
C  -3.21500 16.63700 31.72200
C  -3.26600 18.22100 31.56600
C  -3.12300 18.37800 30.03700
C  -4.58200 18.85100 32.10300
C  -2.12400 16.13100 32.67600
C  -1.79000 17.03400 33.92200
H  -1.40000 16.08900 35.11900
N  -2.62500 19.20000 27.13600
C  -2.71100 20.04200 28.24900
C  -2.53200 21.37800 27.74600
C  -2.38600 21.24500 26.29900
C  -2.55700 19.84100 25.97200
C  -2.45900 22.59500 28.65600
C  -1.96400 22.33500 25.22300
O  -1.79900 22.06100 24.05300
C  -1.82300 23.65600 25.60700
N  -2.75100 16.81600 25.03800
C  -2.78300 17.90600 24.25000
C  -2.91600 17.42300 22.77600
C  -2.56600 15.93100 22.78600
C  -2.66000 15.70000 24.34600
C  -4.29400 17.84000 22.15400
C  -1.23200 15.48700 22.07600
C  0.04600 16.10800 22.62500
N  -2.78300 15.09100 27.26400
C  -2.82000 14.15500 26.30500
C  -2.91200 12.88500 26.82500
C  -3.02200 13.05400 28.22200
C  -2.95100 14.48400 28.44500
C  -3.09900 11.61500 26.08100
C  -3.29300 12.39000 29.45700
O  -3.50400 11.22100 29.69200
C  -3.26500 13.50200 30.57400
C  -1.97900 13.19900 31.27300
O  -0.86600 13.61700 30.96700
O  -2.22500 12.53300 32.39700
C  -1.11700 12.36000 33.36000
H  -3.04700 20.36400 30.34600
H  -2.58900 19.82200 23.78600
H  -2.60200 13.55900 24.32200
H  -4.21500 16.32300 32.01800
H  -2.43100 18.69300 32.08300
H  -4.27100 19.69100 32.72300
H  -5.04000 18.07300 32.71300
H  -5.19900 19.20000 31.27500
H  -1.19200 15.83100 32.19700
H  -2.60200 15.24600 33.09600
H  -2.61500 17.61300 34.33800
H  -0.92100 17.64300 33.67300
H  -1.59700 23.19900 28.37400
H  -2.31000 22.24500 29.67800
H  -3.40400 23.13800 28.63400
H  -1.79500 24.43000 24.84000
H  -0.93900 23.68200 26.24500
H  -2.74200 23.94900 26.11300
H  -2.11500 17.77700 22.12800
H  -3.25800 15.38900 22.14200
H  -4.84600 18.45100 22.86800
H  -4.88100 16.96300 21.88100
H  -4.01300 18.51700 21.34600
H  -1.29700 15.78800 21.03000
H  -1.20400 14.39800 22.04300
H  0.59900 15.20000 22.86500
H  -0.05800 16.63700 23.57300
H  0.51800 16.73200 21.86600
H  -2.54000 10.86100 26.63600
H  -2.74100 11.63100 25.05100
H  -4.13600 11.28600 26.14800
H  -4.08300 13.43700 31.29200
H  -1.08900 11.28200 33.52000
H  -1.43400 12.86400 34.27300
H  -0.17100 12.61600 32.88300
Mg 17.38600 52.33900 26.34200
C  19.33900 50.68200 28.82500
C  15.01200 52.85100 28.89600
C  15.39500 53.57900 24.11500
C  19.68300 51.43500 23.93700
N  17.17400 51.78500 28.56100
C  18.09700 51.10900 29.36900
C  17.74100 51.38900 30.83800
C  16.20200 51.63000 30.70400
C  16.06300 52.08100 29.26100
C  15.32600 50.41200 31.06200
C  18.56200 52.55000 31.43200
C  18.80700 52.39200 32.96100
H  17.92600 51.46800 33.79400
N  15.40400 53.09800 26.47600
C  14.67600 53.30200 27.60800
C  13.53000 54.16100 27.33600
C  13.62900 54.39200 25.93100
C  14.82700 53.74900 25.39300
C  12.52700 54.70000 28.51200
C  12.70000 55.21400 25.13100
O  12.92600 55.44800 23.95400
C  11.40200 55.82200 25.69700
N  17.32500 52.14900 24.23400
C  16.49500 52.89300 23.55400
C  16.87400 53.08400 22.05200
C  18.35900 52.48900 22.01400
C  18.46300 51.96200 23.51100
C  15.80900 52.39400 21.13900
C  19.35900 53.54400 21.44200
C  20.12700 54.52500 22.27300
N  19.10500 51.26000 26.32500
C  19.95200 51.01900 25.27100
C  21.15300 50.34900 25.70100
C  20.98200 50.15700 27.07900
C  19.70500 50.72500 27.41200
C  22.27900 49.84500 24.84400
C  21.55500 49.62000 28.32000
O  22.59200 48.94200 28.43700
C  20.54200 50.00100 29.51900
C  20.15800 48.76700 30.25200
O  19.45200 47.85400 29.80400
O  20.58800 48.98600 31.56200
C  20.05600 47.89200 32.44200
H  14.26900 52.99500 29.68400
H  14.80100 54.07700 23.34500
H  20.42300 51.38200 23.13600
H  17.98200 50.45000 31.33600
H  15.84900 52.52100 31.22300
H  15.09500 49.82500 30.17400
H  14.45600 50.82300 31.57400
H  15.84500 49.81600 31.81400
H  18.09400 53.50400 31.18800
H  19.49700 52.47400 30.87700
H  18.79000 53.34100 33.49700
H  19.83600 52.07600 33.13400
H  12.76500 54.40600 29.53400
H  11.58500 54.19200 28.30300
H  12.46300 55.78700 28.47300
H  10.84100 56.22200 24.85200
H  11.70400 56.67100 26.30900
H  10.79800 55.19600 26.35400
H  16.85100 54.17000 21.96600
H  18.50000 51.66700 21.31200
H  16.37000 51.89100 20.35200
H  15.09900 53.13600 20.77400
H  15.30800 51.55300 21.61900
H  18.87000 54.14100 20.67200
H  20.15900 53.05200 20.89000
H  20.40400 55.45400 21.77300
H  21.05000 54.11600 22.68300
H  19.52600 54.78700 23.14400
H  22.30600 50.35100 23.87900
H  21.96300 48.82900 24.60700
H  23.20600 49.94800 25.40800
H  20.90500 50.76900 30.20200
H  18.97200 47.96100 32.35000
H  20.31000 48.18300 33.46100
H  20.49800 46.94700 32.12800

