158

Mg 9.43800 3.81600 27.71200
C  10.75800 2.26500 30.58100
C  7.77400 6.08200 29.77800
C  7.94700 5.11300 24.96000
C  10.62400 1.23300 25.86600
N  9.31800 4.10200 29.85900
C  9.96400 3.42400 30.93600
C  9.51600 3.98600 32.28800
C  8.60000 5.16700 31.90000
C  8.51900 5.09700 30.38800
C  7.17600 5.05700 32.55900
C  10.64900 4.36100 33.28400
C  10.49100 5.51000 34.27800
H  10.85200 5.16500 35.67100
N  8.09600 5.33100 27.42700
C  7.57100 6.21200 28.41900
C  6.89400 7.29400 27.71100
C  6.85800 6.98000 26.35300
C  7.67000 5.78700 26.16800
C  6.19600 8.50000 28.39800
C  6.26900 7.80500 25.22000
O  6.46900 7.41300 24.04500
C  5.52500 9.12600 25.46300
N  9.22500 3.20700 25.67800
C  8.57000 3.88500 24.78500
C  8.69000 3.13000 23.39600
C  9.63700 1.98200 23.65600
C  9.92600 2.18600 25.09100
C  7.30200 2.71800 22.81400
C  10.97300 2.06000 22.77300
C  10.90200 0.99400 21.61000
N  10.53100 2.20200 28.04200
C  10.93100 1.23000 27.19700
C  11.74200 0.26200 27.94800
C  11.68700 0.68400 29.28300
C  10.93500 1.81000 29.27000
C  12.24800 -1.00500 27.37900
C  12.08100 0.29100 30.60500
O  12.67100 -0.65000 31.00500
C  11.52900 1.37100 31.49100
C  10.83600 0.78000 32.58800
O  9.87200 0.02400 32.55000
O  11.52000 1.06500 33.75200
C  11.06700 0.42500 34.99300
H  7.26200 6.72500 30.49600
H  7.58900 5.37300 23.96200
H  10.85400 0.32600 25.30400
H  8.85200 3.24500 32.73300
H  9.02300 6.15300 32.09200
H  6.52500 4.37000 32.01800
H  6.66800 6.02100 32.54000
H  7.25200 4.66700 33.57300
H  11.61200 4.22200 32.79400
H  10.55800 3.46100 33.89200
H  9.43600 5.77300 34.36700
H  11.13000 6.31000 33.90400
H  5.13300 8.51500 28.15800
H  6.56100 9.48500 28.10700
H  6.25400 8.39800 29.48200
H  6.25200 9.82700 25.87500
H  4.61500 8.93500 26.03200
H  5.29000 9.61300 24.51700
H  9.18000 3.85200 22.74400
H  9.11300 1.02800 23.61100
H  7.50400 1.81200 22.24400
H  6.97000 3.58000 22.23400
H  6.56200 2.57700 23.60200
H  11.83200 1.89000 23.42200
H  11.14000 3.08000 22.42800
H  10.06600 0.31800 21.78700
H  11.82100 0.41900 21.49600
H  10.80700 1.53000 20.66600
H  11.84300 -1.39400 26.44500
H  11.95500 -1.86000 27.98800
H  13.32600 -0.95100 27.22500
H  12.40500 1.86000 31.91600
H  10.46400 -0.47600 34.87500
H  10.61000 1.12400 35.69300
H  11.93700 0.05400 35.53600
Mg 46.86500 24.47500 28.28800
C  47.43400 26.64500 31.09100
C  46.15300 22.08300 30.73200
C  47.01100 22.36100 25.94000
C  48.13200 26.98400 26.26300
N  46.94300 24.36900 30.70000
C  47.09400 25.39000 31.58600
C  46.80000 24.99600 33.06300
C  46.55800 23.40800 32.98400
C  46.53700 23.27300 31.38200
C  47.66800 22.51800 33.69800
C  45.65600 25.80800 33.69900
C  45.83600 26.06200 35.18200
H  44.57000 25.91200 36.06900
N  46.48800 22.53100 28.29600
C  46.09200 21.72300 29.36800
C  45.67900 20.49400 28.78000
C  46.01600 20.53700 27.36300
C  46.61800 21.80100 27.16700
C  45.01200 19.41700 29.59500
C  45.75900 19.39900 26.32300
O  46.09200 19.54600 25.13100
C  45.18000 18.02400 26.71300
N  47.57800 24.63100 26.39300
C  47.51100 23.60200 25.57800
C  47.92800 23.98400 24.20500
C  48.25000 25.50400 24.24000
C  47.88000 25.76000 25.69400
C  49.04000 23.08800 23.64700
C  47.33800 26.35000 23.14400
C  46.02300 26.98100 23.72500
N  47.62000 26.42300 28.62300
C  48.06000 27.33800 27.60300
C  48.39400 28.57100 28.24500
C  48.08600 28.34500 29.61900
C  47.65600 27.03200 29.78900
C  49.07100 29.83000 27.64500
C  48.26500 28.97700 30.89200
O  48.63600 30.07600 31.27800
C  47.87500 27.87700 31.87400
C  49.04300 27.52800 32.71700
O  49.97500 26.88800 32.37600
O  48.83400 28.07000 34.02300
C  49.82300 27.62400 35.05100
H  45.70100 21.34900 31.40300
H  47.00900 21.59700 25.15900
H  48.55100 27.73700 25.59200
H  47.67900 25.10300 33.70000
H  45.60400 23.14400 33.44000
H  47.19000 21.84800 34.41300
H  48.40500 23.15500 34.18700
H  48.05400 21.88300 32.90100
H  44.68700 25.31100 33.75100
H  45.50900 26.73300 33.14200
H  46.24500 27.06200 35.32900
H  46.65000 25.43900 35.55400
H  44.00900 19.07800 29.33900
H  44.91700 19.68900 30.64600
H  45.53600 18.46800 29.48000
H  45.51200 17.59500 27.65900
H  45.16400 17.20900 25.98900
H  44.22000 18.49400 26.92600
H  47.07600 23.80200 23.55000
H  49.30400 25.66200 24.01000
H  49.48400 22.38300 24.35000
H  49.88200 23.67900 23.28700
H  48.61000 22.50500 22.83200
H  47.19400 25.73400 22.25600
H  47.98500 27.19700 22.91700
H  46.10500 28.03100 24.00700
H  45.62300 26.40700 24.56100
H  45.29400 26.84100 22.92700
H  48.45400 30.69200 27.89700
H  49.00600 29.78000 26.55800
H  50.08400 29.91900 28.03700
H  47.09400 28.27400 32.52300
H  49.40000 27.15900 35.94200
H  50.28700 28.50800 35.48900
H  50.61000 27.00900 34.61500

