158

Mg 8.27900 3.93900 27.73100
C  9.56000 2.41500 30.61200
C  6.50600 6.05600 29.49200
C  7.09900 5.18800 24.70900
C  10.04600 1.44100 25.82800
N  8.07000 4.12400 29.82900
C  8.72600 3.51200 30.87900
C  8.32900 4.10800 32.22000
C  7.26000 5.14900 31.78200
C  7.26600 5.14700 30.25900
C  5.83300 4.77300 32.35100
C  9.51500 4.76800 32.84900
C  9.44700 5.32700 34.30600
H  10.42600 4.61800 35.32500
N  6.92600 5.38200 27.19200
C  6.42400 6.24000 28.10800
C  5.68600 7.22800 27.46700
C  5.81800 6.97700 26.02700
C  6.60000 5.77700 25.93500
C  5.02700 8.24500 28.20100
C  5.15200 7.78700 24.82900
O  5.23500 7.47400 23.62700
C  4.48200 9.10200 25.17100
N  8.43800 3.28800 25.55300
C  7.88600 4.00200 24.52300
C  8.31200 3.43000 23.17800
C  9.27500 2.23900 23.52200
C  9.25200 2.29300 25.05000
C  7.16300 3.03300 22.22100
C  10.71700 2.43600 22.98000
C  11.42800 1.31300 22.23000
N  9.51500 2.28100 28.04400
C  10.13900 1.35500 27.22200
C  10.85100 0.40700 28.02100
C  10.66300 0.81400 29.36800
C  9.80800 1.92100 29.35200
C  11.52400 -0.86100 27.64600
C  11.04300 0.58200 30.74200
O  11.79500 -0.25700 31.26900
C  10.30700 1.51300 31.60900
C  9.44700 0.68200 32.45900
O  8.41300 0.07600 32.14100
O  9.91900 0.80600 33.79700
C  9.19700 0.15900 34.90100
H  5.82600 6.61300 30.14000
H  6.81500 5.73900 23.81000
H  10.43000 0.59800 25.24900
H  8.02200 3.35900 32.95000
H  7.52400 6.17400 32.04300
H  5.77900 4.16400 33.25300
H  5.14700 4.37300 31.60500
H  5.38100 5.68400 32.74300
H  9.76900 5.62200 32.22100
H  10.37900 4.11200 32.95600
H  8.50400 5.04100 34.77100
H  9.55800 6.41100 34.34300
H  5.24900 8.32300 29.26500
H  3.95100 8.07000 28.19000
H  5.16200 9.24900 27.80000
H  3.82100 9.52000 24.41200
H  5.23800 9.85100 25.40500
H  3.80700 8.99700 26.02100
H  8.73700 4.27400 22.63400
H  8.96200 1.21600 23.31400
H  6.13300 2.99700 22.57400
H  7.44900 2.08200 21.77300
H  7.10400 3.69500 21.35700
H  11.29300 2.67800 23.87400
H  10.68400 3.30200 22.31800
H  11.51800 1.76000 21.24000
H  10.75100 0.46000 22.27400
H  12.32200 1.10600 22.81800
H  12.56700 -0.70700 27.37100
H  11.02500 -1.32300 26.79500
H  11.32500 -1.51900 28.49200
H  11.14600 1.90300 32.18600
H  9.65100 -0.83100 34.93000
H  8.12100 0.00300 34.81500
H  9.34200 0.65100 35.86200
Mg 8.61100 48.31400 26.12200
C  6.43900 48.75200 28.86600
C  11.25800 49.20900 28.14100
C  10.60100 47.91900 23.52200
C  5.79500 47.66500 24.06300
N  8.83300 48.75800 28.26600
C  7.77000 48.91900 29.18400
C  8.36000 49.37100 30.54200
C  9.89400 49.60400 30.28600
C  10.02200 49.16300 28.77700
C  10.44400 51.06600 30.48700
C  7.90200 48.47300 31.76100
C  8.90800 48.40600 32.96200
H  8.31200 47.75800 34.23300
N  10.65300 48.74400 25.84000
C  11.62000 49.04300 26.80600
C  12.91100 49.05600 26.14700
C  12.69100 48.74600 24.77900
C  11.24400 48.42300 24.68200
C  14.18500 49.41400 26.90100
C  13.71400 48.60100 23.68300
O  13.38200 48.25100 22.58400
C  15.20000 48.73300 24.02800
N  8.15600 48.11300 23.92400
C  9.22700 47.76600 23.13400
C  8.76800 47.14900 21.82000
C  7.23800 47.03000 22.03300
C  7.03200 47.72900 23.37700
C  9.15600 48.02000 20.56400
C  6.76600 45.60600 21.97600
C  7.32100 44.62600 23.04000
N  6.55200 48.13600 26.36600
C  5.55700 47.86800 25.48000
C  4.30100 47.87200 26.16700
C  4.57000 48.27100 27.46300
C  5.97300 48.44900 27.53400
C  2.88500 47.43500 25.55100
C  3.97700 48.58600 28.71900
O  2.85000 48.56300 29.10500
C  5.16000 49.00200 29.65900
C  4.87200 48.28800 30.93800
O  4.74300 47.10700 31.13600
O  4.41900 49.20600 31.84300
C  4.16400 48.66800 33.17000
H  12.10700 49.61900 28.69200
H  11.25100 47.60600 22.70200
H  5.04200 47.06300 23.55000
H  7.78100 50.28900 30.44400
H  10.48000 48.91200 30.89000
H  9.74900 51.63000 31.10900
H  10.54900 51.57800 29.53100
H  11.39000 51.08600 31.02800
H  7.87800 47.43700 31.42500
H  6.93500 48.63100 32.23900
H  9.34600 49.31600 33.37100
H  9.71900 47.73500 32.67900
H  14.02400 49.57900 27.96600
H  14.52700 50.37900 26.52700
H  14.97300 48.66600 26.81700
H  15.54400 47.82700 24.52600
H  15.23900 49.62300 24.65700
H  15.87500 48.83500 23.17800
H  9.23500 46.18100 21.63900
H  6.70300 47.59700 21.27200
H  8.30600 48.43100 20.02000
H  9.72100 47.43500 19.83800
H  9.75500 48.89900 20.80000
H  6.83600 45.21000 20.96300
H  5.69000 45.58800 22.15300
H  6.56300 43.89200 23.31500
H  7.56000 45.12500 23.97900
H  8.16300 44.12000 22.56800
H  3.15400 46.71300 24.78000
H  2.34100 48.36600 25.38900
H  2.41300 46.85500 26.34400
H  4.99000 50.07400 29.75000
H  4.18800 49.56900 33.78300
H  4.87200 47.88800 33.45100
H  3.15200 48.26200 33.16600

