158

Mg 2.50500 -1.38700 43.59500
C  5.81900 -0.75600 43.27500
C  1.75100 1.27700 41.61900
C  -0.65600 -2.37600 43.77500
C  3.38800 -4.47700 45.35000
N  3.65300 0.14000 42.52900
C  5.01900 0.16400 42.51300
C  5.51100 1.28800 41.55600
C  4.18400 1.94200 41.03100
C  3.09100 1.12500 41.73000
C  4.11300 3.47100 41.36700
C  6.34100 0.74700 40.28000
C  7.56200 1.60500 39.82600
H  7.41300 2.50100 38.59300
N  0.68200 -0.53700 42.88300
C  0.58200 0.56900 42.11300
C  -0.86900 0.73700 41.69700
C  -1.60600 -0.29800 42.32800
C  -0.56000 -1.09900 43.10400
C  -1.38500 1.72800 40.60500
C  -3.07100 -0.49400 42.22700
O  -3.75500 0.22500 41.46700
C  -3.77400 -1.75000 42.75800
N  1.50600 -3.12700 44.47600
C  0.18900 -3.26100 44.36800
C  -0.34200 -4.51400 45.06900
C  0.95200 -5.22700 45.48400
C  2.01400 -4.21800 45.14200
C  -1.26900 -4.17800 46.19300
C  1.21600 -6.55300 44.72800
C  1.73200 -7.67700 45.61300
N  4.21100 -2.44200 44.29300
C  4.37600 -3.63000 44.93700
C  5.80200 -3.84800 45.12000
C  6.46100 -2.76500 44.50300
C  5.41200 -1.86300 43.98200
C  6.46400 -5.09900 45.89500
C  7.69700 -2.08200 44.16100
O  8.88100 -2.32500 44.35300
C  7.34900 -0.82000 43.43300
C  7.97500 0.29400 44.16400
O  7.67900 0.62800 45.29700
O  8.90400 0.96400 43.37300
C  9.30200 2.35000 43.83800
H  1.38900 1.96800 40.85500
H  -1.69800 -2.69300 43.86400
H  3.66300 -5.45900 45.74200
H  6.11700 2.01800 42.09300
H  4.00600 1.82100 39.96300
H  4.05700 4.13600 40.50500
H  4.91800 3.69100 42.06900
H  3.14400 3.67800 41.81900
H  5.60200 0.68100 39.48100
H  6.72600 -0.25800 40.45600
H  8.33100 0.85600 39.63600
H  7.96600 2.15200 40.67700
H  -1.85400 1.31500 39.71200
H  -0.52500 2.27800 40.22400
H  -1.96300 2.50800 41.10200
H  -4.81100 -1.72800 42.42300
H  -3.72200 -1.89900 43.83700
H  -3.18600 -2.50900 42.24300
H  -0.99700 -5.02900 44.36700
H  1.02700 -5.42100 46.55400
H  -0.98100 -3.18900 46.55000
H  -1.10300 -4.89400 46.99700
H  -2.31700 -4.23300 45.90100
H  1.96500 -6.25000 43.99600
H  0.32700 -6.84900 44.17100
H  2.70400 -8.03100 45.27000
H  1.10000 -8.56400 45.56600
H  1.87000 -7.42700 46.66400
H  6.12000 -6.05100 45.48900
H  6.08200 -5.02400 46.91300
H  7.55300 -5.05100 45.90100
H  7.88500 -0.81900 42.48400
H  9.68500 2.94200 43.00600
H  10.10500 2.13100 44.54200
H  8.55700 2.93900 44.37300
Mg -0.33800 43.86800 26.35200
C  1.82400 43.51700 29.03500
C  -2.80400 42.26100 28.22200
C  -2.09300 43.71600 23.55100
C  2.41100 45.00300 24.44700
N  -0.42100 43.00100 28.38500
C  0.49600 43.12300 29.38100
C  -0.00000 42.72800 30.74700
C  -1.38800 42.04000 30.35800
C  -1.58800 42.42800 28.86500
C  -1.51500 40.53600 30.81700
C  -0.21100 43.94300 31.73500
C  0.73900 43.94500 32.94200
H  0.62300 42.92100 34.04400
N  -2.28700 43.18600 26.01300
C  -3.12300 42.56400 26.85500
C  -4.34800 42.24500 26.17200
C  -4.09600 42.59400 24.75100
C  -2.77300 43.17900 24.67700
C  -5.41000 41.40500 26.69200
C  -5.02000 42.35100 23.57400
O  -4.55000 42.35900 22.46700
C  -6.41800 41.97800 23.60500
N  0.06500 44.44400 24.29900
C  -0.89400 44.32800 23.37500
C  -0.42900 45.06500 22.14500
C  1.00300 45.59700 22.53000
C  1.15800 44.99400 23.83200
C  -0.53700 44.27100 20.79600
C  0.95700 47.20800 22.50400
C  1.11900 47.85600 21.08500
N  1.74300 44.19700 26.61500
C  2.70200 44.57400 25.74300
C  3.88300 44.55100 26.40200
C  3.69100 44.25900 27.72800
C  2.30000 43.91900 27.79300
C  5.31800 44.78200 25.86300
C  4.33600 44.01300 28.96100
O  5.46600 44.15500 29.39700
C  3.06400 43.68200 29.97100
C  3.41600 42.41300 30.57500
O  3.26800 41.27300 30.18800
O  4.18000 42.68400 31.72500
C  4.65900 41.54800 32.55800
H  -3.56500 41.87200 28.90200
H  -2.75700 43.83900 22.69300
H  3.29600 45.37900 23.92800
H  0.69800 42.01200 31.17900
H  -2.24100 42.59800 30.74300
H  -0.65700 40.12300 31.34700
H  -1.52100 39.90600 29.92700
H  -2.44400 40.33600 31.35100
H  -1.25400 43.97100 32.04900
H  -0.01500 44.82200 31.12000
H  0.87600 44.89500 33.45800
H  1.72200 43.96500 32.47200
H  -6.39100 41.87900 26.72800
H  -5.23300 41.08300 27.71800
H  -5.37100 40.53700 26.03300
H  -7.03700 42.43800 24.37600
H  -6.41100 40.89700 23.74900
H  -6.85100 42.14400 22.61900
H  -1.14300 45.88900 22.14100
H  1.79900 45.18500 21.91000
H  -1.15800 44.87500 20.13500
H  -0.97900 43.31100 21.06500
H  0.39600 44.09500 20.26100
H  1.82800 47.46300 23.10600
H  0.06800 47.57500 23.01700
H  1.18400 47.11000 20.29400
H  2.07100 48.38700 21.06100
H  0.37900 48.63200 20.88700
H  5.45800 45.86200 25.80700
H  5.43900 44.43400 24.83700
H  6.07300 44.25500 26.44700
H  2.99200 44.52500 30.65800
H  4.97900 41.83300 33.56000
H  5.42600 41.06300 31.95400
H  3.86500 40.81700 32.71000

