158

Mg 24.12100 -6.03000 46.08300
C  26.24700 -3.69100 44.39500
C  21.61000 -4.88800 43.96900
C  22.38000 -8.82700 46.74600
C  26.99900 -7.44100 47.54900
N  23.95100 -4.50100 44.53600
C  24.92100 -3.65200 43.96500
C  24.39700 -2.63400 43.00500
C  22.84500 -2.82200 43.10700
C  22.77400 -4.19300 43.91100
C  22.17700 -1.65300 43.79800
C  24.84800 -2.86800 41.55800
C  25.29600 -1.62700 40.79200
H  24.54900 -1.28500 39.44400
N  22.18700 -6.78100 45.44700
C  21.34200 -6.14200 44.60600
C  20.03900 -6.90300 44.59300
C  20.22600 -8.07800 45.43600
C  21.66100 -7.90900 45.96100
C  18.95900 -6.35000 43.82000
C  19.23000 -9.19000 45.79600
O  18.12000 -9.09100 45.31000
C  19.41900 -10.35700 46.66600
N  24.60800 -7.87400 47.04900
C  23.73000 -8.89400 47.21500
C  24.25400 -10.04800 48.12900
C  25.68000 -9.44200 48.47200
C  25.79000 -8.19100 47.61300
C  23.42800 -10.44900 49.41700
C  26.86300 -10.42100 48.37300
C  27.98500 -10.40200 49.45200
N  26.20900 -5.57100 46.19400
C  27.21200 -6.29300 46.75500
C  28.40300 -5.50700 46.63300
C  28.13400 -4.55800 45.64900
C  26.78300 -4.66200 45.36800
C  29.73400 -5.81500 47.20300
C  28.67100 -3.53000 44.79000
O  29.79100 -3.05900 44.63100
C  27.42600 -2.91000 43.97300
C  27.29700 -1.49000 44.31200
O  26.99200 -1.08700 45.42700
O  27.56400 -0.69700 43.18600
C  27.56200 0.76700 43.45600
H  20.85600 -4.43500 43.32200
H  21.70000 -9.67600 46.84200
H  27.84400 -7.75300 48.16600
H  24.64100 -1.63900 43.37900
H  22.44300 -2.99200 42.10800
H  22.25500 -0.78700 43.14100
H  22.45900 -1.47000 44.83500
H  21.09700 -1.79500 43.82200
H  24.19000 -3.54700 41.01600
H  25.82600 -3.32800 41.41700
H  26.37200 -1.52900 40.64700
H  25.20100 -0.76200 41.44800
H  19.41500 -6.21000 42.84000
H  18.60700 -5.38700 44.18800
H  18.12000 -7.01400 43.61100
H  18.46200 -10.87800 46.69600
H  19.52200 -9.97900 47.68300
H  20.18700 -11.00200 46.23800
H  24.47200 -10.90600 47.49300
H  25.59700 -9.07100 49.49300
H  22.43700 -9.99800 49.47300
H  23.92400 -10.50400 50.38600
H  23.19300 -11.48000 49.15300
H  27.30400 -10.22400 47.39600
H  26.35900 -11.38600 48.43600
H  28.89700 -10.28800 48.86600
H  27.97000 -11.39700 49.89500
H  27.79000 -9.67400 50.24000
H  29.84400 -6.90000 47.22500
H  29.65600 -5.38600 48.20100
H  30.44600 -5.19600 46.65600
H  27.57300 -3.08800 42.90800
H  28.28300 1.08200 44.21000
H  26.53300 0.94500 43.76900
H  27.74700 1.23900 42.49200
Mg 0.54900 43.88000 25.93200
C  2.10100 43.68600 29.03900
C  -2.49300 42.86400 27.51100
C  -0.85600 43.20500 22.91300
C  3.65700 44.39400 24.49400
N  -0.08900 43.35100 27.96000
C  0.70100 43.43000 29.04600
C  -0.05000 43.23000 30.37000
C  -1.48800 42.75900 29.84900
C  -1.37000 43.02700 28.37100
C  -1.70900 41.22200 30.06800
C  -0.12700 44.53800 31.24600
C  0.54200 44.51100 32.59600
H  0.29800 43.30100 33.48900
N  -1.44500 43.40700 25.32600
C  -2.52900 43.06600 26.11700
C  -3.68500 42.82800 25.22400
C  -3.18200 42.87300 23.91400
C  -1.70600 43.09000 24.00300
C  -5.13800 42.57500 25.72000
C  -3.92600 42.77400 22.50700
O  -3.36700 42.72900 21.44400
C  -5.50800 42.62000 22.52100
N  1.27500 43.82900 23.99500
C  0.50500 43.64500 22.81300
C  1.24000 43.93100 21.49600
C  2.51600 44.65600 22.12000
C  2.50600 44.25800 23.62200
C  1.46100 42.66800 20.63300
C  2.71900 46.17500 21.79500
C  4.16700 46.57200 21.83200
N  2.58400 43.95200 26.58100
C  3.73000 44.14700 25.88700
C  4.80800 44.28100 26.79500
C  4.25100 44.08100 28.03900
C  2.87300 43.87200 27.86400
C  6.33500 44.44700 26.57800
C  4.50300 43.87700 29.47500
O  5.56000 43.81300 30.11000
C  3.14400 43.76600 30.17600
C  3.23600 42.47900 30.80700
O  3.13300 41.43400 30.16900
O  3.58900 42.57800 32.12000
C  4.14900 41.35000 32.71000
H  -3.43100 42.54900 27.97200
H  -1.24100 43.02700 21.90700
H  4.59200 44.85900 24.17600
H  0.49000 42.48900 30.95800
H  -2.36300 43.29800 30.21400
H  -0.70600 40.81000 29.95800
H  -2.33800 40.77200 29.30000
H  -2.03300 41.00000 31.08500
H  -1.17900 44.61400 31.52300
H  0.14200 45.43100 30.68200
H  0.28800 45.41400 33.15100
H  1.62200 44.56100 32.46100
H  -5.74000 43.44600 25.46000
H  -5.22900 42.41500 26.79500
H  -5.42700 41.60500 25.31600
H  -5.89200 42.45500 21.51400
H  -5.96100 43.52800 22.92000
H  -5.70200 41.79600 23.20800
H  0.73900 44.57900 20.77700
H  3.34500 44.23900 21.54800
H  1.59600 41.80000 21.27800
H  2.43500 42.64200 20.14500
H  0.66400 42.52800 19.90200
H  2.25300 46.74800 22.59700
H  2.33200 46.29700 20.78400
H  4.49700 47.47500 22.34500
H  4.48200 46.85200 20.82700
H  4.90400 45.84700 22.17900
H  6.82100 43.89400 27.38100
H  6.65800 45.48800 26.58500
H  6.67600 44.16600 25.58200
H  3.03700 44.52900 30.94700
H  3.38200 40.94400 33.37000
H  5.01300 41.48200 33.36100
H  4.37800 40.55800 31.99700

