158

Mg 50.64700 45.10700 42.51900
C  47.34300 45.71800 41.33400
C  50.17300 41.84500 41.32200
C  53.76800 44.73500 42.88700
C  50.79300 48.53200 43.16100
N  48.92300 43.95200 41.44900
C  47.65200 44.40000 41.15100
C  46.81900 43.28100 40.47000
C  47.57200 41.99100 41.01100
C  49.03000 42.61100 41.23100
C  47.08300 41.26400 42.31100
C  46.59600 43.45300 38.95400
C  45.17100 43.31700 38.48000
H  44.84700 42.33700 37.33400
N  51.81900 43.45500 42.25600
C  51.44900 42.19300 41.82800
C  52.60400 41.36300 41.84700
C  53.66300 42.13400 42.39600
C  53.13600 43.52600 42.52700
C  52.53100 39.90500 41.45700
C  55.01900 41.62500 42.69700
O  55.21600 40.41800 42.72800
C  56.25500 42.52400 43.04800
N  52.07800 46.47500 42.78400
C  53.38200 46.04000 43.04800
C  54.26100 47.23800 43.38200
C  53.30900 48.39100 43.65100
C  51.92300 47.73200 43.24900
C  55.19600 46.93300 44.59800
C  53.48400 49.73600 42.90200
C  53.26700 51.06100 43.71600
N  49.40100 46.79200 42.32200
C  49.61100 48.12300 42.66900
C  48.46400 48.92800 42.37100
C  47.52800 48.01900 41.83100
C  48.13400 46.72300 41.84300
C  48.17900 50.43800 42.68600
C  46.20200 47.87600 41.37200
O  45.27800 48.70700 41.25600
C  46.07700 46.41800 40.95600
C  44.88700 45.88200 41.71600
O  44.96300 45.28500 42.78600
O  43.69800 46.13000 41.13400
C  42.55900 45.34700 41.62500
H  49.87300 40.83100 41.04900
H  54.85800 44.72700 42.95800
H  50.75200 49.60200 43.37200
H  45.87000 43.38800 40.99600
H  47.69600 41.23900 40.23200
H  47.81500 41.35600 43.11300
H  46.96900 40.18600 42.19800
H  46.05600 41.60900 42.43000
H  47.15300 42.57900 38.61600
H  47.03500 44.37500 38.57500
H  44.85500 44.30800 38.15400
H  44.61500 43.06800 39.38400
H  53.32300 39.54500 40.80100
H  51.63700 39.57100 40.93000
H  52.44100 39.42100 42.43000
H  56.20900 42.99400 44.03100
H  56.32900 43.23800 42.22800
H  57.11700 41.85600 43.07800
H  54.86100 47.30600 42.47400
H  53.29200 48.57400 44.72500
H  55.01600 46.04100 45.19800
H  55.13900 47.83800 45.20300
H  56.24000 46.87100 44.29000
H  52.74900 49.68900 42.09800
H  54.51300 49.65900 42.55100
H  52.98300 50.82000 44.74000
H  52.40800 51.64000 43.37900
H  54.12200 51.73300 43.78900
H  47.16400 50.56300 43.06100
H  48.27100 50.99300 41.75300
H  48.86500 50.86100 43.42000
H  45.93300 46.31400 39.88000
H  41.72800 45.32400 40.92100
H  42.12400 45.65300 42.57700
H  42.97200 44.35200 41.79500
Mg 35.98200 48.16500 25.51900
C  36.40800 46.31000 28.61600
C  35.07300 50.86000 27.43300
C  35.19200 49.53700 22.66000
C  36.68000 45.08800 23.87500
N  35.72400 48.49300 27.77300
C  36.01500 47.66400 28.84000
C  35.86500 48.33000 30.18500
C  35.51800 49.87800 29.78800
C  35.41500 49.73800 28.25700
C  34.06300 50.27300 30.35000
C  37.18100 48.29400 31.01400
C  36.96300 47.67600 32.43700
H  35.64900 47.76600 33.29800
N  35.40800 50.05000 25.12400
C  35.04500 51.04400 26.02300
C  34.76000 52.24700 25.27100
C  34.79500 51.89500 23.88400
C  35.13600 50.37500 23.79400
C  34.39700 53.45400 25.99800
C  34.41400 52.73300 22.69100
O  34.52300 52.29000 21.58800
C  34.12500 54.25800 22.84700
N  35.98700 47.41700 23.63100
C  35.54400 48.20800 22.64800
C  35.50800 47.43300 21.32600
C  36.40500 46.20200 21.62100
C  36.36700 46.20000 23.11100
C  34.03500 46.96100 20.87000
C  37.88400 46.29800 21.08600
C  38.91300 47.11000 21.93100
N  36.41500 46.09100 26.04100
C  36.74800 45.04200 25.24500
C  37.02700 43.97800 26.06300
C  36.92300 44.39700 27.40400
C  36.46000 45.68600 27.33200
C  37.46000 42.61600 25.56900
C  37.11900 44.02700 28.81900
O  37.52500 42.98400 29.29600
C  36.62200 45.20900 29.64300
C  35.47100 44.86200 30.34200
O  34.36000 45.00400 29.91400
O  35.71800 44.23500 31.53800
C  34.49400 43.78900 32.23200
H  34.81000 51.71000 28.06600
H  34.91000 49.86900 21.65900
H  37.00200 44.19300 23.33800
H  34.98100 47.92000 30.67300
H  36.31500 50.55100 30.10400
H  34.11700 51.28600 30.74800
H  33.91600 49.67200 31.24700
H  33.19600 50.17500 29.69600
H  37.69800 49.25200 31.05900
H  37.85500 47.67700 30.41900
H  37.84900 47.97900 32.99400
H  37.12900 46.61300 32.26200
H  33.33000 53.62100 26.15200
H  34.75400 54.28600 25.39100
H  35.05800 53.67100 26.83700
H  33.65500 54.49400 21.89300
H  34.98600 54.91900 22.95500
H  33.36800 54.52100 23.58500
H  35.98100 48.08900 20.59600
H  36.04100 45.25300 21.22800
H  33.29000 47.45700 21.49200
H  33.87200 45.88400 20.81400
H  33.88500 47.34800 19.86200
H  37.78900 46.81900 20.13400
H  38.32200 45.34000 20.80700
H  39.15100 46.49700 22.80000
H  38.66000 48.13400 22.20700
H  39.76900 47.14100 21.25700
H  38.31200 42.19200 26.09900
H  37.72400 42.62800 24.51200
H  36.62000 41.94700 25.75500
H  37.42500 45.51800 30.31300
H  33.83600 43.21100 31.58400
H  33.95400 44.56900 32.76900
H  34.85600 43.15200 33.03900

