158

Mg 39.97600 9.51400 29.45100
C  41.72900 10.73300 32.43500
C  37.80900 8.06000 31.47300
C  38.67200 8.69400 26.73500
C  42.85100 10.92900 27.63000
N  40.00700 9.23600 31.70700
C  40.56200 9.96700 32.70700
C  39.92500 9.73500 34.02000
C  38.59300 8.90200 33.67200
C  38.79900 8.69700 32.19200
C  38.46000 7.58400 34.45600
C  39.62200 10.96300 34.81600
C  39.97700 10.82400 36.34700
H  40.75000 11.94000 37.02500
N  38.43800 8.47400 29.18900
C  37.61600 7.91200 30.07800
C  36.56600 7.25100 29.34500
C  36.76400 7.51000 28.00700
C  38.00100 8.28000 27.93300
C  35.47300 6.46000 30.03000
C  35.86900 7.12100 26.83400
O  36.04500 7.52900 25.68600
C  34.63500 6.21400 27.03800
N  40.72400 9.76400 27.48300
C  39.91000 9.29300 26.51200
C  40.42700 9.68100 25.10900
C  41.77800 10.43300 25.35800
C  41.73100 10.47400 26.96800
C  40.37900 8.65000 23.91100
C  42.06800 11.69400 24.67200
C  41.20800 12.87100 25.09200
N  41.98200 10.51400 29.87300
C  42.92600 11.05800 29.05500
C  43.92900 11.71200 29.80900
C  43.47700 11.65400 31.08700
C  42.27800 10.88300 31.11800
C  45.15100 12.35500 29.34400
C  43.80500 12.02400 32.43400
O  44.72300 12.65600 32.84600
C  42.72800 11.48300 33.36000
C  43.51600 10.53900 34.27400
O  43.92500 9.43500 33.94500
O  43.65600 11.13800 35.51200
C  44.61800 10.44900 36.43300
H  37.05300 7.56100 32.08200
H  38.22100 8.41400 25.78100
H  43.77500 11.24100 27.13900
H  40.69000 9.19100 34.57300
H  37.66200 9.46800 33.66400
H  39.11000 7.48400 35.32500
H  38.67800 6.73100 33.81300
H  37.48300 7.49200 34.92900
H  38.57100 11.23700 34.72200
H  40.18500 11.76700 34.34200
H  40.55400 9.94200 36.62400
H  38.96600 10.77700 36.75100
H  34.51400 6.92300 29.80100
H  35.51100 6.51300 31.11800
H  35.61000 5.43200 29.69200
H  34.90000 5.22300 27.40500
H  34.08400 6.13500 26.10100
H  33.96500 6.77300 27.69200
H  39.66800 10.38900 24.77700
H  42.61200 9.75400 25.18300
H  40.57900 7.62100 24.20800
H  40.99400 8.95100 23.06300
H  39.30500 8.67400 23.72700
H  41.84200 11.50800 23.62200
H  43.09900 12.04500 24.72100
H  40.81900 12.74300 26.10200
H  40.40500 12.99000 24.36500
H  41.90100 13.71000 25.02900
H  45.98000 11.77800 29.75300
H  45.23200 13.37200 29.72800
H  45.30600 12.43500 28.26800
H  42.37800 12.35600 33.91000
H  44.07300 10.30600 37.36600
H  45.53200 10.99700 36.66300
H  44.94700 9.46500 36.10100
Mg 30.58700 58.06500 41.37800
C  27.98300 56.09300 40.01700
C  32.73300 55.82300 39.90300
C  33.08000 60.25400 41.94600
C  28.21500 60.42500 42.11100
N  30.32700 56.21200 40.07900
C  29.21400 55.56000 39.71800
C  29.48800 54.25900 39.03200
C  30.93000 54.02700 39.46300
C  31.42600 55.42000 39.84200
C  31.17500 52.96000 40.50100
C  29.18800 54.24800 37.49300
C  28.07200 53.38000 36.87500
H  27.04700 54.21700 36.02200
N  32.55000 58.00900 41.02600
C  33.27400 56.96600 40.45900
C  34.66600 57.28800 40.37100
C  34.74100 58.54200 40.89100
C  33.40700 58.99400 41.37700
C  35.74900 56.28200 39.91000
C  36.02400 59.28700 41.00900
O  37.14500 58.80800 40.70000
C  36.12600 60.69600 41.41900
N  30.67000 60.11900 41.96600
C  31.80900 60.82100 42.13900
C  31.57700 62.24500 42.71300
C  30.02000 62.28200 42.62600
C  29.58400 60.82400 42.15900
C  32.29200 62.61400 44.03800
C  29.49600 63.47000 41.74100
C  28.42200 64.40700 42.38300
N  28.46900 58.27600 41.28400
C  27.62700 59.21000 41.74500
C  26.22900 58.77400 41.51600
C  26.33900 57.53400 40.89200
C  27.72300 57.32000 40.74600
C  24.96400 59.49900 41.86500
C  25.54700 56.43500 40.30600
O  24.32800 56.28300 40.27400
C  26.61500 55.45000 39.78300
C  26.47400 54.16400 40.47200
O  26.95800 53.90000 41.55500
O  25.69100 53.33700 39.69800
C  25.14800 52.12800 40.27600
H  33.34800 54.98700 39.56300
H  33.86300 60.95900 42.23400
H  27.54200 61.26400 42.30100
H  28.96700 53.43500 39.51900
H  31.49100 53.69800 38.58800
H  30.24300 52.63300 40.96100
H  31.64900 53.39300 41.38300
H  31.79400 52.18700 40.04500
H  30.07000 53.87600 36.97200
H  29.10100 55.31900 37.31200
H  27.53200 52.84300 37.65500
H  28.51100 52.62300 36.22600
H  36.02200 56.43200 38.86500
H  35.50900 55.23700 40.10500
H  36.69500 56.46500 40.42000
H  35.46700 61.25500 40.75400
H  37.16500 61.01600 41.35000
H  35.79200 60.84800 42.44500
H  31.92200 62.80400 41.84300
H  29.66500 62.36500 43.65300
H  32.98600 61.79600 44.23100
H  31.53400 62.85200 44.78400
H  32.93000 63.46200 43.79200
H  29.11600 62.94200 40.86700
H  30.33200 64.07900 41.39600
H  28.48100 65.45600 42.09100
H  28.42600 64.21500 43.45500
H  27.40500 64.09700 42.14300
H  25.13700 60.57400 41.83500
H  24.76100 59.23600 42.90400
H  24.17500 59.16600 41.19000
H  26.34200 55.45200 38.72800
H  24.11800 52.39200 40.51500
H  25.73800 51.63900 41.05100
H  25.06100 51.33800 39.53000

