158

Mg 47.33600 24.78000 28.82600
C  47.84900 27.43500 31.17900
C  46.34400 22.76100 31.39700
C  46.95500 22.42800 26.46500
C  48.64700 27.00400 26.41200
N  47.14600 25.06600 31.02300
C  47.31200 26.24500 31.75100
C  46.94300 25.95800 33.15800
C  46.68200 24.37000 33.28000
C  46.74200 24.03700 31.80200
C  47.68500 23.51500 34.28900
C  45.77100 26.84400 33.61700
C  45.70700 27.43700 35.05300
H  46.17200 26.61800 36.26400
N  46.80400 22.89600 28.89300
C  46.38300 22.20000 30.06000
C  45.89800 20.89600 29.69600
C  46.19000 20.74600 28.34400
C  46.70300 22.03000 27.83500
C  45.22600 19.93300 30.66700
C  45.95100 19.56100 27.44800
O  46.48300 19.52300 26.31800
C  45.39800 18.37200 27.97000
N  48.03400 24.63900 26.67100
C  47.58400 23.62100 25.95800
C  47.79200 23.88500 24.43200
C  48.36200 25.37700 24.44000
C  48.34500 25.71000 25.93500
C  48.70300 22.70000 23.83000
C  47.46000 26.26200 23.45800
C  46.27000 27.06200 24.14900
N  48.14500 26.75200 28.74200
C  48.67300 27.49200 27.70900
C  49.04800 28.84700 28.18800
C  48.75400 28.79500 29.51200
C  48.16200 27.53300 29.82800
C  49.67900 30.00900 27.38200
C  48.74000 29.66400 30.68100
O  49.08200 30.85400 30.78200
C  48.04600 28.79900 31.79600
C  49.01500 28.69300 32.90600
O  50.17100 28.32500 32.85200
O  48.47000 29.03700 34.07500
C  49.37900 29.03100 35.23700
H  45.98500 22.17600 32.24700
H  46.73600 21.76700 25.62300
H  48.97300 27.61900 25.57100
H  47.81600 26.23700 33.74900
H  45.63900 24.26900 33.58100
H  48.56800 24.11600 34.50800
H  48.03900 22.58300 33.85000
H  47.15700 23.30500 35.22000
H  44.79900 26.37800 33.45300
H  45.72900 27.73000 32.98400
H  44.65900 27.65000 35.26000
H  46.09500 28.45500 35.09100
H  44.21600 19.66700 30.35700
H  45.11400 20.35100 31.66800
H  45.83300 19.02800 30.63800
H  44.40100 18.58900 28.35200
H  45.96200 18.01900 28.83300
H  45.30200 17.67800 27.13500
H  46.81300 23.83700 23.95500
H  49.37800 25.33400 24.04700
H  49.50100 23.09700 23.20300
H  48.07600 22.10700 23.16500
H  49.09200 21.99300 24.56300
H  47.13100 25.53700 22.71400
H  48.15800 26.96500 23.00500
H  46.34600 26.92100 25.22700
H  45.28200 26.89700 23.71800
H  46.39100 28.13700 24.01200
H  49.67400 29.58600 26.37700
H  50.70500 30.18100 27.70900
H  49.18200 30.97000 27.51000
H  47.17100 29.37900 32.09000
H  50.22300 29.68300 35.01300
H  49.88400 28.09300 35.46700
H  48.93400 29.43800 36.14500
Mg 9.25500 48.27200 25.57300
C  7.33100 48.32700 28.51400
C  11.83700 49.57600 27.39600
C  11.13500 48.27500 22.85000
C  6.38500 47.79100 23.65000
N  9.46100 48.94900 27.66200
C  8.65400 48.81000 28.74900
C  9.33800 49.17900 30.06200
C  10.51000 50.05000 29.57000
C  10.69000 49.47700 28.10300
C  10.13000 51.58600 29.57100
C  9.76400 47.88900 30.83600
C  10.25800 48.09600 32.22700
H  9.90700 46.96500 33.21400
N  11.28200 48.64700 25.23300
C  12.22900 49.14000 26.11200
C  13.54600 49.20500 25.46300
C  13.29400 48.81000 24.13600
C  11.91500 48.55100 24.03000
C  14.79200 49.65100 26.14600
C  14.30500 48.75400 22.93700
O  13.94400 48.33900 21.86500
C  15.73600 49.05500 23.21600
N  8.74000 47.95100 23.50700
C  9.77300 48.08000 22.57300
C  9.17300 47.79000 21.11300
C  7.68800 47.56200 21.38200
C  7.57000 47.84300 22.92100
C  9.62400 48.89700 20.08400
C  7.13900 46.11600 21.07900
C  5.85000 46.05700 20.31700
N  7.27200 48.14500 25.95000
C  6.23500 47.92100 25.07900
C  4.99100 47.82100 25.83500
C  5.38500 47.92800 27.17200
C  6.77600 48.14300 27.14300
C  3.62800 47.45500 25.38400
C  4.96300 47.80500 28.52400
O  3.86600 47.66400 28.97200
C  6.21000 48.02400 29.46400
C  6.46200 46.88600 30.26000
O  6.92500 45.78000 29.96400
O  6.15000 47.27300 31.56800
C  6.29900 46.17000 32.52300
H  12.62300 50.06900 27.97200
H  11.70100 48.27200 21.91600
H  5.45900 47.66400 23.08500
H  8.67800 49.84600 30.61700
H  11.35800 49.92500 30.24300
H  9.10000 51.75800 29.88500
H  10.38700 51.88700 28.55500
H  10.88400 52.04700 30.20800
H  10.45200 47.32400 30.20600
H  8.92800 47.19600 30.73600
H  9.87300 49.05500 32.57600
H  11.34400 48.16600 32.15800
H  14.67700 49.75000 27.22500
H  15.00000 50.63700 25.73200
H  15.62300 48.98200 25.92200
H  16.21100 48.13300 23.55100
H  15.85000 49.89600 23.90100
H  16.03400 49.32300 22.20300
H  9.68600 46.86500 20.85100
H  7.15900 48.34100 20.83300
H  10.11800 49.67900 20.66000
H  8.72900 49.35000 19.65700
H  10.24900 48.50400 19.28200
H  6.98300 45.66200 22.05800
H  7.88000 45.61100 20.46000
H  5.85800 45.74400 19.27300
H  5.36900 47.03200 20.24100
H  5.14800 45.42000 20.85400
H  3.44800 47.34700 24.31500
H  2.93400 48.23100 25.70800
H  3.19800 46.60100 25.90700
H  6.02400 48.92600 30.04700
H  6.95700 46.50100 33.32600
H  6.77200 45.22400 32.26000
H  5.31000 46.02400 32.95900

