158

Mg 43.79200 4.51400 47.85600
C  41.62900 7.20000 47.23100
C  41.26000 2.36900 47.52600
C  46.05000 2.11600 47.65100
C  46.54100 6.91200 47.82400
N  41.68300 4.70100 47.36000
C  41.01800 5.90200 47.23400
C  39.48700 5.65500 47.10600
C  39.31200 4.11000 47.40100
C  40.77800 3.71300 47.61600
C  38.36300 3.70300 48.58400
C  39.05500 6.06700 45.64300
C  37.82900 6.93600 45.45900
H  37.10900 6.85000 44.11800
N  43.64900 2.51000 47.58100
C  42.51800 1.82400 47.53900
C  42.83100 0.38900 47.55300
C  44.26600 0.27300 47.41800
C  44.74000 1.67600 47.54700
C  41.70400 -0.63200 47.62200
C  45.01800 -1.04500 47.30900
O  44.45000 -2.12400 47.31100
C  46.50400 -1.00800 47.08600
N  45.94200 4.49600 47.66500
C  46.58000 3.34000 47.76800
C  48.14600 3.54300 47.84100
C  48.31100 5.11300 47.75000
C  46.81800 5.55400 47.74700
C  48.81900 2.87300 49.10100
C  49.01000 5.62900 46.47000
C  50.42200 6.07500 46.63000
N  44.07900 6.65400 47.73600
C  45.24000 7.47100 47.66500
C  44.78100 8.86800 47.53300
C  43.38600 8.86100 47.49200
C  42.98900 7.46800 47.44200
C  45.67200 10.04700 47.29900
C  42.16900 9.61700 47.31300
O  42.07000 10.84900 47.33000
C  40.96600 8.52800 47.06900
C  39.92100 8.81400 48.05900
O  39.89900 8.40400 49.18100
O  38.84000 9.49500 47.46000
C  37.72500 9.82800 48.38400
H  40.42300 1.66900 47.49000
H  46.86400 1.39300 47.73300
H  47.33400 7.66200 47.85000
H  38.99400 6.26500 47.86300
H  38.92900 3.62200 46.50400
H  37.61900 2.96000 48.29700
H  37.73900 4.53700 48.90500
H  38.94500 3.37400 49.44500
H  38.75100 5.15200 45.13600
H  39.88300 6.52400 45.10200
H  38.19200 7.96300 45.41700
H  37.12400 6.78000 46.27500
H  40.83200 -0.31300 48.19300
H  42.21000 -1.40300 48.20400
H  41.35200 -1.10400 46.70500
H  46.86800 -0.40100 46.25800
H  46.85500 -1.99000 46.76900
H  47.09000 -0.78300 47.97800
H  48.58400 3.17200 46.91400
H  48.63600 5.64600 48.64300
H  49.59100 2.13200 48.89400
H  48.03100 2.51400 49.76300
H  49.29500 3.70900 49.61400
H  48.42900 6.40900 45.97700
H  49.03700 4.86500 45.69200
H  50.83800 5.78200 45.66500
H  50.97900 5.55000 47.40600
H  50.60600 7.13700 46.79100
H  46.37500 9.83100 46.49400
H  46.16900 10.34600 48.22200
H  44.95000 10.83100 47.07100
H  40.41100 8.74500 46.15700
H  37.61300 9.02800 49.11600
H  36.80300 10.18100 47.92200
H  38.10500 10.70000 48.91500
Mg 53.69500 23.91800 44.65500
C  51.40200 26.46000 43.54800
C  51.50300 21.58900 43.36400
C  56.15800 21.59000 44.96700
C  55.89800 26.41100 45.64500
N  51.79700 24.07100 43.37700
C  51.01600 25.16700 43.15200
C  49.63700 24.73900 42.54300
C  49.52700 23.28200 43.20100
C  51.01200 22.89800 43.26700
C  48.76900 23.33800 44.62700
C  49.66900 24.70900 41.01200
C  50.92000 25.03100 40.21100
H  50.79900 25.59500 38.81500
N  53.84900 21.85600 44.10900
C  52.83300 21.06200 43.61400
C  53.25500 19.64300 43.47900
C  54.67800 19.64900 43.80200
C  54.99500 21.08500 44.35300
C  52.31900 18.53100 43.03700
C  55.59600 18.47300 43.63200
O  55.21400 17.38900 43.17300
C  57.07700 18.62800 43.86900
N  55.73100 23.92800 45.27300
C  56.50300 22.83300 45.36100
C  58.00400 23.20000 45.67100
C  57.88300 24.78300 45.94100
C  56.38500 25.09900 45.61800
C  58.62500 22.32700 46.73900
C  58.94200 25.65600 45.18200
C  59.63600 26.71100 46.03500
N  53.69600 26.01500 44.74600
C  54.63000 26.86600 45.26200
C  54.12900 28.19000 45.13600
C  52.90700 28.08100 44.54400
C  52.64700 26.69700 44.26200
C  54.59900 29.30500 45.87300
C  51.69000 28.80400 44.17600
O  51.40700 30.00400 44.22600
C  50.63600 27.73800 43.55200
C  50.13900 28.25000 42.28500
O  50.75300 28.55100 41.29100
O  48.78800 28.31500 42.35000
C  48.16300 28.70900 41.08900
H  50.68300 20.93900 43.05000
H  56.94300 20.83700 45.06200
H  56.50500 27.21800 46.06000
H  48.87300 25.42400 42.91100
H  49.06300 22.64700 42.44600
H  47.92400 22.66100 44.75400
H  48.29100 24.30200 44.80200
H  49.60800 23.23300 45.31500
H  48.90700 25.45900 40.80000
H  49.18300 23.83800 40.57300
H  51.54700 24.14000 40.23500
H  51.46900 25.77300 40.79100
H  51.32000 18.93200 42.86500
H  52.37100 17.80000 43.84300
H  52.60500 18.25600 42.02200
H  57.26000 18.67500 44.94200
H  57.51100 19.46900 43.32900
H  57.61900 17.90400 43.26000
H  58.60000 23.02000 44.77600
H  58.14600 24.84800 46.99700
H  58.11600 21.36500 46.78800
H  58.77500 22.82200 47.69900
H  59.63700 22.17800 46.36100
H  58.46400 26.06300 44.29100
H  59.75600 25.04200 44.79700
H  59.21800 26.79600 47.03800
H  59.53000 27.65100 45.49300
H  60.68400 26.41300 46.05700
H  55.35600 29.91300 45.37600
H  54.98600 28.97000 46.83500
H  53.73600 29.94200 46.06500
H  49.87800 27.68500 44.33300
H  48.35000 29.73400 40.77100
H  47.08200 28.61500 41.18900
H  48.42200 28.09300 40.22800

