158

Mg -2.13800 16.78500 26.67300
C  -2.64800 14.32700 29.21100
C  -3.09600 19.19300 28.70900
C  -2.18600 18.70000 23.87200
C  -1.80200 14.02000 24.46100
N  -2.80900 16.67800 28.66600
C  -2.87400 15.65800 29.56200
C  -2.94800 16.15400 31.01700
C  -3.53700 17.63600 30.83400
C  -3.17800 17.87800 29.31200
C  -5.11900 17.81300 31.02400
C  -1.62700 16.19900 31.84900
C  -1.49200 17.17200 33.04900
H  -0.67700 16.67400 34.26500
N  -2.36900 18.70900 26.36800
C  -2.79100 19.59100 27.38100
C  -2.84700 20.91600 26.78500
C  -2.56800 20.77200 25.40800
C  -2.36500 19.33200 25.13700
C  -3.26100 22.19500 27.60600
C  -2.55400 21.83600 24.36000
O  -2.52600 21.53400 23.16000
C  -2.70200 23.27700 24.64400
N  -1.88900 16.36000 24.41700
C  -1.95600 17.35700 23.50500
C  -1.84700 16.79000 22.09000
C  -1.37700 15.28800 22.37400
C  -1.74300 15.16800 23.82500
C  -3.27300 16.78300 21.41000
C  0.11700 15.02200 22.03800
C  1.18100 15.81700 22.71700
N  -2.23600 14.56200 26.77800
C  -2.04600 13.69400 25.77600
C  -1.91000 12.34200 26.38900
C  -2.24400 12.53600 27.74400
C  -2.37600 13.88500 27.90000
C  -1.75500 11.03300 25.68200
C  -2.42100 11.89400 28.97100
O  -2.34200 10.72700 29.24200
C  -2.53200 13.01800 29.99100
C  -1.25400 12.86800 30.76100
O  -0.23800 13.51200 30.62700
O  -1.44400 12.02500 31.82500
C  -0.37800 12.15300 32.76700
H  -3.09500 20.01500 29.42800
H  -2.26400 19.29500 22.96000
H  -1.46600 13.20400 23.81800
H  -3.70100 15.64600 31.62000
H  -2.96500 18.37700 31.39200
H  -5.55400 16.99900 31.60300
H  -5.60900 17.91000 30.05500
H  -5.23300 18.78200 31.51000
H  -0.85400 16.26200 31.08200
H  -1.42200 15.18600 32.19500
H  -2.45800 17.45400 33.46900
H  -1.01700 18.10900 32.75700
H  -2.47000 22.94500 27.62100
H  -3.52000 22.01300 28.64900
H  -4.13100 22.71200 27.20200
H  -1.83000 23.72500 25.12100
H  -3.64300 23.40300 25.18000
H  -2.84600 23.76100 23.67800
H  -1.06200 17.37400 21.60900
H  -1.89300 14.49700 21.83000
H  -3.55000 15.76000 21.15500
H  -3.20300 17.34500 20.47900
H  -3.98300 17.34200 22.02000
H  0.27000 15.11000 20.96300
H  0.19400 13.94300 22.17600
H  0.68600 16.69200 23.13900
H  1.92300 16.17000 22.00100
H  1.65000 15.16100 23.45000
H  -1.25500 11.30900 24.75400
H  -2.72500 10.59300 25.45300
H  -1.11900 10.44200 26.34200
H  -3.29700 12.79700 30.73600
H  0.56900 11.77000 32.38500
H  -0.65900 11.52400 33.61200
H  -0.16400 13.16300 33.11600
Mg 8.68400 48.49400 27.87800
C  7.09900 47.68500 30.88100
C  11.62500 48.64400 29.70700
C  10.35500 49.66400 25.20300
C  5.73000 48.80300 26.36200
N  9.23500 48.22600 30.06500
C  8.45500 47.85300 31.13500
C  9.19100 47.88400 32.50800
C  10.67300 48.27200 32.01800
C  10.50700 48.40300 30.53500
C  11.25800 49.59600 32.66000
C  9.07000 46.68200 33.44100
C  8.74200 46.99000 34.90200
H  9.48300 46.03200 35.87700
N  10.72400 48.95600 27.44100
C  11.76000 48.83900 28.33900
C  12.96700 49.01200 27.64700
C  12.66600 49.31400 26.30100
C  11.19500 49.39500 26.25600
C  14.37700 48.85900 28.29000
C  13.56300 49.75700 25.09200
O  13.15800 50.14600 24.02600
C  15.06400 49.43900 25.18800
N  8.11700 49.11000 26.04200
C  9.00100 49.61800 25.07100
C  8.18800 50.15100 23.87400
C  6.72900 49.75400 24.24300
C  6.85300 49.08800 25.60400
C  8.39500 51.67400 23.60400
C  6.07400 48.78700 23.23100
C  6.73200 47.45800 22.75300
N  6.80000 48.05300 28.39900
C  5.65100 48.21300 27.66000
C  4.44900 47.89400 28.47400
C  5.00000 47.75000 29.72600
C  6.42600 47.83700 29.69100
C  2.97500 47.79300 27.98000
C  4.65300 47.38100 31.13800
O  3.55200 47.08100 31.54700
C  5.97700 47.27600 31.88300
C  6.05100 45.78200 32.24200
O  6.51800 44.95000 31.54100
O  5.39800 45.54000 33.46200
C  5.52000 44.16900 34.07200
H  12.57800 48.67200 30.23900
H  10.84700 50.07100 24.31700
H  4.78300 48.95100 25.83800
H  8.77700 48.75100 33.02400
H  11.32900 47.40200 32.03100
H  12.34200 49.51500 32.58300
H  10.91900 49.83200 33.66800
H  11.09800 50.41300 31.95600
H  10.03400 46.18100 33.52600
H  8.51300 45.92300 32.89100
H  7.68800 46.73700 35.01600
H  8.82800 48.05900 35.09600
H  14.82700 47.92300 27.96100
H  14.32900 48.94600 29.37500
H  14.99400 49.68100 27.92700
H  15.66500 50.18200 25.71200
H  15.42800 49.27800 24.17300
H  15.08400 48.50700 25.75300
H  8.55500 49.70800 22.94800
H  6.09600 50.63900 24.31100
H  9.21100 51.78000 22.89000
H  8.62400 52.08400 24.58700
H  7.58100 52.32200 23.27800
H  5.97600 49.36900 22.31500
H  5.04800 48.51200 23.47400
H  7.35900 47.63200 21.87800
H  5.91300 46.76300 22.56600
H  7.45300 47.08200 23.47900
H  2.57600 48.77500 27.72600
H  2.36700 47.35700 28.77300
H  2.97100 47.16100 27.09100
H  6.03200 47.86000 32.80200
H  6.33900 44.11800 34.79000
H  5.54700 43.35300 33.35000
H  4.62500 44.08300 34.68900

