158

Mg 28.43300 57.42600 43.07600
C  26.06400 55.19300 41.66100
C  30.87900 55.48800 41.45800
C  30.66100 59.73400 43.97500
C  25.93800 59.22100 44.38900
N  28.42500 55.59500 41.56800
C  27.36700 54.88500 41.20000
C  27.74400 53.82800 40.07900
C  29.24400 53.61100 40.46500
C  29.55100 54.96800 41.20700
C  29.64900 52.45700 41.41700
C  27.59100 54.41700 38.72600
C  27.18900 53.57100 37.47100
H  28.11200 53.57300 36.23100
N  30.48500 57.59500 42.75000
C  31.27700 56.68600 42.09800
C  32.65600 57.23700 42.05000
C  32.62300 58.44000 42.83000
C  31.23000 58.59800 43.26500
C  33.68300 56.62100 41.15600
C  33.77300 59.45300 43.00000
O  34.92200 59.13700 42.54000
C  33.69000 60.68400 43.78600
N  28.26300 59.30400 43.93000
C  29.35300 60.06000 44.29400
C  28.88400 61.37700 44.97500
C  27.36600 61.23900 45.12100
C  27.18300 59.83100 44.44200
C  29.71200 61.73600 46.22500
C  26.58900 62.33800 44.45000
C  26.70500 62.46900 42.93500
N  26.46500 57.15500 43.20900
C  25.52500 57.96600 43.80900
C  24.20000 57.45500 43.71800
C  24.37800 56.35300 42.81600
C  25.74100 56.20500 42.55600
C  22.90500 58.06400 44.28000
C  23.70500 55.35400 42.05700
O  22.49300 55.15500 41.89100
C  24.79800 54.56800 41.28200
C  24.69200 53.12300 41.69300
O  24.82700 52.64600 42.80100
O  24.50400 52.30100 40.63000
C  24.68000 50.85000 40.75600
H  31.62700 54.88100 40.94400
H  31.29800 60.56100 44.29600
H  25.13900 59.79300 44.86600
H  27.16000 52.90800 40.10600
H  29.78500 53.60700 39.51800
H  28.81500 51.76700 41.54800
H  29.81000 52.88900 42.40500
H  30.46100 51.94100 40.90600
H  28.44300 55.02800 38.42900
H  26.80000 55.14200 38.91700
H  26.20200 53.77300 37.05500
H  27.00600 52.53900 37.76900
H  33.24500 56.51100 40.16400
H  33.97900 55.63000 41.50000
H  34.58700 57.22500 41.07300
H  33.16900 61.53800 43.35300
H  34.70100 61.01700 44.02200
H  33.28200 60.46500 44.77200
H  29.02800 62.25700 44.34900
H  27.09700 61.04200 46.15800
H  30.65400 61.20800 46.37200
H  29.25000 61.72600 47.21200
H  29.86800 62.80200 46.05700
H  27.01100 63.27700 44.81000
H  25.58200 62.17600 44.83600
H  27.55900 61.91200 42.54900
H  26.87200 63.52300 42.71300
H  25.82900 62.13400 42.38000
H  22.09800 57.35800 44.08100
H  22.58300 59.00100 43.82500
H  23.00300 58.30600 45.33800
H  24.74100 54.47500 40.19700
H  24.13100 50.41100 41.58900
H  25.72500 50.62200 40.96600
H  24.37300 50.28500 39.87600
Mg -11.56100 38.71900 40.68600
C  -9.26500 35.98000 40.15000
C  -9.31300 40.72800 39.17900
C  -13.74900 41.15300 41.02500
C  -13.81000 36.31800 41.81600
N  -9.55000 38.31000 39.72600
C  -8.92100 37.14300 39.52900
C  -7.58400 37.45600 38.66900
C  -7.57900 38.99500 38.51800
C  -8.83300 39.40200 39.26700
C  -6.21200 39.70100 38.87200
C  -7.67100 36.68500 37.23700
C  -6.53900 35.67300 36.97900
H  -5.47600 36.14700 36.06700
N  -11.53700 40.68200 40.18400
C  -10.54100 41.33200 39.57600
C  -10.90200 42.71000 39.38300
C  -12.23500 42.89600 39.82900
C  -12.59100 41.53600 40.36100
C  -9.92700 43.73300 38.89200
C  -12.95400 44.24000 39.85800
O  -12.39700 45.21100 39.47100
C  -14.33700 44.43500 40.35000
N  -13.48200 38.75500 41.26100
C  -14.14300 39.89500 41.42200
C  -15.59900 39.55600 41.99800
C  -15.61600 38.01100 42.16700
C  -14.21400 37.65200 41.73600
C  -16.11000 40.43500 43.17100
C  -16.60300 37.18200 41.31100
C  -17.49500 36.13400 42.10900
N  -11.49200 36.58400 41.15400
C  -12.57600 35.80000 41.56200
C  -12.07700 34.37700 41.62400
C  -10.75300 34.42100 41.15400
C  -10.50200 35.73500 40.78400
C  -12.88100 33.25500 42.13100
C  -9.63200 33.63800 40.78600
O  -9.49600 32.43100 40.83300
C  -8.56100 34.60000 40.24200
C  -7.27300 34.51800 41.11100
O  -6.62600 33.48400 41.22000
O  -6.89700 35.77500 41.51500
C  -5.82600 35.91800 42.49500
H  -8.65900 41.38900 38.60600
H  -14.44300 41.99000 41.12300
H  -14.55800 35.65000 42.24900
H  -6.71300 37.06500 39.19500
H  -7.71200 39.36300 37.50000
H  -5.81900 40.07400 37.92700
H  -5.57200 38.97700 39.37700
H  -6.54300 40.47900 39.56000
H  -7.64100 37.31900 36.35100
H  -8.59800 36.11600 37.17600
H  -6.94000 34.68900 36.73400
H  -6.01800 35.49400 37.92000
H  -10.39700 44.13900 37.99600
H  -8.89100 43.43700 38.72600
H  -10.02200 44.54200 39.61500
H  -14.78500 45.41500 40.18600
H  -14.42300 44.28600 41.42700
H  -15.00200 43.75100 39.82200
H  -16.24000 39.81500 41.15600
H  -15.77500 37.75400 43.21400
H  -15.31600 41.03900 43.60700
H  -16.54800 39.77900 43.92400
H  -16.80700 41.20800 42.84600
H  -16.12500 36.69200 40.46200
H  -17.27000 37.90600 40.84400
H  -17.69400 35.22200 41.54700
H  -18.36100 36.68900 42.47000
H  -16.97800 35.73300 42.98000
H  -12.41800 32.98800 43.08000
H  -12.73200 32.49100 41.36700
H  -13.93400 33.44800 42.33900
H  -8.35900 34.16600 39.26300
H  -6.25100 36.57700 43.25200
H  -4.91100 36.40100 42.15300
H  -5.74400 34.93200 42.95100

