158

Mg 44.64300 4.94700 46.75400
C  42.65600 7.79800 46.95100
C  41.76400 2.92000 46.64600
C  46.52900 2.30400 45.77600
C  47.48200 7.06400 46.47600
N  42.47600 5.33200 46.75700
C  41.90200 6.56400 46.90400
C  40.36100 6.47100 46.97700
C  40.15400 4.82400 46.81800
C  41.53500 4.26200 46.74900
C  39.20000 4.20400 47.96100
C  39.48100 7.30300 46.02300
C  40.05300 7.36600 44.57700
H  39.26800 6.71700 43.42100
N  44.21500 2.91100 46.30500
C  42.97700 2.29800 46.32800
C  43.17600 0.86700 46.18900
C  44.55700 0.61400 45.99100
C  45.16600 1.97300 46.00100
C  42.03200 -0.11200 46.26300
C  45.22700 -0.73100 45.77200
O  44.46900 -1.69300 45.96600
C  46.58800 -0.94200 45.48300
N  46.67600 4.77700 46.10400
C  47.25000 3.53600 45.81500
C  48.78400 3.59700 45.69400
C  49.03800 5.17300 45.72500
C  47.65100 5.66600 46.23800
C  49.58000 2.85800 46.78300
C  49.44900 5.75500 44.32700
C  50.98200 5.84100 44.10300
N  45.09900 7.01300 46.78000
C  46.26100 7.72100 46.77600
C  45.91900 9.09900 46.90800
C  44.52900 9.16100 47.01700
C  44.07400 7.91400 46.83200
C  46.97500 10.13600 46.94000
C  43.40700 10.07700 47.10800
O  43.44700 11.34200 47.20500
C  42.13300 9.28600 47.04600
C  41.25800 9.41200 48.23000
O  41.25200 8.67100 49.20700
O  40.43700 10.48100 48.05500
C  39.51000 10.63800 49.15800
H  40.85100 2.33100 46.53600
H  47.21800 1.50100 45.50700
H  48.39500 7.65600 46.38400
H  40.17700 6.81700 47.99400
H  39.67100 4.58200 45.87100
H  39.72100 3.61200 48.71300
H  38.39200 3.68700 47.44300
H  38.86900 5.06100 48.54800
H  39.47300 8.31700 46.42400
H  38.43800 7.01500 45.88700
H  40.97100 6.77900 44.59000
H  40.22700 8.42800 44.40500
H  41.77400 -0.44900 45.25900
H  41.20600 0.38600 46.76900
H  42.20300 -0.98200 46.89800
H  46.76900 -1.98600 45.22900
H  47.16600 -0.74300 46.38500
H  46.93600 -0.41100 44.59700
H  49.03500 3.13500 44.73900
H  49.78200 5.38700 46.49100
H  50.42000 3.44500 47.15500
H  49.95900 1.87500 46.50100
H  48.86300 2.74500 47.59700
H  49.15300 6.80200 44.26400
H  48.96700 5.16800 43.54500
H  51.21500 5.40300 43.13300
H  51.51100 5.18600 44.79500
H  51.47800 6.80500 44.21600
H  47.65600 9.98200 47.77700
H  46.50800 11.09600 47.16300
H  47.51600 10.11800 45.99400
H  41.61300 9.53100 46.11900
H  38.60200 10.15600 48.79700
H  39.25500 11.69300 49.25600
H  39.88100 10.25100 50.10700
Mg 48.13500 45.63800 43.08700
C  44.72700 44.91400 42.42800
C  48.90100 42.37600 42.31900
C  51.40600 46.54300 43.03500
C  47.25500 48.93800 43.60500
N  46.89900 43.86200 42.14400
C  45.53500 43.76300 42.14000
C  45.10500 42.31900 41.74700
C  46.43200 41.50500 41.89400
C  47.50800 42.62900 42.21200
C  46.54600 40.29900 42.88700
C  44.44900 42.30700 40.29700
C  45.27200 42.79000 39.08400
H  45.13500 42.03200 37.67600
N  49.95200 44.61300 42.67400
C  50.04000 43.28500 42.38900
C  51.43200 42.90900 42.26800
C  52.22500 44.09000 42.54900
C  51.19500 45.14600 42.74400
C  51.89800 41.46300 42.21200
C  53.73300 44.21300 42.59800
O  54.46100 43.26800 42.54800
C  54.47800 45.49400 42.90500
N  49.19000 47.54000 43.25400
C  50.51000 47.62100 43.31800
C  50.98700 49.06300 43.50600
C  49.64900 49.84100 43.73700
C  48.63100 48.70300 43.53600
C  52.01800 49.30800 44.58600
C  49.41500 51.11900 42.81900
C  49.29800 52.51200 43.42700
N  46.38000 46.77100 43.15100
C  46.16600 48.08800 43.37100
C  44.75700 48.37400 43.46800
C  44.16800 47.13000 43.05500
C  45.18800 46.18100 42.86400
C  44.11700 49.62100 43.74100
C  42.93200 46.43100 42.75900
O  41.74900 46.76400 42.73300
C  43.21000 44.95500 42.51100
C  42.63000 44.21000 43.68100
O  41.75100 43.38800 43.50300
O  43.29200 44.38700 44.88000
C  42.76600 43.64800 46.02800
H  49.13500 41.31100 42.25900
H  52.41600 46.95500 42.97700
H  46.93000 49.91800 43.96000
H  44.33600 41.93100 42.41600
H  46.64700 41.03300 40.93500
H  46.77400 39.39200 42.32600
H  45.54900 40.29400 43.32900
H  47.36100 40.37800 43.60600
H  43.63100 43.02300 40.22700
H  43.89200 41.39800 40.07500
H  46.33700 42.67500 39.28900
H  45.15100 43.85100 38.86400
H  51.38500 40.90700 41.42800
H  51.69300 40.92100 43.13500
H  52.95700 41.35400 41.97800
H  54.04800 45.94200 43.80100
H  54.37400 46.16600 42.05400
H  55.50400 45.31200 43.22400
H  51.43400 49.31200 42.54300
H  49.50400 50.06200 44.79500
H  52.92000 49.53500 44.01800
H  52.30900 48.40200 45.11900
H  51.66800 49.92200 45.41500
H  48.40600 50.92600 42.45700
H  50.09300 51.07000 41.96700
H  49.70400 53.23300 42.71700
H  49.81000 52.52100 44.38900
H  48.25000 52.77700 43.56900
H  43.10600 49.61000 43.33300
H  44.70000 50.39600 43.24200
H  44.02500 49.74800 44.81900
H  42.78100 44.46500 41.63700
H  41.80100 43.99100 46.40100
H  43.47400 43.65700 46.85700
H  42.82900 42.57900 45.82200

