158

Mg 30.45800 57.72700 39.68600
C  27.82300 55.68600 38.58000
C  32.61900 55.13400 38.73000
C  33.19300 59.76800 40.15000
C  28.28600 60.31500 40.10000
N  30.22700 55.69200 38.70600
C  29.06700 55.05400 38.51500
C  29.13500 53.55400 38.10300
C  30.74600 53.39200 38.21200
C  31.26700 54.81000 38.60700
C  31.22600 52.25100 39.26500
C  28.66500 53.18700 36.71500
C  29.26000 53.86800 35.52100
H  28.28800 54.52000 34.54300
N  32.57300 57.49500 39.52500
C  33.22100 56.33800 39.08100
C  34.66700 56.62300 38.94200
C  34.88200 57.88500 39.51700
C  33.50700 58.42800 39.79300
C  35.63700 55.69900 38.35200
C  36.27000 58.60800 39.67700
O  37.30800 58.08100 39.32600
C  36.37600 59.81200 40.56800
N  30.65200 59.78400 39.96100
C  31.86500 60.31500 40.29300
C  31.65800 61.73800 40.76800
C  30.17200 62.04400 40.63300
C  29.65400 60.64700 40.27800
C  32.37600 62.14300 42.05600
C  29.79800 63.11800 39.56900
C  28.80000 64.20500 40.06500
N  28.45200 58.01200 39.33600
C  27.68500 59.18400 39.59000
C  26.26400 58.77400 39.31000
C  26.31900 57.42400 38.98100
C  27.61500 56.98300 38.94600
C  25.09700 59.76800 39.33800
C  25.49800 56.27900 38.64000
O  24.29800 56.13500 38.44600
C  26.42600 55.12000 38.34400
C  26.06800 53.88900 39.07900
O  26.36000 53.67400 40.21000
O  25.37200 53.01400 38.36200
C  24.60300 51.95000 39.07700
H  33.24800 54.28800 38.44400
H  33.92400 60.57200 40.25900
H  27.61700 61.17400 40.18800
H  28.62300 52.95800 38.85800
H  31.36000 53.27200 37.32000
H  31.98500 51.71600 38.69300
H  30.43000 51.54300 39.49700
H  31.47600 52.60400 40.26500
H  27.57900 53.28700 36.72500
H  28.98200 52.14800 36.63700
H  29.64100 53.02200 34.94900
H  29.99800 54.62600 35.78300
H  36.48100 56.29000 37.99600
H  35.11000 55.07400 37.63100
H  35.91500 55.06000 39.19000
H  37.43700 60.00300 40.72600
H  35.92800 59.55000 41.52600
H  36.02400 60.72900 40.09500
H  32.22400 62.21300 39.96600
H  29.72000 62.26700 41.60000
H  33.03400 61.31700 42.32400
H  31.69300 62.41900 42.86000
H  33.07000 62.92500 41.75100
H  29.21200 62.70200 38.74900
H  30.66300 63.60700 39.12100
H  28.62600 63.97800 41.11600
H  27.95600 64.00700 39.40400
H  29.08400 65.24400 39.89200
H  25.46100 60.78900 39.45200
H  24.36900 59.38000 40.05100
H  24.59600 59.76100 38.37100
H  26.35000 54.96400 37.26800
H  25.20900 51.42800 39.81800
H  24.18600 51.19300 38.41300
H  23.77800 52.49900 39.53100
Mg -12.39100 17.58900 41.29200
C  -9.02700 16.36200 40.76200
C  -11.20700 20.83700 40.58600
C  -15.48600 18.60400 40.66300
C  -13.43800 14.17000 41.18200
N  -10.37900 18.39700 40.72500
C  -9.10800 17.76700 40.59800
C  -7.91900 18.82400 40.32800
C  -8.74900 20.18700 40.35700
C  -10.25900 19.79400 40.59000
C  -8.23600 21.33800 41.34800
C  -7.15000 18.62600 39.01000
C  -5.75100 18.06800 39.21400
H  -5.40200 16.93000 38.16400
N  -13.18700 19.43700 40.71900
C  -12.59700 20.65000 40.52400
C  -13.55500 21.64000 40.01800
C  -14.85500 20.98600 40.03600
C  -14.56800 19.62200 40.46800
C  -13.22900 23.02100 39.59700
C  -16.17500 21.60900 39.59200
O  -16.18300 22.77200 39.15500
C  -17.52300 21.01100 39.81200
N  -14.21500 16.51000 40.97000
C  -15.34700 17.21600 40.83800
C  -16.54300 16.27200 40.77800
C  -15.90800 14.87100 41.23600
C  -14.44000 15.16500 41.04500
C  -17.85600 16.62600 41.53300
C  -16.54700 13.67100 40.40500
C  -17.57800 12.76300 41.15800
N  -11.46600 15.61600 41.16000
C  -12.06900 14.32400 41.11800
C  -11.02100 13.36800 40.95800
C  -9.82600 14.17600 40.92200
C  -10.14500 15.53000 41.01000
C  -11.15300 11.89300 40.88000
C  -8.38400 13.99100 40.67600
O  -7.75500 12.95300 40.53700
C  -7.78900 15.45300 40.54900
C  -6.67100 15.60100 41.61900
O  -6.78100 16.27800 42.63500
O  -5.58700 14.84400 41.28200
C  -4.64900 14.67400 42.42600
H  -10.73900 21.80500 40.39100
H  -16.54000 18.81700 40.47300
H  -13.80200 13.14100 41.22100
H  -7.24000 18.68100 41.16800
H  -8.87100 20.61000 39.36000
H  -7.23900 21.23100 41.77600
H  -9.02000 21.33000 42.10500
H  -8.29100 22.24300 40.74400
H  -7.05900 19.60500 38.54100
H  -7.74300 17.95200 38.39100
H  -5.56600 17.66300 40.20900
H  -5.06800 18.87200 38.94100
H  -13.51300 23.27100 38.57500
H  -12.16500 23.22100 39.72100
H  -13.76200 23.66300 40.29800
H  -17.63600 20.04900 39.31200
H  -18.25500 21.67100 39.34700
H  -17.67600 20.92900 40.88900
H  -16.79200 16.00500 39.75100
H  -15.99800 14.63000 42.29500
H  -18.49100 17.12900 40.80400
H  -17.80100 17.20200 42.45700
H  -18.35700 15.67700 41.72600
H  -15.69100 13.03100 40.19200
H  -17.14000 13.86100 39.51000
H  -17.35600 12.37700 42.15300
H  -17.65200 11.93800 40.44900
H  -18.54000 13.27400 41.18000
H  -11.07400 11.52200 41.90100
H  -10.45000 11.27700 40.32000
H  -12.13800 11.60000 40.51600
H  -7.38400 15.62700 39.55200
H  -4.13100 15.62300 42.57000
H  -3.96300 13.82900 42.47300
H  -5.18900 14.50800 43.35800

