158

Mg 8.70200 4.00600 27.91900
C  9.89600 2.30800 30.90900
C  6.69000 5.81400 30.09700
C  7.39800 5.32300 25.32800
C  10.58800 1.63200 26.08100
N  8.19400 3.75400 30.26100
C  8.93300 3.21200 31.25500
C  8.53500 3.73500 32.70000
C  7.35200 4.70400 32.27400
C  7.46200 4.81800 30.73600
C  5.98900 4.24100 32.76100
C  9.73600 4.46700 33.40000
C  10.19400 3.80100 34.73800
H  10.67600 4.71100 35.83000
N  7.36300 5.49800 27.70900
C  6.61700 6.12200 28.72500
C  5.77600 7.18700 28.11800
C  6.19300 7.24700 26.72200
C  7.02800 5.99000 26.52000
C  4.89100 8.00200 28.93900
C  5.74200 8.21000 25.54600
O  5.95800 8.03700 24.32900
C  4.93200 9.37800 25.88900
N  8.85100 3.41600 25.98500
C  8.18900 4.19400 25.02300
C  8.46600 3.62500 23.65600
C  9.63700 2.57000 23.91200
C  9.76600 2.57100 25.42600
C  7.16600 3.19900 22.90900
C  11.00300 2.87400 23.16000
C  11.70800 1.59500 22.66600
N  10.05600 2.31500 28.34400
C  10.68800 1.45800 27.44500
C  11.51700 0.53800 28.20100
C  11.20100 0.87700 29.55200
C  10.31800 1.94200 29.59300
C  12.56200 -0.50400 27.80200
C  11.74500 0.63800 30.90800
O  12.75700 0.00800 31.26500
C  10.77500 1.48700 31.84900
C  9.90400 0.66400 32.61300
O  9.14300 -0.22600 32.16400
O  10.22700 0.86100 33.97100
C  9.07500 0.29900 34.84800
H  5.96900 6.34000 30.72600
H  6.96000 5.83400 24.46800
H  11.20400 0.94400 25.49900
H  8.23800 2.93800 33.38200
H  7.51300 5.75100 32.52800
H  5.95000 3.16100 32.90400
H  5.25900 4.44200 31.97700
H  5.78900 4.82200 33.66100
H  9.60900 5.53000 33.60500
H  10.65800 4.34600 32.83200
H  11.11400 3.24200 34.56800
H  9.44500 3.12700 35.15300
H  4.02200 7.37400 29.13700
H  4.63600 8.95600 28.47900
H  5.29900 8.32600 29.89700
H  5.58500 10.11700 26.35400
H  4.11200 8.96400 26.47400
H  4.44100 9.82100 25.02200
H  8.85500 4.39200 22.98600
H  9.29400 1.57000 23.64400
H  6.24200 3.56100 23.36100
H  7.10900 2.16100 22.58400
H  7.23000 3.67300 21.92900
H  11.71000 3.39500 23.80600
H  10.85200 3.54600 22.31500
H  12.14800 1.75200 21.68100
H  10.98900 0.77700 22.63000
H  12.38200 1.17100 23.41000
H  12.01300 -1.41900 27.58100
H  13.36100 -0.61000 28.53600
H  13.01500 -0.16500 26.86900
H  11.36600 2.11400 32.51700
H  9.39800 -0.70600 35.11900
H  8.08700 0.28700 34.38800
H  8.99600 0.75800 35.83300
Mg 35.15700 49.12700 26.56300
C  35.84300 47.09700 29.45800
C  34.46800 51.65300 28.68500
C  34.69700 51.04500 23.81400
C  35.87500 46.33400 24.50800
N  35.08400 49.29800 28.84700
C  35.39800 48.35400 29.79100
C  35.43200 48.97500 31.12200
C  34.63100 50.29000 30.89200
C  34.77200 50.47300 29.38100
C  33.09200 50.23400 31.35200
C  36.91200 49.13300 31.68600
C  36.97900 48.56500 33.10300
H  36.99600 49.55200 34.21900
N  34.54600 51.05400 26.27900
C  34.24500 51.91900 27.22800
C  33.82200 53.21200 26.65100
C  33.95500 53.06200 25.24600
C  34.41200 51.65300 25.00200
C  33.44200 54.50600 27.50700
C  33.64600 54.07800 24.09900
O  33.68500 53.77600 22.91100
C  33.22500 55.60200 24.47000
N  35.28100 48.73200 24.50000
C  34.96200 49.69000 23.59700
C  35.08800 49.13600 22.13000
C  35.69500 47.77700 22.33200
C  35.54900 47.56700 23.86400
C  33.79200 49.21200 21.31500
C  37.03600 47.49300 21.67200
C  37.02100 46.57900 20.43500
N  35.60300 46.99400 26.89800
C  35.91100 46.08000 25.95000
C  36.30300 44.84200 26.68500
C  36.26700 45.20200 28.04200
C  35.94600 46.53500 28.11100
C  36.71200 43.49700 26.07800
C  36.60500 44.81000 29.38400
O  37.00100 43.69700 29.69300
C  36.29300 45.97000 30.39900
C  35.30200 45.50500 31.35600
O  34.21600 45.17100 31.11300
O  35.91200 45.26100 32.57600
C  35.07200 44.71900 33.66500
H  34.41000 52.55000 29.30400
H  34.58100 51.65100 22.91400
H  36.17900 45.55200 23.80900
H  34.82500 48.34400 31.77200
H  35.12900 51.14400 31.35100
H  32.83600 50.80400 32.24500
H  32.73300 49.20700 31.43000
H  32.44800 50.70200 30.60800
H  37.34400 50.13200 31.63200
H  37.62700 48.56300 31.09200
H  37.85400 47.92600 33.22200
H  36.19800 47.82400 33.27400
H  32.48200 54.73900 27.04700
H  34.11300 55.31700 27.22400
H  33.43900 54.46000 28.59600
H  34.10400 56.04000 24.94100
H  32.29400 55.66000 25.03400
H  32.98800 56.12000 23.54000
H  35.74300 49.83500 21.61100
H  34.97500 47.11900 21.84500
H  32.95500 49.46700 21.96400
H  33.53200 48.31800 20.74800
H  33.96700 50.01200 20.59600
H  37.65000 46.90700 22.35600
H  37.58100 48.43700 21.63900
H  37.48500 45.60800 20.61200
H  37.57300 47.17400 19.70800
H  36.04000 46.31900 20.03700
H  35.78400 42.94000 25.95000
H  37.43700 42.95200 26.68300
H  37.21800 43.57100 25.11500
H  37.16100 46.32700 30.95300
H  34.37600 45.48500 34.00500
H  35.70700 44.36500 34.47700
H  34.48200 43.89300 33.26700

