158

Mg 16.55800 51.53300 26.15700
C  18.35600 49.97300 28.81900
C  14.43400 52.88700 28.47200
C  14.73900 52.73100 23.57000
C  18.65700 49.86800 23.85200
N  16.33500 51.32100 28.38600
C  17.21800 50.75500 29.27400
C  16.88800 51.00600 30.77700
C  15.45200 51.69400 30.63500
C  15.34900 51.99400 29.09500
C  14.25900 50.88700 31.12600
C  17.92500 51.82000 31.60500
C  17.58000 52.06500 33.11800
H  16.44600 51.27000 33.77000
N  14.91100 52.76400 26.02800
C  14.13900 53.17600 27.09900
C  13.06200 54.10800 26.63900
C  13.27700 54.12700 25.22500
C  14.37900 53.17500 24.84600
C  11.93400 54.59900 27.55600
C  12.52300 54.96800 24.17600
O  12.80500 54.96500 23.00900
C  11.50900 56.00400 24.64900
N  16.61100 51.23900 24.03900
C  15.72700 51.77900 23.19500
C  15.81600 51.03600 21.82200
C  17.24500 50.50900 21.87300
C  17.53200 50.54900 23.34900
C  14.68000 49.99700 21.69800
C  18.31700 51.39000 21.20100
C  19.58800 50.59200 20.79000
N  18.20500 50.25200 26.28800
C  18.92800 49.62000 25.25900
C  20.09100 48.82400 25.82200
C  19.83400 48.96900 27.21800
C  18.79700 49.86700 27.47000
C  21.20400 48.02300 25.16800
C  20.30600 48.48800 28.53700
O  21.26800 47.77800 28.77500
C  19.44200 49.19500 29.63700
C  18.87900 48.24000 30.56900
O  17.97700 47.46600 30.29200
O  19.47100 48.24400 31.78500
C  18.88800 47.47100 32.85900
H  13.86800 53.44800 29.21900
H  14.01300 53.05200 22.82100
H  19.19400 49.21300 23.16300
H  16.81900 49.97900 31.13700
H  15.39600 52.64000 31.17300
H  13.74900 51.43100 31.92000
H  14.59000 49.93300 31.53600
H  13.49200 50.72600 30.36900
H  18.09100 52.78000 31.11600
H  18.89300 51.32800 31.50900
H  17.29300 53.11700 33.13300
H  18.49400 51.89900 33.68700
H  11.75100 55.66500 27.69700
H  11.99200 54.20300 28.57000
H  10.98900 54.27100 27.12400
H  11.01700 56.46500 23.79300
H  11.95800 56.87200 25.13000
H  10.80700 55.38100 25.20400
H  15.69400 51.90900 21.18000
H  17.26100 49.53500 21.38400
H  14.03300 50.34400 20.89200
H  14.11500 49.87500 22.62200
H  14.97500 48.97900 21.44200
H  18.62300 52.20900 21.85200
H  17.93200 51.95700 20.35400
H  19.73100 50.59100 19.70900
H  19.47200 49.52400 20.97400
H  20.49100 51.03700 21.20800
H  21.94600 48.78100 24.91700
H  20.82400 47.63000 24.22500
H  21.69400 47.25200 25.76300
H  20.17400 49.90600 30.01900
H  19.14300 46.41200 32.82400
H  17.82400 47.69500 32.93100
H  19.15400 47.93900 33.80700
Mg -2.48000 34.29500 26.59500
C  -3.88700 32.72700 29.31300
C  -0.53500 36.25700 28.58800
C  -1.51800 36.04300 23.81500
C  -4.46500 32.21800 24.47400
N  -2.30500 34.47000 28.73600
C  -2.92700 33.73500 29.68800
C  -2.25600 33.98400 31.06000
C  -1.22800 35.20600 30.78800
C  -1.37600 35.39200 29.27200
C  -1.46300 36.55200 31.54300
C  -1.59900 32.72600 31.69100
C  -1.47700 32.91000 33.23000
H  -2.35200 32.13100 34.22000
N  -1.20900 35.98500 26.25600
C  -0.46300 36.56000 27.20400
C  0.27700 37.65700 26.54900
C  -0.09500 37.62000 25.17900
C  -0.92000 36.52200 25.03400
C  1.35800 38.50100 27.30300
C  0.20700 38.61400 24.11700
O  -0.17000 38.49600 22.91900
C  0.94800 39.82700 24.42000
N  -2.95400 34.15400 24.44400
C  -2.35600 34.92100 23.47800
C  -2.69100 34.51800 22.01700
C  -3.51700 33.22600 22.34500
C  -3.74200 33.21800 23.80300
C  -3.58800 35.59700 21.24700
C  -2.81500 31.91900 21.85400
C  -3.65100 30.78300 21.29900
N  -3.96800 32.89800 26.78700
C  -4.58400 32.03300 25.81700
C  -5.34400 31.02000 26.51000
C  -5.18500 31.30500 27.86500
C  -4.29400 32.42700 27.97700
C  -6.14200 29.91900 25.94000
C  -5.53600 30.92200 29.21500
O  -6.32200 30.08300 29.61700
C  -4.80300 31.85500 30.17900
C  -5.81200 32.48100 31.02200
O  -6.76900 33.15000 30.60800
O  -5.54000 32.27300 32.32800
C  -6.34200 32.85500 33.33600
H  0.14100 36.73100 29.30200
H  -1.18800 36.47000 22.86600
H  -5.09700 31.67300 23.77000
H  -2.99600 34.37600 31.75700
H  -0.26100 34.89500 31.18300
H  -2.02800 37.32200 31.01700
H  -0.50600 36.88400 31.94600
H  -2.13300 36.44800 32.39700
H  -0.57700 32.62700 31.32500
H  -2.09300 31.79600 31.41000
H  -1.51300 33.96700 33.49200
H  -0.44100 32.64100 33.43500
H  2.32500 38.42900 26.80400
H  1.47900 38.21000 28.34700
H  1.03700 39.54100 27.24900
H  0.37500 40.44900 25.10800
H  0.96300 40.37500 23.47700
H  1.91200 39.52900 24.83100
H  -1.72400 34.34300 21.54600
H  -4.54200 33.29000 21.97800
H  -3.70100 36.50200 21.84400
H  -4.60600 35.33000 20.96200
H  -3.04100 35.99000 20.39000
H  -2.41600 31.51800 22.78600
H  -1.99300 32.10200 21.16100
H  -2.96900 30.48400 20.50300
H  -4.62500 31.19900 21.04300
H  -3.78400 29.97800 22.02200
H  -7.15800 30.31300 25.90600
H  -6.14300 29.06500 26.61700
H  -5.61900 29.63500 25.02700
H  -4.16700 31.24600 30.82200
H  -7.10700 32.09200 33.48200
H  -6.82700 33.79100 33.05900
H  -5.67100 33.09200 34.16200

