158

Mg 30.55100 58.69600 41.03200
C  27.78800 56.89700 39.93600
C  32.55600 56.28800 39.65300
C  33.08500 60.99600 41.01800
C  28.31300 61.40500 41.77700
N  30.12000 56.88400 39.81100
C  28.96600 56.23500 39.65300
C  29.11200 54.76500 39.27700
C  30.64600 54.58400 39.34500
C  31.16700 55.98200 39.67400
C  31.17400 53.39700 40.17900
C  28.40300 54.26700 38.03300
C  28.20200 55.22000 36.80900
H  28.36100 54.82800 35.37800
N  32.53300 58.61900 40.55400
C  33.15300 57.56000 39.92700
C  34.57800 57.88400 39.83100
C  34.78100 59.20800 40.15200
C  33.46400 59.66500 40.59600
C  35.64000 56.94800 39.27800
C  36.13000 59.92400 40.08900
O  37.07600 59.38900 39.49600
C  36.40400 61.29700 40.65200
N  30.61000 60.81000 41.59400
C  31.81700 61.49200 41.52800
C  31.71600 62.98000 41.88000
C  30.18500 63.10400 42.21200
C  29.65700 61.74400 41.81500
C  32.65600 63.39900 43.03300
C  29.35700 64.29000 41.68100
C  29.08600 65.49200 42.69300
N  28.43000 59.06500 41.08200
C  27.64800 60.18500 41.37200
C  26.26800 59.91600 41.15100
C  26.32400 58.61300 40.59400
C  27.62300 58.16900 40.48000
C  25.18600 60.90800 41.35800
C  25.43500 57.54900 40.07600
O  24.23200 57.56700 39.92900
C  26.39200 56.36700 39.76300
C  26.10000 55.32100 40.78100
O  26.58800 55.16800 41.87600
O  25.14800 54.43700 40.26300
C  24.70500 53.22900 41.05300
H  33.24600 55.53600 39.26400
H  33.74900 61.85300 40.89000
H  27.59100 62.21400 41.90600
H  28.68100 54.33100 40.17900
H  31.07300 54.44700 38.35200
H  31.92200 53.72900 40.89800
H  31.55000 52.69100 39.43800
H  30.44700 52.89100 40.81400
H  27.43700 53.88700 38.36500
H  29.00700 53.48100 37.58000
H  28.92800 56.02200 36.94200
H  27.18000 55.57900 36.92600
H  35.68000 57.22400 38.22500
H  35.33700 55.90600 39.38800
H  36.57600 57.08800 39.81800
H  35.92900 61.54600 41.60200
H  36.14200 62.01600 39.87500
H  37.47900 61.36700 40.81400
H  31.80000 63.54000 40.94900
H  30.15700 63.07300 43.30200
H  33.16300 62.52200 43.43600
H  32.19000 63.90200 43.88000
H  33.32700 64.17300 42.66200
H  28.47400 63.91300 41.16500
H  29.93000 64.61200 40.81100
H  29.32000 65.24700 43.72900
H  28.00600 65.63800 42.66200
H  29.56600 66.40300 42.33600
H  25.40500 61.47400 42.26300
H  24.30600 60.29300 41.54800
H  25.04600 61.45500 40.42600
H  26.09600 56.08700 38.75100
H  24.26900 53.60500 41.97900
H  25.51900 52.57500 41.36600
H  24.00200 52.68100 40.42600
Mg 36.02300 49.65000 25.37700
C  36.23900 47.49200 28.22600
C  34.38800 51.83600 27.20000
C  35.39200 51.34700 22.50000
C  37.35600 47.02200 23.55200
N  35.36900 49.64300 27.48800
C  35.65100 48.73600 28.47700
C  35.39000 49.39400 29.77400
C  34.77300 50.80700 29.46000
C  34.88500 50.79900 27.96600
C  33.28700 51.03300 29.94100
C  36.60500 49.54100 30.70400
C  36.58400 48.72300 31.99900
H  35.27800 48.68400 32.76400
N  35.05100 51.32000 24.93000
C  34.48500 52.16800 25.84200
C  34.11600 53.50300 25.17600
C  34.40400 53.32600 23.79600
C  35.01800 51.94600 23.69700
C  33.57300 54.59000 26.00800
C  33.95000 54.24800 22.65500
O  34.28400 54.12500 21.48800
C  33.10200 55.38100 23.01700
N  36.27200 49.22500 23.32300
C  35.96000 50.05800 22.28400
C  36.33200 49.37100 20.97100
C  37.25000 48.10300 21.38800
C  37.04700 48.14600 22.85600
C  35.10300 48.85600 20.19900
C  38.80200 48.27400 20.98900
C  39.52300 46.95900 20.88300
N  36.65900 47.68300 25.73700
C  37.14400 46.75900 24.85100
C  37.37800 45.49600 25.54900
C  37.11200 45.75700 26.85500
C  36.57900 47.08100 26.97300
C  37.97100 44.22500 24.88500
C  37.07700 45.19900 28.20100
O  37.48900 44.12600 28.62600
C  36.42200 46.27600 29.14200
C  35.17400 45.65500 29.80300
O  34.10100 45.50700 29.26700
O  35.41500 45.36500 31.10600
C  34.37100 44.74800 31.94100
H  33.88100 52.56300 27.83900
H  35.16400 51.94500 21.61500
H  37.64300 46.20900 22.88200
H  34.65300 48.73600 30.23500
H  35.35400 51.57800 29.96600
H  33.38900 51.89500 30.59900
H  32.86700 50.16800 30.45400
H  32.71300 51.35000 29.07000
H  36.72600 50.54400 31.11500
H  37.48700 49.20400 30.16000
H  37.32500 49.12200 32.69100
H  36.88800 47.69900 31.78300
H  32.50700 54.37100 26.06000
H  33.72800 55.61900 25.68300
H  33.89500 54.49100 27.04500
H  32.21500 55.13900 23.60200
H  32.71700 55.79100 22.08400
H  33.66300 56.05700 23.66300
H  36.82800 50.16000 20.40500
H  36.82300 47.16300 21.03800
H  34.42300 48.50500 20.97600
H  35.36200 47.95000 19.65000
H  34.84100 49.65200 19.50200
H  39.24100 49.09300 21.56000
H  38.77500 48.63300 19.96000
H  40.13700 46.82900 21.77400
H  40.10800 46.86900 19.96800
H  38.77800 46.16700 20.81600
H  37.67500 44.14600 23.83900
H  37.69900 43.41200 25.55800
H  39.04200 44.42500 24.84500
H  37.15500 46.53500 29.90600
H  33.52400 44.21700 31.50600
H  34.04200 45.59400 32.54500
H  34.78800 44.09700 32.70900

