158

Mg 24.40400 -5.25600 45.61300
C  26.63500 -2.84700 44.18500
C  22.04900 -4.16200 43.50100
C  22.69100 -8.06600 46.29200
C  27.24300 -6.48200 47.36900
N  24.42600 -3.73300 44.01000
C  25.45600 -2.91100 43.49000
C  25.01700 -2.08400 42.34000
C  23.50700 -2.47700 42.18300
C  23.31200 -3.61000 43.20200
C  22.51500 -1.27000 42.42500
C  25.86800 -2.32800 41.01100
C  26.18300 -1.07800 40.23400
H  25.90700 -1.19000 38.69800
N  22.57500 -5.88100 45.11800
C  21.74000 -5.27200 44.27700
C  20.41700 -5.86900 44.39200
C  20.56400 -7.04300 45.14600
C  21.98400 -7.05400 45.56900
C  19.25200 -5.42200 43.53900
C  19.46800 -8.02700 45.40200
O  18.29900 -7.75700 45.08200
C  19.70600 -9.38000 45.98000
N  24.95300 -7.05400 46.65800
C  23.98900 -8.09900 46.79500
C  24.65900 -9.30500 47.53600
C  26.00500 -8.67400 48.07100
C  26.13500 -7.35800 47.26800
C  23.68100 -10.00600 48.58800
C  27.24800 -9.64900 48.18200
C  27.79600 -10.10500 49.51400
N  26.53000 -4.75700 45.83600
C  27.46000 -5.28000 46.71500
C  28.63100 -4.46100 46.67200
C  28.31800 -3.50300 45.74800
C  27.02700 -3.73500 45.23400
C  29.89500 -4.64100 47.35600
C  28.99100 -2.35100 45.00400
O  30.05700 -1.73900 45.08800
C  27.85200 -1.93100 44.01700
C  27.56500 -0.52100 44.41500
O  27.24600 -0.15100 45.49000
O  27.86000 0.31700 43.33800
C  27.95300 1.76700 43.69700
H  21.33000 -3.76400 42.78200
H  22.12200 -8.93400 46.63200
H  28.13200 -6.82400 47.90300
H  25.18100 -1.05300 42.65200
H  23.19700 -2.95700 41.25500
H  22.88100 -0.40000 41.88000
H  22.30800 -0.94700 43.44500
H  21.53100 -1.42900 41.98300
H  25.24700 -2.88700 40.31100
H  26.79900 -2.85200 41.22900
H  27.23300 -0.81200 40.35700
H  25.57900 -0.27900 40.66400
H  18.32800 -5.17100 44.06000
H  18.99700 -6.26200 42.89400
H  19.45000 -4.69000 42.75600
H  18.81000 -10.00000 45.96000
H  19.90100 -9.08900 47.01200
H  20.43800 -9.77700 45.27600
H  24.88700 -10.07300 46.79700
H  25.74800 -8.41300 49.09800
H  23.06100 -9.21600 49.01100
H  24.21100 -10.41700 49.44700
H  23.13700 -10.84400 48.15300
H  28.09500 -9.16900 47.69100
H  27.00400 -10.50600 47.55400
H  28.79500 -9.67500 49.59200
H  27.91900 -11.15800 49.77000
H  27.15500 -9.73900 50.31600
H  29.75400 -5.47500 48.04400
H  30.11600 -3.72100 47.89800
H  30.65800 -4.74600 46.58500
H  28.11800 -1.93300 42.96000
H  27.87300 2.26400 42.73000
H  28.96100 1.82200 44.10900
H  27.25200 2.14100 44.44300
Mg 55.24900 24.03400 45.13700
C  52.95400 26.49400 44.05200
C  53.16300 21.61300 44.11300
C  57.92100 21.86800 44.92000
C  57.57100 26.57800 45.88500
N  53.27100 24.07000 44.12000
C  52.51000 25.15500 43.83600
C  51.07000 24.63500 43.36600
C  51.16500 23.15000 43.80800
C  52.61600 22.88900 44.02100
C  50.33300 22.74300 44.98100
C  50.67900 24.84600 41.88500
C  49.25500 25.19900 41.60600
H  48.57900 24.83900 40.27200
N  55.54900 21.98200 44.62200
C  54.48400 21.17200 44.39800
C  55.01200 19.81100 44.20800
C  56.39300 19.81300 44.50000
C  56.74100 21.23300 44.63600
C  54.09900 18.60800 43.73800
C  57.28700 18.61500 44.69500
O  56.94100 17.50200 44.29200
C  58.65900 18.69500 45.39900
N  57.50100 24.28400 45.16600
C  58.33700 23.21100 45.25900
C  59.77900 23.55400 45.52500
C  59.66700 25.06600 45.96200
C  58.16300 25.34100 45.67000
C  60.54800 22.78900 46.57700
C  60.65900 26.07500 45.30500
C  61.37200 27.14300 46.24600
N  55.22800 26.09100 45.27800
C  56.21500 26.97800 45.53800
C  55.60500 28.33400 45.48900
C  54.38200 28.18200 44.87600
C  54.18300 26.78300 44.71200
C  56.37200 29.55800 45.87800
C  53.25200 28.93200 44.31300
O  53.08800 30.11500 44.25100
C  52.28200 27.84900 43.75800
C  52.06300 28.23500 42.32800
O  52.94300 28.53500 41.53600
O  50.71800 28.30400 42.01600
C  50.30400 28.67700 40.61700
H  52.37700 20.87000 43.96500
H  58.79400 21.23700 45.09600
H  58.25400 27.29400 46.34500
H  50.41200 25.23200 43.99700
H  50.78500 22.64600 42.91900
H  49.61600 23.48300 45.33700
H  50.96500 22.42000 45.80800
H  49.84500 21.82200 44.66300
H  50.95700 23.99400 41.26500
H  51.31700 25.61800 41.45600
H  49.15600 26.28400 41.64600
H  48.63900 24.66700 42.33100
H  53.95000 18.04900 44.66200
H  54.53000 17.96500 42.97000
H  53.26100 19.07200 43.21700
H  59.45200 19.01400 44.72200
H  58.63600 17.70100 45.84700
H  58.49800 19.26000 46.31700
H  60.28000 23.47200 44.56000
H  59.75500 25.13900 47.04600
H  61.10200 22.01800 46.04300
H  59.93200 22.24100 47.28900
H  61.29400 23.46400 46.99700
H  60.18600 26.62100 44.48800
H  61.49100 25.53700 44.85000
H  61.09800 28.17400 46.02300
H  62.42800 27.01400 46.00900
H  61.34800 26.96400 47.32100
H  56.09100 29.98400 46.84100
H  56.20200 30.44100 45.26200
H  57.40500 29.34400 46.15300
H  51.31300 27.84500 44.25800
H  51.17300 29.02500 40.05800
H  49.54200 29.45600 40.63100
H  49.86200 27.80400 40.13700

