158

Mg 46.82600 16.65200 28.38300
C  44.51400 16.33500 31.18600
C  48.71000 18.51700 30.30900
C  48.56100 17.18900 25.58800
C  44.23100 15.21200 26.47100
N  46.69300 17.17500 30.57700
C  45.70200 16.98000 31.54700
C  46.31000 17.23400 32.96500
C  47.55300 18.12500 32.60500
C  47.62200 17.98500 31.06800
C  47.57200 19.71000 33.06300
C  46.53300 15.89200 33.76900
C  46.08700 15.97700 35.21000
H  45.61300 17.27900 35.94200
N  48.39900 17.67500 27.99100
C  49.05500 18.51000 28.91400
C  50.17300 19.09200 28.22900
C  50.14000 18.62800 26.87400
C  49.02500 17.76800 26.75200
C  51.16200 20.00500 28.98300
C  51.13600 18.94900 25.77000
O  50.91000 18.69600 24.55400
C  52.37100 19.78100 26.05700
N  46.40900 16.25900 26.30200
C  47.36000 16.51800 25.41000
C  46.97100 15.96300 24.00900
C  45.60000 15.15600 24.31900
C  45.42800 15.45800 25.77600
C  46.81800 17.09900 22.99500
C  45.59200 13.64500 23.84300
C  45.76300 13.31100 22.35700
N  44.80300 15.99000 28.72300
C  43.93300 15.42300 27.82900
C  42.68200 14.97700 28.47500
C  42.93800 15.37400 29.80000
C  44.15400 15.97200 29.87300
C  41.54500 14.24200 27.88300
C  42.38300 15.32700 31.12500
O  41.30600 14.93800 31.56300
C  43.36100 16.07300 32.08500
C  42.67300 17.28600 32.49500
O  42.46800 18.29500 31.85200
O  42.19900 16.97700 33.74600
C  41.54100 18.04600 34.38800
H  49.41600 19.09900 30.90400
H  49.13300 17.12700 24.65900
H  43.50700 14.64000 25.88700
H  45.61700 17.92000 33.45200
H  48.39900 17.71000 33.15400
H  47.51000 20.43100 32.24800
H  48.52800 19.92500 33.54200
H  46.86900 19.94300 33.86300
H  47.60000 15.67300 33.81200
H  46.05400 15.03700 33.29000
H  46.81100 15.57100 35.91600
H  45.21800 15.32100 35.16200
H  52.13400 19.55200 29.18000
H  50.71100 20.32800 29.92200
H  51.26400 20.99300 28.53400
H  52.07800 20.76500 26.42200
H  52.95200 19.91100 25.14400
H  52.94000 19.16200 26.75100
H  47.69400 15.21400 23.68700
H  44.70200 15.69300 24.01600
H  45.84000 17.02700 22.51800
H  47.57300 17.04600 22.21000
H  46.90200 18.02300 23.56700
H  44.62100 13.25800 24.15100
H  46.39300 13.05500 24.28800
H  44.92900 12.76400 21.91700
H  46.67000 12.74200 22.15300
H  45.81100 14.27400 21.84800
H  41.27200 14.70400 26.93500
H  40.74000 14.47300 28.58100
H  41.69700 13.18300 27.67600
H  43.71000 15.48800 32.93600
H  40.50300 18.20100 34.09400
H  42.17900 18.91700 34.23500
H  41.60300 17.94600 35.47200
Mg -2.82700 35.45600 26.55300
C  -4.53600 33.37100 28.82700
C  -1.41900 37.12900 29.10000
C  -1.44400 37.42100 24.26700
C  -4.70900 33.75800 23.98900
N  -3.11400 35.36700 28.60200
C  -3.70500 34.30600 29.39500
C  -3.43100 34.49400 30.86300
C  -2.55900 35.81900 30.92700
C  -2.34800 36.13400 29.40400
C  -3.15400 37.07500 31.72800
C  -2.68200 33.29200 31.50600
C  -3.47600 32.61500 32.69000
H  -2.69900 32.64700 33.97000
N  -1.43600 36.89300 26.69000
C  -0.89800 37.44400 27.84600
C  0.12500 38.45400 27.46100
C  0.10000 38.55400 26.02200
C  -0.96500 37.54500 25.58400
C  1.00000 39.11100 28.46700
C  0.96100 39.41900 25.07800
O  0.93000 39.43200 23.82300
C  1.98000 40.25700 25.76100
N  -3.24400 35.73900 24.53000
C  -2.46900 36.57800 23.77600
C  -2.87400 36.49600 22.28600
C  -3.75600 35.22700 22.19400
C  -4.02200 34.93800 23.66200
C  -3.50000 37.78300 21.71100
C  -3.01300 34.04600 21.34000
C  -1.86400 33.35600 22.12600
N  -4.44800 34.00700 26.36400
C  -5.05500 33.36600 25.27500
C  -5.94900 32.32200 25.76300
C  -5.76300 32.21500 27.10800
C  -4.89000 33.28100 27.41400
C  -6.85600 31.41900 24.90400
C  -6.19400 31.58600 28.30700
O  -6.98300 30.69300 28.49600
C  -5.35300 32.28800 29.43700
C  -6.42900 32.87600 30.34600
O  -7.24300 33.69100 30.02900
O  -6.42200 32.29500 31.59400
C  -7.42200 32.83100 32.55900
H  -0.97900 37.66000 29.94700
H  -0.90100 38.04000 23.55000
H  -5.25700 33.28400 23.17200
H  -4.40400 34.62400 31.33500
H  -1.56700 35.69700 31.36200
H  -2.87900 36.85100 32.75900
H  -4.21600 37.22600 31.53500
H  -2.56400 37.94800 31.44600
H  -1.71100 33.68100 31.80900
H  -2.62800 32.55500 30.70400
H  -3.66300 31.55200 32.53500
H  -4.43600 33.02800 33.00200
H  0.88200 38.74100 29.48500
H  0.84500 40.18900 28.51400
H  2.02100 38.87500 28.16600
H  2.48000 40.88000 25.01900
H  2.78800 39.72300 26.26000
H  1.41200 40.87200 26.46000
H  -1.89600 36.38000 21.81900
H  -4.66500 35.44800 21.63400
H  -4.54900 37.63900 21.45200
H  -3.00500 38.08700 20.78800
H  -3.37000 38.53400 22.49000
H  -2.60100 34.30500 20.36500
H  -3.78100 33.29600 21.15300
H  -2.20400 32.41600 22.56200
H  -1.60100 34.10000 22.87800
H  -0.97900 33.27600 21.49600
H  -7.20900 30.53300 25.43200
H  -6.19900 31.16300 24.07300
H  -7.65600 31.95000 24.38800
H  -4.77400 31.55500 29.99900
H  -7.92400 31.99500 33.04600
H  -8.23000 33.41400 32.11700
H  -6.96100 33.55200 33.23500

