158

Mg 26.07700 1.06500 29.61200
C  28.19100 0.63600 32.30700
C  23.43700 1.18100 31.69800
C  24.22800 1.62100 26.95900
C  28.90800 0.45100 27.44700
N  25.83300 0.64000 31.86400
C  26.86200 0.66000 32.75200
C  26.22000 0.80700 34.22000
C  24.67000 0.84000 33.96600
C  24.60700 0.76200 32.42200
C  23.91200 -0.22700 34.84500
C  26.79000 1.93100 35.12300
C  25.92800 2.31900 36.41100
H  26.74800 2.03300 37.63900
N  24.09700 1.28800 29.34900
C  23.13800 1.28900 30.34600
C  21.82600 1.49400 29.77500
C  22.03700 1.63700 28.39000
C  23.46700 1.46000 28.17500
C  20.57900 1.62200 30.62000
C  20.93800 1.77300 27.28600
O  21.22900 1.79300 26.10800
C  19.43800 1.79500 27.66000
N  26.44800 0.81900 27.46100
C  25.53100 1.28900 26.61600
C  26.08000 1.39100 25.20300
C  27.63900 1.25100 25.41600
C  27.66700 0.81300 26.88000
C  25.35100 0.42200 24.21200
C  28.41900 2.67200 25.09500
C  28.00900 3.78700 26.07600
N  28.18600 0.62900 29.78900
C  29.19100 0.43000 28.83400
C  30.38600 0.04100 29.57200
C  30.08100 0.24700 30.89400
C  28.70600 0.58100 31.04000
C  31.62400 -0.47400 28.93900
C  30.59800 0.12700 32.20400
O  31.72600 -0.25400 32.48600
C  29.42200 0.48900 33.21700
C  29.39100 -0.64100 34.19000
O  28.75700 -1.65500 34.12200
O  30.18500 -0.33500 35.25900
C  29.95600 -1.17000 36.39700
H  22.65000 1.29900 32.44600
H  23.60500 1.97200 26.13400
H  29.74800 0.45400 26.74900
H  26.37300 -0.15100 34.71600
H  24.38000 1.84300 34.27800
H  24.56600 -1.05800 35.11100
H  23.16100 -0.78600 34.28600
H  23.42400 0.22400 35.70800
H  26.81100 2.82100 34.49400
H  27.79700 1.69500 35.46700
H  24.92300 1.90500 36.49800
H  25.79000 3.39800 36.47600
H  19.99200 2.53200 30.49500
H  20.84100 1.34100 31.64000
H  19.91500 0.84100 30.25000
H  19.20900 2.31100 28.59300
H  19.17800 0.74700 27.80300
H  18.73100 2.06000 26.87400
H  25.92900 2.39800 24.81400
H  28.12800 0.47400 24.82900
H  24.77400 -0.31900 24.76400
H  25.95100 -0.15300 23.50700
H  24.66900 1.05400 23.64300
H  28.19900 2.88300 24.04800
H  29.47300 2.50700 25.32100
H  27.56300 3.47300 27.01900
H  27.35500 4.40100 25.45600
H  28.89800 4.35300 26.35400
H  32.23200 -1.08500 29.60700
H  32.16800 0.43400 28.68000
H  31.41300 -1.07300 28.05300
H  29.72500 1.43600 33.66500
H  29.09800 -0.77700 36.94200
H  30.79700 -1.08500 37.08400
H  29.98100 -2.23200 36.15300
Mg 9.62200 48.55000 25.90100
C  7.72300 48.88700 28.80700
C  12.29600 50.06700 27.77800
C  11.50500 48.31700 23.22700
C  6.77800 47.91000 24.07000
N  9.96100 49.44500 28.12900
C  9.05800 49.33400 29.14000
C  9.64300 49.85400 30.46900
C  10.98400 50.50100 30.03500
C  11.08800 50.00100 28.52700
C  11.07100 52.00300 30.14200
C  9.87300 48.67500 31.42600
C  9.83500 48.99500 32.94000
H  9.48200 47.84200 33.89400
N  11.53400 48.96700 25.60400
C  12.52900 49.57700 26.42800
C  13.83400 49.59100 25.71900
C  13.56800 49.16200 24.42800
C  12.16300 48.84400 24.37200
C  15.09900 50.08800 26.37400
C  14.54800 49.09700 23.28600
O  14.30700 48.78800 22.11300
C  16.01200 49.36900 23.54300
N  9.23500 48.34100 23.84300
C  10.20300 48.10700 22.93800
C  9.68700 47.59700 21.58000
C  8.13100 47.48100 21.88600
C  7.97600 47.93400 23.34400
C  10.00500 48.40100 20.28300
C  7.72500 45.97200 21.75600
C  7.75600 45.10900 23.04500
N  7.65400 48.41400 26.29800
C  6.55600 48.11700 25.43600
C  5.30800 48.30300 26.16500
C  5.78700 48.45400 27.51600
C  7.21900 48.61300 27.54800
C  3.89700 48.16900 25.67800
C  5.26900 48.67100 28.87800
O  4.12800 48.78400 29.26400
C  6.54000 48.77900 29.74300
C  6.56300 47.49800 30.44000
O  6.81700 46.40200 29.92400
O  6.31400 47.80800 31.77500
C  6.17100 46.64400 32.69300
H  13.15300 50.54900 28.25300
H  12.14500 48.11000 22.36700
H  5.91600 47.52100 23.52300
H  8.91200 50.57400 30.83400
H  11.75500 50.10400 30.69600
H  12.04500 52.26400 30.55700
H  10.26800 52.36600 30.78300
H  11.01300 52.51500 29.18200
H  10.81800 48.24700 31.09300
H  9.24900 47.79300 31.28300
H  9.13600 49.81200 33.11600
H  10.82200 49.36300 33.22200
H  15.09300 50.05600 27.46300
H  15.49200 51.02800 25.98700
H  15.85300 49.35300 26.09200
H  16.03000 50.43000 23.79200
H  16.56200 49.19700 22.61800
H  16.47500 48.79500 24.34600
H  10.14600 46.61700 21.45100
H  7.60400 48.22100 21.28200
H  10.68500 49.20500 20.56500
H  9.17200 48.78900 19.69700
H  10.56800 47.76300 19.60100
H  8.44900 45.44400 21.13600
H  6.71000 45.82200 21.38700
H  8.36800 45.51500 23.85000
H  8.29600 44.22700 22.70100
H  6.74100 44.85600 23.35200
H  3.70900 47.11600 25.46800
H  3.75900 48.78300 24.78800
H  3.16700 48.47000 26.42900
H  6.61300 49.54400 30.51600
H  6.54200 46.99300 33.65700
H  6.75700 45.81300 32.30100
H  5.11200 46.39800 32.76900

