158

Mg 23.90200 -4.85200 45.42000
C  26.25500 -2.66000 43.86000
C  21.43900 -3.66300 43.33900
C  22.10100 -7.51300 46.25700
C  26.81400 -6.37600 46.99600
N  23.81400 -3.21500 43.82400
C  24.93800 -2.58100 43.31900
C  24.44800 -1.85200 41.99000
C  22.91400 -1.95200 42.02000
C  22.64900 -2.94400 43.17900
C  22.32800 -0.59500 42.40600
C  25.09900 -2.52800 40.76200
C  25.75200 -1.50600 39.67000
H  25.49700 -1.83900 38.18400
N  21.94100 -5.42900 45.14300
C  21.04800 -4.78100 44.23700
C  19.76000 -5.47300 44.29300
C  19.96600 -6.55100 45.24300
C  21.36000 -6.55600 45.54800
C  18.56000 -5.10300 43.48000
C  18.87400 -7.42400 45.74100
O  17.75700 -7.34800 45.17000
C  19.04700 -8.45600 46.84100
N  24.31300 -6.67400 46.55400
C  23.40800 -7.63700 46.64900
C  23.88000 -8.82800 47.55800
C  25.41200 -8.39700 47.77200
C  25.52700 -7.06300 47.03100
C  23.02200 -8.86000 48.93300
C  26.41800 -9.48800 47.27900
C  27.46000 -10.05000 48.26000
N  26.08000 -4.46000 45.61000
C  27.07200 -5.20100 46.28100
C  28.32600 -4.49300 46.13600
C  28.05600 -3.51200 45.15000
C  26.72800 -3.45400 44.90900
C  29.58600 -4.75900 46.84400
C  28.67300 -2.42200 44.31200
O  29.85800 -2.01500 44.26300
C  27.54400 -1.94600 43.35200
C  27.48600 -0.39900 43.30900
O  27.41200 0.36800 42.36900
O  27.53700 0.07300 44.59900
C  27.24200 1.52400 44.72300
H  20.71500 -3.25600 42.63000
H  21.54000 -8.42500 46.47100
H  27.58900 -6.88000 47.57600
H  24.82200 -0.83600 42.11800
H  22.40400 -2.10100 41.06800
H  21.98200 -0.00600 41.55700
H  23.11800 0.05400 42.78500
H  21.46200 -0.61900 43.06700
H  24.38500 -3.20800 40.29800
H  25.95000 -3.10500 41.12500
H  26.78200 -1.54400 40.02600
H  25.40100 -0.50100 39.90500
H  18.72200 -4.19300 42.90300
H  17.76800 -4.84800 44.18400
H  18.19700 -5.83700 42.76000
H  19.72800 -9.22300 46.47400
H  18.03800 -8.81700 47.04300
H  19.43600 -7.93900 47.71900
H  23.75700 -9.78100 47.04300
H  25.47600 -8.13100 48.82700
H  22.09600 -8.28800 48.90200
H  23.63500 -8.51700 49.76700
H  22.81300 -9.89600 49.20100
H  26.94700 -9.10100 46.40800
H  25.77000 -10.29000 46.92500
H  28.44800 -9.67300 47.99300
H  27.37800 -11.13700 48.24600
H  27.36600 -9.62100 49.25800
H  30.35700 -4.01700 46.63600
H  29.83800 -5.72900 46.41700
H  29.32500 -4.93800 47.88700
H  27.88000 -2.42900 42.43400
H  27.09000 1.81600 45.76200
H  26.30000 1.77200 44.23400
H  28.04100 2.20400 44.42700
Mg 48.37300 34.53400 27.89900
C  46.68000 33.26700 30.67400
C  48.77400 37.40500 29.65500
C  49.29700 35.95300 25.13600
C  47.32600 31.63400 26.10700
N  47.79200 35.22900 29.97100
C  47.27700 34.49500 30.98000
C  47.61200 35.02300 32.42900
C  47.88500 36.53900 31.99500
C  48.13200 36.44500 30.38800
C  46.81300 37.57000 32.38100
C  48.78100 34.26900 33.12700
C  48.83800 34.26500 34.67200
H  47.92000 35.22600 35.45400
N  49.03500 36.25100 27.50600
C  49.24500 37.34800 28.34900
C  50.01600 38.32200 27.72600
C  50.22500 37.95000 26.37700
C  49.46400 36.67100 26.31800
C  50.54900 39.65500 28.41400
C  51.07900 38.63200 25.30200
O  51.13500 38.14700 24.16800
C  51.86800 39.93500 25.58600
N  48.31200 33.88600 25.89900
C  48.83000 34.70200 24.95300
C  48.92300 33.91100 23.66600
C  48.38800 32.44700 23.99300
C  48.02400 32.62400 25.41700
C  48.18500 34.53100 22.45800
C  49.27500 31.22800 23.63900
C  50.30000 30.92200 24.72000
N  47.37700 32.71800 28.29900
C  46.98600 31.69000 27.48800
C  46.31100 30.68800 28.29300
C  46.13800 31.29700 29.56600
C  46.71900 32.59800 29.45700
C  45.75100 29.41100 27.73800
C  45.63500 31.07100 30.83600
O  45.11300 30.08000 31.26600
C  45.76800 32.40900 31.56800
C  46.08500 32.11400 33.01700
O  47.19700 31.75600 33.49200
O  44.92700 31.96300 33.75400
C  44.93800 31.60800 35.20800
H  49.02900 38.26900 30.27200
H  49.72400 36.27800 24.18500
H  47.09300 30.71700 25.56100
H  46.75900 34.98700 33.10700
H  48.77100 36.90700 32.51300
H  47.13400 38.53400 32.77400
H  46.13900 37.14500 33.12500
H  46.25800 37.87700 31.49500
H  49.69700 34.68100 32.70500
H  48.80000 33.23900 32.76900
H  49.84600 34.42500 35.05400
H  48.45300 33.30400 35.01600
H  51.62800 39.52100 28.49700
H  50.15000 39.72300 29.42600
H  50.31000 40.50500 27.77500
H  52.46500 40.33600 24.76700
H  52.58900 39.84900 26.39900
H  51.13500 40.71100 25.80800
H  50.00000 33.91600 23.49900
H  47.45100 32.26800 23.46600
H  48.88000 35.10200 21.84300
H  47.49600 35.32900 22.73600
H  47.83600 33.68500 21.86600
H  49.81100 31.53400 22.74000
H  48.61700 30.41500 23.33200
H  51.14100 31.54500 24.41700
H  50.67700 29.91900 24.51800
H  50.08500 30.98200 25.78700
H  44.89900 29.00500 28.28400
H  46.45400 28.62900 28.02300
H  45.57300 29.33300 26.66500
H  44.74300 32.77800 31.57900
H  45.83800 31.16200 35.63200
H  44.10000 30.99600 35.54100
H  44.81800 32.57700 35.69300

