158

Mg -1.26500 18.12400 27.08000
C  -1.85900 16.00100 29.80600
C  -1.60500 20.87700 29.26900
C  -1.28800 20.33100 24.43100
C  -1.36300 15.40800 24.89200
N  -1.86600 18.34900 29.30300
C  -1.82200 17.37500 30.21500
C  -1.97400 17.91900 31.65200
C  -1.98300 19.50200 31.41200
C  -1.76100 19.63200 29.93200
C  -3.38900 20.01300 32.00600
C  -0.90600 17.59000 32.71400
C  -1.38500 17.23200 34.13900
H  -0.37800 17.35700 35.33100
N  -1.23800 20.32500 26.87000
C  -1.42100 21.23500 27.89100
C  -1.23900 22.52000 27.31100
C  -1.25300 22.42100 25.88700
C  -1.23500 20.98100 25.64300
C  -1.32200 23.74100 28.26000
C  -1.39700 23.55400 24.83700
O  -1.55500 23.31400 23.60800
C  -1.42800 25.03400 25.27900
N  -1.15900 17.88700 24.97100
C  -1.31400 18.93300 24.09800
C  -1.09800 18.44200 22.66500
C  -0.85600 16.91700 22.84600
C  -1.10500 16.72400 24.29600
C  -2.16300 18.87400 21.62800
C  0.45600 16.37700 22.21800
C  1.78600 16.58700 23.01200
N  -1.53400 16.11500 27.19300
C  -1.52800 15.07600 26.22000
C  -1.70000 13.77800 26.91000
C  -1.79300 14.11000 28.29700
C  -1.72700 15.50700 28.41000
C  -1.67200 12.49600 26.22600
C  -1.91300 13.49600 29.59000
O  -1.92700 12.30900 29.92000
C  -1.81000 14.65300 30.61800
C  -0.53300 14.46900 31.33400
O  0.58000 14.68900 30.87100
O  -0.86600 13.99100 32.57600
C  0.35000 13.81100 33.42400
H  -1.55300 21.69300 29.99200
H  -1.40400 20.92700 23.52300
H  -1.42900 14.57300 24.19100
H  -2.96600 17.54100 31.89700
H  -1.17300 19.99400 31.95000
H  -3.80000 19.51400 32.88400
H  -4.19000 19.89800 31.27500
H  -3.35600 21.07300 32.25500
H  -0.06600 18.28400 32.75600
H  -0.55100 16.62300 32.35600
H  -1.65000 16.18100 34.01700
H  -2.25300 17.86100 34.33800
H  -2.35000 24.02600 28.03700
H  -0.60200 24.54900 28.13200
H  -1.37700 23.66800 29.34600
H  -2.36200 25.19600 25.81600
H  -1.40300 25.53900 24.31300
H  -0.54800 25.21500 25.89600
H  -0.07200 18.78700 22.53300
H  -1.73900 16.40200 22.46900
H  -2.62400 18.00300 21.16400
H  -1.68100 19.60400 20.97800
H  -3.02100 19.42700 22.01200
H  0.53800 16.78800 21.21100
H  0.33700 15.29500 22.27000
H  2.54300 16.88800 22.28800
H  2.02800 15.67800 23.56200
H  1.70100 17.38000 23.75500
H  -0.81700 11.86100 26.45900
H  -1.65000 12.70900 25.15700
H  -2.60400 11.95300 26.38300
H  -2.65500 14.74300 31.30000
H  0.76000 14.80400 33.60900
H  1.14900 13.29900 32.88700
H  -0.00000 13.27100 34.30300
Mg 49.62700 45.45500 43.76000
C  46.47400 46.03700 42.52700
C  49.70200 42.50500 41.91700
C  52.91600 45.08800 44.36200
C  49.64500 48.58900 45.24900
N  48.20800 44.46100 42.32800
C  46.98000 44.84600 42.00100
C  46.25400 43.83000 41.06800
C  47.22900 42.56700 41.17000
C  48.50900 43.21300 41.78100
C  46.74500 41.36000 42.00900
C  45.94100 44.37800 39.63200
C  44.45500 44.45000 39.23600
H  44.08700 43.51200 38.07700
N  51.12100 43.90100 43.36600
C  50.84400 42.81300 42.62300
C  51.99800 41.95300 42.71500
C  53.02300 42.71500 43.43700
C  52.39300 43.96400 43.75700
C  52.20200 40.63100 41.90200
C  54.24500 42.11000 43.87600
O  54.71900 41.05900 43.45900
C  55.21800 42.77500 44.90200
N  51.09100 46.73100 44.53600
C  52.34000 46.33700 44.79700
C  53.17600 47.36400 45.54500
C  52.07800 48.38500 45.98300
C  50.85600 47.89200 45.19800
C  54.17100 46.87400 46.69600
C  52.52100 49.80000 45.77600
C  52.70000 50.60700 47.06100
N  48.34800 47.02800 43.92100
C  48.43200 48.20600 44.61300
C  47.25600 48.96400 44.45500
C  46.50700 48.13300 43.57200
C  47.18500 46.98900 43.30900
C  46.84500 50.34400 45.03300
C  45.30400 48.08900 42.84400
O  44.42600 48.98400 42.73900
C  45.17700 46.71800 42.15000
C  43.99200 46.13900 42.76900
O  44.00100 45.57600 43.82700
O  42.83300 46.45000 42.09900
C  41.59700 45.97100 42.54500
H  49.77000 41.46700 41.58700
H  53.98900 45.21300 44.52400
H  49.59200 49.51400 45.82700
H  45.31000 43.80700 41.61200
H  47.47900 42.17000 40.18600
H  45.76400 41.49000 42.46600
H  47.43900 41.11000 42.81200
H  46.60700 40.46900 41.39600
H  46.56000 43.81900 38.93000
H  46.26200 45.42000 39.62900
H  44.14300 45.47500 39.03600
H  43.82700 44.04100 40.02800
H  52.93800 40.73400 41.10500
H  51.34100 40.14500 41.44200
H  52.64000 39.87700 42.55700
H  54.76200 42.46100 45.84200
H  55.49500 43.82900 44.91600
H  56.21600 42.33600 44.90000
H  53.76600 47.84100 44.76200
H  51.73300 48.21600 47.00300
H  53.94300 47.35100 47.64900
H  55.17700 47.20600 46.44100
H  54.24400 45.78700 46.72800
H  51.81200 50.42600 45.23400
H  53.49400 49.81300 45.28500
H  52.03600 51.46600 46.96900
H  53.74800 50.87900 46.93900
H  52.64100 50.05700 48.00100
H  45.78900 50.45300 45.28100
H  47.10900 51.02100 44.22100
H  47.53600 50.58600 45.84000
H  45.11300 46.97600 41.09300
H  41.67800 44.91200 42.78900
H  40.87400 46.14500 41.74700
H  41.31000 46.47500 43.46700

