158

Mg 2.25700 -1.34000 44.67100
C  5.39600 0.04200 44.00600
C  0.80100 1.48500 43.28200
C  -0.67200 -2.86200 44.63900
C  3.86100 -4.34400 45.44700
N  3.05700 0.57700 43.72900
C  4.36000 0.89200 43.57600
C  4.46700 2.29300 42.78000
C  3.06800 2.88400 43.06200
C  2.19600 1.61800 43.39400
C  2.84900 3.98200 44.16900
C  4.93100 2.22700 41.28700
C  6.41100 2.64400 41.09000
H  7.15400 1.74200 40.05900
N  0.32300 -0.79100 44.08400
C  -0.11100 0.42800 43.56100
C  -1.55400 0.46500 43.38800
C  -1.99000 -0.80000 43.84800
C  -0.79900 -1.57000 44.23900
C  -2.36100 1.60000 42.78500
C  -3.41000 -1.24700 43.94600
O  -4.25700 -0.31800 43.85400
C  -3.91800 -2.68500 44.37700
N  1.76400 -3.42600 44.81200
C  0.41600 -3.77500 44.82700
C  0.18300 -5.13900 45.59100
C  1.66100 -5.69500 45.67600
C  2.46500 -4.46600 45.31100
C  -0.61300 -5.03200 46.94800
C  1.99800 -6.84700 44.75000
C  2.54000 -8.09900 45.49300
N  4.23900 -2.06000 44.71900
C  4.72600 -3.29400 45.05700
C  6.15200 -3.17000 45.15000
C  6.49200 -1.90000 44.71000
C  5.27800 -1.27500 44.46200
C  7.12800 -4.21700 45.58400
C  7.56700 -0.99800 44.47300
O  8.75600 -1.09600 44.67400
C  6.86500 0.30100 43.98000
C  7.27900 1.28600 44.98300
O  7.18200 1.21900 46.21400
O  7.70300 2.38900 44.33100
C  8.33200 3.47000 45.16000
H  0.37800 2.41300 42.89100
H  -1.61300 -3.39200 44.79600
H  4.38000 -5.23000 45.81900
H  5.13200 2.95700 43.33300
H  2.71100 3.36000 42.14800
H  3.74400 4.05000 44.78700
H  1.98700 3.80400 44.81200
H  2.79900 4.93600 43.64400
H  4.37200 2.94400 40.68500
H  4.80300 1.19000 40.97700
H  6.98000 2.58800 42.01800
H  6.39400 3.67800 40.74400
H  -2.74700 1.38800 41.78800
H  -1.84700 2.54600 42.61500
H  -3.17900 1.83600 43.46500
H  -3.47600 -3.42800 43.71400
H  -4.98400 -2.67400 44.15000
H  -3.80600 -2.82100 45.45300
H  -0.38100 -5.66200 44.81900
H  1.94000 -5.97100 46.69300
H  -1.22800 -4.13200 46.98500
H  0.16200 -5.09800 47.71100
H  -1.24400 -5.90900 47.09200
H  2.72300 -6.54800 43.99300
H  1.05300 -7.15100 44.29800
H  1.82300 -8.91700 45.41700
H  2.64300 -7.73000 46.51300
H  3.47900 -8.46300 45.07700
H  6.70200 -5.21400 45.47400
H  7.52400 -3.94600 46.56200
H  7.87600 -4.07200 44.80400
H  7.34500 0.44900 43.01200
H  9.24400 3.56800 44.57000
H  8.56600 3.19100 46.18700
H  7.76800 4.40200 45.12900
Mg 10.21500 47.82400 25.81800
C  8.23700 48.10000 28.70100
C  12.95400 48.95300 27.62100
C  12.13300 47.23300 23.10800
C  7.30200 47.49900 23.92800
N  10.59100 48.34500 27.99300
C  9.61400 48.33300 28.98100
C  10.16800 48.86200 30.31500
C  11.50200 49.58800 29.78000
C  11.76500 48.93500 28.37300
C  11.46500 51.16400 29.71800
C  10.45800 47.72100 31.36900
C  9.69000 47.95100 32.66700
H  9.57100 46.77600 33.66700
N  12.29600 48.02800 25.43800
C  13.25400 48.49000 26.32200
C  14.54300 48.41400 25.64500
C  14.33600 47.80000 24.35000
C  12.85500 47.65600 24.25000
C  15.83300 48.93200 26.20000
C  15.29400 47.28300 23.28200
O  14.92000 46.51200 22.40900
C  16.74600 47.56700 23.43500
N  9.75400 47.54300 23.79400
C  10.74900 47.14200 22.91200
C  10.24000 46.55800 21.58600
C  8.69100 46.83500 21.78700
C  8.50800 47.28000 23.26100
C  10.63200 47.34200 20.29300
C  7.90200 45.53900 21.43200
C  7.79400 44.41500 22.50000
N  8.16100 47.72600 26.20500
C  7.10000 47.61800 25.31700
C  5.84900 47.63000 26.06000
C  6.23700 47.80600 27.40700
C  7.62100 47.88100 27.46000
C  4.52000 47.32400 25.43600
C  5.81300 47.94200 28.71800
O  4.68400 47.70700 29.14900
C  7.03800 48.12200 29.63800
C  7.03800 46.95500 30.66100
O  7.83000 46.01200 30.57500
O  6.16400 47.18700 31.73700
C  5.93200 46.03700 32.65900
H  13.78200 49.46200 28.11900
H  12.71800 46.82600 22.28100
H  6.48700 47.35000 23.21700
H  9.54900 49.64600 30.75100
H  12.33300 49.37900 30.45400
H  10.46100 51.49300 29.98800
H  11.49600 51.45300 28.66800
H  12.28100 51.54100 30.33600
H  11.51400 47.72700 31.63900
H  10.28600 46.73000 30.94800
H  8.68700 48.34600 32.50600
H  10.24800 48.73400 33.18100
H  15.72400 49.35700 27.19800
H  16.37900 49.70700 25.66200
H  16.56000 48.12900 26.32300
H  16.90100 48.63700 23.57700
H  17.28100 47.27500 22.53100
H  16.93000 46.98400 24.33700
H  10.55000 45.51300 21.57200
H  8.34300 47.72600 21.26400
H  9.76700 47.63500 19.69800
H  11.24700 46.65300 19.71500
H  11.18600 48.23700 20.57800
H  8.21500 45.11400 20.47900
H  6.86100 45.79400 21.23200
H  7.99200 43.48800 21.96200
H  6.78000 44.45500 22.89900
H  8.63600 44.46000 23.19000
H  4.15000 46.45000 25.97200
H  4.53900 47.26000 24.34800
H  3.82600 48.13700 25.65000
H  7.05500 49.03700 30.23000
H  6.18500 46.28600 33.69000
H  6.39300 45.09300 32.36700
H  4.86500 45.83900 32.75200

