158

Mg 46.19200 24.37600 28.45600
C  46.59800 26.63500 31.17700
C  45.27900 21.84400 30.78100
C  46.33000 22.24900 26.01600
C  47.61600 26.90700 26.32000
N  46.02100 24.27100 30.73400
C  46.09700 25.40100 31.59100
C  45.60100 25.03000 33.06200
C  45.41300 23.46300 32.90100
C  45.55500 23.10800 31.35200
C  46.29000 22.59500 33.89900
C  44.41700 25.81500 33.55900
C  44.74000 26.67800 34.81400
H  43.76700 26.70000 35.96400
N  45.80000 22.38800 28.37100
C  45.33800 21.56300 29.34200
C  45.02800 20.28600 28.75600
C  45.50200 20.28900 27.42900
C  45.90900 21.67200 27.20500
C  44.30400 19.17600 29.52500
C  45.39700 19.17700 26.34600
O  45.86300 19.24300 25.20100
C  44.80500 17.88600 26.76500
N  46.74900 24.59900 26.44200
C  46.72300 23.49500 25.65100
C  47.33400 23.75600 24.29400
C  47.52100 25.31200 24.32700
C  47.27800 25.66600 25.76500
C  48.58400 22.89500 23.97400
C  46.67600 26.18300 23.39100
C  45.16200 26.18500 23.48300
N  46.90500 26.42000 28.62400
C  47.36400 27.28600 27.65700
C  47.72300 28.50800 28.33900
C  47.37700 28.35600 29.69200
C  46.90300 27.03600 29.80400
C  48.33100 29.72200 27.71400
C  47.29600 29.02900 30.94200
O  47.62100 30.12200 31.36200
C  46.85000 27.85100 31.96900
C  47.97500 27.68100 32.93100
O  48.94900 26.98000 32.78100
O  47.69200 28.35500 34.08300
C  48.44800 28.15100 35.36600
H  44.85700 21.15800 31.51800
H  46.17400 21.54200 25.19800
H  48.15000 27.55700 25.62400
H  46.45500 25.13100 33.73100
H  44.38900 23.10900 33.01800
H  46.04500 23.20200 34.77100
H  47.37000 22.64500 33.75900
H  45.88800 21.58200 33.87300
H  43.66800 25.05500 33.78200
H  43.92600 26.42400 32.80100
H  44.72300 27.68200 34.39000
H  45.71500 26.55800 35.28500
H  44.90700 18.27200 29.61000
H  43.37400 18.83100 29.07400
H  44.11100 19.35000 30.58400
H  45.35700 17.52600 27.63400
H  44.87100 17.14500 25.96900
H  43.75400 18.15000 26.88900
H  46.59000 23.47700 23.54800
H  48.55400 25.55100 24.07600
H  48.34300 21.83200 23.94000
H  49.35600 23.03800 24.73000
H  48.77900 23.26200 22.96600
H  46.82100 25.81600 22.37500
H  47.06500 27.19700 23.49200
H  44.77700 25.51400 24.25000
H  44.79800 25.74100 22.55600
H  44.83300 27.21300 23.63300
H  48.86000 29.61800 26.76600
H  48.89100 30.16300 28.53800
H  47.53400 30.46200 27.63600
H  45.94300 28.15000 32.49400
H  49.32200 27.51200 35.23700
H  47.79300 27.74100 36.13500
H  48.74000 29.13400 35.73800
Mg -8.55700 17.99100 42.81100
C  -5.11500 17.52100 42.63700
C  -8.08200 21.34800 42.12900
C  -11.83100 18.26200 42.33300
C  -8.89000 14.41800 42.81100
N  -6.81000 19.32200 42.41800
C  -5.46800 18.89900 42.46400
C  -4.45600 20.03500 42.23100
C  -5.40400 21.26000 42.38200
C  -6.88000 20.63800 42.20300
C  -5.23400 22.22300 43.59600
C  -3.65200 19.95200 40.93100
C  -4.30500 19.23300 39.68300
H  -3.91900 19.86400 38.33500
N  -9.80200 19.60800 42.33900
C  -9.42600 20.92000 42.12800
C  -10.58700 21.71000 41.88100
C  -11.74800 20.86900 41.91600
C  -11.14900 19.48900 42.17100
C  -10.54300 23.20400 41.53500
C  -13.21100 21.25700 41.76500
O  -13.49500 22.46200 41.78000
C  -14.30200 20.30400 41.84600
N  -10.08700 16.46200 42.37200
C  -11.33300 16.92500 42.45500
C  -12.34100 15.74500 42.84100
C  -11.53400 14.47800 42.76300
C  -10.08600 15.17900 42.66900
C  -13.07500 15.97500 44.15500
C  -11.81200 13.45400 41.62500
C  -12.24500 12.01700 42.03700
N  -7.29400 16.19000 42.87000
C  -7.57600 14.88700 42.91000
C  -6.34800 14.17900 42.91700
C  -5.31300 15.18200 42.90800
C  -5.96400 16.35600 42.81600
C  -6.24500 12.65200 42.80500
C  -3.87300 15.39600 42.94700
O  -2.96400 14.61500 43.03800
C  -3.74800 16.94700 42.77900
C  -3.09200 17.31600 44.04500
O  -1.92400 17.76600 44.04700
O  -3.96300 17.23300 45.14100
C  -3.35100 17.44200 46.43900
H  -7.99800 22.42900 41.99500
H  -12.91500 18.32200 42.45300
H  -8.97100 13.33700 42.94200
H  -3.77800 19.81900 43.05600
H  -5.35000 21.99700 41.58100
H  -4.37000 21.81200 44.11800
H  -6.14300 22.18300 44.19600
H  -5.01800 23.23900 43.26400
H  -2.75300 19.39700 41.20000
H  -3.24400 20.93500 40.69400
H  -5.38100 19.40500 39.71100
H  -4.21600 18.14600 39.68600
H  -10.25700 23.51500 40.53100
H  -9.93300 23.77200 42.23800
H  -11.48200 23.69800 41.78800
H  -14.40600 19.84200 42.82700
H  -13.98100 19.53300 41.14500
H  -15.17200 20.85600 41.48900
H  -13.12800 15.77300 42.08700
H  -11.60000 13.94300 43.71000
H  -12.60900 16.79600 44.70000
H  -13.17100 15.03700 44.70100
H  -14.15000 16.04400 43.99200
H  -10.96200 13.34200 40.95200
H  -12.63700 13.90200 41.07200
H  -11.75400 11.17800 41.54400
H  -13.25500 11.77900 41.70500
H  -12.18200 11.90000 43.11900
H  -7.24700 12.23100 42.88100
H  -5.55400 12.27900 43.56100
H  -5.84600 12.42800 41.81600
H  -2.99300 17.19500 42.03200
H  -3.54600 16.59400 47.09500
H  -3.69300 18.39500 46.84000
H  -2.26900 17.57000 46.48200

