158

Mg 24.80100 -6.65300 47.75300
C  27.30000 -4.58700 46.75400
C  22.69600 -5.45500 45.30800
C  22.72600 -9.34800 48.18800
C  27.27500 -8.38900 49.75800
N  24.94500 -5.25600 46.28700
C  26.04600 -4.43300 46.09500
C  25.81700 -3.41500 44.89100
C  24.25100 -3.53000 44.68600
C  23.94000 -4.84200 45.40800
C  23.35300 -2.24800 44.99800
C  26.66500 -3.78700 43.67300
C  27.29000 -2.53700 42.99800
H  26.87800 -2.31000 41.52400
N  22.98200 -7.30200 46.88400
C  22.29600 -6.62600 45.95900
C  20.98700 -7.20900 45.72500
C  20.91100 -8.32600 46.64800
C  22.25900 -8.34900 47.26600
C  19.81800 -6.52100 44.88500
C  19.73100 -9.21200 46.87100
O  18.75500 -9.19000 46.19400
C  19.63400 -10.14300 48.06000
N  25.01900 -8.67600 48.73000
C  23.93000 -9.47900 48.85600
C  24.21900 -10.74400 49.62400
C  25.61000 -10.37000 50.19500
C  26.01600 -9.03600 49.55800
C  23.16400 -11.24900 50.70400
C  26.73200 -11.44900 50.11600
C  27.09400 -11.76500 48.68900
N  26.79600 -6.46000 48.25700
C  27.68000 -7.23400 49.01700
C  28.92200 -6.54200 49.14400
C  28.85100 -5.56300 48.17300
C  27.51700 -5.53800 47.70800
C  29.99100 -6.98000 49.97900
C  29.54300 -4.43600 47.61900
O  30.61400 -3.93700 47.82900
C  28.56800 -3.71300 46.61100
C  28.37000 -2.32300 47.04700
O  28.22300 -1.96900 48.20700
O  28.41800 -1.55800 45.93000
C  27.98300 -0.14100 46.17800
H  21.94300 -4.93100 44.71600
H  21.97100 -10.04500 48.55800
H  28.03400 -8.81500 50.41700
H  26.02800 -2.41400 45.26700
H  24.05700 -3.68500 43.62500
H  23.93600 -1.33400 45.11400
H  22.94300 -2.35700 46.00200
H  22.49400 -2.19800 44.32900
H  26.02200 -4.28800 42.94800
H  27.40800 -4.54800 43.91500
H  28.37200 -2.60900 43.11000
H  27.02900 -1.73000 43.68300
H  18.86400 -6.65400 45.39600
H  19.79500 -6.88500 43.85800
H  19.81400 -5.43200 44.84400
H  20.15000 -11.06300 47.78700
H  18.57900 -10.40600 48.13700
H  19.90400 -9.73600 49.03400
H  24.37100 -11.55100 48.90700
H  25.54400 -10.13500 51.25700
H  22.20600 -10.79400 50.45300
H  23.46500 -10.85600 51.67500
H  23.05100 -12.33300 50.67200
H  26.35400 -12.35800 50.58300
H  27.59000 -11.06200 50.66500
H  28.14500 -11.53200 48.52100
H  26.47800 -11.14100 48.04200
H  26.86500 -12.80000 48.43300
H  30.86400 -6.39600 49.68600
H  30.16500 -8.03700 49.77700
H  29.83900 -6.77800 51.03900
H  28.98900 -3.71700 45.60500
H  28.45600 0.28400 47.06300
H  26.90100 -0.01700 46.21900
H  28.06400 0.46900 45.27900
Mg 35.66700 49.31200 24.87000
C  35.49400 47.53200 27.92600
C  34.29500 52.03400 26.43800
C  35.08400 50.74900 21.81700
C  36.60500 46.37500 23.31800
N  35.07900 49.75700 26.93400
C  35.09200 48.89300 28.03100
C  34.89400 49.66400 29.34100
C  34.36500 51.04700 28.93600
C  34.62900 50.97900 27.35100
C  32.94200 51.39600 29.26800
C  36.08100 49.77600 30.28900
C  35.78200 49.45100 31.81600
H  34.33200 49.63500 32.36200
N  34.74300 51.14000 24.24700
C  34.29700 52.19100 25.03500
C  33.87000 53.25500 24.23200
C  34.00400 52.83700 22.85200
C  34.61800 51.49300 22.90700
C  33.44700 54.58000 24.83100
C  33.65800 53.64900 21.60800
O  33.84300 53.16600 20.45500
C  33.03800 55.09400 21.68500
N  35.57300 48.60800 22.79300
C  35.47400 49.42300 21.79000
C  35.88400 48.76200 20.41700
C  36.55500 47.45500 20.95500
C  36.27500 47.43500 22.49900
C  34.78500 48.54300 19.38300
C  38.11700 47.47100 20.84400
C  38.77800 46.69500 19.69200
N  36.09900 47.32400 25.46000
C  36.56500 46.22500 24.72500
C  36.73600 45.11700 25.58900
C  36.30000 45.57000 26.86900
C  35.92700 46.89800 26.71900
C  37.20400 43.73500 25.20800
C  36.02500 45.18500 28.25700
O  36.17200 44.12900 28.83600
C  35.62800 46.48200 29.06500
C  34.39500 46.15100 29.84900
O  33.26600 46.40500 29.52700
O  34.73000 45.79900 31.15900
C  33.64800 45.41700 32.11000
H  34.11100 53.00600 26.90000
H  35.15000 51.17900 20.81500
H  36.93400 45.50600 22.74400
H  34.10300 49.16800 29.90400
H  34.93800 51.84900 29.40000
H  32.58200 50.75000 30.06800
H  32.25600 51.47600 28.42500
H  32.96400 52.38200 29.73300
H  36.59100 50.73900 30.25500
H  36.93000 49.14300 30.03100
H  36.41600 50.04900 32.46900
H  36.21500 48.46400 31.97600
H  32.43800 54.78100 24.47200
H  34.01700 55.47800 24.59300
H  33.42000 54.56300 25.92100
H  32.67200 55.21900 20.66500
H  33.70100 55.91900 21.94700
H  32.13800 55.02100 22.29600
H  36.64100 49.39500 19.95300
H  36.16500 46.55500 20.48000
H  35.13600 49.10600 18.51800
H  33.85200 49.04800 19.63000
H  34.61300 47.48500 19.18200
H  38.57400 46.97500 21.70000
H  38.36600 48.53000 20.77800
H  38.87900 45.62600 19.88000
H  39.78700 47.07400 19.53300
H  38.17300 46.88700 18.80600
H  37.86000 43.43300 26.02400
H  37.84500 43.82500 24.33000
H  36.42200 42.97700 25.19500
H  36.50200 46.71300 29.67400
H  33.69700 44.33100 32.18600
H  32.69200 45.82600 31.78300
H  33.88700 45.97100 33.01800

