158

Mg 30.16400 58.20900 39.99200
C  27.41000 56.30300 38.74700
C  32.21800 55.54300 39.04700
C  32.76500 60.17500 40.34900
C  28.03100 61.00000 40.18400
N  29.77700 56.20300 39.06400
C  28.56000 55.53700 38.76900
C  28.68000 54.01000 38.48800
C  30.21000 53.83200 38.75800
C  30.79500 55.26800 38.90400
C  30.48700 52.87200 39.94600
C  28.09600 53.57100 37.10700
C  28.87500 54.05600 35.83600
H  28.14800 54.67300 34.56900
N  32.29200 57.88400 39.79300
C  32.87100 56.72400 39.37000
C  34.25600 56.96100 39.42700
C  34.50500 58.35000 39.69700
C  33.17600 58.89300 40.05600
C  35.32500 55.87900 39.18400
C  35.89900 59.07200 39.69600
O  36.97900 58.48500 39.46700
C  35.96700 60.55100 40.18400
N  30.40200 60.28000 40.15200
C  31.57900 60.84200 40.44400
C  31.50300 62.31300 40.60000
C  29.98600 62.58500 40.71000
C  29.39800 61.23700 40.33800
C  32.27600 62.88200 41.84700
C  29.34800 63.81600 39.92700
C  28.19300 64.50500 40.72600
N  28.14300 58.59100 39.59300
C  27.42400 59.84800 39.77300
C  26.02400 59.58800 39.39400
C  25.99600 58.24300 39.03000
C  27.30600 57.68300 39.13400
C  24.85200 60.47700 39.45500
C  25.08100 57.19600 38.63500
O  23.88700 57.17600 38.47800
C  25.95300 55.89800 38.51600
C  25.44200 55.02400 39.65900
O  25.25200 55.35200 40.80400
O  25.18900 53.72100 39.16200
C  24.65300 52.75800 40.17800
H  32.94100 54.73800 38.89500
H  33.54700 60.92000 40.51100
H  27.33000 61.83600 40.14400
H  28.00600 53.65200 39.26600
H  30.68100 53.58600 37.80600
H  30.75200 53.54400 40.76200
H  31.26700 52.11800 39.83600
H  29.51200 52.51600 40.27600
H  27.03600 53.79000 36.97700
H  28.04000 52.48400 37.04300
H  29.40300 53.18300 35.45200
H  29.60200 54.75800 36.24400
H  36.27000 56.20500 38.74900
H  34.98800 55.05700 38.55300
H  35.59600 55.52800 40.18000
H  35.52500 60.62900 41.17700
H  35.37000 61.12800 39.47600
H  36.97100 60.96000 40.07200
H  31.95100 62.69500 39.68300
H  29.95600 62.66000 41.79700
H  33.24400 63.20300 41.46200
H  32.39700 62.19600 42.68500
H  31.77800 63.72600 42.32400
H  28.83900 63.31600 39.10300
H  30.06700 64.59200 39.66500
H  27.34800 64.70900 40.06900
H  28.52000 65.41200 41.23600
H  27.83300 63.87700 41.54100
H  24.79600 61.00500 38.50400
H  24.91000 61.28900 40.18100
H  24.02500 59.79700 39.66000
H  25.67200 55.47300 37.55300
H  24.11300 51.99300 39.62000
H  23.87600 53.17300 40.82100
H  25.36800 52.24200 40.81800
Mg -2.19000 35.25900 26.74100
C  -3.74100 33.36800 29.22900
C  -0.63700 37.19300 29.13200
C  -0.87200 37.00200 24.32500
C  -4.18600 33.51000 24.31400
N  -2.22300 35.37500 28.93800
C  -2.95300 34.46500 29.70600
C  -2.69100 34.66500 31.20400
C  -1.83800 36.02900 31.10800
C  -1.60500 36.30200 29.63300
C  -2.30700 37.29600 31.90100
C  -1.95300 33.44400 31.85400
C  -2.58900 32.76900 33.07400
H  -1.73100 32.49600 34.35200
N  -0.83500 36.87400 26.73400
C  -0.27700 37.40800 27.77500
C  0.71300 38.39100 27.35300
C  0.62600 38.43200 25.95300
C  -0.37900 37.41400 25.58900
C  1.54800 39.27700 28.39900
C  1.34500 39.25900 24.88500
O  1.05400 39.29000 23.70700
C  2.42500 40.19200 25.32900
N  -2.63800 35.40000 24.65600
C  -1.89000 36.18500 23.85800
C  -2.47500 36.33200 22.50200
C  -3.28700 35.00300 22.44500
C  -3.53300 34.68200 23.91500
C  -3.27700 37.66400 22.31100
C  -2.68800 33.78300 21.71800
C  -1.24600 33.33500 22.21600
N  -3.60200 33.74900 26.76800
C  -4.21700 33.06100 25.70200
C  -4.90000 31.93500 26.21000
C  -4.73500 31.98200 27.63600
C  -3.93100 33.08200 27.91600
C  -5.73500 31.02000 25.38200
C  -5.16800 31.35300 28.83200
O  -5.83300 30.32400 28.97000
C  -4.57500 32.30600 29.96300
C  -5.74100 32.85700 30.76500
O  -6.55300 33.66300 30.33200
O  -5.75700 32.33500 31.99400
C  -6.79200 32.66200 33.00800
H  -0.03600 37.71900 29.87700
H  -0.52400 37.66500 23.53000
H  -4.50700 32.79500 23.55300
H  -3.69800 34.77000 31.60600
H  -0.77200 35.95600 31.31900
H  -1.52300 37.47800 32.63600
H  -3.29200 37.14100 32.34200
H  -2.31400 38.15200 31.22700
H  -0.99700 33.82800 32.20700
H  -1.85400 32.65000 31.11300
H  -2.94200 31.77800 32.79300
H  -3.51500 33.17200 33.48300
H  1.27800 40.30700 28.16400
H  2.61200 39.11100 28.23200
H  1.32200 39.06900 29.44500
H  2.98900 40.61400 24.49600
H  3.08000 39.69400 26.04300
H  1.85800 40.97400 25.83400
H  -1.64000 36.23500 21.80800
H  -4.26400 35.24200 22.02400
H  -3.35400 38.26000 23.22000
H  -4.31400 37.47800 22.03100
H  -2.72200 38.25900 21.58600
H  -2.57900 34.08000 20.67500
H  -3.45800 33.01600 21.62800
H  -0.70200 33.99200 22.89400
H  -0.66800 33.03400 21.34200
H  -1.39000 32.42600 22.80000
H  -6.03400 30.11100 25.90300
H  -5.23500 30.73600 24.45600
H  -6.69800 31.50000 25.20600
H  -3.94600 31.68400 30.59900
H  -7.22900 31.76300 33.44400
H  -7.67000 33.10700 32.54000
H  -6.30300 33.25800 33.77800

