158

Mg 23.98500 -6.85600 46.10500
C  26.35000 -4.83200 44.61800
C  21.67300 -5.53900 43.96400
C  22.14000 -9.73600 46.47600
C  26.68200 -8.54900 47.66800
N  24.08100 -5.47700 44.31700
C  25.12200 -4.71900 43.94700
C  24.81100 -3.67300 42.87200
C  23.23700 -3.67200 42.94700
C  22.94300 -5.03600 43.76200
C  22.61800 -2.41500 43.62900
C  25.36700 -4.09700 41.46000
C  25.83700 -2.92700 40.47500
H  25.37200 -2.82800 38.98100
N  22.15400 -7.45200 45.44200
C  21.27500 -6.65400 44.63300
C  19.99900 -7.29500 44.60100
C  20.09600 -8.54100 45.28900
C  21.50100 -8.62800 45.76800
C  18.83800 -6.78600 43.84300
C  18.94800 -9.52700 45.41400
O  17.85000 -9.17100 45.01600
C  19.16800 -10.80800 46.09700
N  24.38600 -8.92400 47.03500
C  23.44100 -9.87400 47.04300
C  24.01400 -11.14000 47.72800
C  25.44000 -10.69700 48.32800
C  25.54500 -9.34300 47.59300
C  23.01800 -11.91300 48.68100
C  26.54200 -11.73900 47.97800
C  26.86000 -12.86300 48.94400
N  26.07000 -6.62200 46.29600
C  26.97800 -7.35600 46.96600
C  28.31900 -6.71000 46.87200
C  28.07200 -5.62400 46.02900
C  26.71300 -5.72600 45.62300
C  29.60000 -7.11400 47.41900
C  28.64300 -4.47900 45.39600
O  29.74900 -3.97900 45.59800
C  27.60200 -3.96100 44.33600
C  27.53900 -2.47600 44.31000
O  27.94800 -1.77400 43.38300
O  27.01700 -2.04100 45.43800
C  26.99300 -0.60200 45.75800
H  20.85900 -4.99700 43.47900
H  21.60700 -10.66900 46.66900
H  27.58700 -8.94200 48.13600
H  25.18600 -2.70400 43.20000
H  22.75500 -3.74700 41.97200
H  21.97600 -1.81100 42.98800
H  23.42300 -1.78500 44.00800
H  21.92500 -2.58200 44.45300
H  24.62600 -4.63300 40.86700
H  26.13000 -4.86800 41.56500
H  26.92200 -3.03400 40.49700
H  25.55200 -2.00700 40.98600
H  18.05100 -6.65400 44.58700
H  18.55300 -7.40100 42.99000
H  19.00700 -5.75500 43.53100
H  19.45000 -10.69200 47.14300
H  19.71100 -11.50600 45.46000
H  18.15000 -11.19300 46.14100
H  24.21000 -11.76300 46.85600
H  25.23400 -10.46800 49.37400
H  22.03500 -11.44400 48.63700
H  23.38900 -11.97800 49.70400
H  22.91400 -12.92400 48.29000
H  27.49500 -11.21800 47.89300
H  26.35100 -12.19400 47.00600
H  27.04700 -13.75700 48.35000
H  25.95600 -12.87900 49.55300
H  27.66100 -12.60000 49.63600
H  29.92800 -8.13400 47.21700
H  29.59100 -7.04500 48.50700
H  30.31200 -6.33600 47.14600
H  27.99300 -4.17700 43.34200
H  27.55300 0.07200 45.11000
H  27.17300 -0.51800 46.83000
H  25.96800 -0.29200 45.55400
Mg -2.40900 34.34000 26.73700
C  -3.52600 32.40400 29.33600
C  -1.08900 36.64100 28.82100
C  -1.50600 36.40200 24.05600
C  -3.85400 32.13600 24.56800
N  -2.42000 34.49400 28.83100
C  -2.86100 33.59100 29.78500
C  -2.57400 34.08600 31.26500
C  -1.82600 35.44100 31.05900
C  -1.83400 35.58300 29.44100
C  -2.40900 36.73100 31.79000
C  -1.69800 33.04200 32.10900
C  -2.28300 32.49000 33.42300
H  -1.32900 32.59900 34.63600
N  -1.50800 36.30300 26.52100
C  -0.97400 37.05100 27.57700
C  -0.51200 38.33800 27.07300
C  -0.66800 38.29600 25.64500
C  -1.15600 36.92700 25.34000
C  -0.19200 39.43400 28.07200
C  -0.37100 39.45500 24.68500
O  -0.43900 39.30500 23.45300
C  0.02500 40.77900 25.32800
N  -2.86000 34.43600 24.60500
C  -2.31800 35.29400 23.77400
C  -2.72400 34.91500 22.27800
C  -3.09200 33.40200 22.46000
C  -3.30700 33.30400 23.97700
C  -3.84800 35.85700 21.79300
C  -2.04100 32.41300 21.85100
C  -0.77800 32.04500 22.67000
N  -3.57200 32.65000 26.90900
C  -4.14900 31.85700 25.93300
C  -4.86800 30.70000 26.51600
C  -4.61600 30.79900 27.84000
C  -3.89400 32.04200 28.04800
C  -5.43000 29.54200 25.77100
C  -4.75900 30.27200 29.12900
O  -5.46400 29.33400 29.54100
C  -4.05100 31.24300 30.10100
C  -5.06400 31.61000 31.07100
O  -5.98600 32.42300 30.82600
O  -4.99300 30.91400 32.16000
C  -5.96500 31.13800 33.29300
H  -0.61700 37.17300 29.64900
H  -1.24100 37.03900 23.21000
H  -4.26200 31.37300 23.90100
H  -3.43700 34.40700 31.84900
H  -0.79600 35.24100 31.35300
H  -2.97500 37.35200 31.09500
H  -1.53600 37.30100 32.10700
H  -2.92300 36.46000 32.71200
H  -0.70600 33.41600 32.36300
H  -1.51300 32.16100 31.49500
H  -2.45000 31.42200 33.27700
H  -3.32300 32.77600 33.58100
H  -0.00900 39.16200 29.11100
H  -0.99900 40.16600 28.05200
H  0.75600 39.88500 27.78200
H  0.13500 41.44500 24.47300
H  0.98700 40.68900 25.83200
H  -0.74500 41.09000 26.03500
H  -1.97900 35.05500 21.49500
H  -4.10500 33.23500 22.09300
H  -4.15800 36.56800 22.55800
H  -4.77000 35.30800 21.60000
H  -3.59900 36.35700 20.85700
H  -1.73900 32.83800 20.89300
H  -2.64200 31.53400 21.61700
H  -0.54800 32.64300 23.55200
H  0.08900 31.74900 22.07900
H  -1.07200 31.16600 23.24300
H  -5.30000 28.76500 26.52400
H  -4.90600 29.32600 24.84000
H  -6.51300 29.60600 25.66800
H  -3.23700 30.68100 30.55900
H  -6.96000 31.34300 32.89900
H  -5.60100 31.96900 33.89800
H  -5.99200 30.23600 33.90500

