158

Mg 36.92600 49.55900 24.37100
C  36.96400 47.72200 27.36100
C  35.69800 52.27200 26.37100
C  36.06700 51.10200 21.57500
C  37.53300 46.68500 22.63700
N  36.51400 49.95000 26.59300
C  36.69300 49.07500 27.63900
C  36.47600 49.78400 29.02400
C  36.15200 51.26100 28.65500
C  36.16100 51.17000 27.09900
C  34.88100 51.81400 29.33800
C  37.85400 49.61800 29.87000
C  37.87200 49.16900 31.31800
H  36.54500 48.95100 32.05000
N  36.06200 51.39200 24.06600
C  35.71500 52.42100 24.95000
C  35.19000 53.54500 24.17000
C  35.27400 53.21100 22.79600
C  35.85600 51.89600 22.78900
C  34.82000 54.76300 24.97500
C  34.80700 53.95900 21.54800
O  34.87700 53.48800 20.43500
C  34.15400 55.35500 21.71300
N  36.73100 48.93600 22.37700
C  36.44700 49.76900 21.34000
C  36.80800 49.23000 20.03800
C  37.42700 47.85400 20.39600
C  37.21100 47.77200 21.87700
C  35.56800 49.34900 19.08200
C  38.96600 47.82700 20.14400
C  39.35200 46.49900 19.55900
N  37.28600 47.61200 24.86600
C  37.50800 46.53200 24.02200
C  37.69100 45.37300 24.82200
C  37.54200 45.81500 26.16500
C  37.25300 47.16200 26.12700
C  37.86100 44.02100 24.33800
C  37.46300 45.38000 27.53900
O  37.82000 44.29900 28.01700
C  37.08600 46.57500 28.31000
C  35.79900 46.28800 29.08900
O  34.65500 46.69700 28.80300
O  36.14000 45.60100 30.17000
C  34.95400 45.23700 30.92900
H  35.28700 53.19100 26.79400
H  35.94000 51.58600 20.60400
H  37.71800 45.74900 22.10500
H  35.61500 49.40600 29.57600
H  36.97700 51.94200 28.86300
H  34.10700 52.06700 28.61400
H  35.01300 52.67700 29.99200
H  34.53300 51.06000 30.04400
H  38.42300 50.54800 29.85600
H  38.43000 48.91700 29.26500
H  38.44400 49.90200 31.88800
H  38.31000 48.17200 31.26000
H  34.34200 55.52900 24.36400
H  35.68800 55.14000 25.51500
H  34.07200 54.49800 25.72200
H  33.75200 55.69900 20.76000
H  34.87200 56.13300 21.97300
H  33.33000 55.36100 22.42700
H  37.62800 49.88500 19.74200
H  37.00100 47.01300 19.84900
H  34.68300 49.74300 19.58200
H  35.33900 48.34300 18.73000
H  35.81400 49.91000 18.18100
H  39.59900 47.92900 21.02500
H  39.36500 48.58500 19.47000
H  39.09000 45.69500 20.24600
H  40.42800 46.39400 19.41800
H  38.85500 46.40000 18.59400
H  38.87600 43.91600 23.95400
H  37.02700 43.76900 23.68300
H  37.83100 43.47300 25.27900
H  37.77000 46.93300 29.07900
H  35.17700 44.61600 31.79600
H  34.27200 44.62600 30.33600
H  34.31900 46.03000 31.32400
Mg 1.49800 42.58200 26.57100
C  3.12300 42.75900 29.65000
C  -1.37900 41.61500 28.24500
C  0.12500 41.87600 23.66800
C  4.56700 43.10600 25.06600
N  0.95000 42.31400 28.61500
C  1.73400 42.51900 29.73300
C  0.86600 42.29700 31.03100
C  -0.38700 41.73500 30.52700
C  -0.32400 41.89500 29.02800
C  -0.77300 40.34700 31.11500
C  0.82300 43.69300 31.73100
C  1.12700 43.65300 33.25900
H  0.83800 42.35400 34.00600
N  -0.45700 41.92500 26.01700
C  -1.46200 41.54500 26.83100
C  -2.50600 40.95300 26.00500
C  -2.12600 41.07600 24.63800
C  -0.78000 41.64400 24.73600
C  -3.60500 40.21500 26.61800
C  -2.81200 40.68200 23.37100
O  -2.27500 40.78800 22.23400
C  -4.28900 40.18900 23.48600
N  2.38300 42.35400 24.65700
C  1.50100 42.14300 23.61400
C  2.25400 42.09000 22.26500
C  3.62900 42.68500 22.64100
C  3.56500 42.74400 24.20900
C  2.47700 40.63800 21.67300
C  3.85800 44.15500 22.01700
C  2.84200 45.24700 22.45700
N  3.51100 43.07900 27.16700
C  4.60300 43.19300 26.46800
C  5.67000 43.55300 27.34600
C  5.14800 43.40300 28.59300
C  3.77300 43.13500 28.47300
C  7.09400 43.83100 26.96200
C  5.46400 43.30800 30.05400
O  6.56300 43.44600 30.60300
C  4.11400 43.04500 30.72400
C  4.33500 42.09200 31.74500
O  4.04800 40.95100 31.57100
O  4.68700 42.66300 32.96400
C  4.93300 41.61500 33.97300
H  -2.27100 41.36400 28.82300
H  -0.21900 41.77800 22.63600
H  5.56100 43.27600 24.64700
H  1.29400 41.66700 31.81100
H  -1.20700 42.42000 30.74400
H  -0.97600 39.75700 30.22100
H  -1.73100 40.42800 31.62700
H  -0.05800 39.88700 31.79700
H  -0.16100 44.12200 31.53700
H  1.56500 44.33200 31.25200
H  0.69800 44.56800 33.66800
H  2.17700 43.94800 33.25900
H  -4.50300 40.37600 26.02100
H  -3.84400 40.45600 27.65400
H  -3.35900 39.15600 26.68700
H  -4.98700 40.89300 23.93800
H  -4.42000 39.18400 23.88600
H  -4.69200 40.10600 22.47600
H  1.90400 42.77300 21.49100
H  4.56200 42.12200 22.60500
H  3.50700 40.28400 21.72200
H  2.08400 40.67000 20.65700
H  1.86900 39.87000 22.15200
H  3.81500 43.98400 20.94100
H  4.87200 44.43600 22.30200
H  2.40000 45.05400 23.43400
H  2.07900 45.31100 21.68000
H  3.42200 46.16800 22.51800
H  7.15500 44.91500 26.86600
H  7.29000 43.37800 25.99000
H  7.76100 43.36600 27.68700
H  3.81700 44.01900 31.11200
H  5.96100 41.29700 33.79600
H  4.26100 40.78200 33.76700
H  4.68200 42.03800 34.94600

