158

Mg 29.50600 58.50100 39.12700
C  26.86200 56.43500 38.33600
C  31.67600 56.00100 38.24400
C  32.11300 60.80900 39.14700
C  27.22200 61.10900 39.70600
N  29.24700 56.54000 38.12800
C  28.08300 55.90700 38.00200
C  28.30300 54.48300 37.46300
C  29.82600 54.29600 37.78700
C  30.29600 55.68900 38.09500
C  30.22200 53.18400 38.89800
C  27.93300 54.12900 36.00300
C  28.54400 55.08400 34.93900
H  27.69900 55.66700 33.87000
N  31.54300 58.44100 38.75400
C  32.29700 57.26900 38.51000
C  33.73200 57.55300 38.41200
C  33.85700 58.97800 38.63300
C  32.44600 59.47700 38.88500
C  34.74900 56.39900 38.21000
C  35.18300 59.66500 38.67000
O  36.25900 59.06500 38.43700
C  35.25700 61.19700 39.00400
N  29.61500 60.68800 39.31000
C  30.81500 61.39500 39.34300
C  30.54300 62.89600 39.50600
C  29.00000 62.97200 39.73000
C  28.57000 61.52700 39.55500
C  31.42400 63.59600 40.63600
C  28.25900 64.14300 38.93400
C  26.96100 64.65300 39.52700
N  27.50000 58.66900 39.31600
C  26.68200 59.79300 39.52300
C  25.33600 59.47700 39.36500
C  25.39100 58.14900 38.97500
C  26.68500 57.68200 38.93500
C  24.15300 60.32700 39.70200
C  24.57000 57.04600 38.53100
O  23.33300 56.99000 38.40500
C  25.47900 55.83800 38.03800
C  25.16900 54.60900 38.87400
O  25.82100 54.29400 39.85000
O  24.13200 53.93400 38.36000
C  23.60600 52.86000 39.23100
H  32.31300 55.13400 38.05500
H  32.86000 61.58500 38.96900
H  26.57000 61.94000 39.98300
H  27.73900 53.77400 38.06900
H  30.31200 54.09800 36.83100
H  29.36100 52.81000 39.45200
H  30.99900 53.65300 39.50100
H  30.55900 52.21700 38.52500
H  26.85200 54.23300 35.91300
H  28.19600 53.10800 35.72600
H  29.31800 54.43500 34.53000
H  29.07900 55.94300 35.34400
H  34.25500 55.47000 37.92400
H  35.30400 56.15500 39.11600
H  35.51100 56.68500 37.48500
H  36.30300 61.49800 39.06000
H  34.71500 61.44600 39.91700
H  34.77000 61.57800 38.10600
H  30.86100 63.40900 38.59900
H  28.89700 63.21800 40.78700
H  30.84400 64.09000 41.41600
H  32.09400 64.39600 40.32100
H  32.07900 62.95600 41.22600
H  27.80500 63.83600 37.99100
H  29.03700 64.77200 38.50100
H  27.15800 65.72400 39.57200
H  26.67600 64.24000 40.49500
H  26.06700 64.57900 38.90800
H  24.31400 60.87900 40.62800
H  23.27400 59.69600 39.83700
H  24.01200 61.07500 38.92100
H  25.30700 55.66700 36.97600
H  24.45800 52.28100 39.58800
H  23.01700 52.17100 38.62600
H  23.01600 53.17600 40.09100
Mg 16.80700 52.17200 26.14600
C  18.84900 50.74300 28.56600
C  14.56100 52.81200 28.69700
C  14.78300 53.39300 23.81400
C  18.89000 50.91700 23.65200
N  16.70800 51.73900 28.31000
C  17.75200 51.34600 29.09900
C  17.41800 51.41600 30.56100
C  15.87200 51.66600 30.55000
C  15.69800 52.10100 29.12700
C  14.99000 50.47800 30.98800
C  18.29000 52.49700 31.25800
C  18.49400 52.50200 32.80000
H  17.57600 51.56900 33.63800
N  14.96400 52.93700 26.27500
C  14.22200 53.28200 27.35200
C  13.10400 53.99900 27.01100
C  13.03700 54.11700 25.59900
C  14.28300 53.44700 25.14200
C  12.11100 54.57100 28.13300
C  12.01200 54.78200 24.62900
O  12.12100 54.89000 23.41600
C  10.85900 55.64000 25.25200
N  16.76400 52.05300 23.99800
C  15.87800 52.72700 23.25400
C  16.29000 52.84300 21.79100
C  17.62100 52.11100 21.74200
C  17.84700 51.65800 23.23100
C  15.22700 52.41200 20.71600
C  18.85900 53.00700 21.35400
C  20.01000 52.20200 20.78200
N  18.62400 51.13900 26.08600
C  19.24900 50.59700 24.98800
C  20.47300 49.96700 25.46700
C  20.32000 49.92400 26.89800
C  19.18100 50.66800 27.20000
C  21.55800 49.25200 24.66100
C  20.97500 49.41200 28.11900
O  22.01000 48.75900 28.24600
C  19.97400 49.95300 29.28700
C  19.69000 48.79700 30.18000
O  18.90800 47.92500 29.81800
O  20.22900 48.91500 31.45400
C  19.83100 47.92900 32.44900
H  13.80300 52.94700 29.47100
H  14.23900 53.87000 22.99600
H  19.54200 50.51700 22.87200
H  17.51700 50.43500 31.02600
H  15.69500 52.48900 31.24300
H  15.53500 49.60600 31.34800
H  14.30000 50.31100 30.16100
H  14.44100 50.77500 31.88100
H  17.80900 53.46300 31.10900
H  19.29600 52.53700 30.83900
H  18.30800 53.50200 33.19200
H  19.52200 52.18300 32.97600
H  11.12400 54.11200 28.19600
H  11.87200 55.57900 27.79700
H  12.39500 54.74800 29.17100
H  10.08600 55.80100 24.50200
H  11.28700 56.62800 25.42300
H  10.36100 55.18600 26.10900
H  16.30900 53.90800 21.56100
H  17.41800 51.27300 21.07500
H  14.73800 53.24100 20.20400
H  14.47800 51.83900 21.26200
H  15.61800 51.67100 20.01800
H  19.27300 53.48400 22.24200
H  18.48700 53.67400 20.57600
H  19.84400 51.13600 20.63000
H  20.97100 52.40800 21.25300
H  20.15900 52.58800 19.77300
H  22.32900 49.97300 24.38900
H  21.26300 48.76000 23.73500
H  21.94000 48.50100 25.35300
H  20.59000 50.59300 29.91800
H  18.76100 48.00800 32.64300
H  20.43000 48.06700 33.34900
H  20.14800 46.94500 32.10400

