158

Mg 44.18800 5.58700 47.75600
C  42.11200 8.33300 47.36200
C  41.25500 3.46600 47.51400
C  46.02900 2.90400 47.60400
C  46.96600 7.64400 47.35600
N  41.99300 5.82300 47.31000
C  41.38400 7.11700 47.26800
C  39.86100 7.02500 47.31300
C  39.61500 5.46100 47.40500
C  41.03800 4.84500 47.40200
C  38.65900 5.03500 48.60400
C  39.11500 7.72200 46.18200
C  39.69900 7.86900 44.78000
H  38.80100 7.35400 43.66500
N  43.69100 3.46800 47.62800
C  42.50900 2.84500 47.55300
C  42.69900 1.43100 47.48500
C  44.03800 1.16600 47.61000
C  44.63800 2.59100 47.65900
C  41.52100 0.40500 47.23400
C  44.73600 -0.25100 47.59200
O  44.11600 -1.29500 47.48600
C  46.26100 -0.34600 47.72500
N  46.15900 5.31500 47.27900
C  46.73600 4.06400 47.48000
C  48.24000 4.06000 47.41200
C  48.49700 5.56600 47.18300
C  47.11500 6.26900 47.35900
C  48.90900 3.44800 48.60700
C  49.19000 5.87100 45.83600
C  50.59900 5.35600 45.81900
N  44.55600 7.60100 47.45800
C  45.76900 8.32000 47.36300
C  45.40800 9.75000 47.16500
C  44.00700 9.76900 47.15700
C  43.51800 8.45900 47.36800
C  46.45500 10.76600 46.81600
C  42.84500 10.66300 47.01600
O  42.70500 11.89800 46.96000
C  41.60200 9.72500 47.17800
C  40.52100 10.14300 48.08300
O  40.36800 9.69400 49.22800
O  39.74600 11.04000 47.48100
C  38.61600 11.54500 48.24900
H  40.39100 2.84900 47.26100
H  46.69900 2.04200 47.60000
H  47.78600 8.36400 47.30700
H  39.47200 7.57300 48.17100
H  39.14300 5.01400 46.53000
H  38.11500 5.85900 49.06500
H  39.13800 4.52800 49.44100
H  37.91000 4.35000 48.20600
H  38.77100 8.66900 46.59700
H  38.24700 7.07600 46.04800
H  40.63400 7.30800 44.78000
H  39.86600 8.93700 44.64200
H  41.86000 -0.45100 46.64900
H  40.60000 0.84600 46.85300
H  41.16900 0.03900 48.19800
H  46.78300 0.09600 46.87600
H  46.52900 -1.40200 47.73700
H  46.51700 -0.01900 48.73300
H  48.52000 3.54600 46.49200
H  49.12100 5.96100 47.98500
H  48.20100 3.07700 49.34800
H  49.55900 4.17600 49.09300
H  49.49000 2.60000 48.24500
H  49.09800 6.94600 45.67800
H  48.47300 5.46900 45.12000
H  50.59100 4.42400 45.25500
H  50.87800 5.14200 46.85100
H  51.31500 6.10400 45.47700
H  47.00400 11.16700 47.66800
H  45.81200 11.57200 46.46000
H  47.16400 10.50900 46.02900
H  41.16900 9.78800 46.18000
H  37.75700 10.89200 48.09000
H  38.43800 12.59300 48.01000
H  38.76100 11.52800 49.32900
Mg 50.12000 46.35700 42.83000
C  46.84100 46.91200 41.65800
C  49.85000 43.24300 41.29800
C  53.38400 45.97200 43.38300
C  50.25500 49.75600 43.63100
N  48.41100 45.19700 41.69000
C  47.23900 45.65900 41.34900
C  46.55200 44.68800 40.38700
C  47.45200 43.37300 40.47500
C  48.65600 43.98100 41.19400
C  46.79700 42.19000 41.26500
C  46.42200 45.20500 38.89900
C  45.01100 45.00700 38.27100
H  45.04800 43.76600 37.35100
N  51.46200 44.79100 42.48400
C  51.13200 43.58300 41.90600
C  52.32200 42.90600 41.66900
C  53.38100 43.62700 42.22900
C  52.76700 44.86200 42.74200
C  52.33400 41.63600 40.94100
C  54.90500 43.12600 42.23200
O  55.29300 42.07300 41.79400
C  55.89700 43.89900 42.97500
N  51.54000 47.62400 43.53500
C  52.80300 47.28300 43.60700
C  53.68100 48.50600 44.00200
C  52.63200 49.62800 44.14400
C  51.40100 48.98700 43.68200
C  54.56800 48.29400 45.30100
C  53.08100 50.95800 43.36500
C  53.04500 52.27100 44.09500
N  48.75600 47.99700 42.96200
C  48.98400 49.32100 43.18000
C  47.72300 50.06100 43.00600
C  46.83300 49.20600 42.45600
C  47.54700 47.93800 42.39100
C  47.58700 51.51100 43.26200
C  45.55500 49.07900 41.89100
O  44.66200 49.96300 41.79900
C  45.45000 47.55800 41.36800
C  44.27100 46.97900 42.06200
O  44.36900 46.52700 43.19500
O  43.29500 46.84900 41.18300
C  42.18900 46.05600 41.64600
H  49.67600 42.24300 40.89600
H  54.45400 45.95700 43.60100
H  50.28300 50.84700 43.68700
H  45.56200 44.44800 40.77500
H  47.76700 42.88300 39.55400
H  45.74500 42.09800 40.99300
H  46.77300 42.34500 42.34300
H  47.28400 41.23900 41.05000
H  47.17100 44.72000 38.27400
H  46.67200 46.26600 38.87000
H  44.86600 45.89800 37.66000
H  44.11900 44.85200 38.87900
H  51.87800 40.83500 41.52400
H  53.34100 41.22400 40.88500
H  51.76300 41.70400 40.01500
H  56.72200 43.18700 42.99700
H  55.54400 44.00700 44.00000
H  56.30600 44.74700 42.42500
H  54.25400 48.54900 43.07600
H  52.47700 49.79700 45.21000
H  54.28000 48.58800 46.31100
H  55.38700 48.95500 45.01800
H  54.89300 47.25400 45.30100
H  52.42000 51.04800 42.50300
H  54.09600 50.77600 43.01200
H  52.68100 52.13800 45.11300
H  52.62300 53.11000 43.54300
H  54.10300 52.51900 44.18700
H  48.07900 51.70400 44.21600
H  46.53600 51.79000 43.34100
H  48.06500 52.17400 42.54200
H  45.18700 47.55900 40.31000
H  41.28100 46.58700 41.93100
H  42.47200 45.41200 42.47900
H  41.91600 45.34900 40.86300

