158

Mg 27.51400 51.20000 25.78600
C  25.72500 52.30900 28.69100
C  30.15900 50.25500 27.80800
C  29.01000 50.04300 23.09700
C  25.05100 52.73900 23.70900
N  27.86400 51.30900 28.02700
C  26.92800 51.67700 28.97300
C  27.64000 51.61200 30.43300
C  29.04100 50.97800 30.14000
C  29.00300 50.87200 28.52100
C  30.27900 51.80800 30.57000
C  26.82000 50.91300 31.53300
C  26.80500 51.48800 32.98000
H  25.74300 50.92100 33.97900
N  29.30400 50.21100 25.56700
C  30.29800 49.87300 26.48800
C  31.38500 49.11300 25.75700
C  30.99000 49.04300 24.41200
C  29.74100 49.74400 24.29000
C  32.58800 48.52200 26.56400
C  31.72500 48.26200 23.27800
O  31.25100 48.18400 22.16000
C  33.15700 47.76400 23.53900
N  27.10800 51.38800 23.71000
C  27.85700 50.78100 22.82100
C  27.09700 50.68900 21.49100
C  25.68300 51.26500 21.80800
C  25.97900 51.91900 23.12200
C  27.88000 51.43300 20.32400
C  24.58400 50.23400 21.99700
C  23.40400 50.25400 21.01800
N  25.79200 52.33300 26.06900
C  24.95600 52.88700 25.11100
C  23.98100 53.63700 25.85600
C  24.18500 53.36500 27.26500
C  25.30900 52.57800 27.35000
C  22.90200 54.48300 25.32400
C  23.66000 53.61300 28.54300
O  22.64800 54.26000 28.86400
C  24.64800 52.97800 29.52400
C  25.01100 53.98300 30.52200
O  25.99300 54.73900 30.40900
O  24.19100 53.84600 31.59600
C  24.50700 54.74700 32.72200
H  30.98300 49.92000 28.44100
H  29.50800 49.67200 22.19900
H  24.34600 53.20000 23.01300
H  27.75600 52.65400 30.72900
H  29.23500 49.98400 30.54300
H  30.00800 52.42800 31.42500
H  30.85900 52.38100 29.84700
H  30.93700 51.10200 31.07700
H  27.23000 49.91500 31.68600
H  25.85300 50.59500 31.14500
H  26.83900 52.57700 32.95100
H  27.78200 51.22000 33.38200
H  32.53900 48.52800 27.65300
H  33.56400 48.96000 26.35600
H  32.55800 47.47600 26.25600
H  32.91000 46.88300 24.13100
H  33.75800 48.50200 24.07100
H  33.65700 47.48800 22.61100
H  26.92400 49.61600 21.40700
H  25.41800 52.09100 21.14900
H  28.96100 51.53100 20.41900
H  27.47100 52.43100 20.16400
H  27.67500 50.84200 19.43100
H  24.16600 50.30100 23.00100
H  25.03300 49.24700 21.89400
H  23.75100 49.77400 20.10300
H  22.98200 51.24700 20.85700
H  22.69400 49.46100 21.25200
H  23.40100 55.21500 24.68800
H  22.44400 54.97900 26.17900
H  22.11600 53.88100 24.86700
H  24.11100 52.21100 30.08200
H  23.57100 54.72400 33.27900
H  24.83900 55.69700 32.30100
H  25.35800 54.22100 33.15500
Mg -0.88700 34.95100 27.14800
C  -2.70800 33.16600 29.50400
C  0.48500 36.78500 29.78300
C  0.84800 36.65600 24.92900
C  -2.13100 32.86600 24.71600
N  -1.16100 35.00500 29.35200
C  -1.90200 34.12400 30.09000
C  -1.64100 34.38500 31.57600
C  -0.71300 35.62500 31.58500
C  -0.45500 35.78000 30.14800
C  -1.41800 36.91900 32.11200
C  -1.21800 33.14900 32.42700
C  -1.96600 32.85600 33.78000
H  -1.17600 32.78900 35.03400
N  0.47100 36.57600 27.31700
C  0.93500 37.13500 28.45000
C  1.92200 38.11700 28.08700
C  2.04100 38.09200 26.67100
C  1.06800 37.09900 26.22500
C  2.69400 38.97700 29.06100
C  2.98300 38.97600 25.81300
O  3.13200 38.77200 24.60900
C  3.94400 40.06600 26.28100
N  -0.67200 34.79700 25.05000
C  -0.02300 35.73600 24.32700
C  -0.01500 35.44000 22.84500
C  -0.87000 34.10300 22.82400
C  -1.30100 33.92100 24.27700
C  -0.68200 36.58000 21.98700
C  -0.07400 32.86000 22.33000
C  -0.82400 31.73200 21.59700
N  -2.27800 33.41300 27.04500
C  -2.69600 32.65200 25.98400
C  -3.70500 31.59700 26.48600
C  -3.74400 31.77600 27.81200
C  -2.84200 32.92000 28.13700
C  -4.35500 30.43400 25.68600
C  -4.31100 31.30800 29.06100
O  -5.18200 30.45000 29.28700
C  -3.58500 32.16600 30.16800
C  -4.74800 32.84900 30.86500
O  -5.28300 33.85300 30.49000
O  -4.96800 32.23800 32.12100
C  -5.90200 32.94000 33.04900
H  1.03400 37.26200 30.59800
H  1.38000 37.21100 24.15300
H  -2.54800 32.30000 23.88000
H  -2.58200 34.77400 31.96300
H  0.27800 35.62500 32.04000
H  -2.23400 36.71700 32.80700
H  -1.79700 37.42100 31.22200
H  -0.73800 37.61700 32.60100
H  -0.16400 33.18800 32.70100
H  -1.17400 32.25500 31.80500
H  -2.49900 31.91300 33.65600
H  -2.74300 33.61600 33.86100
H  2.40700 40.00100 28.82100
H  3.75600 38.76300 28.93500
H  2.38600 38.67600 30.06200
H  4.87200 39.55300 26.53300
H  3.45900 40.55800 27.12500
H  4.05700 40.80100 25.48400
H  1.01800 35.23300 22.56800
H  -1.73700 34.17900 22.16800
H  -0.81600 36.27800 20.94900
H  0.02500 37.40900 22.02800
H  -1.65400 36.85100 22.39900
H  0.49600 32.42600 23.15100
H  0.59100 33.28700 21.57800
H  -0.59000 30.78000 22.07200
H  -0.40400 31.76700 20.59100
H  -1.89300 31.89400 21.73500
H  -5.39000 30.74500 25.54800
H  -4.30900 29.51000 26.26300
H  -3.73700 30.32300 24.79500
H  -3.05400 31.56100 30.90300
H  -6.27500 32.08000 33.60500
H  -6.72200 33.51300 32.61500
H  -5.38200 33.53800 33.79700

