158

Mg 40.62300 8.20300 28.99700
C  42.47500 9.51900 31.82400
C  38.40700 6.81700 31.07900
C  39.47300 6.28100 26.38500
C  43.33300 9.16400 26.92000
N  40.52300 8.14800 31.15700
C  41.28300 8.83700 32.14300
C  40.59800 8.72000 33.57600
C  39.43600 7.70300 33.23600
C  39.45600 7.46800 31.74900
C  39.52900 6.47400 34.05900
C  40.08900 10.12900 34.00500
C  39.89500 10.39200 35.54600
H  40.75200 11.39600 36.25300
N  39.00900 6.93700 28.68900
C  38.17800 6.49600 29.71900
C  37.13100 5.72400 29.12500
C  37.36800 5.73600 27.74800
C  38.63200 6.37900 27.50600
C  36.00600 4.98800 29.97400
C  36.55400 5.14300 26.57200
O  36.96900 5.17500 25.42800
C  35.15700 4.61900 26.87100
N  41.29300 7.77600 26.95100
C  40.70400 6.96500 26.12000
C  41.50300 6.78800 24.86000
C  42.50800 7.97600 24.86400
C  42.37800 8.38800 26.35100
C  42.25300 5.37100 24.85200
C  42.12700 9.15700 23.94200
C  41.32100 10.43800 24.46900
N  42.52900 9.16500 29.25500
C  43.45700 9.57900 28.30400
C  44.45800 10.38200 29.00400
C  44.13300 10.36900 30.38500
C  42.91800 9.65200 30.45000
C  45.69000 10.94900 28.28400
C  44.53600 10.83300 31.63500
O  45.49900 11.44600 32.02000
C  43.47500 10.29200 32.67600
C  44.05700 9.49300 33.76500
O  45.17200 8.95100 33.80800
O  43.31400 9.58300 34.90300
C  43.96500 9.10900 36.18000
H  37.71700 6.36700 31.79600
H  39.24000 5.75600 25.45600
H  44.20600 9.49600 26.35500
H  41.31200 8.32900 34.30100
H  38.48400 8.15300 33.51600
H  40.45600 6.41600 34.62900
H  39.44700 5.59100 33.42600
H  38.76100 6.52800 34.83000
H  39.13900 10.14400 33.47000
H  40.62800 10.92000 33.48400
H  39.89600 9.42000 36.04000
H  38.89600 10.82900 35.53000
H  35.04200 5.03700 29.46700
H  35.85000 5.33100 30.99700
H  36.20400 3.91700 29.99600
H  35.09500 3.88500 27.67500
H  34.67700 4.10400 26.03800
H  34.61200 5.51100 27.18000
H  40.86300 6.82600 23.97900
H  43.54700 7.71600 24.65900
H  41.78000 4.67700 25.54600
H  43.31000 5.45100 25.10400
H  42.21800 4.89200 23.87400
H  41.70000 8.87700 22.97900
H  43.14600 9.46200 23.70400
H  41.66500 11.35400 23.98700
H  41.62500 10.64600 25.49500
H  40.24600 10.41600 24.28800
H  45.52800 11.24300 27.24700
H  46.56600 10.30300 28.34400
H  45.96700 11.80200 28.90400
H  42.97300 11.15700 33.11000
H  44.25800 8.07900 35.97900
H  43.27400 9.19600 37.01900
H  44.79900 9.73300 36.50100
Mg -8.56900 41.35800 42.33900
C  -7.99300 37.86100 41.36400
C  -5.92500 42.05900 40.15500
C  -9.67000 44.51400 42.08700
C  -11.55800 40.34600 43.72300
N  -7.06600 40.08400 41.04700
C  -7.08900 38.69000 40.69900
C  -5.77000 38.18300 40.01000
C  -5.04400 39.61700 39.78100
C  -6.00100 40.68000 40.39800
C  -3.65700 39.68800 40.55600
C  -6.21600 37.43000 38.78400
C  -5.41800 36.11500 38.38900
H  -4.51300 36.44300 37.18400
N  -7.82100 42.99300 41.28900
C  -6.78700 43.08500 40.50700
C  -6.61700 44.39500 39.95800
C  -7.61600 45.16900 40.57700
C  -8.43900 44.26400 41.38800
C  -5.59400 44.85900 38.95500
C  -7.79400 46.74000 40.49600
O  -6.97500 47.34800 39.86500
C  -8.83200 47.50100 41.07400
N  -10.40800 42.32500 42.74600
C  -10.54300 43.65600 42.77100
C  -11.95200 44.05700 43.44600
C  -12.41600 42.72700 44.13600
C  -11.37900 41.71300 43.52700
C  -11.67100 45.17900 44.43900
C  -13.88800 42.42700 43.96300
C  -14.32100 41.52100 42.80900
N  -9.50600 39.49700 42.76500
C  -10.75200 39.27300 43.32200
C  -11.01800 37.83000 43.25500
C  -9.90200 37.24100 42.58900
C  -9.07400 38.28900 42.20800
C  -12.18900 37.10100 43.75200
C  -9.28400 35.97100 42.26300
O  -9.59000 34.84500 42.57600
C  -8.04300 36.28200 41.31500
C  -6.78200 35.76300 41.91900
O  -6.20700 36.27800 42.89000
O  -6.42800 34.60700 41.27600
C  -5.40800 33.77600 41.91400
H  -5.01400 42.22800 39.57600
H  -10.09300 45.51800 42.00800
H  -12.43900 39.98300 44.25600
H  -5.32500 37.57000 40.79400
H  -4.88000 39.81500 38.72200
H  -3.68600 39.06900 41.45300
H  -3.38300 40.69500 40.87000
H  -2.83000 39.49000 39.87400
H  -6.27300 38.11200 37.93600
H  -7.26500 37.13500 38.80400
H  -6.09600 35.31800 38.08300
H  -4.74000 35.82500 39.19200
H  -4.75000 45.40000 39.38200
H  -5.99300 45.62700 38.29300
H  -5.17700 44.08200 38.31300
H  -8.91400 48.49400 40.63300
H  -8.87600 47.53000 42.16300
H  -9.72600 47.07900 40.61500
H  -12.55200 44.52500 42.66600
H  -12.06700 42.78900 45.16700
H  -11.83700 46.16800 44.01200
H  -10.63500 45.16500 44.77700
H  -12.33600 45.01500 45.28600
H  -14.36100 43.37500 43.70500
H  -14.37400 42.10000 44.88300
H  -14.89700 42.20100 42.18100
H  -14.92400 40.65800 43.08900
H  -13.46300 41.18600 42.22600
H  -12.61700 36.56300 42.90600
H  -12.93100 37.71700 44.26000
H  -11.83400 36.27200 44.36400
H  -8.21600 35.87000 40.32000
H  -6.00500 33.23900 42.65100
H  -4.63300 34.28700 42.48600
H  -4.85600 33.12700 41.23400

