158

Mg 8.61000 3.04800 27.80200
C  9.97600 1.69800 30.75500
C  6.88900 5.19600 29.85000
C  6.95700 4.12300 25.17200
C  10.09900 0.54200 25.96600
N  8.47000 3.36900 30.13100
C  9.10100 2.69300 31.07200
C  8.80900 3.33600 32.46600
C  7.65400 4.35400 32.20000
C  7.69000 4.34200 30.65000
C  6.28500 3.82300 32.63300
C  10.08100 4.10900 32.94600
C  10.50200 3.81700 34.34700
H  10.74900 4.97100 35.41800
N  7.23800 4.51600 27.55300
C  6.66700 5.32700 28.47700
C  5.75300 6.31100 27.94900
C  5.79900 6.03000 26.51300
C  6.70300 4.86800 26.37800
C  5.15600 7.46000 28.78300
C  5.22100 6.73400 25.38600
O  5.35100 6.46800 24.22400
C  4.58900 8.07100 25.64500
N  8.42500 2.33400 25.88400
C  7.67100 2.92100 24.92100
C  8.00000 2.36300 23.51800
C  9.02800 1.26900 23.83400
C  9.20800 1.37300 25.31500
C  6.74600 1.92900 22.78000
C  10.24300 1.36100 22.89200
C  10.47000 0.01000 22.17200
N  9.72400 1.41300 28.20900
C  10.33000 0.55800 27.37300
C  11.25100 -0.28600 28.07500
C  11.05800 0.09800 29.41800
C  10.17300 1.17300 29.45100
C  12.10200 -1.28100 27.41800
C  11.62900 -0.11200 30.76300
O  12.52800 -0.86400 31.09300
C  10.94600 0.96200 31.71200
C  10.17300 0.27500 32.80200
O  9.29000 -0.56600 32.67300
O  10.68000 0.71900 33.92900
C  9.95100 0.23700 35.11600
H  6.19400 5.78500 30.45200
H  6.40600 4.30100 24.24700
H  10.64800 -0.14600 25.32000
H  8.52400 2.57800 33.19500
H  7.83500 5.39100 32.48600
H  5.57600 4.62200 32.84900
H  6.45400 3.11900 33.44800
H  5.83300 3.28400 31.80000
H  9.89900 5.18400 32.93200
H  10.85200 3.94500 32.19300
H  11.48800 3.35300 34.32800
H  9.86600 3.07500 34.83000
H  5.22600 8.45600 28.34600
H  5.64700 7.56800 29.75100
H  4.10400 7.26300 28.99000
H  5.27700 8.76700 26.12500
H  3.75900 7.95400 26.34200
H  4.19700 8.49000 24.71900
H  8.39300 3.23000 22.98900
H  8.51600 0.32200 23.67100
H  5.91200 1.90200 23.48100
H  6.92600 0.96900 22.29500
H  6.50400 2.70000 22.04900
H  11.10600 1.68400 23.47400
H  9.99300 2.12400 22.15500
H  10.30500 0.06900 21.09600
H  9.79200 -0.75600 22.54900
H  11.50500 -0.29400 22.32800
H  11.56300 -2.22900 27.39800
H  13.02000 -1.39200 27.99500
H  12.24100 -0.98600 26.37800
H  11.65900 1.58300 32.25400
H  10.32500 0.72900 36.01400
H  10.10900 -0.84000 35.16800
H  8.86300 0.24600 35.04800
Mg 17.27100 -1.89500 27.69100
C  16.18400 0.22600 30.29000
C  19.19200 -3.58600 29.95300
C  18.71400 -3.51900 25.05300
C  15.47100 0.15700 25.42900
N  17.68600 -1.64000 29.87600
C  17.03600 -0.79000 30.75500
C  17.36300 -1.05100 32.22100
C  18.45400 -2.22400 32.16000
C  18.44100 -2.54100 30.60000
C  19.94200 -1.97000 32.72600
C  16.22100 -1.39600 33.15500
C  16.20100 -0.57100 34.43500
H  17.53900 -0.44800 35.15700
N  18.77700 -3.35600 27.58600
C  19.41000 -3.93600 28.61900
C  20.24600 -5.04800 28.14000
C  20.12400 -4.97300 26.67100
C  19.24800 -3.88900 26.35000
C  21.19900 -5.90700 29.03500
C  20.90600 -5.85400 25.65000
O  20.74800 -5.62900 24.44600
C  21.93700 -6.92200 26.05700
N  17.29100 -1.59800 25.58500
C  17.88000 -2.41200 24.71000
C  17.46900 -2.13600 23.24400
C  16.18800 -1.18000 23.42400
C  16.29900 -0.87400 24.95600
C  18.70500 -1.55700 22.47600
C  14.81100 -1.84200 22.99800
C  13.94600 -2.55500 24.02100
N  16.02000 -0.17400 27.74400
C  15.34000 0.53500 26.74200
C  14.50100 1.52500 27.32600
C  14.85900 1.54400 28.71500
C  15.78400 0.40900 28.89000
C  13.39500 2.29200 26.70100
C  14.68400 2.13400 30.06700
O  13.96900 3.11700 30.28500
C  15.53700 1.35500 31.09000
C  16.38200 2.26100 31.89600
O  17.61900 2.31900 31.91000
O  15.58600 2.82100 32.86800
C  16.29400 3.49600 33.93500
H  19.72500 -4.28500 30.60100
H  19.06400 -4.14900 24.23200
H  14.75200 0.75000 24.86000
H  17.83400 -0.12400 32.54900
H  18.21700 -3.15700 32.66900
H  20.70000 -2.00100 31.94300
H  20.29500 -2.67500 33.47900
H  20.04300 -0.96200 33.12600
H  16.26100 -2.44500 33.44900
H  15.34300 -1.11500 32.57200
H  15.53600 -0.99900 35.18500
H  15.92300 0.42900 34.10200
H  20.84800 -6.93200 28.91000
H  21.21700 -5.73500 30.11100
H  22.23100 -5.82700 28.69300
H  22.22500 -7.63400 25.28400
H  21.48100 -7.49300 26.86700
H  22.80300 -6.41900 26.48600
H  17.25100 -3.13300 22.86100
H  16.35400 -0.19100 22.99700
H  18.31000 -0.73700 21.87700
H  19.17900 -2.25300 21.78500
H  19.44700 -1.20400 23.19200
H  14.79600 -2.49200 22.12300
H  14.35300 -1.00200 22.47600
H  14.43200 -2.77300 24.97100
H  13.58900 -3.50000 23.61300
H  13.06900 -1.96800 24.29500
H  13.73900 3.25900 26.33300
H  12.52300 2.31600 27.35400
H  12.97200 1.67200 25.91100
H  14.74000 0.95500 31.71700
H  17.08100 4.12300 33.51800
H  16.71400 2.83700 34.69500
H  15.67300 4.21300 34.47200

