158

Mg 48.08800 15.10900 28.26200
C  45.74000 15.35900 31.00700
C  49.98400 17.61800 29.89000
C  50.13600 15.13000 25.65300
C  45.58100 13.54400 26.40800
N  47.83600 16.26400 30.22700
C  46.95500 16.14600 31.26900
C  47.29400 17.03500 32.51800
C  48.23300 18.06400 31.80300
C  48.76500 17.27700 30.52300
C  47.70800 19.53100 31.59300
C  48.03900 16.14900 33.58200
C  47.28400 16.12400 34.93500
H  48.07800 15.80700 36.12000
N  49.87600 16.16000 27.86600
C  50.51700 17.06100 28.67300
C  51.80000 17.33900 28.10300
C  51.89700 16.59200 26.90900
C  50.62600 15.88800 26.77000
C  52.81700 18.21200 28.79400
C  53.02800 16.53100 25.88100
O  52.93200 15.91900 24.80100
C  54.32000 17.30900 26.13700
N  47.78800 14.67100 26.23000
C  48.89800 14.52600 25.46200
C  48.50200 13.71900 24.21100
C  47.01000 13.43400 24.28400
C  46.77200 13.85000 25.73300
C  48.97100 14.24300 22.81500
C  46.51500 12.00900 23.87300
C  45.55100 11.96000 22.66200
N  46.12500 14.44000 28.66300
C  45.23700 13.79800 27.77900
C  44.10200 13.43300 28.49100
C  44.21000 14.12500 29.70900
C  45.49500 14.68000 29.78400
C  43.00900 12.68500 27.96300
C  43.51800 14.46400 30.90600
O  42.35600 14.16900 31.15400
C  44.55100 15.01100 31.92500
C  43.98400 16.28600 32.62400
O  43.45300 17.26300 32.09300
O  44.14600 16.16500 33.96800
C  43.73200 17.29200 34.79400
H  50.67200 18.30200 30.39000
H  50.84300 14.84700 24.87000
H  44.75800 13.10500 25.84000
H  46.33300 17.42400 32.85500
H  49.04400 18.20900 32.51700
H  48.35900 20.22900 32.11900
H  46.71100 19.51800 32.03300
H  47.86000 19.85600 30.56300
H  49.12300 16.22700 33.65400
H  47.93500 15.14400 33.17100
H  46.61000 15.27700 34.80400
H  46.66500 16.97200 35.22700
H  52.43100 18.75900 29.65400
H  53.21400 18.93600 28.08300
H  53.58400 17.53700 29.17200
H  54.86100 16.88700 26.98400
H  54.17600 18.38800 26.07100
H  54.91900 17.10200 25.25000
H  48.99800 12.74900 24.23400
H  46.40600 14.11800 23.68700
H  49.61300 15.12100 22.89100
H  48.11000 14.71900 22.34600
H  49.30600 13.43000 22.17000
H  46.09200 11.46400 24.71800
H  47.36800 11.37800 23.62300
H  46.06000 11.69700 21.73500
H  45.00000 12.89100 22.53000
H  44.76600 11.21300 22.77100
H  43.36000 11.96200 27.22700
H  42.43200 13.35000 27.32100
H  42.38000 12.23600 28.73100
H  44.86900 14.20500 32.58600
H  44.30400 18.16600 34.48100
H  43.85700 17.08000 35.85500
H  42.64900 17.40300 34.84500
Mg 46.84200 24.91600 28.83600
C  47.32200 27.14600 31.38300
C  45.61500 22.54800 30.93900
C  46.88400 22.68000 26.34200
C  47.88600 27.41900 26.71100
N  46.47600 24.93700 30.88000
C  46.84600 25.85700 31.76800
C  46.44600 25.41200 33.16300
C  46.09200 23.98800 33.01400
C  45.98600 23.80800 31.45800
C  46.96700 22.92000 33.70900
C  45.39300 26.31700 33.81800
C  45.85200 26.95100 35.15000
H  44.87700 27.10300 36.31800
N  46.31000 22.86000 28.65200
C  45.64900 22.08400 29.64800
C  45.28300 20.75700 29.19300
C  45.71900 20.83500 27.77700
C  46.26100 22.16000 27.46800
C  44.74000 19.64700 30.12100
C  45.52600 19.77000 26.67600
O  45.84000 19.98400 25.55400
C  44.80600 18.42100 27.07400
N  47.53000 24.95900 26.85900
C  47.39100 23.94800 26.00500
C  48.01500 24.29800 24.63800
C  47.77900 25.83300 24.63700
C  47.60400 26.14300 26.13700
C  49.46100 23.89500 24.47800
C  46.57700 26.43400 23.82900
C  45.24400 26.59000 24.57400
N  47.60400 26.91900 28.99100
C  47.85000 27.83900 28.00800
C  48.28900 29.04300 28.65000
C  47.99900 28.88500 29.96300
C  47.61200 27.61900 30.09000
C  48.81900 30.29300 27.99300
C  47.98000 29.48400 31.31500
O  48.24200 30.61300 31.74000
C  47.72700 28.26700 32.33500
C  49.00700 28.06000 33.03900
O  50.05100 27.69900 32.51500
O  48.84900 28.36700 34.35500
C  49.97200 28.25600 35.25400
H  45.24200 21.94800 31.77200
H  46.94200 22.06700 25.44000
H  48.08300 28.24700 26.02700
H  47.31300 25.53400 33.81200
H  45.06900 23.81100 33.34500
H  47.17400 22.02100 33.12800
H  46.26800 22.72100 34.52100
H  47.90900 23.40600 33.96400
H  44.42300 25.85200 33.99500
H  45.19900 27.14100 33.13200
H  46.30200 27.91600 34.91700
H  46.62100 26.29000 35.54800
H  44.48500 20.13900 31.05900
H  45.45200 18.84900 30.33300
H  43.80900 19.31800 29.66000
H  43.99500 18.66400 27.76100
H  45.42900 17.84300 27.75700
H  44.40000 17.85200 26.23700
H  47.47300 23.93400 23.76400
H  48.63900 26.33700 24.19600
H  50.06100 24.80200 24.55600
H  49.76900 23.45800 23.52800
H  49.74600 23.19700 25.26600
H  46.35100 25.74800 23.01300
H  46.92800 27.44200 23.60600
H  45.23800 27.48400 25.19700
H  45.03400 25.77600 25.26700
H  44.39700 26.63400 23.89000
H  48.28100 31.10600 28.48000
H  48.71200 30.25200 26.90900
H  49.89700 30.29400 28.15800
H  46.97500 28.48000 33.09500
H  50.19700 29.22200 35.70700
H  50.89100 27.83500 34.84800
H  49.75000 27.61000 36.10300

