158

Mg -1.02900 34.50100 26.78700
C  -2.87600 32.78300 29.24800
C  0.54100 36.32800 29.42400
C  0.22500 36.57100 24.60000
C  -2.78400 32.87900 24.28100
N  -1.30900 34.66400 29.10500
C  -2.06200 33.81400 29.87400
C  -1.84400 34.07800 31.38800
C  -0.86300 35.27700 31.32100
C  -0.48200 35.43500 29.88200
C  -1.36000 36.53400 31.98700
C  -1.25700 32.76900 32.09800
C  -1.94300 32.29800 33.34700
H  -1.10800 32.17400 34.58300
N  0.47300 36.01900 27.01500
C  0.96000 36.68800 28.14800
C  1.97800 37.65900 27.67100
C  1.89800 37.69500 26.27900
C  0.83700 36.69000 25.92000
C  2.82100 38.50700 28.60200
C  2.80100 38.51000 25.37700
O  2.57300 38.53900 24.19400
C  3.93700 39.37100 25.86700
N  -1.12800 34.60200 24.70300
C  -0.58400 35.57400 24.02500
C  -0.97400 35.58200 22.56400
C  -1.80900 34.26800 22.42500
C  -1.91400 33.89900 23.87500
C  -1.51800 36.94700 21.96200
C  -1.28000 33.05400 21.65300
C  -0.94100 33.11200 20.18000
N  -2.49800 33.14900 26.72000
C  -3.03600 32.49400 25.65200
C  -4.02700 31.47100 26.07300
C  -3.92000 31.55200 27.49200
C  -2.97000 32.52000 27.80300
C  -5.02300 30.68000 25.37000
C  -4.51500 31.04600 28.76700
O  -5.37900 30.28100 29.05000
C  -3.74500 31.83800 29.93500
C  -4.78800 32.47600 30.85800
O  -5.44800 33.45000 30.47900
O  -4.84800 31.84700 32.15200
C  -5.87700 32.48400 33.04200
H  1.18400 36.64100 30.25000
H  0.52500 37.30200 23.84600
H  -3.43200 32.43600 23.52200
H  -2.80900 34.37100 31.80300
H  0.10000 34.97600 31.73500
H  -1.97800 36.25400 32.84000
H  -1.92400 37.10800 31.25200
H  -0.57100 37.15700 32.40800
H  -0.25300 32.97400 32.46800
H  -1.18900 31.94500 31.38900
H  -2.30300 31.27300 33.25100
H  -2.86000 32.83800 33.58500
H  3.85000 38.25200 28.34800
H  2.46500 38.37000 29.62300
H  2.65600 39.56400 28.39100
H  4.66200 38.79200 26.43800
H  3.63300 40.17600 26.53600
H  4.47000 39.84000 25.04000
H  -0.10200 35.22400 22.01700
H  -2.70900 34.72500 22.01300
H  -1.48100 37.71600 22.73300
H  -2.58000 36.78600 21.77300
H  -1.10600 37.23600 20.99500
H  -1.85000 32.13900 21.81200
H  -0.34500 32.80500 22.15500
H  0.12800 33.25400 20.01600
H  -1.44400 33.88700 19.60200
H  -1.27000 32.17000 19.74100
H  -5.08700 30.95400 24.31700
H  -5.97100 30.76300 25.90000
H  -4.60800 29.67200 25.33500
H  -3.12400 31.20700 30.57100
H  -5.24800 32.90800 33.82400
H  -6.59400 31.80200 33.49900
H  -6.45300 33.24800 32.52000
Mg -11.89900 17.33100 39.63400
C  -8.57000 15.89200 39.60700
C  -10.42100 20.44400 39.13700
C  -14.85500 18.56400 38.74900
C  -13.04300 14.06800 39.45900
N  -9.69600 18.04100 39.41100
C  -8.54400 17.33900 39.49700
C  -7.35100 18.26200 39.49200
C  -8.00600 19.65700 39.67600
C  -9.52700 19.39100 39.46800
C  -7.76300 20.38700 41.03700
C  -6.60700 18.08700 38.08900
C  -5.17400 17.57200 38.18400
H  -4.92000 16.28900 37.50500
N  -12.68800 19.23200 39.19000
C  -11.85800 20.39300 39.00400
C  -12.68000 21.55100 38.80600
C  -14.01600 21.03100 38.53000
C  -13.90800 19.57800 38.78700
C  -12.14700 22.94600 38.87000
C  -15.28200 21.73900 38.07100
O  -15.25000 22.98900 37.98700
C  -16.58600 21.07200 37.86100
N  -13.70900 16.41100 39.10300
C  -14.80100 17.16400 38.92800
C  -16.06400 16.33500 39.20000
C  -15.47900 14.83700 39.10700
C  -13.99600 15.08400 39.24900
C  -16.72000 16.64100 40.56700
C  -15.70300 14.03400 37.79400
C  -17.12000 13.46700 37.63300
N  -11.07000 15.38600 39.59500
C  -11.67100 14.15300 39.61400
C  -10.77400 13.12300 39.90900
C  -9.52200 13.71700 39.89200
C  -9.78600 15.12600 39.66300
C  -11.16600 11.63100 40.10300
C  -8.10000 13.50400 39.95000
O  -7.37500 12.52000 40.20300
C  -7.47300 14.87200 39.73100
C  -6.68000 15.20100 40.91100
O  -7.15400 15.82200 41.87100
O  -5.38600 14.81400 40.75000
C  -4.45000 15.16900 41.83600
H  -9.90500 21.40500 39.06800
H  -15.88800 18.91900 38.76000
H  -13.45800 13.06300 39.55800
H  -6.66600 17.99200 40.29600
H  -7.62400 20.27500 38.86300
H  -7.74500 19.60200 41.79200
H  -8.54100 21.11700 41.26100
H  -6.81400 20.92300 41.01500
H  -6.45400 19.05200 37.60600
H  -7.27000 17.52500 37.43200
H  -4.98400 17.43300 39.24800
H  -4.49000 18.38300 37.93400
H  -11.93100 23.25500 37.84700
H  -11.31700 22.93600 39.57700
H  -12.97800 23.50500 39.30100
H  -16.38800 20.29600 37.12200
H  -17.36000 21.70400 37.42600
H  -16.96600 20.67500 38.80200
H  -16.75700 16.55800 38.38800
H  -15.93200 14.27100 39.92100
H  -15.91300 16.70500 41.29800
H  -17.39600 15.80400 40.74200
H  -17.18100 17.62200 40.68300
H  -14.81900 13.43200 37.58500
H  -15.71700 14.72700 36.95200
H  -17.60000 13.35300 38.60500
H  -16.82900 12.48800 37.25300
H  -17.75000 14.05400 36.96400
H  -10.61600 11.12600 39.30800
H  -12.23100 11.57500 39.87700
H  -11.02700 11.16000 41.07600
H  -6.77200 15.03700 38.91200
H  -3.44300 14.92000 41.49900
H  -4.73600 14.72800 42.79100
H  -4.43200 16.25700 41.89600

