158

Mg 44.09200 4.19300 46.93300
C  42.10200 7.08700 46.78000
C  41.33400 2.25400 46.95800
C  46.12300 1.71000 46.67500
C  46.98500 6.47100 46.85500
N  41.95800 4.73200 46.84700
C  41.35200 5.94900 46.79400
C  39.79900 5.79900 46.88300
C  39.63300 4.25100 46.99200
C  41.08300 3.68700 46.84400
C  38.99800 3.88000 48.31000
C  38.98200 6.48100 45.80800
C  39.53200 6.30300 44.33800
H  38.52200 6.03700 43.18400
N  43.75900 2.22100 46.77000
C  42.58900 1.58900 46.82900
C  42.76600 0.19300 46.62500
C  44.17000 -0.10900 46.55800
C  44.77800 1.27400 46.72000
C  41.66600 -0.79800 46.45100
C  44.79200 -1.45800 46.41700
O  44.04600 -2.41300 46.18900
C  46.31000 -1.78300 46.44100
N  46.32000 4.15200 46.57000
C  46.80200 2.90700 46.67500
C  48.39900 2.98000 46.73700
C  48.69400 4.54300 46.75000
C  47.30800 5.11700 46.71300
C  49.15400 2.08000 47.80000
C  49.46400 5.04300 45.49100
C  51.02800 4.86400 45.48900
N  44.52800 6.36300 46.71200
C  45.69400 7.07400 46.77000
C  45.42000 8.50600 46.81800
C  43.99300 8.55300 46.85600
C  43.49000 7.24200 46.76200
C  46.40700 9.57800 46.89500
C  42.83400 9.42500 46.83200
O  42.81600 10.64100 46.67300
C  41.55800 8.54100 46.82000
C  40.77400 8.83600 48.12500
O  40.92500 8.19500 49.16600
O  39.96900 9.91900 48.06300
C  39.09400 10.00300 49.24200
H  40.40700 1.68000 46.91500
H  46.82200 0.87000 46.67600
H  47.91700 6.99100 47.08800
H  39.43800 6.16900 47.84200
H  39.01100 3.81800 46.20900
H  38.30100 4.63600 48.67000
H  39.73200 3.61100 49.07000
H  38.53700 2.91400 48.10700
H  38.69700 7.50200 46.06200
H  38.07100 5.88500 45.76700
H  40.28400 5.52400 44.21500
H  40.02400 7.25300 44.13000
H  41.85800 -1.55500 45.69000
H  40.71500 -0.26500 46.45700
H  41.63500 -1.42300 47.34300
H  46.83100 -1.21000 45.67400
H  46.51100 -2.84200 46.27400
H  46.60600 -1.65200 47.48200
H  48.63600 2.47400 45.80100
H  49.32300 4.81900 47.59700
H  48.29800 1.77400 48.40200
H  49.85600 2.72000 48.33300
H  49.55600 1.18500 47.32500
H  49.19500 6.05600 45.19100
H  49.09600 4.37300 44.71400
H  51.34500 4.19500 44.68900
H  51.31700 4.45700 46.45800
H  51.52900 5.81300 45.29800
H  47.40100 9.19300 46.66800
H  46.51800 9.88200 47.93600
H  46.16500 10.43000 46.26000
H  40.97800 8.79500 45.93300
H  39.59000 10.63100 49.98200
H  38.69200 9.18500 49.84000
H  38.20100 10.46300 48.81700
Mg 42.46800 41.20900 26.80600
C  41.35100 43.67400 29.06400
C  43.46600 39.41500 29.41300
C  43.26700 38.81900 24.52900
C  41.61900 43.35600 24.17400
N  42.44900 41.55400 28.92500
C  41.91200 42.57800 29.71200
C  42.01100 42.38300 31.20100
C  42.93400 41.10600 31.23100
C  43.05900 40.71400 29.70600
C  44.37700 41.45000 31.77600
C  40.62300 42.24900 31.91500
C  40.45500 42.99900 33.23900
H  39.91200 42.10800 34.46300
N  43.39200 39.46200 26.98000
C  43.67800 38.81500 28.12400
C  44.11900 37.48000 27.79400
C  44.14500 37.32600 26.40300
C  43.55700 38.56800 25.90000
C  44.51400 36.47600 28.86300
C  44.59700 36.16500 25.56000
O  44.36600 36.11100 24.37200
C  45.37600 35.12900 26.22000
N  42.52900 41.19700 24.62200
C  42.82200 40.05500 23.93000
C  42.52900 40.16900 22.44000
C  41.98200 41.70800 22.28800
C  42.03100 42.12000 23.76400
C  43.72300 40.02900 21.46800
C  40.55000 41.77600 21.57800
C  39.35100 41.39700 22.38900
N  41.70100 43.19100 26.63200
C  41.44600 43.90200 25.51800
C  40.94000 45.18200 25.86500
C  40.79400 45.17500 27.25600
C  41.31300 43.91500 27.70300
C  40.46100 46.28300 24.89700
C  40.40300 45.89500 28.45400
O  39.87600 47.01400 28.56500
C  40.72400 44.95600 29.61400
C  41.58500 45.70300 30.53300
O  42.76400 45.87500 30.28600
O  40.80100 46.17500 31.52900
C  41.47700 46.98500 32.54300
H  43.82000 38.76100 30.21200
H  43.41300 38.05500 23.76200
H  41.36400 43.87500 23.24800
H  42.44500 43.23400 31.72600
H  42.63700 40.25200 31.83900
H  44.35100 42.52900 31.92900
H  45.17800 41.14700 31.10200
H  44.56700 40.96100 32.73200
H  40.49300 41.22600 32.26800
H  39.79100 42.62900 31.32200
H  39.66500 43.71700 33.02300
H  41.34700 43.60200 33.41000
H  44.13200 36.75400 29.84500
H  45.59400 36.37000 28.95900
H  44.02300 35.51700 28.69600
H  44.77700 34.48200 26.86000
H  46.17500 35.64100 26.75600
H  45.82800 34.47100 25.47700
H  41.82700 39.35200 22.27100
H  42.62000 42.40300 21.74100
H  43.79000 40.92100 20.84400
H  43.70900 39.12000 20.86600
H  44.64100 39.92800 22.04600
H  40.53100 41.10100 20.72200
H  40.30900 42.79600 21.28100
H  38.79200 40.69800 21.76700
H  38.65500 42.23300 22.46300
H  39.52900 41.06200 23.41100
H  39.79700 47.00600 25.37100
H  39.99200 45.80300 24.03900
H  41.38600 46.77900 24.60100
H  39.83900 44.69200 30.19200
H  42.54300 46.84000 32.71800
H  40.85200 46.81200 33.41800
H  41.54500 48.06200 32.39200

