158

Mg 1.45000 -1.86200 45.40800
C  4.87300 -0.86000 44.88400
C  0.50000 0.76200 43.45500
C  -1.55600 -3.16300 45.48500
C  2.76300 -4.84800 46.74200
N  2.63700 -0.11900 44.36800
C  3.99300 -0.00200 44.21800
C  4.30000 1.25700 43.36100
C  2.85300 1.92000 43.21800
C  1.93800 0.77600 43.59500
C  2.72900 3.21700 44.07700
C  4.96500 0.81500 41.97400
C  6.45200 1.17200 41.66400
H  6.60100 1.61400 40.21400
N  -0.27500 -1.29100 44.54500
C  -0.49300 -0.13100 43.89000
C  -1.88600 0.01000 43.57000
C  -2.54000 -1.02000 44.28800
C  -1.47200 -1.87800 44.87000
C  -2.36400 1.26100 42.90500
C  -3.99200 -1.17800 44.32600
O  -4.76800 -0.45300 43.67600
C  -4.67800 -2.06400 45.24400
N  0.78700 -3.89200 45.63200
C  -0.56300 -4.08800 45.83000
C  -0.90200 -5.43200 46.52900
C  0.48300 -6.05900 46.71000
C  1.43100 -4.84100 46.29900
C  -1.73300 -5.31000 47.84800
C  0.81200 -7.30000 45.82100
C  1.51600 -8.45200 46.59600
N  3.42400 -2.69300 45.94400
C  3.72300 -3.92000 46.48400
C  5.19800 -3.96700 46.77600
C  5.67200 -2.77800 46.09300
C  4.55000 -2.03400 45.60000
C  6.03300 -5.07500 47.44400
C  6.81300 -2.15100 45.61800
O  8.02400 -2.45600 45.64400
C  6.41200 -0.84100 44.88600
C  6.83600 0.38600 45.67300
O  6.86400 0.52100 46.83100
O  7.22400 1.35300 44.75000
C  7.70500 2.62100 45.23900
H  0.25200 1.64900 42.86700
H  -2.55900 -3.55300 45.67000
H  3.10100 -5.74400 47.26800
H  4.97200 1.88800 43.94200
H  2.67200 2.28700 42.20700
H  3.72700 3.57200 44.33400
H  2.03700 3.18200 44.91900
H  2.21100 3.90500 43.40800
H  4.42700 1.16500 41.09200
H  4.88600 -0.26900 41.90200
H  6.96500 0.22000 41.80000
H  6.97400 1.94500 42.22900
H  -2.56300 1.96100 43.71700
H  -3.28700 1.08600 42.35400
H  -1.61500 1.59200 42.18500
H  -3.99700 -1.99400 46.09300
H  -4.74700 -3.06400 44.81600
H  -5.64400 -1.61600 45.47300
H  -1.46300 -6.01400 45.79800
H  0.56700 -6.26100 47.77800
H  -2.79300 -5.23000 47.60500
H  -1.45200 -4.44800 48.45400
H  -1.70800 -6.23200 48.42900
H  1.47400 -6.90900 45.04800
H  -0.11500 -7.65700 45.37000
H  0.98500 -9.38800 46.41900
H  1.55600 -8.36900 47.68200
H  2.51600 -8.45900 46.16400
H  6.19400 -5.90400 46.75500
H  5.56200 -5.49400 48.33300
H  7.08000 -4.85900 47.65400
H  6.87100 -0.90800 43.89900
H  8.15200 2.61700 46.23300
H  6.80900 3.24200 45.23600
H  8.29800 3.00500 44.40900
Mg 0.27000 42.23300 25.12300
C  2.00700 42.47300 28.16100
C  -2.55200 41.30700 27.07700
C  -1.50200 41.87300 22.42800
C  3.19100 42.67600 23.43500
N  -0.17600 41.83100 27.34100
C  0.64200 42.21200 28.38200
C  -0.08900 42.11800 29.72700
C  -1.42600 41.51600 29.33300
C  -1.41000 41.58200 27.81200
C  -1.72900 40.05100 29.92300
C  -0.14700 43.60300 30.40100
C  0.42600 43.68500 31.85800
H  -0.68100 44.04500 32.87800
N  -1.76500 41.65000 24.72500
C  -2.69800 41.22000 25.68600
C  -3.91100 40.96100 24.98300
C  -3.65000 41.12400 23.62500
C  -2.27600 41.58200 23.53800
C  -5.13800 40.49200 25.62900
C  -4.50400 40.88400 22.41300
O  -4.16500 40.94500 21.24100
C  -5.99100 40.56200 22.66000
N  0.90700 41.94800 23.16700
C  -0.09700 41.93900 22.23200
C  0.54100 42.11300 20.77200
C  2.04000 42.40300 21.07600
C  2.06400 42.44000 22.65000
C  0.15300 40.93500 19.73300
C  2.57200 43.56700 20.24600
C  2.32800 44.99400 20.74800
N  2.25800 42.42200 25.66200
C  3.33200 42.68100 24.81800
C  4.51100 42.84500 25.69700
C  4.03500 42.70900 27.00600
C  2.61900 42.48200 26.93000
C  5.87600 43.23800 25.24800
C  4.46900 42.75500 28.37000
O  5.59100 42.79500 28.80400
C  3.10800 42.60100 29.19400
C  3.28000 41.49900 30.18700
O  3.18600 40.25800 30.08000
O  3.52300 42.08700 31.39500
C  3.51700 41.21100 32.59000
H  -3.50100 41.10300 27.57600
H  -2.01100 41.91300 21.46300
H  4.17700 42.82600 22.99000
H  0.37700 41.40700 30.40900
H  -2.28600 42.12200 29.61900
H  -0.90000 39.75300 30.56500
H  -1.76800 39.24400 29.19000
H  -2.65200 39.94400 30.49300
H  -1.18400 43.92600 30.49600
H  0.45900 44.34000 29.87500
H  1.24400 44.39100 32.00100
H  0.84000 42.70900 32.11200
H  -5.53800 39.60400 25.13900
H  -5.75300 41.39200 25.63400
H  -4.97200 40.20500 26.66800
H  -6.21000 39.61700 23.15600
H  -6.54400 40.52500 21.72100
H  -6.42500 41.27000 23.36500
H  0.17500 43.03400 20.31900
H  2.67500 41.53700 20.89000
H  -0.79100 40.58800 20.15300
H  0.86600 40.11000 19.71400
H  0.08900 41.33500 18.72100
H  2.17800 43.49200 19.23200
H  3.63900 43.35200 20.20500
H  1.53500 45.07200 21.49100
H  2.12700 45.60600 19.86800
H  3.17000 45.33900 21.34900
H  5.67900 44.16000 24.70100
H  6.25900 42.48200 24.56300
H  6.64500 43.38900 26.00500
H  2.98900 43.56200 29.69600
H  4.54500 40.87200 32.71800
H  2.80200 40.39100 32.51600
H  3.18400 41.76200 33.47000

