158

Mg 35.98700 49.98300 25.25800
C  35.91000 48.08800 28.21700
C  34.89600 52.61700 27.03800
C  35.72100 51.55100 22.31300
C  37.00100 47.01200 23.68400
N  35.29700 50.23800 27.37000
C  35.36400 49.35700 28.38600
C  34.91600 50.04500 29.72100
C  34.38000 51.43700 29.19500
C  35.04200 51.43100 27.75700
C  32.85700 51.61900 29.27300
C  36.17000 50.23300 30.69300
C  36.11200 49.56700 32.07500
H  34.82400 49.31400 32.80700
N  35.31800 51.81800 24.75300
C  34.95300 52.79400 25.60000
C  34.58800 54.03300 24.92400
C  34.95600 53.74500 23.57200
C  35.33600 52.29600 23.43900
C  34.12600 55.28700 25.57800
C  34.93100 54.69700 22.40100
O  35.40200 54.39900 21.30000
C  34.39100 56.07000 22.65900
N  36.28100 49.35600 23.28200
C  36.07700 50.26300 22.22500
C  36.45400 49.59000 20.95700
C  36.74700 48.14600 21.32700
C  36.73400 48.14900 22.87200
C  35.56700 49.74400 19.75300
C  38.12400 47.50400 20.81300
C  39.36700 47.95200 21.70700
N  36.38600 47.94600 25.80100
C  36.81300 46.88100 25.03200
C  36.97500 45.73900 25.85500
C  36.64400 46.19500 27.08100
C  36.37100 47.56800 27.01400
C  37.27500 44.36700 25.44800
C  36.44600 45.73900 28.44300
O  36.65500 44.66100 28.93100
C  36.02400 46.96100 29.25000
C  34.65000 46.50100 29.89300
O  33.51100 46.74300 29.51000
O  34.92000 45.77200 31.01200
C  33.67900 45.36600 31.79700
H  34.51100 53.39200 27.70400
H  35.67000 51.97300 21.30700
H  37.35200 46.10900 23.18100
H  34.13800 49.42800 30.17200
H  34.87500 52.24900 29.72700
H  32.32800 50.74100 29.64500
H  32.53300 51.89200 28.26900
H  32.53200 52.39200 29.96900
H  36.52300 51.26100 30.77000
H  36.97000 49.60800 30.29600
H  36.74000 50.10500 32.78500
H  36.57300 48.59600 31.89300
H  33.36000 55.82800 25.02200
H  35.00300 55.92500 25.68600
H  33.69800 55.11100 26.56500
H  34.90600 56.73100 23.35700
H  33.35100 55.85900 22.91200
H  34.38900 56.53700 21.67500
H  37.41500 50.08500 20.81900
H  35.91000 47.49700 21.06900
H  34.62400 50.16900 20.09700
H  35.36400 48.77700 19.29300
H  36.02600 50.48100 19.09400
H  38.32500 47.75200 19.77100
H  37.89100 46.44200 20.89100
H  39.76800 47.01600 22.09600
H  39.22400 48.57300 22.59200
H  40.08800 48.45300 21.06100
H  37.62300 44.21800 24.42500
H  36.47500 43.65500 25.65100
H  38.07300 43.93300 26.05000
H  36.82400 47.10500 29.97700
H  34.07400 44.84100 32.66700
H  33.05300 44.69600 31.20800
H  33.04100 46.20000 32.09000
Mg 26.41800 50.77400 26.41700
C  24.03400 51.72500 28.97700
C  28.44200 49.72000 29.04600
C  28.80800 50.24600 24.21500
C  24.37200 52.29900 24.16700
N  26.18700 50.62500 28.69900
C  25.11600 51.06200 29.54100
C  25.43500 50.80700 31.07100
C  26.91300 50.22100 31.04900
C  27.17700 50.07300 29.54700
C  27.89500 51.17100 31.83500
C  24.45300 49.82300 31.68800
C  24.04700 50.07000 33.20700
H  24.99000 50.75800 34.22800
N  28.38200 50.12400 26.56300
C  28.96900 49.67600 27.71300
C  30.22900 48.99700 27.38200
C  30.43900 49.33600 26.01400
C  29.18100 49.94200 25.54000
C  31.04800 48.16900 28.34500
C  31.70900 49.09300 25.14100
O  31.86800 49.43800 24.00200
C  32.90200 48.36600 25.81700
N  26.56200 51.35700 24.53900
C  27.57300 50.80600 23.76100
C  27.24500 51.02500 22.26000
C  25.71400 51.38600 22.26900
C  25.53600 51.72000 23.72300
C  28.09500 52.15600 21.59700
C  24.65900 50.36800 21.86200
C  23.58600 50.65900 20.82000
N  24.58800 51.80000 26.48000
C  23.89400 52.31700 25.48400
C  22.61000 52.91600 25.91700
C  22.61300 52.67100 27.30200
C  23.84900 51.97800 27.59100
C  21.54900 53.62000 25.05000
C  21.90700 52.91000 28.50700
O  20.86800 53.51000 28.69800
C  22.81000 52.32300 29.62400
C  23.27800 53.50100 30.45800
O  24.10700 54.32600 30.13600
O  22.75300 53.35500 31.76900
C  23.00200 54.55000 32.61100
H  29.05100 49.35500 29.87600
H  29.40600 49.97000 23.34400
H  23.61200 52.53700 23.41900
H  25.36200 51.80600 31.50200
H  26.95300 49.25700 31.55500
H  28.76100 51.50200 31.26200
H  28.13100 50.54200 32.69300
H  27.36500 52.02600 32.25400
H  24.83100 48.80400 31.76200
H  23.59100 49.73900 31.02700
H  23.70800 49.11700 33.61300
H  23.14100 50.67500 33.16700
H  30.63700 48.23400 29.35200
H  32.04600 48.59800 28.43400
H  31.12200 47.13300 28.01600
H  33.75600 48.31800 25.14100
H  32.69600 47.30900 25.98400
H  33.20900 48.85900 26.73900
H  27.34600 50.11400 21.66900
H  25.52500 52.34300 21.78300
H  28.98700 52.38100 22.18000
H  27.53500 53.09000 21.53700
H  28.40400 51.84100 20.60000
H  24.14000 49.90700 22.70200
H  25.32300 49.58200 21.50200
H  23.77600 50.26200 19.82300
H  23.46200 51.74100 20.79900
H  22.73200 50.08200 21.17800
H  20.64100 53.04900 25.24500
H  21.90400 53.73300 24.02500
H  21.44300 54.65600 25.37100
H  22.28400 51.59300 30.23900
H  23.10900 55.47000 32.03500
H  23.84100 54.43300 33.29800
H  22.08100 54.62200 33.19000

