158

Mg 44.32000 3.77800 47.17500
C  42.48000 6.81500 47.44100
C  41.36100 2.06300 46.61400
C  46.11400 1.15900 46.33900
C  47.32700 5.82500 47.08800
N  42.19300 4.46600 47.20600
C  41.71700 5.68100 47.46900
C  40.18000 5.55200 47.53400
C  39.90400 4.05100 47.27200
C  41.23200 3.47400 47.05100
C  39.26900 3.24600 48.47700
C  39.46200 6.54600 46.50400
C  39.99700 6.57000 45.05800
H  39.12800 6.06100 43.85100
N  43.84600 1.76000 46.65700
C  42.57500 1.27200 46.55500
C  42.70100 -0.10500 45.98400
C  44.10800 -0.42800 45.92000
C  44.74700 0.82600 46.33500
C  41.47800 -0.98200 45.75500
C  44.76000 -1.67800 45.39300
O  43.96100 -2.57800 45.09200
C  46.29500 -1.94100 45.35700
N  46.36200 3.59100 46.63100
C  46.85200 2.31100 46.56000
C  48.39500 2.33500 46.36400
C  48.68700 3.86900 46.54700
C  47.36500 4.48100 46.80400
C  49.19900 1.30000 47.23600
C  49.57900 4.54700 45.47600
C  51.00400 4.92900 45.85200
N  44.84300 5.89800 47.21600
C  46.07500 6.54700 47.19500
C  45.87800 7.91900 47.14600
C  44.44000 8.09700 47.34800
C  43.90200 6.87600 47.30400
C  46.93500 9.01000 47.30700
C  43.45700 9.05700 47.54700
O  43.48200 10.30300 47.56200
C  42.13500 8.31900 47.57500
C  41.37100 8.48700 48.84000
O  41.39700 7.77000 49.84600
O  40.52800 9.59900 48.75600
C  39.74500 9.90400 49.94300
H  40.40100 1.63800 46.31300
H  46.86700 0.42300 46.04900
H  48.28300 6.34600 47.17600
H  40.06300 5.73900 48.60100
H  39.29900 3.94100 46.37200
H  38.62800 2.40300 48.22200
H  38.63500 3.96400 48.99700
H  40.06500 2.81400 49.08400
H  39.55000 7.56800 46.87200
H  38.39600 6.32400 46.46100
H  40.87700 5.94600 44.90000
H  40.40600 7.57800 44.98800
H  41.51500 -1.83600 46.43100
H  41.43000 -1.28500 44.71000
H  40.58000 -0.42700 46.02800
H  46.82200 -1.78100 46.29800
H  46.73700 -1.33700 44.56500
H  46.42600 -2.96900 45.01800
H  48.60600 2.02800 45.33900
H  49.20500 3.95000 47.50300
H  48.58900 0.65600 47.86900
H  50.02600 1.76700 47.77200
H  49.69200 0.76000 46.42800
H  48.98100 5.37700 45.10100
H  49.71600 3.83300 44.66300
H  51.61200 4.56700 45.02300
H  51.40100 4.44300 46.74300
H  51.05800 6.01700 45.84400
H  47.77300 8.75900 46.65600
H  47.45200 8.95300 48.26500
H  46.61600 10.01000 47.01300
H  41.64400 8.51900 46.62300
H  40.17300 10.78900 50.41400
H  39.51600 9.07300 50.61000
H  38.74300 10.18100 49.61500
Mg 40.85300 9.48200 29.96700
C  42.65200 10.88900 32.60500
C  38.72500 8.03500 32.26200
C  39.45100 7.81200 27.45500
C  43.45200 10.50800 27.69000
N  40.77000 9.55100 32.20600
C  41.57600 10.12300 33.11500
C  41.24800 9.82700 34.56800
C  39.99400 8.81800 34.48000
C  39.80800 8.72600 32.88400
C  40.25800 7.39300 35.11000
C  40.92000 11.11700 35.31000
C  41.55500 11.38600 36.68800
H  40.73500 12.06200 37.66100
N  39.19200 8.35500 29.87000
C  38.42700 7.82900 30.88800
C  37.27300 7.30700 30.31500
C  37.37500 7.36200 28.88300
C  38.72800 7.87000 28.67600
C  36.20100 6.70700 31.20300
C  36.45500 7.02000 27.84900
O  36.63500 7.20600 26.63900
C  35.17200 6.49200 28.32200
N  41.44600 9.12900 27.87200
C  40.61600 8.38200 27.07300
C  41.21200 8.36400 25.63800
C  42.36500 9.47900 25.66900
C  42.43800 9.71700 27.12600
C  41.54400 6.93300 25.08600
C  42.09000 10.72100 24.78400
C  41.68300 12.08400 25.42400
N  42.69300 10.34200 30.06000
C  43.62200 10.75100 29.11500
C  44.69100 11.40100 29.77200
C  44.26000 11.58100 31.06200
C  43.12300 10.91500 31.28200
C  45.87700 11.98600 29.07800
C  44.62800 12.22600 32.28800
O  45.57300 12.97300 32.58700
C  43.58700 11.67300 33.38500
C  44.32300 10.97300 34.41900
O  44.75000 9.82300 34.54100
O  44.62000 11.97100 35.37100
C  45.34000 11.46300 36.60600
H  38.11600 7.49800 32.99200
H  38.92200 7.34700 26.62100
H  44.25300 10.76600 26.99400
H  42.16600 9.46700 35.03100
H  39.10600 9.26400 34.92800
H  41.13200 7.23700 35.74200
H  40.24800 6.76000 34.22300
H  39.34100 7.30100 35.69200
H  39.85500 11.27100 35.48100
H  41.33700 11.92100 34.70400
H  42.34700 12.11000 36.49900
H  41.97100 10.46600 37.09700
H  36.24600 7.23000 32.15800
H  36.40300 5.63900 31.28100
H  35.18200 6.92000 30.87900
H  34.73500 5.87800 27.53400
H  34.56700 7.37500 28.53000
H  35.21600 5.86100 29.21000
H  40.42900 8.84100 25.04800
H  43.26800 8.96100 25.34400
H  41.13800 6.23800 25.82000
H  42.60600 6.69700 25.03000
H  40.89100 6.85300 24.21700
H  41.40200 10.48600 23.97200
H  42.96100 11.07900 24.23500
H  41.44600 11.91400 26.47400
H  40.85400 12.69200 25.06200
H  42.43000 12.86500 25.28400
H  45.46700 12.91600 28.68600
H  46.28500 11.27300 28.36100
H  46.68800 12.17900 29.78000
H  43.15700 12.53600 33.89500
H  44.78900 10.76300 37.23500
H  45.57400 12.37700 37.15300
H  46.30200 11.05300 36.29800

