158

Mg 16.47000 -2.02300 27.93100
C  15.43600 0.17300 30.56900
C  18.59300 -3.55500 30.14900
C  17.92700 -3.43500 25.23800
C  14.90600 0.37100 25.79600
N  16.97100 -1.62600 30.05800
C  16.35800 -0.78100 30.95100
C  16.91800 -0.93300 32.38700
C  18.10200 -1.98100 32.15000
C  17.87800 -2.49000 30.70800
C  19.61600 -1.64300 32.41900
C  15.80700 -1.36800 33.33600
C  15.89800 -0.84600 34.77000
H  17.12800 -0.04500 35.15100
N  17.95400 -3.41700 27.71500
C  18.58500 -4.03500 28.74900
C  19.22700 -5.25000 28.17200
C  19.21800 -5.15200 26.76500
C  18.37200 -3.96400 26.45700
C  19.89100 -6.34700 29.01400
C  19.76600 -6.09500 25.66100
O  19.56300 -5.85200 24.52000
C  20.55800 -7.30700 26.04100
N  16.31900 -1.66400 25.87500
C  17.03800 -2.32400 24.90000
C  16.79800 -1.78300 23.47100
C  15.64900 -0.73800 23.65800
C  15.67800 -0.63900 25.25900
C  18.07800 -1.23500 22.68300
C  14.25700 -1.14300 23.02900
C  14.13500 -0.88500 21.50900
N  15.18900 -0.23400 28.06800
C  14.59400 0.58900 27.11300
C  13.74700 1.58100 27.75900
C  14.08100 1.38900 29.09300
C  14.97700 0.34100 29.22500
C  12.97900 2.63500 27.12000
C  13.90200 2.03600 30.32700
O  13.28300 3.04200 30.58900
C  14.67700 1.08400 31.41900
C  15.34900 2.00800 32.32100
O  16.36600 2.64000 32.15100
O  14.46200 2.29200 33.38500
C  14.69200 3.50200 34.09300
H  19.17600 -4.14300 30.86100
H  18.20500 -3.97300 24.32900
H  14.48000 1.10200 25.10500
H  17.28800 0.08800 32.48200
H  17.88300 -2.84600 32.77700
H  20.23800 -1.86300 31.55100
H  19.95000 -2.26300 33.25000
H  19.51100 -0.62600 32.79600
H  15.76000 -2.45400 33.42400
H  14.86300 -1.07100 32.87800
H  15.80500 -1.73300 35.39600
H  14.94300 -0.38900 35.02800
H  19.45900 -7.29600 28.69600
H  19.62300 -6.14100 30.05000
H  20.97900 -6.36900 28.94700
H  21.47700 -7.01100 26.54600
H  20.82600 -7.87000 25.14700
H  20.11700 -7.98000 26.77600
H  16.48600 -2.59300 22.81200
H  15.97000 0.23000 23.27500
H  19.03100 -1.39000 23.18900
H  17.97500 -0.16100 22.53000
H  18.12400 -1.57100 21.64700
H  13.42200 -0.70000 23.57100
H  14.11600 -2.21900 23.13200
H  13.30500 -0.21800 21.28000
H  13.84200 -1.87100 21.14700
H  15.03000 -0.49800 21.02200
H  13.45600 3.03800 26.22600
H  13.08800 3.45800 27.82500
H  11.91600 2.43600 26.98700
H  13.92600 0.62100 32.05900
H  15.50200 3.40500 34.81600
H  13.87600 3.83900 34.73100
H  14.91100 4.34000 33.43100
Mg 6.30800 53.66000 41.72900
C  5.08900 50.28400 41.36100
C  9.39100 52.66800 40.74000
C  7.06200 56.90800 41.31000
C  2.93500 54.53600 42.21300
N  7.07600 51.74100 40.99000
C  6.45900 50.45800 40.97700
C  7.48700 49.34300 40.73000
C  8.81100 50.12100 40.73600
C  8.43400 51.63100 40.76900
C  9.81900 49.68000 41.81700
C  7.33100 48.56700 39.38500
C  6.87000 49.21100 38.13100
H  6.30300 48.33900 36.99500
N  8.08300 54.66900 41.13900
C  9.23600 54.09700 40.81400
C  10.21300 55.12400 40.64700
C  9.53700 56.37800 40.78600
C  8.14500 56.03000 41.06800
C  11.77200 54.90700 40.57900
C  10.20400 57.76200 40.75200
O  11.41800 57.88400 40.61700
C  9.44800 59.01600 41.05900
N  5.19100 55.44500 41.74800
C  5.72200 56.66900 41.59000
C  4.74500 57.86400 41.78400
C  3.44000 57.03700 42.15700
C  3.85200 55.57500 41.99300
C  5.03900 58.83500 42.91600
C  2.32500 57.36100 41.18800
C  0.92300 57.47100 41.91100
N  4.38900 52.61200 41.92600
C  3.14400 53.10200 42.20700
C  2.23400 52.03500 42.58200
C  3.00200 50.87100 42.22100
C  4.25900 51.32200 41.74600
C  0.87600 52.19100 43.08700
C  2.90500 49.41500 42.18900
O  2.06900 48.59400 42.46600
C  4.34200 49.04100 41.57900
C  4.29000 48.16900 40.39600
O  3.86800 48.51000 39.32000
O  4.61700 46.95300 40.82400
C  4.44300 45.90300 39.87900
H  10.38000 52.30500 40.45700
H  7.20400 57.98500 41.42600
H  1.95800 54.78900 42.63000
H  7.41700 48.65400 41.57100
H  9.46100 50.00600 39.86900
H  9.56500 48.67000 42.14000
H  9.71800 50.41000 42.61900
H  10.81400 49.72600 41.37500
H  6.78400 47.64500 39.58300
H  8.32700 48.21000 39.12500
H  7.71700 49.75700 37.71400
H  6.18800 50.00400 38.44000
H  12.16700 55.19600 41.55300
H  12.20800 55.53000 39.79800
H  12.09600 53.88800 40.36700
H  9.99400 59.92200 40.79500
H  9.10100 58.91200 42.08700
H  8.54800 59.15800 40.46200
H  4.67100 58.32800 40.80100
H  3.12900 57.20100 43.18900
H  5.70300 58.19900 43.50200
H  4.11000 59.08100 43.43000
H  5.53400 59.76300 42.62900
H  2.29000 56.55600 40.45400
H  2.47900 58.28800 40.63600
H  0.14000 56.96000 41.35100
H  0.74900 58.54200 41.81300
H  0.89300 57.32800 42.99200
H  0.56200 51.16000 43.25000
H  0.37800 52.81400 42.34400
H  0.83900 52.67300 44.06300
H  5.01400 48.48500 42.23200
H  4.64500 44.89300 40.23600
H  4.99300 45.99800 38.94300
H  3.38200 45.82000 39.64500

