158

Mg 36.57500 49.54500 25.19000
C  36.54000 47.49400 27.99600
C  35.03100 51.94600 26.98100
C  36.11300 50.99400 22.27700
C  37.61300 46.50800 23.31900
N  35.73600 49.60300 27.20400
C  36.01300 48.76900 28.25000
C  35.77800 49.47300 29.52700
C  35.04100 50.85300 29.21200
C  35.28800 50.82400 27.70600
C  33.52800 50.81900 29.60500
C  37.05600 49.50300 30.45200
C  36.87100 49.09500 31.87900
H  35.48500 49.27300 32.50200
N  35.86100 51.29600 24.67800
C  35.31400 52.18200 25.56800
C  34.98800 53.38700 24.85400
C  35.28300 53.13100 23.43800
C  35.80900 51.74500 23.40800
C  34.34200 54.60500 25.52200
C  34.95500 54.02700 22.22700
O  35.27200 53.80900 21.03200
C  34.03600 55.25600 22.48900
N  37.10400 48.89600 23.12300
C  36.75400 49.74100 22.14000
C  36.90400 49.10400 20.73200
C  37.69500 47.80900 21.13200
C  37.46600 47.73400 22.63500
C  35.67200 48.81200 19.96200
C  39.17600 47.84300 20.66800
C  40.27800 48.31800 21.74000
N  36.91700 47.39500 25.48800
C  37.44800 46.36000 24.72900
C  37.69100 45.17000 25.52400
C  37.33500 45.59400 26.85200
C  36.88400 46.93800 26.73500
C  38.21700 43.92700 25.00400
C  37.42500 45.23700 28.17300
O  37.84200 44.18700 28.59900
C  36.94100 46.45600 29.05500
C  35.78100 45.99200 29.85800
O  34.61300 45.89300 29.40300
O  36.14500 45.53800 31.06200
C  35.02100 45.00300 31.77800
H  34.69700 52.86300 27.47200
H  35.88400 51.45300 21.31300
H  37.88500 45.65300 22.69800
H  35.07400 48.77000 29.97300
H  35.54300 51.64400 29.77000
H  33.43400 50.17100 30.47600
H  32.89400 50.42500 28.81000
H  33.23300 51.84100 29.84200
H  37.50900 50.49500 30.46700
H  37.85300 48.89000 30.03000
H  37.71000 49.49100 32.45200
H  37.04600 48.02600 32.00200
H  34.70300 55.51700 25.04600
H  34.49800 54.62800 26.60100
H  33.25800 54.71500 25.48900
H  33.06900 55.13000 22.97500
H  33.81600 55.55600 21.46500
H  34.52300 56.10200 22.97400
H  37.55700 49.80000 20.20400
H  37.26300 46.93500 20.64500
H  35.70800 49.51900 19.13400
H  34.77700 49.04500 20.53900
H  35.56900 47.78400 19.61300
H  39.23800 48.41900 19.74400
H  39.47500 46.86600 20.28800
H  40.67100 47.56300 22.42000
H  39.98600 49.24000 22.24300
H  41.14000 48.59400 21.13300
H  37.94600 43.83800 23.95200
H  37.79000 43.08800 25.55300
H  39.29800 44.06100 25.04300
H  37.67300 46.78900 29.79000
H  35.41900 44.72900 32.75500
H  34.65400 44.11600 31.26200
H  34.21700 45.69400 32.03300
Mg 9.48000 47.40000 26.77300
C  7.64700 47.32300 29.81900
C  12.20700 48.68900 28.55500
C  10.99400 47.44800 23.92900
C  6.45200 46.42700 25.13800
N  9.90400 47.83100 28.84900
C  8.99500 47.69300 29.92000
C  9.63600 48.10700 31.24400
C  10.77900 48.99400 30.70100
C  11.01600 48.49300 29.30500
C  10.43800 50.49900 30.68900
C  10.04100 46.92700 32.10100
C  9.56500 47.07100 33.60700
H  9.32300 45.83000 34.49000
N  11.39000 47.99500 26.32600
C  12.37400 48.44100 27.12600
C  13.53500 48.50100 26.27300
C  13.24800 48.09700 24.95700
C  11.81000 47.89200 25.01600
C  14.85200 49.08500 26.85500
C  14.19900 47.92800 23.65200
O  13.86600 47.57500 22.50900
C  15.64000 48.21500 23.78000
N  8.75500 46.92800 24.77800
C  9.63600 47.02100 23.78500
C  9.01700 46.62100 22.40100
C  7.57600 46.09600 22.90200
C  7.55100 46.56700 24.31500
C  9.12400 47.83400 21.43600
C  7.33700 44.59200 22.78500
C  8.24900 43.52000 23.40900
N  7.37700 47.09900 27.30400
C  6.26900 46.70900 26.52100
C  5.07300 46.74900 27.29500
C  5.58300 46.94900 28.65900
C  6.99700 47.12600 28.54300
C  3.69200 46.45500 26.76700
C  5.22900 46.99200 30.00900
O  4.12300 46.92800 30.62100
C  6.61500 47.11100 30.83600
C  6.61800 45.77200 31.59800
O  7.06600 44.69000 31.15100
O  5.97900 45.97600 32.73900
C  5.61200 44.75100 33.46100
H  13.09400 48.93000 29.14500
H  11.50500 47.43700 22.96400
H  5.51900 46.18000 24.62800
H  8.99100 48.80500 31.77900
H  11.71800 48.82800 31.22900
H  11.15400 51.19500 31.12500
H  9.52300 50.66900 31.25700
H  10.23800 50.83400 29.67100
H  11.12500 46.81400 32.06200
H  9.67300 46.01400 31.63500
H  8.68500 47.70500 33.71100
H  10.47600 47.48100 34.04300
H  14.83400 49.35200 27.91200
H  15.14300 49.94800 26.25700
H  15.64300 48.33900 26.78100
H  15.94900 47.88500 24.77300
H  15.81600 49.29000 23.76300
H  16.15900 47.60800 23.03800
H  9.53700 45.83900 21.84800
H  6.78000 46.61400 22.36800
H  9.39500 48.72600 22.00100
H  8.19500 48.04100 20.90500
H  9.90700 47.66100 20.69800
H  7.27900 44.36100 21.72200
H  6.32900 44.26900 23.04400
H  8.69100 44.00500 24.27900
H  8.91100 43.15700 22.62300
H  7.72400 42.65500 23.81400
H  3.27700 47.17400 26.06100
H  2.98600 46.22200 27.56400
H  3.68400 45.52100 26.20500
H  6.56600 47.96600 31.50900
H  5.59600 44.95400 34.53200
H  6.33300 43.95900 33.25500
H  4.62000 44.43000 33.14400

