158

Mg 17.99900 -2.48100 27.14600
C  17.03400 -0.69100 29.91800
C  20.09500 -4.31100 29.23900
C  19.23500 -3.94800 24.35700
C  16.06600 -0.29300 25.16700
N  18.50100 -2.49700 29.32100
C  17.98100 -1.65000 30.20100
C  18.40600 -2.09000 31.60200
C  19.63400 -3.07900 31.39400
C  19.46900 -3.29800 29.89400
C  21.06500 -2.54700 31.77600
C  17.21300 -2.72300 32.38300
C  16.89000 -2.15500 33.74900
H  18.15900 -1.77400 34.51500
N  19.52400 -3.95400 26.89400
C  20.25000 -4.53900 27.86800
C  21.04400 -5.60000 27.22800
C  20.86500 -5.51200 25.79300
C  19.87400 -4.40800 25.61600
C  21.76000 -6.70800 28.02700
C  21.41000 -6.38500 24.58000
O  21.31400 -6.10300 23.39400
C  22.15000 -7.57600 24.95900
N  17.67600 -2.22700 25.08200
C  18.24900 -3.02700 24.13600
C  17.96200 -2.54900 22.67500
C  16.80100 -1.46500 22.99200
C  16.86100 -1.27700 24.48900
C  19.24900 -1.98000 21.97600
C  15.39300 -1.98800 22.44200
C  14.92500 -1.36900 21.08400
N  16.83800 -0.87400 27.45700
C  16.15200 -0.11200 26.55800
C  15.22500 0.75700 27.27700
C  15.59300 0.60000 28.60000
C  16.52500 -0.41200 28.65600
C  14.12300 1.74100 26.68400
C  15.25100 0.97300 29.96400
O  14.38900 1.71500 30.41500
C  16.23500 0.14200 30.88900
C  16.98800 1.15800 31.58500
O  18.02700 1.62300 31.22200
O  16.31100 1.49800 32.77700
C  17.10300 2.42700 33.59500
H  20.71600 -4.92100 29.89900
H  19.59300 -4.47700 23.47100
H  15.36500 0.30800 24.58600
H  18.80500 -1.19900 32.08800
H  19.44900 -4.00500 31.93800
H  21.05100 -1.45900 31.84100
H  21.68400 -2.81000 30.91900
H  21.51900 -2.84100 32.72200
H  17.34100 -3.80400 32.43700
H  16.41800 -2.76600 31.63800
H  16.24500 -2.86800 34.26200
H  16.36800 -1.21900 33.54800
H  21.84800 -7.66100 27.50600
H  21.25000 -6.84900 28.98000
H  22.74000 -6.26800 28.21200
H  22.24500 -8.11200 24.01500
H  21.41600 -8.15100 25.52300
H  23.05900 -7.24900 25.46500
H  17.48900 -3.35400 22.11200
H  16.97000 -0.45900 22.60800
H  19.18900 -0.89400 22.03900
H  19.20400 -2.14500 20.89900
H  20.25500 -2.25800 22.29100
H  14.65700 -1.78300 23.21900
H  15.49800 -3.04600 22.20300
H  15.74300 -0.80100 20.64000
H  14.06700 -0.70300 21.17600
H  14.54900 -2.17100 20.44900
H  13.77500 1.50900 25.67700
H  14.59600 2.72300 26.68800
H  13.32200 1.81700 27.41900
H  15.55500 -0.37200 31.56800
H  16.75500 3.41900 33.30700
H  18.18400 2.28800 33.59700
H  16.87200 2.21600 34.64000
Mg 26.53900 0.04200 28.75300
C  28.32600 -0.51400 31.76800
C  23.66000 0.01700 30.66100
C  24.91100 0.59600 25.91300
C  29.48000 -0.87400 26.86600
N  26.10300 -0.28700 30.89600
C  26.98400 -0.17000 31.99700
C  26.32400 0.12600 33.36000
C  24.78800 -0.03100 33.01800
C  24.84500 -0.10400 31.43400
C  24.04600 -1.20100 33.67700
C  26.73700 1.42200 34.14500
C  27.08000 1.17000 35.60500
H  26.50400 1.97800 36.76900
N  24.49700 0.34900 28.38700
C  23.47000 0.19600 29.24300
C  22.21400 0.55000 28.54100
C  22.59500 0.85100 27.14500
C  24.03600 0.59500 27.07600
C  20.80200 0.56400 29.19400
C  21.75600 1.19500 25.93700
O  22.15400 1.54200 24.85500
C  20.25300 1.32300 26.17200
N  27.11700 -0.12500 26.66400
C  26.27800 0.27800 25.74800
C  26.85600 0.17000 24.28800
C  28.36300 -0.14300 24.61900
C  28.32900 -0.41800 26.12200
C  26.22600 -0.88300 23.27600
C  29.30900 1.07500 24.20500
C  30.77800 0.68700 23.81600
N  28.53900 -0.60200 29.18400
C  29.62400 -0.97400 28.26700
C  30.74100 -1.30400 29.09500
C  30.31300 -1.15700 30.38100
C  28.94500 -0.73500 30.47200
C  32.10700 -1.64100 28.69000
C  30.67600 -1.29000 31.82300
O  31.70500 -1.70100 32.39400
C  29.47200 -0.80100 32.68900
C  29.03500 -1.85500 33.63500
O  28.64500 -2.97700 33.30100
O  29.16300 -1.40000 34.92800
C  29.05500 -2.44900 35.90900
H  22.73300 0.14000 31.22500
H  24.47100 0.91800 24.96700
H  30.29400 -1.20100 26.21600
H  26.42300 -0.76300 33.98300
H  24.33300 0.89800 33.36100
H  24.30200 -2.18800 33.29400
H  23.02400 -0.93600 33.40600
H  24.06500 -1.26100 34.76600
H  25.88900 2.10700 34.15300
H  27.62700 1.78800 33.63300
H  28.16400 1.20900 35.71500
H  26.81400 0.15000 35.88200
H  20.39000 1.55700 29.36900
H  20.88200 0.07800 30.16700
H  20.21000 -0.03900 28.50500
H  19.90400 0.29400 26.26100
H  19.85000 1.75800 25.25800
H  19.88000 1.97500 26.96300
H  26.71500 1.16000 23.85600
H  28.68500 -1.02600 24.06700
H  25.23400 -1.06200 23.69000
H  26.85200 -1.75700 23.09700
H  26.00700 -0.40600 22.32000
H  29.35000 1.80200 25.01600
H  28.79400 1.52600 23.35600
H  30.93000 -0.39100 23.77500
H  31.42900 1.11600 24.57800
H  31.11900 1.07600 22.85600
H  32.65900 -0.77800 28.31800
H  31.96900 -2.45600 27.98000
H  32.53000 -2.16700 29.54600
H  29.62200 0.11500 33.26100
H  29.27500 -2.03500 36.89300
H  29.86700 -3.16200 35.76900
H  28.15100 -3.05800 35.92800

