158

Mg 6.45900 56.30900 41.47500
C  5.45800 52.90200 41.79900
C  9.54600 54.95600 40.40900
C  7.53900 59.38700 40.88400
C  3.31100 57.36200 41.94800
N  7.34600 54.10800 41.03700
C  6.72300 52.92600 41.11700
C  7.56000 51.81600 40.61200
C  8.95900 52.44200 40.66600
C  8.60900 53.91400 40.64700
C  9.76000 52.07200 42.02200
C  7.18600 51.32800 39.24100
C  7.72600 49.97000 38.80400
H  8.52500 50.02300 37.52300
N  8.30600 57.08700 40.79900
C  9.44400 56.35400 40.47900
C  10.52500 57.30100 40.25100
C  9.95200 58.64600 40.34800
C  8.58100 58.44700 40.71700
C  11.92200 56.90200 39.76500
C  10.70800 59.91900 40.27300
O  11.86100 59.90200 40.06500
C  9.99200 61.23300 40.38900
N  5.54100 58.14300 41.38000
C  6.15100 59.27800 41.17000
C  5.17400 60.47200 41.29800
C  3.80100 59.88300 41.73700
C  4.23200 58.37500 41.68300
C  5.57100 61.61800 42.30500
C  2.54800 60.33500 40.95500
C  1.60700 61.19900 41.87800
N  4.70500 55.39800 41.80100
C  3.51200 55.96000 42.12900
C  2.65700 54.97100 42.62100
C  3.40500 53.70100 42.56000
C  4.66400 54.04000 42.10200
C  1.32000 55.22300 43.08600
C  3.38300 52.29600 42.75100
O  2.51900 51.56300 43.12900
C  4.79800 51.75300 42.41700
C  4.64000 50.66100 41.38000
O  3.98500 50.79100 40.37900
O  5.14600 49.45300 41.85100
C  4.80400 48.21600 41.12700
H  10.56900 54.60800 40.25400
H  7.75800 60.44200 40.70800
H  2.31000 57.68300 42.24400
H  7.48900 50.94700 41.26600
H  9.54500 52.24900 39.76800
H  10.70600 51.61300 41.73400
H  9.25800 51.29300 42.59600
H  9.97800 52.94300 42.63900
H  7.44200 52.12000 38.53900
H  6.09700 51.32100 39.29600
H  6.94100 49.23600 38.62000
H  8.39900 49.53500 39.54300
H  11.78700 56.48900 38.76500
H  12.31500 56.12900 40.42600
H  12.63400 57.72600 39.73100
H  9.53900 61.27500 41.37900
H  9.24200 61.23600 39.59900
H  10.60100 62.13600 40.34900
H  5.11800 60.87900 40.28800
H  3.72800 60.13700 42.79500
H  5.05900 61.55300 43.26500
H  5.10000 62.53700 41.95500
H  6.65800 61.66700 42.37200
H  1.95700 59.61100 40.39400
H  2.94600 60.91100 40.12000
H  0.60500 60.81000 42.06300
H  1.61200 62.12600 41.30500
H  2.11200 61.51800 42.78900
H  1.14600 55.91200 43.91200
H  0.89200 54.24000 43.28700
H  0.76300 55.61000 42.23300
H  5.28900 51.42700 43.33400
H  3.72600 48.05600 41.10300
H  5.30600 47.33100 41.51800
H  4.98800 48.41200 40.07100
Mg -9.91000 17.43800 41.65000
C  -6.52800 16.35800 41.20200
C  -8.89200 20.61900 40.64300
C  -13.11600 18.27800 41.28100
C  -10.80200 14.10800 41.94300
N  -7.83500 18.37100 40.86100
C  -6.65300 17.74000 40.91400
C  -5.51000 18.76400 40.75800
C  -6.31400 20.22300 40.65300
C  -7.80100 19.68600 40.73600
C  -5.96700 21.12600 41.85700
C  -4.70700 18.42400 39.38900
C  -5.53000 17.97900 38.12700
H  -5.10700 18.57900 36.78000
N  -10.87900 19.24000 41.05600
C  -10.25900 20.39300 40.69700
C  -11.32800 21.41100 40.51200
C  -12.58400 20.79400 40.67100
C  -12.25700 19.36500 41.02600
C  -11.10500 22.92800 40.15200
C  -14.02700 21.43600 40.51800
O  -14.15700 22.61900 40.16100
C  -15.18300 20.68200 40.91100
N  -11.74800 16.27900 41.51900
C  -12.97500 16.87500 41.48400
C  -14.17600 15.77700 41.49300
C  -13.35900 14.51400 41.70600
C  -11.88500 14.95800 41.64800
C  -15.23200 16.04700 42.58900
C  -13.58900 13.38100 40.68400
C  -13.30700 11.93100 41.11900
N  -8.94600 15.59700 41.65000
C  -9.43700 14.34700 41.80700
C  -8.37600 13.35600 41.98500
C  -7.26400 14.14100 41.72400
C  -7.58300 15.48000 41.50800
C  -8.44500 11.84900 42.29700
C  -5.75700 14.08600 41.66600
O  -5.00500 13.13700 41.85000
C  -5.24700 15.53400 41.30700
C  -4.34500 15.91800 42.40900
O  -3.11200 16.05800 42.29700
O  -5.06100 16.18200 43.60100
C  -4.24500 16.69200 44.76400
H  -8.62800 21.66000 40.44700
H  -14.19400 18.43800 41.21600
H  -10.96100 13.02700 41.94300
H  -4.89400 18.65100 41.65000
H  -6.01200 20.67800 39.70900
H  -6.84900 21.28100 42.47800
H  -5.64500 22.08600 41.45300
H  -5.20000 20.69400 42.50000
H  -4.19600 17.50400 39.67200
H  -3.90000 19.11500 39.14400
H  -6.56100 18.31600 38.23300
H  -5.54400 16.89000 38.06600
H  -11.33000 23.00000 39.08800
H  -10.02500 23.06300 40.19600
H  -11.66000 23.71200 40.66700
H  -15.05000 20.36000 41.94400
H  -15.27200 19.91500 40.14200
H  -16.09100 21.28600 40.90900
H  -14.58400 15.98500 40.50300
H  -13.47200 14.21500 42.74800
H  -15.90400 16.84100 42.26200
H  -14.82300 16.22000 43.58500
H  -15.97300 15.26900 42.76900
H  -12.96500 13.57300 39.81100
H  -14.56600 13.54900 40.23200
H  -12.73800 11.41600 40.34600
H  -14.24900 11.41900 41.31700
H  -12.85800 11.96600 42.11200
H  -8.50900 11.37200 41.31900
H  -9.28400 11.55500 42.92700
H  -7.66500 11.50400 42.97600
H  -4.74400 15.39100 40.35100
H  -3.60300 15.84300 45.00200
H  -4.77100 16.88100 45.70000
H  -3.76700 17.63200 44.48700

