158

Mg 0.41000 7.88200 26.02000
C  0.90700 9.82500 28.99400
C  0.30000 5.10400 27.98900
C  0.14700 6.27100 23.24200
C  0.29700 11.00500 24.26800
N  0.51000 7.53800 28.30300
C  0.76700 8.46400 29.30300
C  0.76400 7.75100 30.65400
C  0.66600 6.24600 30.28500
C  0.48400 6.28200 28.77300
C  1.76500 5.30700 30.85000
C  -0.34400 8.24300 31.68200
C  0.16800 8.65600 33.13500
H  -0.55600 8.09200 34.42500
N  0.42900 6.01800 25.67700
C  0.30400 4.96800 26.57500
C  0.20600 3.69200 25.90200
C  0.11000 4.06700 24.48400
C  0.23700 5.49000 24.40300
C  0.10100 2.39100 26.60600
C  0.08200 3.08500 23.24000
O  0.24600 3.42000 22.09800
C  0.12400 1.60300 23.55200
N  0.50400 8.66600 23.96300
C  0.19500 7.68900 23.01400
C  0.04300 8.30200 21.58800
C  -0.21200 9.82600 21.95900
C  0.18200 9.85800 23.50300
C  1.34200 8.03000 20.78800
C  -1.66800 10.32400 21.75600
C  -1.77200 11.57600 20.87000
N  0.60800 9.94800 26.46600
C  0.58700 11.12300 25.65800
C  0.84000 12.32400 26.42300
C  1.01400 11.82100 27.68100
C  0.83400 10.41300 27.68900
C  0.90500 13.63100 25.85200
C  1.31300 12.19100 29.04500
O  1.56800 13.28000 29.55500
C  1.16000 10.94800 29.86100
C  2.27900 10.76600 30.74400
O  3.35300 10.17900 30.54000
O  1.92600 11.34000 31.97300
C  2.84800 10.97600 33.06800
H  0.16400 4.25200 28.65800
H  -0.08700 5.65000 22.37400
H  0.11100 11.90200 23.67300
H  1.75300 7.84700 31.10100
H  -0.16700 5.71500 30.74500
H  2.34000 5.81300 31.62600
H  2.51600 5.27400 30.06100
H  1.46400 4.30700 31.16300
H  -1.05600 7.42200 31.76300
H  -1.02200 8.96900 31.23400
H  0.04800 9.71900 32.92600
H  1.23200 8.46500 33.27900
H  -0.92500 2.06200 26.43500
H  0.37100 2.44800 27.66000
H  0.71800 1.65400 26.09200
H  0.22600 1.09900 22.59200
H  -0.72800 1.32700 24.17400
H  1.12000 1.45900 23.97300
H  -0.81200 7.85300 21.08300
H  0.50800 10.53500 21.55000
H  1.80800 8.96800 20.48700
H  0.96300 7.43000 19.96100
H  2.07400 7.55700 21.44400
H  -2.26600 10.51500 22.64600
H  -2.29700 9.58300 21.26200
H  -0.89000 11.62900 20.23200
H  -1.78700 12.45300 21.51700
H  -2.63300 11.39600 20.22600
H  0.58200 13.68100 24.81200
H  1.93200 13.98800 25.93700
H  0.17500 14.29300 26.31700
H  0.25700 11.17200 30.42900
H  2.23400 10.82500 33.95500
H  3.67300 11.68600 33.13600
H  3.26800 9.97400 32.98200
Mg 30.50400 56.88400 39.78100
C  27.96800 54.86800 38.83800
C  32.78000 54.45900 38.88900
C  32.92000 59.26000 39.66600
C  28.06000 59.37000 40.52300
N  30.32700 54.88900 39.01600
C  29.16600 54.24600 38.82600
C  29.47100 52.79500 38.42100
C  30.94400 52.65300 38.66400
C  31.39700 54.08600 39.01600
C  31.27200 51.50200 39.62900
C  28.98000 52.37800 37.06000
C  29.36100 53.28100 35.77600
H  28.24300 53.67300 34.76900
N  32.59300 56.85100 39.34300
C  33.31700 55.74200 39.05300
C  34.69500 56.17300 38.84700
C  34.72900 57.60100 38.94200
C  33.41500 57.95800 39.39100
C  35.78200 55.27800 38.29900
C  35.82700 58.53300 38.56200
O  36.90400 58.06400 38.31400
C  35.69800 60.05600 38.52900
N  30.52900 58.97300 40.20000
C  31.65200 59.75400 40.09000
C  31.27900 61.26000 40.11200
C  29.91700 61.23500 40.75900
C  29.41800 59.79700 40.48800
C  32.39600 62.05200 40.84900
C  28.97000 62.35400 40.14000
C  28.09200 63.11800 41.23100
N  28.39800 57.14000 39.81600
C  27.54200 58.15900 40.17000
C  26.20900 57.75000 40.02800
C  26.30500 56.46700 39.48300
C  27.67300 56.16300 39.34500
C  24.90700 58.43700 40.36000
C  25.57100 55.40800 38.95000
O  24.35600 55.22500 38.89000
C  26.61300 54.24300 38.52000
C  26.21300 53.03200 39.30800
O  26.43000 52.86700 40.50200
O  25.46000 52.19700 38.51300
C  24.68100 51.23500 39.22800
H  33.35100 53.58400 38.57200
H  33.61500 60.08700 39.50500
H  27.36500 60.20600 40.61900
H  28.90100 52.23600 39.16300
H  31.44000 52.53000 37.70100
H  30.37800 51.09000 40.09900
H  31.92700 51.86100 40.42300
H  31.99200 50.80800 39.19500
H  27.90300 52.21100 37.09400
H  29.52500 51.43600 37.00300
H  29.99800 52.64700 35.15800
H  29.83000 54.22700 36.04700
H  36.71200 55.22600 38.86400
H  36.17200 55.56600 37.32200
H  35.43700 54.24800 38.19900
H  36.60000 60.51200 38.12000
H  35.46300 60.61600 39.43400
H  34.85700 60.21100 37.85300
H  31.22700 61.57700 39.07100
H  29.91600 61.24800 41.84900
H  33.01600 62.50900 40.07800
H  33.09300 61.45000 41.43200
H  31.92700 62.81900 41.46500
H  28.30000 61.89800 39.41100
H  29.40900 63.10500 39.48200
H  27.02700 62.97500 41.04700
H  28.21300 64.20200 41.25000
H  28.33100 62.80200 42.24600
H  24.27800 57.71700 40.88400
H  24.38700 58.73400 39.45000
H  25.17700 59.24400 41.04100
H  26.52600 54.12400 37.44000
H  25.35000 50.50900 39.68900
H  24.02700 50.77000 38.49000
H  24.17700 51.87300 39.95500

