158

Mg 17.36300 52.41000 25.97500
C  19.34200 50.87700 28.41800
C  15.24500 53.58300 28.53700
C  15.33500 53.80900 23.66900
C  19.62500 51.31600 23.58500
N  17.35800 52.36000 28.15800
C  18.26300 51.68500 28.95900
C  17.96600 51.84900 30.42600
C  16.48100 52.28800 30.40100
C  16.34200 52.87000 28.96000
C  15.44800 51.20200 30.76300
C  19.01500 52.81200 31.09600
C  19.25600 52.48600 32.62300
H  18.17700 51.79100 33.47400
N  15.46300 53.47400 26.08200
C  14.78500 53.88300 27.24900
C  13.67600 54.76200 26.85100
C  13.68200 54.86900 25.42000
C  14.86100 54.01900 25.01500
C  12.79800 55.36100 27.87200
C  12.75900 55.63400 24.48300
O  12.80700 55.54500 23.30000
C  11.89300 56.69200 25.04900
N  17.43100 52.47100 23.93800
C  16.47600 53.09200 23.18800
C  16.78500 53.09400 21.66900
C  18.15100 52.25900 21.67400
C  18.43800 52.03700 23.18100
C  15.66900 52.52600 20.81800
C  19.42500 52.98400 20.92800
C  19.90200 54.28900 21.57600
N  19.14800 51.22300 25.93200
C  19.95000 50.89400 24.91500
C  20.97500 50.03800 25.37500
C  20.77100 49.87000 26.76800
C  19.63900 50.71600 27.06000
C  22.06000 49.38000 24.64900
C  21.24200 49.35900 28.01100
O  22.17600 48.63700 28.21100
C  20.28100 49.95000 29.16700
C  19.65000 48.92800 30.02200
O  19.07500 47.93500 29.60000
O  19.96000 49.13600 31.38000
C  19.75500 48.13300 32.35400
H  14.60000 53.93000 29.34800
H  14.75200 54.28000 22.87400
H  20.30200 50.89900 22.83600
H  18.04200 50.85700 30.87300
H  16.43400 53.11100 31.11500
H  14.69800 51.07000 29.98300
H  15.06800 51.44700 31.75400
H  15.87300 50.21100 30.92700
H  18.64000 53.83100 31.19300
H  19.98000 52.85100 30.58900
H  19.46500 53.43200 33.12200
H  20.12800 51.84700 32.76300
H  12.95200 54.74500 28.75800
H  11.74300 55.22200 27.63400
H  13.02800 56.39500 28.12600
H  11.15200 56.32900 25.76300
H  11.29400 57.07400 24.22200
H  12.57700 57.49200 25.33100
H  16.97100 54.10500 21.30500
H  17.96200 51.26600 21.26500
H  14.78300 53.05200 21.17500
H  15.42100 51.48200 21.00700
H  15.76400 52.74000 19.75300
H  19.14900 53.20300 19.89600
H  20.34200 52.39800 20.86800
H  19.74100 55.04000 20.80200
H  20.92400 54.28700 21.95400
H  19.23200 54.62200 22.36900
H  22.26100 50.12400 23.87800
H  21.57600 48.49000 24.24700
H  22.87000 49.23200 25.36200
H  20.75200 50.61700 29.89000
H  18.98800 48.47300 33.04900
H  20.66200 47.99900 32.94400
H  19.46700 47.21600 31.84100
Mg -12.94200 16.36600 42.87700
C  -9.95500 14.60500 42.36600
C  -11.55400 19.14200 41.46800
C  -16.12100 17.64800 42.67600
C  -14.47800 13.15100 43.55400
N  -10.89900 16.71500 41.79200
C  -9.78900 15.98000 41.95200
C  -8.55400 16.70500 41.52500
C  -9.12100 18.19200 41.31500
C  -10.64600 18.09200 41.63500
C  -8.37700 19.26800 42.14500
C  -8.06900 16.10400 40.19700
C  -6.52300 16.08300 39.91500
H  -5.86100 15.07900 38.98500
N  -13.78400 18.20500 42.13400
C  -12.98100 19.19900 41.70700
C  -13.79200 20.36400 41.55100
C  -15.13700 20.02600 41.93500
C  -15.07600 18.62500 42.28700
C  -13.16100 21.72400 41.12400
C  -16.37500 20.97000 41.86200
O  -16.27400 22.07800 41.32400
C  -17.71000 20.52100 42.38900
N  -15.01400 15.51000 43.12700
C  -16.12300 16.25100 42.99500
C  -17.43200 15.45300 43.17000
C  -16.84400 14.04100 43.50200
C  -15.37100 14.26000 43.44400
C  -18.59300 15.98100 44.06000
C  -17.51000 12.86700 42.72900
C  -18.05700 11.78300 43.69200
N  -12.37900 14.29400 43.08500
C  -13.10800 13.15900 43.35200
C  -12.23500 11.96100 43.44800
C  -10.99400 12.50400 43.03700
C  -11.11600 13.92100 42.85000
C  -12.57300 10.57700 43.94400
C  -9.57000 12.26500 42.78400
O  -8.92200 11.21000 42.81500
C  -8.89500 13.50200 42.28800
C  -7.67800 13.82700 43.08800
O  -7.57800 14.07300 44.28100
O  -6.61900 13.85200 42.20200
C  -5.35500 14.18900 42.82100
H  -11.14600 20.12200 41.21200
H  -17.13300 18.05400 42.62100
H  -15.01800 12.21400 43.70500
H  -7.81400 16.58600 42.31700
H  -9.01100 18.54600 40.29000
H  -7.55200 18.87400 42.73800
H  -9.08500 19.79900 42.78200
H  -7.91600 19.98800 41.46800
H  -8.48600 16.66000 39.35700
H  -8.51700 15.11700 40.07300
H  -6.00100 16.11400 40.87200
H  -6.22700 17.04900 39.50600
H  -12.57400 22.12800 41.94900
H  -13.95500 22.41400 40.83800
H  -12.53400 21.61100 40.23900
H  -18.13500 19.64000 41.90700
H  -18.38600 21.37600 42.41600
H  -17.55700 20.33200 43.45200
H  -17.88600 15.47500 42.18000
H  -16.89400 13.83200 44.57100
H  -18.67900 17.06700 44.01700
H  -18.57700 15.52200 45.04800
H  -19.52700 15.65200 43.60600
H  -16.85500 12.49000 41.94400
H  -18.34300 13.31200 42.18400
H  -17.75300 10.82900 43.26000
H  -19.12900 11.63900 43.82600
H  -17.49000 11.81300 44.62200
H  -13.23700 9.91700 43.38600
H  -12.94600 10.69900 44.96100
H  -11.62700 10.03700 43.91200
H  -8.48900 13.31100 41.29400
H  -5.09400 13.42900 43.55700
H  -5.45100 15.21700 43.17000
H  -4.67400 14.23000 41.97100

