158

Mg 42.36500 42.20200 26.31700
C  41.54300 44.46300 28.89300
C  43.46900 39.96900 28.71900
C  43.64400 40.30400 23.77500
C  41.91500 44.83900 24.04200
N  42.64500 42.27800 28.56800
C  42.06700 43.24700 29.36900
C  42.06400 42.75200 30.83500
C  42.86500 41.40100 30.77800
C  42.92600 41.13400 29.26300
C  44.21900 41.41700 31.58400
C  40.59000 42.65100 31.23400
C  40.23600 42.77600 32.73000
H  41.18500 43.12400 33.88300
N  43.26400 40.26200 26.25800
C  43.69600 39.55400 27.36100
C  44.20200 38.29700 26.86700
C  44.08300 38.22700 25.40400
C  43.60900 39.64700 25.06200
C  44.75400 37.22800 27.79700
C  44.38200 37.18100 24.43000
O  44.04200 37.23800 23.24700
C  45.08000 35.90900 24.90000
N  42.93400 42.57600 24.28100
C  43.34700 41.57300 23.42000
C  43.23700 41.96400 21.95800
C  42.41500 43.30000 22.02400
C  42.43900 43.68500 23.49200
C  44.59000 41.92900 21.13700
C  41.02500 43.19600 21.45700
C  40.02600 42.31500 22.28400
N  41.85800 44.23600 26.35500
C  41.76500 45.20900 25.36800
C  41.23200 46.48700 25.92900
C  41.08700 46.18100 27.24400
C  41.52700 44.86600 27.47900
C  40.87300 47.64100 25.05700
C  40.68000 46.71600 28.51400
O  40.17400 47.79800 28.76600
C  41.01700 45.61500 29.61000
C  41.89000 46.12300 30.72900
O  42.97600 46.63600 30.54200
O  41.40600 45.86800 32.05400
C  42.20700 46.46600 33.11800
H  43.68100 39.20000 29.46500
H  43.90800 39.60800 22.97600
H  41.85100 45.50200 23.17600
H  42.58800 43.42200 31.51600
H  42.22700 40.57500 31.09400
H  44.92700 40.68400 31.19500
H  44.01200 41.12600 32.61400
H  44.64000 42.42000 31.64700
H  40.34400 41.60000 31.08200
H  39.97900 43.32800 30.63700
H  39.62900 41.90200 32.96400
H  39.61300 43.67000 32.68100
H  45.74900 36.86900 27.53600
H  44.17600 36.30400 27.79600
H  44.93000 37.61900 28.80000
H  44.45800 35.34100 25.59200
H  45.97500 36.14300 25.47700
H  45.42500 35.31100 24.05600
H  42.63700 41.20300 21.46100
H  42.98000 44.12200 21.58600
H  45.39200 41.46100 21.70700
H  44.95800 42.90500 20.82200
H  44.47500 41.30400 20.25100
H  41.03900 42.78700 20.44700
H  40.53500 44.16400 21.35400
H  39.52600 42.98700 22.98200
H  40.54500 41.55900 22.87200
H  39.27500 41.79000 21.69400
H  40.38400 48.36700 25.70700
H  40.26100 47.30300 24.22100
H  41.81900 48.11800 24.80000
H  40.06900 45.44500 30.12000
H  42.48200 47.47700 32.81900
H  43.12500 45.95600 33.41000
H  41.63900 46.48000 34.04800
Mg -11.45500 37.69800 42.72800
C  -8.81700 35.44600 41.91900
C  -9.57600 40.22200 41.34300
C  -14.03800 39.69200 42.63900
C  -13.54900 34.87100 43.34800
N  -9.57200 37.71400 41.53600
C  -8.56400 36.70000 41.43400
C  -7.38300 37.23300 40.78100
C  -7.49400 38.73600 41.06400
C  -8.96300 38.93800 41.30100
C  -6.70400 39.13500 42.31500
C  -7.60900 36.86400 39.24200
C  -6.40800 36.90100 38.25000
H  -6.25900 35.81500 37.15200
N  -11.72500 39.81400 42.23500
C  -10.85200 40.70700 41.65400
C  -11.40500 42.02900 41.44000
C  -12.75600 41.88700 41.99900
C  -12.91600 40.47900 42.37200
C  -10.59100 43.21700 40.87800
C  -13.67600 43.10800 42.12600
O  -13.44200 44.19800 41.66100
C  -15.09400 42.89500 42.75000
N  -13.47500 37.37200 42.89100
C  -14.39900 38.32000 42.89200
C  -15.83600 37.91600 43.04400
C  -15.54800 36.39200 43.47800
C  -14.14900 36.16800 43.15300
C  -16.53300 38.67500 44.13100
C  -16.52100 35.39200 42.92000
C  -17.01900 34.26500 43.90900
N  -11.30000 35.60500 42.82600
C  -12.19400 34.57000 43.13700
C  -11.43200 33.30600 43.10500
C  -10.22100 33.65000 42.59200
C  -10.12600 35.05600 42.44700
C  -12.04800 32.00700 43.33300
C  -8.95300 33.04300 42.16100
O  -8.59600 31.84300 42.15800
C  -7.96200 34.19400 41.74800
C  -6.83000 34.25200 42.70900
O  -5.64800 34.14800 42.38900
O  -7.28700 34.30400 44.00800
C  -6.29100 34.37000 45.08300
H  -8.91500 40.93600 40.84700
H  -14.98000 40.20600 42.43400
H  -14.24100 34.08400 43.65400
H  -6.38100 36.86200 40.99600
H  -7.19900 39.34500 40.21000
H  -7.41700 39.32200 43.11700
H  -6.17100 40.06300 42.11000
H  -6.01900 38.38900 42.71700
H  -8.39500 37.56200 38.95400
H  -8.07900 35.88300 39.16800
H  -5.45000 36.89600 38.77000
H  -6.40700 37.86000 37.73100
H  -10.95900 43.46400 39.88200
H  -9.58200 42.81200 40.80900
H  -10.59700 44.12300 41.48500
H  -15.56100 43.77700 43.18900
H  -15.12000 42.27200 43.64400
H  -15.75300 42.37800 42.05300
H  -16.35800 38.08100 42.10100
H  -15.60500 36.45900 44.56500
H  -15.84600 39.22700 44.77200
H  -17.12500 37.90600 44.62700
H  -17.14700 39.41300 43.61400
H  -16.06700 34.95700 42.02900
H  -17.37000 36.00500 42.62000
H  -16.40600 34.17100 44.80500
H  -16.93100 33.26200 43.49200
H  -18.03400 34.54300 44.19300
H  -11.54100 31.52100 44.16700
H  -11.92600 31.37600 42.45300
H  -13.09600 32.09000 43.61900
H  -7.74700 34.08400 40.68500
H  -6.78800 34.65600 46.01100
H  -5.44800 35.02700 44.87000
H  -5.90100 33.36300 45.23000

