158

Mg 23.86200 -7.51100 47.17000
C  26.49600 -5.32600 46.08900
C  21.90700 -6.16400 44.85000
C  21.74300 -9.94700 47.93700
C  26.41400 -9.26800 49.08400
N  24.26700 -5.92900 45.47200
C  25.29000 -5.05700 45.41500
C  25.00600 -3.96600 44.35600
C  23.45900 -4.21100 44.10800
C  23.19900 -5.56400 44.79300
C  22.55300 -3.08000 44.59700
C  25.89500 -4.06700 43.03500
C  26.24600 -2.76200 42.44200
H  27.00800 -2.79300 41.09100
N  22.04400 -8.00400 46.46200
C  21.34400 -7.18700 45.61900
C  19.93800 -7.56600 45.74500
C  19.89500 -8.71700 46.57600
C  21.22700 -8.92900 47.07000
C  18.98500 -6.82100 44.90200
C  18.62900 -9.47800 47.01900
O  17.54000 -9.11800 46.60700
C  18.57100 -10.45100 48.06900
N  24.06700 -9.30700 48.36900
C  22.94100 -10.10700 48.50100
C  23.24500 -11.31700 49.34200
C  24.82000 -11.19500 49.58000
C  25.17600 -9.85700 48.98100
C  22.37600 -11.42000 50.67000
C  25.79500 -12.37400 49.15900
C  26.77700 -12.82000 50.28000
N  25.91900 -7.19000 47.65900
C  26.79800 -8.06900 48.36500
C  28.13800 -7.53600 48.38800
C  28.01800 -6.30200 47.53300
C  26.68600 -6.27300 47.05900
C  29.39200 -7.96300 49.13000
C  28.78600 -5.29700 46.87700
O  29.97600 -4.99000 46.87500
C  27.86000 -4.63800 45.93400
C  27.76300 -3.17500 46.11400
O  27.08100 -2.61800 46.93600
O  28.56500 -2.55900 45.14000
C  28.81400 -1.16200 45.25100
H  21.16200 -5.61100 44.27400
H  21.04900 -10.78100 48.05700
H  27.26300 -9.67300 49.63900
H  25.07300 -3.01200 44.88000
H  23.25400 -4.26300 43.03800
H  21.81000 -2.94500 43.81100
H  23.08500 -2.15000 44.79600
H  22.15500 -3.37800 45.56700
H  25.38800 -4.67900 42.28800
H  26.74800 -4.74300 43.09900
H  26.79300 -2.30700 43.26800
H  25.24700 -2.42100 42.17000
H  19.09000 -5.74700 45.05700
H  17.94500 -7.06600 45.11400
H  19.14500 -6.98500 43.83700
H  19.07100 -11.35600 47.72600
H  17.53600 -10.63900 48.35300
H  19.05700 -10.10700 48.98200
H  23.08000 -12.11400 48.61700
H  24.99900 -11.17300 50.65500
H  21.55100 -10.72600 50.82900
H  22.97500 -11.25600 51.56600
H  21.99200 -12.42300 50.85700
H  26.37300 -12.09500 48.27800
H  25.20600 -13.25600 48.90800
H  27.56000 -13.40100 49.79300
H  26.27500 -13.50400 50.96400
H  27.21600 -12.04900 50.91300
H  29.19900 -8.86800 49.70600
H  29.70100 -7.16800 49.80900
H  30.21900 -8.13400 48.44200
H  28.21800 -4.87100 44.93100
H  29.55600 -0.81400 44.53200
H  29.26200 -0.95200 46.22200
H  27.87000 -0.63200 45.12200
Mg 16.02400 52.54300 25.50300
C  18.05200 51.52000 28.37600
C  13.46300 52.95600 27.66300
C  14.16600 53.28900 22.81700
C  18.72300 51.45900 23.48400
N  15.78700 52.11200 27.72000
C  16.73300 51.89000 28.70400
C  16.21100 52.30000 30.13700
C  14.68400 52.36900 29.88000
C  14.62700 52.53800 28.30200
C  13.91600 51.15600 30.49800
C  16.91100 53.62700 30.64600
C  16.76700 53.89800 32.17900
H  16.19000 52.78700 33.04400
N  14.08500 53.10500 25.27900
C  13.17700 53.19700 26.25200
C  11.89800 53.63900 25.77300
C  12.04500 53.73500 24.39300
C  13.47700 53.38400 24.07200
C  10.68900 53.92100 26.56700
C  11.02800 54.23800 23.31700
O  11.42500 54.39800 22.18700
C  9.49500 54.52700 23.60000
N  16.35500 52.32900 23.43900
C  15.42900 52.77800 22.52700
C  16.03100 52.74800 21.09800
C  17.42800 52.09000 21.35200
C  17.52000 51.91400 22.85500
C  15.16700 52.27300 19.93000
C  18.57100 52.83300 20.64500
C  19.29700 53.85200 21.51300
N  17.99600 51.67600 25.78500
C  19.04600 51.33600 24.86100
C  20.08500 50.79500 25.58300
C  19.77000 50.84100 26.90600
C  18.53300 51.44100 27.00400
C  21.43600 50.39400 25.03500
C  20.31400 50.60500 28.17400
O  21.45100 50.19700 28.43800
C  19.21400 50.96000 29.20600
C  18.83500 49.74600 30.07700
O  18.39500 48.65200 29.69500
O  19.14600 50.00000 31.40700
C  18.65100 49.03800 32.43200
H  12.68400 53.06100 28.42100
H  13.59600 53.50200 21.91000
H  19.52100 51.03500 22.87000
H  16.51200 51.44800 30.74600
H  14.31000 53.29100 30.32600
H  13.25500 51.57800 31.25500
H  14.63300 50.55400 31.05600
H  13.36600 50.64600 29.70700
H  16.40500 54.45000 30.14200
H  17.91900 53.71400 30.24000
H  16.07300 54.73700 32.20600
H  17.67000 54.17300 32.72400
H  9.99400 53.08400 26.49000
H  10.28800 54.87500 26.22600
H  10.99500 54.08400 27.60100
H  9.09200 53.74200 24.23900
H  8.89300 54.71700 22.71100
H  9.37000 55.44000 24.18300
H  16.23300 53.81300 20.97900
H  17.31400 51.09000 20.93500
H  14.84800 51.27000 20.21500
H  15.86600 52.29100 19.09400
H  14.31500 52.89300 19.65300
H  18.26200 53.30300 19.71100
H  19.28600 52.04700 20.40100
H  19.26100 54.82200 21.01700
H  20.32800 53.54100 21.68000
H  19.00300 54.15400 22.51800
H  21.58200 49.31500 24.99600
H  22.20300 50.93400 25.59000
H  21.46800 50.64000 23.97300
H  19.56300 51.79200 29.81800
H  17.67600 48.63000 32.16600
H  18.75300 49.47800 33.42500
H  19.34600 48.20100 32.49400

