158

Mg -0.00200 7.91900 26.83800
C  1.07200 9.91800 29.47500
C  -0.16100 5.24100 29.03700
C  -0.55700 6.00400 24.14700
C  0.31400 10.72100 24.74800
N  0.50600 7.64500 28.91100
C  0.84300 8.57900 29.89200
C  0.78700 8.05200 31.38600
C  0.34500 6.61400 31.13500
C  0.26000 6.46900 29.60900
C  1.32000 5.52600 31.78800
C  -0.08000 8.80900 32.37300
C  0.38500 8.73900 33.86200
H  -0.44100 8.02400 34.88900
N  -0.23300 5.90400 26.64100
C  -0.31700 5.00800 27.64400
C  -0.71700 3.73200 26.98600
C  -0.67000 3.86700 25.57600
C  -0.45500 5.33800 25.41200
C  -1.00300 2.56100 27.83900
C  -0.96700 2.84400 24.43900
O  -0.99300 3.02200 23.23600
C  -1.15500 1.36900 24.84400
N  -0.02900 8.28700 24.77100
C  -0.33600 7.33400 23.84400
C  -0.56900 7.93200 22.46900
C  -0.61000 9.47700 22.76700
C  -0.10300 9.51900 24.15700
C  0.45500 7.42600 21.45800
C  -2.05000 10.09900 22.76600
C  -2.72600 10.34700 21.36900
N  0.43700 9.96000 27.01200
C  0.62900 10.95500 26.08200
C  1.09800 12.21700 26.71200
C  1.30700 11.76500 28.05100
C  0.96400 10.43700 28.15800
C  1.29900 13.45800 26.02200
C  1.77800 12.24700 29.30600
O  2.22500 13.31100 29.63600
C  1.52700 11.12000 30.27900
C  2.73900 10.82800 31.10100
O  3.76500 10.24400 30.76800
O  2.48300 11.39900 32.31300
C  3.67600 11.34900 33.27300
H  -0.31600 4.44700 29.77000
H  -0.77600 5.42700 23.24700
H  0.35000 11.59600 24.09600
H  1.80300 8.01400 31.78000
H  -0.68200 6.40500 31.43800
H  0.80800 4.62100 32.11500
H  1.69800 5.86400 32.75300
H  2.12000 5.08700 31.19100
H  -1.05800 8.35100 32.22400
H  -0.16600 9.86800 32.13000
H  0.67400 9.73500 34.20000
H  1.39100 8.34300 34.00100
H  -0.28700 1.75000 27.70900
H  -1.94200 2.13200 27.48900
H  -1.29800 2.71100 28.87700
H  -0.27600 1.11200 25.43500
H  -1.50100 0.52000 24.25400
H  -2.07400 1.52800 25.40900
H  -1.55300 7.63900 22.10300
H  0.03800 10.18600 22.25200
H  0.63400 8.05800 20.58900
H  0.12900 6.54600 20.90500
H  1.41200 7.15600 21.90400
H  -2.01800 11.10300 23.18900
H  -2.71000 9.60000 23.47600
H  -2.17000 9.89400 20.54800
H  -2.81100 11.43100 21.30300
H  -3.68900 9.83600 21.34900
H  0.48400 14.17700 26.10600
H  1.47600 13.46600 24.94600
H  2.14500 13.92700 26.52400
H  0.71200 11.51300 30.88700
H  4.62100 11.52000 32.75700
H  3.69400 10.37200 33.75500
H  3.60400 12.19300 33.95900
Mg 43.96400 5.11900 47.06700
C  42.04100 8.08200 46.78200
C  41.02200 3.38700 46.56100
C  45.88700 2.39100 46.56100
C  46.90100 7.06700 46.74800
N  41.77200 5.65800 46.77400
C  41.25200 6.90700 46.63500
C  39.75000 6.81500 46.42200
C  39.43100 5.36100 46.83900
C  40.81000 4.74300 46.72100
C  38.79000 5.09700 48.23900
C  39.42700 7.09300 44.93200
C  38.75900 8.42200 44.58300
H  39.29600 9.30100 43.41400
N  43.49100 3.17300 46.77200
C  42.27900 2.63000 46.61700
C  42.38600 1.18400 46.40700
C  43.73300 0.88100 46.68300
C  44.51000 2.19300 46.58800
C  41.28000 0.29900 46.16100
C  44.30100 -0.53100 47.11800
O  43.61600 -1.53800 47.13500
C  45.70800 -0.58000 47.36900
N  46.11500 4.81400 46.52900
C  46.63300 3.52700 46.49800
C  48.21400 3.58000 46.44500
C  48.50000 5.11700 46.45400
C  47.06600 5.67800 46.55800
C  48.92300 2.89500 47.60700
C  49.36200 5.57700 45.24900
C  50.61300 6.33800 45.50400
N  44.49000 7.19400 46.84700
C  45.71400 7.83800 46.86900
C  45.46700 9.28100 46.92300
C  44.02100 9.44800 46.99400
C  43.49800 8.13000 46.90800
C  46.52200 10.37900 46.77300
C  42.91100 10.38200 47.03500
O  42.83500 11.59400 47.14800
C  41.63600 9.54100 46.76200
C  40.71800 9.84200 47.90900
O  40.79400 9.51700 49.12100
O  39.94100 10.78500 47.49800
C  39.09300 11.38300 48.51900
H  40.19000 2.71000 46.35300
H  46.48300 1.48400 46.43900
H  47.88700 7.53600 46.76900
H  39.17200 7.48000 47.06400
H  38.79200 4.85000 46.12000
H  39.36500 4.52900 48.97000
H  37.83700 4.61500 48.02300
H  38.74800 6.10200 48.66000
H  38.84100 6.29300 44.48000
H  40.37800 7.14200 44.40200
H  38.71000 9.05700 45.46800
H  37.74700 8.06600 44.39200
H  40.56900 0.48200 46.96700
H  41.54300 -0.75700 46.09200
H  40.75300 0.63300 45.26700
H  46.26600 -0.65800 46.43600
H  45.98000 -1.46500 47.94400
H  45.99500 0.27700 47.97800
H  48.43000 3.17100 45.45800
H  48.92000 5.44600 47.40400
H  49.31100 1.90300 47.37800
H  48.34600 2.84800 48.53100
H  49.81400 3.47200 47.85500
H  48.74100 6.28100 44.69500
H  49.67800 4.70700 44.67300
H  51.41500 6.08700 44.81100
H  50.89400 6.20700 46.54900
H  50.40600 7.39400 45.32900
H  46.17600 11.28800 46.28000
H  47.33900 9.90200 46.23200
H  46.95200 10.48000 47.76900
H  41.28700 9.96700 45.82200
H  38.83800 12.41500 48.27700
H  39.71200 11.46900 49.41200
H  38.21400 10.76200 48.68900

