158

Mg 26.21100 0.76000 29.05200
C  28.20400 0.44100 31.74900
C  23.49600 1.26900 31.17700
C  24.22000 0.64100 26.34200
C  28.91600 -0.33800 26.95900
N  25.92600 0.70100 31.30000
C  26.92800 0.81300 32.08800
C  26.50600 1.02300 33.53800
C  24.91300 1.20100 33.39500
C  24.75500 1.13500 31.86300
C  24.05200 0.25900 34.26800
C  27.23800 2.20700 34.19200
C  26.67100 2.92500 35.45000
H  27.46500 2.78400 36.72900
N  24.13800 0.95300 28.77200
C  23.20100 1.01000 29.82600
C  21.95200 0.81100 29.23600
C  22.06200 0.73000 27.82300
C  23.50500 0.87200 27.57100
C  20.64000 0.98000 29.96000
C  21.00600 0.60800 26.80200
O  21.27400 0.67100 25.62000
C  19.62700 0.29000 27.16300
N  26.51700 0.12900 26.90600
C  25.55700 0.39300 26.02200
C  25.99500 0.13500 24.58400
C  27.53200 -0.07200 24.73000
C  27.69800 -0.12800 26.29700
C  25.35300 -1.10300 23.91100
C  28.42100 1.02700 23.92200
C  28.33300 0.84700 22.43800
N  28.10000 0.21100 29.28300
C  29.09500 -0.22500 28.38200
C  30.32400 -0.49600 29.09700
C  30.03200 -0.21500 30.40200
C  28.66600 0.16200 30.50300
C  31.64900 -1.04200 28.49200
C  30.59700 -0.10300 31.74100
O  31.71700 -0.46800 32.19600
C  29.44200 0.33700 32.68500
C  29.25900 -0.64200 33.80300
O  28.82300 -1.76800 33.64700
O  29.70300 -0.23800 35.02700
C  29.76700 -1.25300 36.08600
H  22.61600 1.45300 31.79700
H  23.55900 0.51200 25.48200
H  29.72700 -0.69600 26.32200
H  26.74800 0.13900 34.12700
H  24.48400 2.19000 33.55200
H  23.70600 -0.64600 33.76700
H  23.17100 0.87100 34.46100
H  24.53300 0.07100 35.22800
H  27.58700 2.92900 33.45400
H  28.10200 1.71000 34.63500
H  25.62300 2.66500 35.60300
H  26.67000 3.96800 35.13200
H  20.07500 1.76200 29.45300
H  20.74200 1.20400 31.02200
H  19.98500 0.11400 29.87200
H  19.07300 1.19100 27.42800
H  19.71600 -0.43300 27.97400
H  19.12000 -0.17400 26.31700
H  25.76100 1.08900 24.11100
H  27.77800 -1.08700 24.41800
H  24.66700 -1.61400 24.58700
H  26.01500 -1.81900 23.42400
H  24.71000 -0.72200 23.11800
H  29.45000 0.78900 24.19200
H  28.18100 2.04600 24.22300
H  28.35500 1.74600 21.82200
H  27.48500 0.24900 22.10300
H  29.23400 0.32200 22.12300
H  31.55100 -2.12600 28.42100
H  32.45600 -0.87100 29.20500
H  31.85800 -0.72600 27.47000
H  29.62200 1.27400 33.21300
H  30.80400 -1.27600 36.42100
H  29.39900 -2.23200 35.77900
H  29.02100 -0.99300 36.83600
Mg 0.42000 43.29600 25.08700
C  2.85900 42.74200 27.69500
C  -1.92300 42.35000 27.32600
C  -1.53700 42.97700 22.43200
C  3.19500 43.85800 22.85800
N  0.45600 42.70300 27.29200
C  1.53800 42.47100 28.08000
C  1.00800 42.15600 29.46600
C  -0.49000 41.90800 29.33700
C  -0.66600 42.37300 27.87700
C  -0.95400 40.38300 29.62100
C  1.24900 43.38400 30.34200
C  0.92800 43.30200 31.82900
H  0.32000 41.92900 32.39600
N  -1.52500 42.75900 24.93000
C  -2.38700 42.43400 25.96300
C  -3.67800 42.03800 25.42900
C  -3.58800 42.23900 24.00500
C  -2.15500 42.66300 23.70100
C  -4.84400 41.58900 26.18000
C  -4.63700 42.02900 22.95100
O  -4.35700 42.16900 21.76800
C  -5.99900 41.55800 23.31900
N  0.76900 43.30100 23.01600
C  -0.24900 43.41300 22.12200
C  0.17700 43.82800 20.73200
C  1.64800 44.14000 20.91900
C  1.91000 43.68300 22.34300
C  -0.22700 42.87400 19.61500
C  2.10000 45.54800 20.54800
C  2.19300 46.65000 21.62100
N  2.57900 43.39600 25.20300
C  3.52000 43.66300 24.21300
C  4.83300 43.66000 24.81900
C  4.65900 43.31300 26.17000
C  3.24700 43.11400 26.36400
C  6.12300 43.84000 24.06100
C  5.36100 43.06400 27.43100
O  6.58000 43.07700 27.72100
C  4.15600 42.78200 28.47500
C  4.44800 41.63400 29.41100
O  4.53200 40.44900 29.12000
O  4.48600 42.16100 30.67700
C  4.64400 41.23900 31.72000
H  -2.70600 42.16600 28.06500
H  -2.20100 42.89500 21.56900
H  4.06200 44.25800 22.32800
H  1.46700 41.25300 29.86700
H  -1.03000 42.68500 29.87700
H  -0.22600 39.87700 30.25400
H  -1.08300 39.89200 28.65600
H  -1.80400 40.37300 30.30400
H  0.82100 44.33000 30.00900
H  2.31000 43.63500 30.35300
H  0.21400 44.07000 32.12800
H  1.83500 43.59300 32.36100
H  -5.25900 40.68600 25.73200
H  -5.55700 42.40400 26.30300
H  -4.52700 41.34200 27.19300
H  -6.48400 42.23100 24.02600
H  -5.90000 40.52100 23.63900
H  -6.61600 41.53000 22.42100
H  -0.38700 44.74700 20.57200
H  2.19800 43.36900 20.38100
H  -0.31100 41.84900 19.97500
H  0.57900 42.92800 18.88200
H  -1.15100 43.17700 19.12200
H  1.42100 45.95100 19.79600
H  3.08100 45.32900 20.12700
H  1.37200 46.42000 22.30000
H  2.22300 47.70100 21.33300
H  3.09300 46.56800 22.23000
H  6.92900 43.27300 24.52500
H  6.36000 44.89300 24.21700
H  5.96600 43.57600 23.01500
H  4.17800 43.64100 29.14600
H  4.04600 41.60700 32.55400
H  5.69100 41.19500 32.02000
H  4.28700 40.23300 31.49600

