158

Mg 35.76100 0.66300 29.37500
C  33.97700 2.06400 31.93000
C  38.40300 0.24100 31.41000
C  37.74200 0.17000 26.63400
C  33.26700 1.94300 27.14600
N  36.12800 1.06000 31.46100
C  35.24300 1.60800 32.36400
C  35.77000 1.51800 33.81700
C  37.30200 1.21000 33.53200
C  37.26500 0.76100 32.04200
C  38.21700 2.37400 33.82400
C  34.98700 0.55300 34.73800
C  34.52100 1.02600 36.10500
H  35.40500 2.12900 36.83500
N  37.75700 -0.01900 29.06400
C  38.63300 -0.18000 30.07000
C  39.88700 -0.61500 29.54000
C  39.72700 -0.65600 28.14600
C  38.34100 -0.14900 27.88800
C  41.18500 -0.82600 30.37800
C  40.70700 -1.16200 27.04300
O  40.49300 -1.10400 25.80900
C  42.07200 -1.86400 27.36900
N  35.52900 1.03700 27.22900
C  36.49600 0.70700 26.29100
C  36.03400 1.04700 24.86200
C  34.52000 1.22900 25.04900
C  34.36000 1.34300 26.58700
C  36.72100 2.42600 24.39400
C  33.68300 0.06000 24.51300
C  33.67200 -1.21800 25.35800
N  33.88800 1.62400 29.43400
C  32.95200 2.03700 28.54100
C  31.73700 2.57300 29.21400
C  32.09900 2.58400 30.54900
C  33.42900 2.00800 30.61600
C  30.61300 3.40700 28.69200
C  31.78900 3.15700 31.88700
O  30.89700 3.91300 32.24700
C  32.95200 2.65200 32.86800
C  33.32900 3.84100 33.59900
O  34.22800 4.60200 33.38700
O  32.52000 3.91800 34.69300
C  32.69700 5.09000 35.57500
H  39.25800 0.14800 32.08400
H  38.46000 0.03600 25.82300
H  32.45900 2.13800 26.43800
H  35.66900 2.51200 34.25400
H  37.55200 0.28300 34.04700
H  37.71300 3.21600 33.35000
H  39.19100 2.13700 33.39800
H  38.26000 2.53500 34.90100
H  35.49100 -0.37200 35.01700
H  34.04700 0.33700 34.23000
H  34.47800 0.13500 36.73100
H  33.49700 1.38600 36.00000
H  42.00900 -0.40600 29.80100
H  41.40800 -1.89100 30.42800
H  41.22900 -0.27300 31.31600
H  41.92900 -2.50400 28.24000
H  42.82600 -1.11500 27.60900
H  42.49700 -2.35100 26.49100
H  36.34100 0.24600 24.18900
H  34.16600 2.15200 24.58900
H  37.15600 2.45300 23.39500
H  37.53500 2.71300 25.06000
H  36.02500 3.26400 24.36700
H  34.07000 -0.12700 23.51100
H  32.65900 0.42800 24.44800
H  33.46600 -2.10300 24.75600
H  32.88900 -1.15800 26.11400
H  34.64400 -1.36500 25.83000
H  30.28700 4.23900 29.31700
H  29.73200 2.77500 28.57600
H  30.90800 3.73700 27.69500
H  32.54400 1.92000 33.56500
H  31.66200 5.41700 35.67100
H  33.46400 5.78400 35.23200
H  32.98900 4.72100 36.55900
Mg -5.01500 25.23700 26.49100
C  -3.50600 26.86000 29.03700
C  -6.54700 23.09400 28.65700
C  -6.54400 23.59800 23.80900
C  -3.65200 27.48800 24.25700
N  -4.93700 24.96300 28.55200
C  -4.45100 25.88900 29.45300
C  -4.81600 25.48100 30.90000
C  -5.58800 24.14000 30.68800
C  -5.72600 24.10100 29.18300
C  -4.73400 22.96200 31.27500
C  -5.58800 26.68400 31.56700
C  -5.86700 26.69900 33.11200
H  -5.55700 25.41700 33.91800
N  -6.29100 23.53000 26.29500
C  -6.79000 22.84600 27.33300
C  -7.62400 21.72200 26.83300
C  -7.76700 21.87200 25.46300
C  -6.81800 22.99500 25.11600
C  -8.30200 20.70800 27.69900
C  -8.53200 21.09400 24.41600
O  -8.42300 21.42600 23.27200
C  -9.59000 20.04600 24.91700
N  -5.07600 25.53900 24.28900
C  -5.91200 24.81700 23.45900
C  -5.77300 25.30500 22.06000
C  -4.84900 26.66000 22.21500
C  -4.50700 26.55900 23.65900
C  -5.26300 24.40900 20.86500
C  -5.54800 27.96200 21.80200
C  -5.07600 28.54300 20.41700
N  -3.73800 26.70200 26.55000
C  -3.23300 27.53800 25.59500
C  -2.29800 28.49700 26.16100
C  -2.34100 28.24500 27.49600
C  -3.24700 27.15100 27.66200
C  -1.39900 29.54100 25.48000
C  -1.78900 28.66400 28.73800
O  -0.85000 29.46300 29.00700
C  -2.62900 27.83600 29.80900
C  -2.00200 27.19700 30.95600
O  -1.24000 26.26500 30.85600
O  -2.36800 27.88700 32.12700
C  -1.89200 27.22000 33.27800
H  -7.12900 22.55300 29.40600
H  -6.87700 23.14200 22.87400
H  -3.30300 28.35100 23.68500
H  -3.90500 25.27800 31.46300
H  -6.55300 24.28100 31.17500
H  -5.29400 22.39300 32.01600
H  -3.74500 23.18000 31.67800
H  -4.47200 22.35100 30.41100
H  -6.47000 26.87500 30.95600
H  -4.96400 27.56900 31.43800
H  -6.90500 26.99500 33.26400
H  -5.34400 27.58000 33.48500
H  -7.94100 19.70600 27.47000
H  -9.37000 20.79900 27.49800
H  -8.21100 20.83500 28.77800
H  -9.31800 19.23400 25.59000
H  -10.15700 19.72300 24.04300
H  -10.32900 20.68400 25.40200
H  -6.78700 25.59000 21.77800
H  -3.92800 26.48000 21.66100
H  -4.22700 24.50000 20.53800
H  -5.93000 24.76400 20.08000
H  -5.52400 23.35500 20.95400
H  -5.36200 28.71900 22.56400
H  -6.57700 27.60500 21.84800
H  -4.34800 29.30700 20.68900
H  -5.89000 28.99700 19.85100
H  -4.57500 27.76600 19.84100
H  -1.58700 29.49000 24.40800
H  -0.35000 29.33100 25.68900
H  -1.78300 30.52400 25.75400
H  -3.38800 28.50100 30.22100
H  -1.04700 27.74400 33.72400
H  -1.60600 26.18100 33.11400
H  -2.71700 27.09200 33.98000

