158

Mg 48.06400 15.91300 28.72000
C  45.82000 15.33600 31.33700
C  50.13800 17.44100 30.87500
C  49.90100 16.81700 26.09200
C  45.73000 14.54000 26.51000
N  47.93100 16.41300 30.83800
C  47.02100 16.01900 31.78000
C  47.31000 16.36600 33.18200
C  48.53800 17.32300 32.93300
C  48.97100 17.04400 31.52600
C  48.26900 18.81100 33.33600
C  47.49900 15.11500 34.13300
C  46.67400 15.02500 35.40300
H  46.57800 16.18600 36.39100
N  49.80800 16.90900 28.55700
C  50.62600 17.42000 29.56500
C  51.85700 17.89300 29.02100
C  51.77600 17.71000 27.59600
C  50.41700 17.18400 27.36600
C  52.99100 18.38800 29.89000
C  52.87600 17.94500 26.55900
O  52.89500 17.59000 25.38300
C  54.09900 18.74900 26.91900
N  47.77200 15.93800 26.50700
C  48.67300 16.30600 25.62400
C  48.31600 15.92900 24.14300
C  47.03500 15.06000 24.43000
C  46.86500 15.08500 25.91600
C  48.17800 17.10400 23.07900
C  47.17100 13.67400 23.71500
C  46.45000 13.56700 22.27900
N  46.18500 15.08500 28.86100
C  45.38500 14.56000 27.91000
C  44.22000 13.94900 28.41700
C  44.25200 14.32800 29.80100
C  45.53100 14.94500 30.00900
C  43.09000 13.35400 27.66200
C  43.57400 14.24400 31.03400
O  42.49300 13.67200 31.36200
C  44.50000 14.99300 32.13300
C  43.75600 15.97900 32.82200
O  43.50000 17.11200 32.49500
O  43.38600 15.47700 34.03300
C  42.76400 16.49800 34.87400
H  50.75500 17.95100 31.61700
H  50.53000 17.13300 25.25800
H  45.06500 13.93200 25.89300
H  46.42300 16.88600 33.54400
H  49.33600 16.94800 33.57500
H  48.97100 19.24900 34.04600
H  47.20800 18.92500 33.56000
H  48.39100 19.34800 32.39500
H  48.55100 14.90800 34.33000
H  47.18600 14.24300 33.55700
H  47.11500 14.17700 35.92700
H  45.65700 14.71500 35.16300
H  52.91900 19.40700 30.27000
H  54.02500 18.35200 29.54500
H  52.99100 17.74000 30.76700
H  54.93700 18.17800 27.31900
H  53.81000 19.58000 27.56200
H  54.44400 19.24300 26.01100
H  49.20300 15.39100 23.80900
H  46.15900 15.62700 24.11600
H  47.10700 17.27200 22.96600
H  48.77600 16.87400 22.19800
H  48.58400 18.04600 23.44900
H  46.79600 12.82100 24.28000
H  48.22200 13.46800 23.51500
H  46.87300 14.08400 21.41800
H  45.41700 13.91500 22.28900
H  46.53400 12.48600 22.16500
H  42.62600 14.12200 27.04300
H  42.34000 12.86200 28.28200
H  43.56400 12.52700 27.13400
H  44.74700 14.20700 32.84700
H  43.49200 17.23900 35.20200
H  42.20900 16.08100 35.71400
H  41.98700 17.02900 34.32400
Mg -9.75100 40.12900 41.50900
C  -8.57800 36.85100 40.61800
C  -6.82600 41.38900 40.33700
C  -11.19600 43.09800 41.67400
C  -12.85500 38.69200 42.25700
N  -7.95300 39.20500 40.49400
C  -7.64800 37.85300 40.38400
C  -6.28400 37.71200 39.74100
C  -5.60100 39.07700 40.08000
C  -6.88000 39.96400 40.40100
C  -4.64100 39.08800 41.28700
C  -6.41600 37.41400 38.16800
C  -5.59900 36.32000 37.51300
H  -4.40700 36.81500 36.60700
N  -9.01100 41.97100 41.29300
C  -7.85200 42.30700 40.67700
C  -7.84700 43.75000 40.61800
C  -9.00000 44.27500 41.18600
C  -9.82800 43.10900 41.40900
C  -6.64500 44.43600 40.12000
C  -9.30100 45.74600 41.32400
O  -8.39300 46.55300 41.05200
C  -10.61600 46.24400 41.89000
N  -11.81900 40.80400 42.08800
C  -12.10800 42.12600 42.02900
C  -13.64300 42.31400 42.12000
C  -14.11100 40.92000 42.60500
C  -12.89300 40.06300 42.30700
C  -14.20000 43.46500 43.08100
C  -15.29800 40.41900 41.81500
C  -16.22800 39.42500 42.53200
N  -10.51000 38.17400 41.57200
C  -11.80900 37.77900 41.90300
C  -11.90100 36.34100 41.87900
C  -10.66200 35.95400 41.34300
C  -9.84200 37.12300 41.12100
C  -13.23900 35.59100 42.23900
C  -9.83700 34.80200 40.91600
O  -10.09600 33.58900 40.97500
C  -8.52100 35.35900 40.46400
C  -7.42300 34.75600 41.20100
O  -7.28600 34.87500 42.39600
O  -6.47800 34.14700 40.35500
C  -5.36700 33.70800 41.11800
H  -5.92700 41.84800 39.91900
H  -11.66200 44.08500 41.70500
H  -13.83900 38.31200 42.54000
H  -5.81700 36.92600 40.33300
H  -5.07200 39.44700 39.20300
H  -4.64400 38.10400 41.75500
H  -4.88300 39.77900 42.09400
H  -3.63000 39.26900 40.92000
H  -6.06000 38.34000 37.71500
H  -7.43700 37.23500 37.83100
H  -6.33600 35.71900 36.98000
H  -5.20100 35.74400 38.34800
H  -6.81500 44.62800 39.06100
H  -5.73500 43.85000 40.25100
H  -6.41600 45.38000 40.61600
H  -10.67100 45.94600 42.93700
H  -11.51100 46.00700 41.31400
H  -10.52000 47.32600 41.97400
H  -13.90500 42.57100 41.09400
H  -14.19400 40.89600 43.69200
H  -13.40000 43.82100 43.73100
H  -14.89800 43.02000 43.78900
H  -14.61600 44.31600 42.54100
H  -14.93300 39.90800 40.92400
H  -15.87200 41.25200 41.40900
H  -17.30200 39.58100 42.43200
H  -15.92100 39.38200 43.57700
H  -15.95100 38.50900 42.00900
H  -13.82600 35.31600 41.36300
H  -13.87800 36.20400 42.87400
H  -12.97900 34.63200 42.68600
H  -8.41900 35.10900 39.40800
H  -4.80900 34.50400 41.61200
H  -4.75700 33.07700 40.47200
H  -5.70700 32.97700 41.85100

