158

Mg 44.16700 4.90500 46.78200
C  42.25200 7.93900 46.44600
C  41.13800 3.29300 45.96000
C  45.92400 2.24200 46.19400
C  47.01800 6.95700 46.48200
N  41.93300 5.56100 46.35900
C  41.45600 6.87000 46.36200
C  39.98100 6.91700 46.01700
C  39.55300 5.40800 45.89100
C  40.91300 4.69500 46.06800
C  38.51600 4.87900 46.91400
C  39.68600 7.73400 44.75600
C  40.59000 7.48700 43.52100
H  39.91900 7.79600 42.17500
N  43.56200 3.01300 46.33700
C  42.27900 2.48800 45.99300
C  42.44200 1.04700 45.63200
C  43.87200 0.78600 45.61500
C  44.54800 2.04100 46.13400
C  41.31900 0.13800 45.28100
C  44.49200 -0.54900 45.24500
O  43.84200 -1.55200 44.95800
C  45.96800 -0.74800 45.22000
N  46.16700 4.59000 46.38700
C  46.67000 3.37300 46.44500
C  48.18900 3.39700 46.28300
C  48.53100 4.86500 46.43800
C  47.16400 5.57400 46.47500
C  48.97200 2.37600 47.09300
C  49.56600 5.48500 45.42300
C  50.93200 5.78400 46.09600
N  44.58600 6.98500 46.70100
C  45.82200 7.70800 46.61100
C  45.61300 9.14800 46.55600
C  44.22100 9.27800 46.57500
C  43.67100 8.00100 46.57000
C  46.66300 10.24500 46.51500
C  43.10700 10.26500 46.54600
O  43.07600 11.46700 46.44600
C  41.85100 9.41600 46.40300
C  40.94700 9.69600 47.53400
O  41.14800 9.43700 48.69100
O  39.78600 10.32100 47.06200
C  38.66200 10.47300 48.06100
H  40.25700 2.73200 45.64200
H  46.53300 1.33700 46.13800
H  47.94400 7.53400 46.45700
H  39.43000 7.41100 46.81800
H  39.10400 5.07400 44.95500
H  38.25100 5.70700 47.57200
H  38.89100 4.06800 47.53900
H  37.64400 4.46000 46.41100
H  39.65100 8.78700 45.03500
H  38.71600 7.33800 44.45500
H  40.97300 6.46700 43.49600
H  41.46700 8.12400 43.63800
H  41.48900 -0.13300 44.23900
H  40.39300 0.71200 45.31700
H  41.25700 -0.69100 45.98600
H  46.15000 -1.75900 44.85500
H  46.37700 -0.77300 46.23000
H  46.48200 -0.02800 44.58400
H  48.36200 3.12100 45.24300
H  48.75000 4.91700 47.50400
H  48.33900 1.60700 47.53600
H  49.47000 2.94700 47.87600
H  49.73300 1.79000 46.57800
H  49.20900 6.42400 44.99900
H  49.75100 4.92000 44.51000
H  51.10800 5.53400 47.14200
H  51.46400 6.73500 46.06400
H  51.67200 5.23800 45.51200
H  47.57800 9.71400 46.25200
H  46.75300 10.70800 47.49700
H  46.40800 10.98200 45.75300
H  41.28900 9.82200 45.56200
H  38.04200 11.23300 47.58500
H  38.86700 10.65100 49.11700
H  38.04900 9.57800 47.95400
Mg -5.88200 24.84600 26.86300
C  -4.27900 25.93300 29.75100
C  -8.01200 22.93600 28.78400
C  -7.20800 23.59800 24.02500
C  -3.58500 26.70900 25.01400
N  -6.11900 24.50700 28.98800
C  -5.33400 25.00800 30.00600
C  -5.85800 24.57600 31.32800
C  -6.77000 23.36700 31.02500
C  -7.05400 23.67700 29.51300
C  -6.14400 21.97400 31.24700
C  -6.57800 25.73600 32.17400
C  -6.07400 25.98200 33.62100
H  -5.15600 24.98600 34.37100
N  -7.46400 23.51700 26.44400
C  -8.19300 22.83700 27.38700
C  -9.28500 22.15500 26.74500
C  -9.07300 22.36800 25.35500
C  -7.90400 23.19700 25.18700
C  -10.36600 21.33200 27.51200
C  -9.93300 21.90600 24.11700
O  -9.64800 22.12200 22.96400
C  -11.20200 21.02200 24.30500
N  -5.44500 25.12300 24.74000
C  -6.09100 24.41200 23.80500
C  -5.56500 24.64200 22.47000
C  -4.37700 25.68900 22.72600
C  -4.50000 25.91600 24.25800
C  -4.99300 23.46300 21.75200
C  -4.34300 27.04900 21.84500
C  -3.13200 27.17800 20.89500
N  -4.34200 26.16800 27.20900
C  -3.51200 26.95700 26.38300
C  -2.57400 27.62100 27.13400
C  -2.85500 27.31200 28.46600
C  -3.90900 26.39500 28.46500
C  -1.53900 28.51000 26.51900
C  -2.40600 27.56800 29.86800
O  -1.43800 28.21200 30.25500
C  -3.34400 26.58600 30.83600
C  -2.36800 25.71300 31.53100
O  -1.97300 24.65800 31.08000
O  -1.97000 26.26500 32.75000
C  -0.96500 25.57700 33.45700
H  -8.64000 22.40100 29.49900
H  -7.56400 23.11700 23.11100
H  -2.85100 27.26800 24.42900
H  -4.94900 24.33900 31.88200
H  -7.67100 23.32500 31.63700
H  -5.08200 22.18400 31.37700
H  -6.09000 21.36700 30.34400
H  -6.60300 21.41300 32.06100
H  -7.56300 25.29900 32.33800
H  -6.66500 26.61400 31.53500
H  -6.95600 26.16400 34.23500
H  -5.49900 26.90600 33.55600
H  -11.32200 21.83000 27.66900
H  -9.94100 21.11700 28.49300
H  -10.57200 20.41600 26.95800
H  -11.81600 21.50400 25.06600
H  -10.79700 20.08400 24.68200
H  -11.60100 20.90200 23.29700
H  -6.26600 25.04000 21.73700
H  -3.41400 25.18000 22.71100
H  -3.98400 23.39100 21.34600
H  -5.48800 23.41700 20.78200
H  -5.20300 22.53800 22.28900
H  -4.24000 27.83800 22.59000
H  -5.31000 27.17800 21.35800
H  -2.50700 26.30400 21.07900
H  -2.59100 28.04500 21.27400
H  -3.38300 27.30900 19.84200
H  -0.92100 27.78400 25.98900
H  -1.04200 28.95300 27.38100
H  -1.89100 29.27600 25.82800
H  -3.94000 27.13600 31.56500
H  -0.09300 26.20500 33.63900
H  -0.63800 24.67600 32.93700
H  -1.30800 25.22000 34.42800

