158

Mg 47.32200 24.33800 27.57400
C  48.28500 26.67800 30.05500
C  47.07300 21.97400 30.03200
C  46.73300 21.97400 25.22900
C  48.24400 26.65400 25.10200
N  47.69700 24.39500 29.77800
C  47.76900 25.47900 30.55300
C  47.67000 25.07000 32.03700
C  47.38100 23.55100 32.01100
C  47.42600 23.26300 30.47600
C  48.33400 22.69300 32.90900
C  46.78500 26.06000 32.89400
C  46.29900 25.64800 34.34200
H  46.79700 26.61300 35.44000
N  46.94600 22.24500 27.62000
C  46.79800 21.49400 28.75800
C  46.35400 20.17100 28.44000
C  46.26300 20.10900 26.99200
C  46.80500 21.38600 26.51100
C  45.92500 19.14000 29.58100
C  45.71300 19.00700 26.11000
O  45.90100 19.09000 24.86400
C  44.94700 17.87400 26.55300
N  47.47700 24.27200 25.59800
C  46.92500 23.28300 24.81200
C  46.65400 23.76000 23.34400
C  46.93400 25.24400 23.43600
C  47.58500 25.41300 24.76300
C  47.43800 22.95200 22.24700
C  45.63700 26.05400 23.16800
C  44.62300 26.21700 24.37700
N  48.18400 26.34600 27.50000
C  48.47100 27.09200 26.45700
C  49.01000 28.35500 26.94200
C  48.95100 28.30800 28.33700
C  48.51100 27.00100 28.63600
C  49.38400 29.43600 26.04800
C  49.18500 28.96800 29.56800
O  49.65000 30.01500 29.84900
C  48.67800 28.02400 30.68100
C  49.77900 27.92400 31.58700
O  50.70100 27.16900 31.60100
O  49.56400 28.80100 32.62100
C  50.53000 28.77000 33.80100
H  46.76700 21.24500 30.78600
H  46.38400 21.38600 24.37800
H  48.10400 27.39700 24.31300
H  48.67600 25.31300 32.37900
H  46.37500 23.30100 32.34500
H  47.99100 21.66500 33.03100
H  48.25600 23.19200 33.87500
H  49.36400 22.73100 32.55300
H  46.00500 26.45400 32.24200
H  47.38800 26.96800 32.91200
H  46.71200 24.67500 34.60800
H  45.22200 25.51600 34.44800
H  46.79900 18.56100 29.88000
H  45.27700 18.34500 29.21100
H  45.37800 19.53000 30.44000
H  44.28400 17.55100 25.75000
H  44.25600 18.22600 27.31800
H  45.63600 17.05300 26.75400
H  45.60000 23.60200 23.11400
H  47.56700 25.44700 22.57200
H  48.48500 23.25300 22.30300
H  47.23700 23.16800 21.19800
H  47.25000 21.87900 22.26000
H  45.15100 25.50800 22.36000
H  45.81600 27.08400 22.85700
H  44.89000 26.96400 25.12500
H  44.12500 25.30200 24.69900
H  43.76000 26.79600 24.04700
H  49.09400 30.37900 26.51100
H  48.80000 29.31500 25.13600
H  50.46200 29.55600 25.93400
H  47.79000 28.49000 31.10900
H  50.47100 27.79400 34.28200
H  50.43800 29.49700 34.60800
H  51.54000 28.76000 33.39100
Mg 0.35600 44.08100 25.59000
C  2.39000 43.70100 28.38400
C  -2.37800 43.19200 27.54200
C  -1.64500 43.76600 22.71200
C  3.07900 44.32100 23.58200
N  0.03500 43.54400 27.70800
C  0.99300 43.57600 28.75000
C  0.43500 43.32400 30.18100
C  -1.05500 42.90500 29.78700
C  -1.18300 43.25100 28.26400
C  -1.41400 41.41200 30.16600
C  0.42600 44.63800 31.07900
C  0.85500 44.44000 32.48500
H  0.72200 43.06600 33.14800
N  -1.73500 43.78500 25.27200
C  -2.67400 43.51000 26.21800
C  -3.97700 43.49300 25.55700
C  -3.75400 43.62800 24.14300
C  -2.31100 43.73400 23.99500
C  -5.26500 43.36000 26.33400
C  -4.77900 43.55500 23.07700
O  -4.51900 43.58800 21.87300
C  -6.29100 43.41000 23.34600
N  0.69300 43.74100 23.40200
C  -0.26700 43.83500 22.43100
C  0.36700 43.94000 21.08700
C  1.81000 44.42700 21.40200
C  1.89700 44.14300 22.85900
C  0.14600 42.68300 20.27300
C  1.92300 45.95200 21.15800
C  3.07200 46.45600 20.40100
N  2.35200 43.97800 25.86500
C  3.36300 44.22300 24.93400
C  4.58600 44.36200 25.65200
C  4.28100 44.06000 27.03500
C  2.89200 43.81700 27.10300
C  5.96600 44.67900 25.04200
C  4.82400 44.06200 28.38500
O  5.98200 44.18600 28.79200
C  3.59800 43.79600 29.28100
C  3.77400 42.60300 30.11100
O  3.45400 41.44300 29.86100
O  4.37900 42.95800 31.26000
C  4.74000 41.99200 32.19900
H  -3.32000 42.98400 28.05300
H  -2.21000 43.67900 21.78200
H  3.91500 44.61000 22.94200
H  1.08300 42.51100 30.51100
H  -1.74700 43.60500 30.25500
H  -2.28300 41.47900 30.82000
H  -0.62800 41.02300 30.81300
H  -1.55700 40.78200 29.28800
H  -0.53200 45.15700 31.05700
H  1.14300 45.30300 30.59600
H  0.08900 45.02400 32.99500
H  1.83800 44.85900 32.69800
H  -6.04500 44.06900 26.05700
H  -5.17500 43.63600 27.38500
H  -5.65200 42.34100 26.30500
H  -6.90700 43.23600 22.46400
H  -6.68100 44.33200 23.77600
H  -6.37800 42.53400 23.98900
H  -0.12300 44.74000 20.53200
H  2.64200 43.92300 20.91000
H  -0.39400 41.94700 20.86800
H  1.13900 42.30200 20.03500
H  -0.46000 42.88100 19.38900
H  1.99300 46.51000 22.09200
H  1.07400 46.44400 20.68200
H  3.64500 47.12800 21.03900
H  2.79200 46.96000 19.47600
H  3.76100 45.69200 20.04100
H  6.39300 45.62600 25.37200
H  5.92100 44.76400 23.95700
H  6.59400 43.84800 25.36500
H  3.53700 44.69000 29.90100
H  4.73700 42.37500 33.21900
H  5.68600 41.49800 31.97700
H  3.90700 41.28900 32.23600

