158

Mg 35.98500 49.08100 24.38900
C  35.97800 47.47800 27.56300
C  34.33700 51.70600 26.14400
C  35.38900 50.46700 21.40600
C  37.06500 46.07600 23.08300
N  35.19300 49.55200 26.61400
C  35.48800 48.79400 27.69500
C  35.10700 49.59600 28.96900
C  34.40500 50.88100 28.52400
C  34.63400 50.72100 27.04800
C  32.91000 51.03500 28.84900
C  36.36700 49.83200 29.92700
C  36.05800 49.86200 31.41500
H  34.52900 49.80100 31.87500
N  35.19300 50.88500 23.83600
C  34.56300 51.82100 24.73500
C  34.13200 52.95200 23.89900
C  34.37300 52.66500 22.55400
C  35.01000 51.27900 22.49600
C  33.44400 54.25100 24.42900
C  34.06900 53.49700 21.29200
O  34.27700 52.97300 20.13400
C  33.83200 54.92000 21.32800
N  36.30400 48.48200 22.56200
C  35.98000 49.19700 21.43700
C  36.42500 48.45200 20.18100
C  37.21400 47.21600 20.72100
C  36.85800 47.19200 22.22100
C  35.34200 48.18100 19.06000
C  38.69900 46.99500 20.31500
C  39.70900 47.93000 21.06100
N  36.54100 47.13000 25.11300
C  36.99100 45.99700 24.50400
C  37.19200 44.93800 25.37300
C  36.87500 45.48100 26.61200
C  36.38800 46.76600 26.39600
C  37.65600 43.50900 25.03500
C  36.85300 45.16400 28.00200
O  37.12000 44.09400 28.58300
C  36.40200 46.45500 28.70400
C  35.27600 46.16000 29.59900
O  34.09200 46.01900 29.24900
O  35.72700 46.02500 30.94300
C  34.92900 45.13400 31.72300
H  33.71800 52.53100 26.50400
H  35.11300 50.60300 20.35800
H  37.59800 45.18100 22.75700
H  34.45400 48.95900 29.56500
H  34.99800 51.71700 28.89400
H  32.28800 51.01300 27.95400
H  32.72900 51.98100 29.36000
H  32.68900 50.25700 29.57900
H  36.85300 50.74700 29.58900
H  37.05500 49.06000 29.58000
H  36.51900 50.76200 31.82200
H  36.44900 49.01200 31.97300
H  34.22700 55.00800 24.47900
H  33.12700 54.17700 25.47000
H  32.49700 54.54500 23.97700
H  32.97000 55.16400 21.95000
H  33.75600 55.21400 20.28100
H  34.75800 55.34800 21.71200
H  37.20100 49.06000 19.71400
H  36.68000 46.32800 20.38100
H  34.54800 48.92700 19.11000
H  34.81800 47.25500 19.29600
H  35.86300 48.21800 18.10400
H  38.84000 47.16800 19.24800
H  39.09300 45.98000 20.36800
H  39.03800 48.69100 21.45800
H  40.48700 48.39700 20.45800
H  40.07200 47.34600 21.90700
H  37.62100 43.22400 23.98300
H  36.94700 42.80900 25.47700
H  38.64600 43.34800 25.46200
H  37.30900 46.61400 29.28600
H  34.92300 44.13100 31.29600
H  33.89300 45.47100 31.75900
H  35.24200 45.14500 32.76700
Mg 17.07200 51.77400 25.50000
C  18.72500 50.31100 28.38500
C  14.52500 52.38700 27.63800
C  15.47400 52.87800 22.93400
C  19.61600 50.45800 23.57400
N  16.79800 51.55900 27.81900
C  17.60700 50.97700 28.76800
C  17.05700 51.23200 30.19600
C  15.57200 51.78700 29.85300
C  15.57400 51.90700 28.34900
C  14.36800 51.03200 30.44600
C  18.03300 52.32100 30.90500
C  18.05600 52.37600 32.41600
H  17.15900 51.35200 33.13700
N  15.25700 52.51400 25.29100
C  14.32200 52.74700 26.25200
C  13.10800 53.38800 25.70200
C  13.36200 53.55400 24.28200
C  14.67200 52.91300 24.06800
C  12.00700 53.91200 26.50100
C  12.54700 54.32400 23.30600
O  12.80800 54.48300 22.11700
C  11.35300 55.14800 23.77400
N  17.41000 51.60200 23.46400
C  16.63800 52.17100 22.54100
C  17.29300 52.15500 21.18000
C  18.73200 51.51400 21.48300
C  18.51400 51.08500 22.91100
C  16.40200 51.59900 20.00800
C  19.98400 52.42800 21.27700
C  20.95100 52.00400 20.09400
N  18.72900 50.58600 25.82300
C  19.72400 50.14000 24.91500
C  20.72400 49.42100 25.56000
C  20.36800 49.46300 26.92800
C  19.13200 50.17100 27.02600
C  21.88200 48.78600 24.86300
C  20.81600 49.04300 28.29300
O  21.83900 48.49000 28.63400
C  19.69900 49.52300 29.26400
C  19.13200 48.28900 29.99800
O  18.80200 47.24400 29.46300
O  19.18100 48.48600 31.32700
C  18.88300 47.27100 32.12400
H  13.66800 52.56100 28.29200
H  14.93500 53.32700 22.09700
H  20.55900 50.30700 23.04400
H  17.00000 50.37100 30.86200
H  15.50400 52.78600 30.28600
H  13.64300 51.65400 30.97000
H  14.73400 50.27300 31.13800
H  13.87600 50.46500 29.65500
H  17.58300 53.28400 30.66500
H  19.01500 52.26400 30.43500
H  17.82500 53.40600 32.68900
H  19.07800 52.06600 32.63200
H  12.07200 54.99500 26.39300
H  12.20300 53.64900 27.54000
H  11.02400 53.55900 26.18800
H  10.85300 55.67600 22.96200
H  11.74500 55.91000 24.44800
H  10.62500 54.48800 24.24500
H  17.34600 53.23900 21.07300
H  18.81900 50.65300 20.82000
H  15.68900 50.96800 20.53800
H  17.04600 51.02100 19.34500
H  16.02800 52.42200 19.39900
H  20.57500 52.43200 22.19300
H  19.62300 53.45500 21.21100
H  20.78200 52.74800 19.31600
H  20.92900 51.01300 19.63900
H  21.98900 52.08400 20.41700
H  22.01600 49.20500 23.86500
H  21.73100 47.70800 24.80000
H  22.84900 49.04800 25.29200
H  20.16700 50.15300 30.02100
H  17.94100 46.82300 31.80600
H  18.96000 47.39900 33.20300
H  19.63400 46.50200 31.94300

