158

Mg 47.10300 34.57000 27.74300
C  45.37000 32.91900 30.15400
C  47.59800 37.24000 29.93100
C  48.32800 36.45200 25.24400
C  46.41700 32.06400 25.50000
N  46.59100 35.02400 29.81000
C  45.86700 34.11500 30.61500
C  46.02700 34.57100 32.14300
C  46.23500 36.11300 31.90000
C  46.82500 36.17300 30.44400
C  44.91800 36.97200 32.04800
C  47.17200 33.81900 32.82200
C  47.02500 33.68200 34.35500
H  46.02800 34.54300 35.13900
N  47.91100 36.57600 27.59100
C  48.05600 37.45700 28.63400
C  48.66600 38.65900 28.06900
C  48.81100 38.42700 26.70600
C  48.30700 37.17200 26.45800
C  49.02400 39.78000 28.97900
C  49.40300 39.31500 25.67900
O  49.28200 39.17300 24.47700
C  49.94800 40.59300 26.17700
N  47.22600 34.35300 25.63800
C  47.86400 35.20300 24.86800
C  48.15200 34.68700 23.46100
C  47.72800 33.19600 23.64300
C  47.06800 33.15600 25.02900
C  47.43500 35.46600 22.38500
C  48.79100 32.13900 23.68800
C  48.67300 30.90500 22.72800
N  46.03100 32.82200 27.73100
C  45.84100 31.84300 26.75500
C  45.24800 30.69400 27.32400
C  44.91700 31.15600 28.64900
C  45.45400 32.38900 28.89100
C  45.04700 29.35600 26.72500
C  44.33800 30.70800 29.84700
O  43.73900 29.67600 30.17500
C  44.44200 31.89400 30.83000
C  44.77900 31.40100 32.21500
O  45.68400 30.57200 32.47700
O  43.94600 31.85000 33.09900
C  44.15600 31.46500 34.46700
H  47.65800 38.02100 30.69200
H  48.67500 36.93000 24.32600
H  46.33500 31.23200 24.79800
H  45.09100 34.53000 32.70000
H  47.00200 36.45300 32.59600
H  43.94300 36.49300 31.97100
H  44.88300 37.72800 31.26300
H  45.00100 37.58900 32.94300
H  48.11000 34.32500 32.59600
H  47.24900 32.82400 32.38500
H  48.00400 34.01500 34.69900
H  46.90600 32.63200 34.62500
H  50.05800 40.12200 28.91900
H  48.68900 39.68800 30.01200
H  48.42300 40.67600 28.82700
H  49.21200 41.11400 26.78800
H  50.02200 41.19700 25.27300
H  50.93300 40.57400 26.64500
H  49.23300 34.68900 23.32100
H  47.05200 32.91600 22.83400
H  46.83500 36.23700 22.86900
H  46.71400 34.89200 21.80200
H  48.11600 35.71000 21.57000
H  48.99600 31.64300 24.63700
H  49.69000 32.65900 23.35600
H  47.74000 30.87500 22.16500
H  48.70800 29.92400 23.20200
H  49.49000 31.02100 22.01700
H  45.67800 29.08200 25.87900
H  44.01800 29.26000 26.38000
H  45.23400 28.73400 27.60100
H  43.47000 32.38800 30.83400
H  44.14600 30.41700 34.76800
H  43.41000 31.96800 35.08200
H  45.15400 31.76800 34.78500
Mg 16.44200 51.51800 25.20300
C  18.02700 50.46300 27.97400
C  13.52800 52.08200 27.18200
C  14.73200 52.52600 22.52100
C  18.80100 50.04000 23.21800
N  15.84700 51.23100 27.30700
C  16.72700 50.94200 28.25900
C  16.31900 51.37900 29.70200
C  14.82300 51.63200 29.37200
C  14.71500 51.71400 27.88200
C  13.85700 50.63300 30.06900
C  17.03500 52.64600 30.24700
C  17.40700 52.70000 31.78700
H  16.55500 51.81200 32.73300
N  14.47100 52.41800 24.94700
C  13.45600 52.58400 25.90700
C  12.38100 53.46300 25.30500
C  12.71300 53.57900 23.90700
C  14.02800 52.87400 23.73600
C  11.23600 54.16500 26.07700
C  11.97600 54.28500 22.74200
O  12.29100 54.20500 21.54900
C  10.78600 55.05200 23.00400
N  16.72200 51.29700 23.14800
C  15.88000 51.80100 22.27600
C  16.37700 51.53600 20.87400
C  17.79700 50.83700 21.07300
C  17.74400 50.73700 22.59200
C  15.43800 50.60800 20.02000
C  18.86200 51.66900 20.40800
C  19.64700 50.94300 19.21600
N  18.10100 50.50000 25.52800
C  19.04200 49.93100 24.61800
C  20.13200 49.34200 25.35700
C  19.75700 49.55400 26.67100
C  18.48200 50.12700 26.69700
C  21.37500 48.70200 24.76700
C  20.23100 49.32200 28.01000
O  21.26600 48.81900 28.42900
C  19.09700 49.91000 28.90900
C  18.54400 48.87300 29.80800
O  17.64900 48.07800 29.63700
O  19.37900 48.83700 30.88700
C  19.01900 47.97200 32.03900
H  12.67800 52.34100 27.81700
H  14.12600 52.87200 21.68100
H  19.49100 49.46800 22.59500
H  16.50000 50.53200 30.36400
H  14.40700 52.55900 29.76700
H  14.38600 50.12100 30.87300
H  13.39100 49.90100 29.40900
H  13.07300 51.17500 30.59800
H  16.27100 53.42300 30.21500
H  17.93700 52.90600 29.69300
H  17.36000 53.71900 32.17000
H  18.37800 52.22100 31.91300
H  10.25300 53.88400 25.70000
H  11.34300 55.22600 25.85000
H  11.29400 53.91900 27.13800
H  11.01900 55.82100 23.74000
H  10.08600 54.41000 23.53800
H  10.30500 55.36700 22.07700
H  16.47600 52.58700 20.60500
H  17.87000 49.81000 20.71600
H  14.66700 50.15400 20.64200
H  15.93100 49.73600 19.58900
H  15.00800 51.14400 19.17400
H  19.58800 52.06700 21.11700
H  18.36200 52.52600 19.95600
H  20.69300 51.23700 19.30000
H  19.09600 51.12000 18.29200
H  19.63800 49.86800 19.39600
H  22.27200 49.02600 25.29600
H  21.52100 49.18400 23.80000
H  21.28200 47.61900 24.68500
H  19.53200 50.62400 29.60900
H  17.97500 47.69900 31.88700
H  19.00700 48.40100 33.04100
H  19.70500 47.12700 31.97400

