158

Mg 25.58800 0.12600 29.07400
C  27.34700 -0.22400 32.07000
C  22.68900 0.25500 30.97600
C  23.91000 0.61100 26.26500
C  28.46800 -0.51400 27.24200
N  25.05700 0.09500 31.35000
C  25.96000 -0.16900 32.33600
C  25.12200 -0.09800 33.68900
C  23.62500 -0.05000 33.27500
C  23.79100 0.04000 31.82300
C  22.68900 -1.24800 33.58200
C  25.43100 1.23300 34.45800
C  25.88800 1.02000 35.95000
H  25.68600 2.22100 36.87500
N  23.58600 0.37400 28.66800
C  22.56200 0.36300 29.54700
C  21.29000 0.54800 28.80900
C  21.64800 0.67400 27.45300
C  23.10200 0.56900 27.39800
C  19.94100 0.58000 29.43900
C  20.72900 0.84100 26.25400
O  21.14400 0.88200 25.13800
C  19.29100 0.88900 26.45400
N  26.03500 -0.26500 27.03000
C  25.26000 0.31400 26.08400
C  25.93000 0.43400 24.74300
C  27.31400 -0.20700 24.97500
C  27.25600 -0.36000 26.49700
C  25.18400 -0.05900 23.53100
C  28.58500 0.56100 24.45500
C  29.50400 -0.40300 23.57300
N  27.48500 -0.18200 29.49700
C  28.57500 -0.54600 28.67900
C  29.74800 -0.74800 29.50000
C  29.44100 -0.52700 30.87000
C  27.99500 -0.25100 30.77600
C  31.18400 -1.22000 29.00900
C  29.84700 -0.53800 32.25100
O  30.93300 -0.85100 32.77800
C  28.50100 -0.29000 33.09900
C  28.33500 -1.39900 34.13500
O  27.92400 -2.56400 33.85400
O  28.85500 -1.07000 35.38700
C  28.81400 -1.95300 36.53800
H  21.80000 0.34200 31.60400
H  23.43100 0.93400 25.33800
H  29.37300 -0.81500 26.70900
H  25.44600 -0.95400 34.28000
H  23.02900 0.83300 33.50300
H  22.77500 -1.79700 34.52000
H  22.75400 -2.03200 32.82700
H  21.68300 -0.84200 33.47300
H  24.56600 1.89700 34.46800
H  26.23700 1.74400 33.93200
H  26.93200 0.71400 35.89200
H  25.29000 0.25600 36.44800
H  19.95300 0.51300 30.52700
H  19.44700 -0.23500 28.91000
H  19.44300 1.48800 29.09700
H  18.98100 1.68600 27.13100
H  19.14900 -0.11000 26.86500
H  18.82900 0.96500 25.47000
H  25.99500 1.51300 24.59800
H  27.31200 -1.27100 24.73700
H  25.11100 0.77100 22.82900
H  24.23600 -0.52700 23.79800
H  25.69200 -0.89300 23.04700
H  29.17700 0.83800 25.32800
H  28.43300 1.46300 23.86300
H  28.92500 -1.05200 22.91500
H  30.18200 -1.03000 24.15200
H  30.14800 0.16900 22.90400
H  31.39700 -0.98400 27.96700
H  31.25100 -2.27500 29.27400
H  31.86900 -0.63100 29.61900
H  28.69600 0.53600 33.78300
H  28.60700 -3.01600 36.41600
H  28.07500 -1.60200 37.25800
H  29.67200 -1.89400 37.20800
Mg -0.28200 43.66400 24.38500
C  1.46200 43.21500 27.36000
C  -3.21600 43.00400 26.03300
C  -1.87300 43.35000 21.30900
C  2.77600 43.88200 22.61600
N  -0.81500 43.31400 26.50300
C  0.10400 43.14000 27.51900
C  -0.60400 42.78800 28.75100
C  -2.13500 42.63800 28.29700
C  -2.07600 42.95500 26.85000
C  -2.67600 41.23200 28.61400
C  -0.42600 43.80200 29.97600
C  -0.39700 43.22100 31.44100
H  -0.71800 41.76600 31.75500
N  -2.28000 43.37400 23.82500
C  -3.35500 43.19000 24.63000
C  -4.55100 43.26200 23.91500
C  -4.17300 43.22300 22.53600
C  -2.71700 43.32200 22.48500
C  -5.94700 43.20100 24.54900
C  -5.09300 43.12800 21.34500
O  -4.68800 43.27000 20.22400
C  -6.56600 42.64600 21.52600
N  0.31100 43.59400 22.35800
C  -0.47200 43.44000 21.25900
C  0.25000 43.40500 19.91400
C  1.63500 43.71700 20.33300
C  1.55200 43.68500 21.88700
C  0.05000 42.11800 19.02900
C  2.26600 45.01100 19.76000
C  1.50500 46.37100 19.86200
N  1.79500 43.52000 24.82800
C  2.89100 43.69800 23.99400
C  4.10200 43.63400 24.87100
C  3.58500 43.45600 26.16900
C  2.16700 43.38800 26.11600
C  5.62200 43.64400 24.43900
C  3.93000 43.28400 27.54500
O  4.98300 43.18500 28.10500
C  2.58900 43.06800 28.35000
C  2.71700 41.87800 29.16800
O  2.65300 40.75100 28.70800
O  3.00900 42.23200 30.44800
C  3.39700 41.19200 31.34400
H  -4.13400 42.89600 26.61400
H  -2.38200 43.15200 20.36400
H  3.64100 43.92300 21.95100
H  -0.22600 41.86100 29.18300
H  -2.85600 43.33300 28.72900
H  -1.94100 40.42900 28.65800
H  -3.40200 40.92700 27.86000
H  -3.06900 41.27200 29.63000
H  -1.29700 44.45600 29.94800
H  0.38200 44.49500 29.74000
H  -1.05600 43.86100 32.02700
H  0.64500 43.34800 31.73400
H  -6.43300 42.24500 24.35500
H  -6.54400 43.98000 24.07500
H  -6.07800 43.46500 25.59900
H  -7.22000 43.47800 21.78700
H  -6.63800 41.76000 22.15700
H  -6.82500 42.11200 20.61200
H  -0.15500 44.20300 19.29200
H  2.35200 42.95400 20.03100
H  0.72800 41.39700 19.48500
H  0.21800 42.34800 17.97700
H  -0.96000 41.73100 19.16900
H  2.42600 44.93800 18.68400
H  3.23400 45.19900 20.22500
H  0.93200 46.83000 19.05600
H  2.15500 47.22700 20.04700
H  0.83300 46.44200 20.71800
H  6.05300 44.54600 24.87300
H  5.72100 43.62800 23.35400
H  6.13800 42.73900 24.75900
H  2.46800 43.91400 29.02600
H  4.16500 40.60000 30.84700
H  2.54700 40.53200 31.51500
H  3.76900 41.63900 32.26600

