158

Mg 1.06600 -3.08600 44.18700
C  4.25000 -2.13900 43.30700
C  -0.23800 -0.65000 42.12600
C  -2.12300 -4.28200 44.77900
C  2.32200 -6.03800 45.60900
N  1.88400 -1.60900 42.78400
C  3.27800 -1.41300 42.60000
C  3.54000 -0.11100 41.65100
C  2.05200 0.33200 41.44400
C  1.14900 -0.66400 42.14000
C  1.70400 1.83700 41.72900
C  4.19300 -0.49900 40.25800
C  5.49800 0.31100 39.98100
H  5.91500 0.50200 38.51200
N  -0.95300 -2.51600 43.58700
C  -1.21900 -1.37800 42.87800
C  -2.66600 -1.26200 42.76500
C  -3.25100 -2.37100 43.38800
C  -2.08000 -3.08200 43.97900
C  -3.26100 -0.21600 41.85000
C  -4.76400 -2.62900 43.41000
O  -5.54800 -1.94000 42.85100
C  -5.25300 -3.77500 44.02300
N  0.22700 -5.09000 44.81600
C  -1.11600 -5.18600 45.23400
C  -1.39400 -6.48600 45.95900
C  0.05500 -7.13100 46.03500
C  0.97400 -5.96800 45.57100
C  -2.12300 -6.40200 47.33100
C  0.11200 -8.38600 45.25800
C  -0.59600 -9.62300 45.79600
N  2.87600 -3.85100 44.66100
C  3.26600 -5.11500 45.16400
C  4.71800 -5.13500 45.23000
C  5.06800 -3.99100 44.55400
C  3.93800 -3.28000 44.19900
C  5.56800 -6.15700 45.91700
C  6.24000 -3.28000 44.10800
O  7.43500 -3.57400 44.14000
C  5.76700 -2.01200 43.32300
C  6.27200 -0.70700 43.81900
O  6.84600 0.10200 43.11300
O  5.79500 -0.53300 45.07600
C  6.13700 0.81100 45.58300
H  -0.63600 0.17600 41.53200
H  -3.12000 -4.60000 45.09100
H  2.83300 -6.80100 46.20000
H  4.20800 0.57500 42.17300
H  1.85700 0.21500 40.37800
H  0.77700 1.81000 42.30000
H  1.51500 2.30900 40.76500
H  2.43900 2.35600 42.34500
H  3.51900 -0.49900 39.40200
H  4.44800 -1.53600 40.47300
H  6.28900 -0.36000 40.31600
H  5.48000 1.15100 40.67500
H  -4.24700 0.08100 42.20700
H  -3.33400 -0.33300 40.76900
H  -2.72100 0.71500 42.02600
H  -4.78800 -3.63200 44.99900
H  -4.89100 -4.69600 43.56600
H  -6.33700 -3.87200 44.07700
H  -2.06800 -7.05700 45.32000
H  0.31900 -7.28900 47.08100
H  -1.70600 -7.16500 47.98900
H  -3.15900 -6.63400 47.08500
H  -2.11800 -5.38200 47.71500
H  1.16800 -8.65800 45.27200
H  -0.27200 -8.21900 44.25100
H  -1.31900 -10.02600 45.08600
H  -1.15000 -9.51600 46.72800
H  0.21600 -10.33300 45.95400
H  5.30100 -6.40300 46.94500
H  6.58700 -5.77200 45.95800
H  5.71000 -7.01300 45.25800
H  6.13800 -2.19700 42.31500
H  5.89800 0.85700 46.64600
H  5.55000 1.56800 45.06300
H  7.20000 0.97200 45.40100
Mg 7.43200 52.96300 40.98500
C  6.98400 49.51300 40.30800
C  10.58300 52.70400 39.40200
C  7.52500 56.26600 40.89100
C  4.00300 52.98900 41.89700
N  8.46300 51.36500 39.90300
C  8.17100 50.00800 39.72400
C  9.31000 49.23700 39.00900
C  10.50400 50.14300 39.38400
C  9.82500 51.59500 39.55800
C  11.35600 49.83700 40.64300
C  8.97200 49.23300 37.44500
C  9.10600 47.88500 36.73600
H  8.19200 47.68300 35.47200
N  8.91100 54.34800 40.34500
C  10.15000 53.97300 39.83200
C  10.80700 55.23900 39.58300
C  10.01300 56.33300 39.97500
C  8.77400 55.72400 40.49600
C  12.13500 55.22500 38.91100
C  10.39300 57.80700 39.80600
O  11.50600 58.15800 39.45500
C  9.42600 58.87800 40.14700
N  5.88100 54.37100 41.02100
C  6.25900 55.65200 41.19000
C  5.06400 56.57000 41.73900
C  4.03900 55.48400 42.13100
C  4.65200 54.23100 41.64800
C  5.59300 57.53400 42.84900
C  2.59700 55.72200 41.58500
C  1.35700 55.36000 42.47800
N  5.85500 51.53200 41.14800
C  4.53400 51.71300 41.59800
C  3.93700 50.46900 41.73700
C  4.85400 49.48500 41.20500
C  5.99300 50.21400 40.85500
C  2.55200 50.35700 42.14700
C  5.11400 48.02500 40.93300
O  4.38100 47.00700 41.14800
C  6.59800 47.97800 40.41800
C  6.62400 47.17500 39.19900
O  6.36900 47.49400 38.02600
O  6.97900 45.90500 39.51700
C  6.76000 44.81400 38.56700
H  11.56100 52.66100 38.91800
H  7.43900 57.32300 41.15000
H  2.97500 52.97200 42.26400
H  9.33300 48.24000 39.45100
H  11.22500 50.11900 38.56700
H  10.83200 49.20400 41.35800
H  11.55200 50.70000 41.28000
H  12.29500 49.38200 40.32800
H  9.61000 49.87200 36.83500
H  7.96000 49.61900 37.32200
H  8.99600 47.05000 37.42900
H  10.11000 47.98000 36.32300
H  11.94700 55.23700 37.83800
H  12.71700 54.33900 39.16500
H  12.81100 56.03200 39.19600
H  9.06400 58.69900 41.15900
H  8.55000 58.78600 39.50600
H  9.88800 59.82800 39.87700
H  4.79600 57.06600 40.80700
H  3.97600 55.45800 43.21900
H  6.66200 57.48700 43.05500
H  4.98700 57.41400 43.74700
H  5.41400 58.56600 42.54700
H  2.47800 55.32000 40.57900
H  2.52500 56.80700 41.50200
H  0.89800 56.27600 42.85000
H  1.57800 54.68700 43.30600
H  0.54200 54.91700 41.90700
H  1.89900 50.85700 41.43200
H  2.38400 50.96300 43.03700
H  2.26700 49.30500 42.17200
H  7.24800 47.43700 41.10600
H  7.22600 45.16400 37.64600
H  5.72800 44.46700 38.51300
H  7.40900 43.99800 38.88600

