158

Mg -1.88300 18.13800 27.09900
C  -2.21500 16.04400 29.64300
C  -2.62000 20.85000 29.12100
C  -2.19600 20.17300 24.38100
C  -1.50300 15.38500 24.76200
N  -2.37100 18.40100 29.23100
C  -2.25300 17.35600 30.09800
C  -2.32200 17.89700 31.56200
C  -2.79800 19.45700 31.29100
C  -2.69800 19.59500 29.75500
C  -4.17600 19.67100 31.87500
C  -1.01600 17.84300 32.39000
C  -1.20100 17.27800 33.76700
H  -0.09800 17.39400 34.76700
N  -2.18000 20.25800 26.82600
C  -2.43600 21.20200 27.79500
C  -2.27900 22.54600 27.19500
C  -2.17900 22.33000 25.78100
C  -2.19000 20.85500 25.59700
C  -2.53500 23.82900 28.04900
C  -1.95600 23.27800 24.68400
O  -1.78500 22.93900 23.51800
C  -2.14300 24.72100 24.97700
N  -1.93900 17.79800 24.91100
C  -2.09100 18.84000 24.10300
C  -1.93100 18.30300 22.64600
C  -1.40900 16.83800 22.71200
C  -1.60600 16.64900 24.18500
C  -3.32100 18.45200 21.88000
C  0.12900 16.56600 22.23700
C  1.21600 17.28400 23.06900
N  -1.84300 16.11800 27.10300
C  -1.70900 15.09200 26.16300
C  -1.85000 13.82900 26.81500
C  -2.05700 14.14900 28.17900
C  -2.01000 15.52800 28.33800
C  -1.95100 12.50300 26.21300
C  -2.28100 13.59100 29.47200
O  -2.36000 12.44800 29.74900
C  -2.32000 14.74400 30.50000
C  -1.27300 14.62400 31.54900
O  -0.10900 15.02300 31.39700
O  -1.74500 13.92200 32.56300
C  -0.85400 13.62000 33.68900
H  -2.66100 21.67600 29.83400
H  -2.23200 20.72500 23.44000
H  -1.51800 14.50500 24.11700
H  -3.06000 17.42300 32.21000
H  -2.15100 20.11100 31.87500
H  -4.10500 20.16700 32.84200
H  -4.74400 18.74400 31.95900
H  -4.67600 20.27500 31.11800
H  -0.56900 18.82500 32.54500
H  -0.30700 17.23700 31.82600
H  -1.38100 16.22000 33.57500
H  -2.11500 17.67000 34.21300
H  -2.63200 24.79200 27.54800
H  -1.67300 23.80700 28.71600
H  -3.41400 23.80500 28.69300
H  -1.90400 25.39400 24.15400
H  -1.36900 24.99700 25.69400
H  -3.16300 24.90100 25.31500
H  -1.15000 18.98300 22.30600
H  -2.02600 16.11400 22.18100
H  -4.15300 18.43400 22.58400
H  -3.19500 17.62900 21.17700
H  -3.28400 19.39200 21.32900
H  0.21400 16.84400 21.18600
H  0.39900 15.51100 22.20300
H  1.81600 17.91700 22.41600
H  1.95300 16.63300 23.54000
H  0.80000 17.81900 23.92200
H  -1.52400 12.52700 25.21000
H  -3.02500 12.32500 26.16700
H  -1.52600 11.71200 26.83100
H  -3.28800 14.67500 30.99600
H  0.00900 14.26300 33.86100
H  -0.51000 12.60400 33.49400
H  -1.52400 13.60400 34.54900
Mg 41.27500 40.93100 26.93700
C  40.76500 43.32100 29.54800
C  42.79700 39.06100 29.25200
C  42.07100 38.98000 24.41400
C  40.42800 43.51000 24.61700
N  41.79000 41.27600 29.13900
C  41.35000 42.17900 30.01700
C  41.57100 41.76400 31.52100
C  42.52800 40.52100 31.30000
C  42.38600 40.23500 29.79300
C  43.98400 40.74300 31.75800
C  40.19500 41.51300 32.19600
C  39.96600 42.34400 33.43800
H  39.18000 41.84100 34.58800
N  42.22000 39.16100 26.88300
C  42.83200 38.50400 27.90900
C  43.34500 37.26800 27.51000
C  43.17400 37.20000 26.08300
C  42.43900 38.47900 25.73000
C  44.05200 36.24900 28.49000
C  43.52200 36.11200 25.08300
O  43.37500 36.22100 23.86300
C  44.27000 34.86900 25.57200
N  41.30200 41.20300 24.80200
C  41.67000 40.19200 23.98700
C  41.46600 40.64800 22.47900
C  40.73000 42.02200 22.62400
C  40.81700 42.27000 24.09300
C  42.78800 40.60500 21.59800
C  39.24800 41.92300 22.02600
C  38.20400 41.09200 22.84000
N  40.60900 42.92500 26.98600
C  40.32500 43.83300 26.00000
C  39.89700 45.11700 26.57000
C  40.02300 44.99300 27.92100
C  40.57900 43.66400 28.13900
C  39.39700 46.31900 25.74600
C  39.84200 45.60900 29.24100
O  39.39700 46.74400 29.44000
C  40.28200 44.49600 30.34300
C  41.36300 45.04300 31.25600
O  42.57100 45.07300 30.97200
O  40.78800 45.53700 32.46000
C  41.61600 46.19800 33.39000
H  43.23200 38.37100 29.97700
H  42.41300 38.38000 23.56900
H  40.05400 44.20800 23.86600
H  42.10900 42.53000 32.08000
H  42.10100 39.61500 31.72800
H  44.10400 40.09800 32.62900
H  44.17300 41.77800 32.04300
H  44.63100 40.49400 30.91700
H  40.22800 40.49500 32.58400
H  39.32100 41.61600 31.55200
H  39.44300 43.26600 33.18500
H  40.93700 42.64800 33.82900
H  45.08200 35.98600 28.25200
H  43.58400 35.26400 28.47300
H  44.03500 36.68800 29.48700
H  43.77700 34.44600 26.44700
H  45.28000 35.14400 25.87700
H  44.26600 34.03000 24.87600
H  40.79100 39.88600 22.09000
H  41.37500 42.68900 22.05100
H  43.38700 41.51400 21.64700
H  42.46700 40.58300 20.55700
H  43.25800 39.68800 21.95400
H  39.21900 41.54500 21.00300
H  38.91300 42.94500 21.84700
H  37.65900 41.70700 23.55600
H  38.69100 40.21600 23.26800
H  37.38200 40.83300 22.17300
H  39.18800 45.93200 24.74900
H  40.20500 47.04600 25.66300
H  38.65700 46.80900 26.37800
H  39.43900 44.28900 31.00200
H  42.01500 45.43200 34.05500
H  41.02000 46.95500 33.90000
H  42.42300 46.75000 32.90900

