158

Mg 49.81000 46.23800 43.23700
C  46.60600 46.78500 41.96900
C  49.85100 43.10800 41.79200
C  53.17700 46.09100 43.74000
C  49.82900 49.47000 44.54800
N  48.33600 45.12200 41.91700
C  47.06700 45.47000 41.58400
C  46.32600 44.30500 40.90100
C  47.30900 43.06700 41.15600
C  48.64000 43.81200 41.53600
C  46.75300 42.03400 42.15900
C  46.13900 44.68000 39.38200
C  44.72700 44.42300 38.85500
H  44.63000 43.35700 37.75200
N  51.30100 44.72500 42.91900
C  51.08400 43.53100 42.32000
C  52.26700 42.72900 42.41300
C  53.28900 43.54000 42.96700
C  52.65700 44.88300 43.19200
C  52.32300 41.23300 41.96500
C  54.70900 43.06000 43.23700
O  54.99900 41.87800 43.11200
C  55.68500 43.94200 43.84100
N  51.32800 47.66000 43.72600
C  52.54800 47.25800 44.07400
C  53.33800 48.32500 44.85100
C  52.19900 49.33000 45.25400
C  51.09700 48.81600 44.38800
C  54.19000 47.71000 46.07400
C  52.46000 50.83500 45.07800
C  52.10100 51.75200 46.26000
N  48.56400 47.88800 43.22500
C  48.62700 49.10200 43.86700
C  47.42900 49.88100 43.56200
C  46.59900 49.00700 42.84600
C  47.31900 47.78200 42.64400
C  47.19600 51.28200 43.89700
C  45.29100 48.88800 42.21700
O  44.33300 49.65300 42.05800
C  45.29000 47.45100 41.54600
C  44.08200 46.68500 42.09500
O  44.15500 46.11000 43.22500
O  42.98900 46.80000 41.37700
C  41.72700 46.20300 41.84600
H  49.80400 42.04600 41.54000
H  54.24200 46.00900 43.96400
H  49.82500 50.34100 45.20700
H  45.36400 44.14400 41.38800
H  47.42400 42.63400 40.16200
H  47.01500 41.06700 41.73200
H  45.67000 42.11000 42.25300
H  47.30300 42.11900 43.09700
H  46.84700 44.23200 38.68500
H  46.23200 45.76500 39.40600
H  44.23400 45.28000 38.39600
H  44.03500 44.10900 39.63700
H  51.47600 40.92900 41.35000
H  52.31400 40.54100 42.80700
H  53.19500 41.07100 41.33200
H  56.57000 43.38000 44.14100
H  55.30900 44.44800 44.73000
H  55.84500 44.70000 43.07400
H  54.06800 48.75800 44.16600
H  51.83300 49.16700 46.26800
H  53.87700 48.30600 46.93000
H  55.26600 47.82200 45.94600
H  53.83800 46.69800 46.27600
H  51.98400 51.25500 44.19200
H  53.53400 50.96300 44.94400
H  51.58900 52.63900 45.88500
H  52.98200 52.09200 46.80400
H  51.44200 51.34000 47.02400
H  48.03700 51.73900 44.42000
H  46.25900 51.30100 44.45300
H  47.02600 51.90300 43.01800
H  45.16200 47.62900 40.47900
H  41.90600 45.37100 42.52600
H  41.18700 45.68500 41.05400
H  41.16900 46.98100 42.36700
Mg 27.30500 51.07600 25.96700
C  25.28600 52.03500 28.72900
C  29.55200 49.89900 28.17100
C  29.17100 50.27500 23.31100
C  24.84900 52.43600 23.90500
N  27.35000 51.09000 28.21300
C  26.39500 51.36700 29.10100
C  26.85100 51.12800 30.43900
C  28.32400 50.56600 30.33500
C  28.40300 50.44800 28.80300
C  29.38900 51.54000 30.83400
C  25.84100 50.26500 31.35600
C  25.41400 50.64200 32.79300
H  26.58700 50.94400 33.73000
N  29.27400 50.35200 25.75200
C  29.99300 49.82900 26.80500
C  31.26700 49.31300 26.26000
C  31.14700 49.37300 24.83700
C  29.88800 50.01600 24.56400
C  32.33300 48.81500 27.16800
C  32.09400 48.85200 23.81700
O  31.88600 48.97400 22.60300
C  33.29100 47.97900 24.28300
N  27.10900 51.58800 23.95000
C  27.91200 50.90900 23.03800
C  27.35300 50.94300 21.59200
C  25.97900 51.60000 21.75400
C  25.95100 51.87300 23.28100
C  28.37500 51.60800 20.62400
C  24.67300 50.92100 21.14900
C  24.32900 49.56900 21.85900
N  25.50200 52.10000 26.22400
C  24.66500 52.64000 25.31200
C  23.62600 53.38200 25.91800
C  23.79400 53.17800 27.24900
C  24.95700 52.41700 27.41700
C  22.54700 54.18300 25.21700
C  23.25300 53.44200 28.59700
O  22.26000 54.10700 29.00900
C  24.19700 52.62100 29.55500
C  24.78800 53.69200 30.46900
O  25.79600 54.37600 30.23800
O  23.85500 53.93200 31.47500
C  24.11800 55.07000 32.30600
H  30.25100 49.57000 28.94200
H  29.57500 49.72100 22.46200
H  24.10000 52.87000 23.24000
H  26.89100 52.12900 30.87000
H  28.37800 49.56700 30.76700
H  30.32400 51.50000 30.27600
H  29.60800 51.29300 31.87300
H  29.05700 52.57300 30.72800
H  26.32500 49.29200 31.43400
H  24.94900 50.01800 30.78000
H  24.90100 49.83600 33.31700
H  24.74600 51.49600 32.91100
H  32.35700 47.75200 27.40800
H  32.23100 49.24700 28.16400
H  33.28500 49.18500 26.78900
H  33.63300 47.33700 23.47100
H  32.92100 47.23100 24.98400
H  34.20900 48.48300 24.58700
H  27.19800 49.95200 21.16500
H  26.05900 52.58500 21.29400
H  29.24900 52.12400 21.02100
H  27.82000 52.31700 20.00900
H  28.72500 50.84900 19.92500
H  24.73000 50.83200 20.06500
H  23.83000 51.59500 21.30000
H  24.83400 49.47000 22.82000
H  24.66800 48.74700 21.22900
H  23.25700 49.46800 22.03000
H  21.95900 54.70600 25.97100
H  21.83900 53.52800 24.70900
H  22.85900 55.05100 24.63600
H  23.70600 51.82100 30.10900
H  24.85700 54.70400 33.01800
H  23.20700 55.37900 32.81800
H  24.44500 55.89100 31.66700

