158

Mg 47.80700 16.31200 27.94900
C  45.91200 15.98800 30.91100
C  49.89700 18.40800 29.65400
C  49.23800 17.01500 24.98500
C  45.25700 14.46400 26.31800
N  47.89100 17.05400 30.06600
C  47.02600 16.78600 31.07800
C  47.52800 17.36800 32.46700
C  48.61000 18.36600 31.89400
C  48.82400 17.99500 30.41200
C  48.17500 19.80200 32.03900
C  48.02000 16.32600 33.51400
C  47.83800 16.83500 35.00400
H  47.63000 18.27600 35.35400
N  49.50900 17.42800 27.48100
C  50.24600 18.18500 28.33300
C  51.41600 18.73800 27.65500
C  51.20800 18.42500 26.23900
C  49.91600 17.63000 26.12100
C  52.55700 19.41600 28.41800
C  52.16000 18.72200 25.08800
O  51.89400 18.28500 23.95000
C  53.42100 19.55100 25.31000
N  47.37600 15.78700 25.97100
C  48.09000 16.20300 24.91700
C  47.54700 15.64100 23.61200
C  46.30800 14.80700 24.10000
C  46.35500 14.96800 25.59000
C  47.20000 16.68800 22.54400
C  46.35700 13.29900 23.65000
C  45.73300 13.13500 22.25200
N  45.89300 15.50600 28.45200
C  44.94500 14.77900 27.70300
C  43.82200 14.44900 28.50400
C  44.20800 14.81900 29.79200
C  45.43500 15.51100 29.70600
C  42.66700 13.56200 28.09000
C  43.73700 14.77200 31.17500
O  42.75800 14.31700 31.74800
C  44.89500 15.53000 31.90900
C  44.29700 16.73000 32.67100
O  44.03200 17.84100 32.17900
O  44.05100 16.30400 34.00000
C  43.48600 17.36900 34.87000
H  50.57600 19.05100 30.21700
H  49.68200 17.24600 24.01400
H  44.52200 13.75100 25.94000
H  46.64200 17.90900 32.79800
H  49.56700 18.24500 32.40000
H  47.40400 20.15600 32.72300
H  48.04400 20.28400 31.07100
H  49.04100 20.31000 32.46400
H  49.05500 16.09300 33.26500
H  47.39800 15.44900 33.33600
H  48.62600 16.52200 35.68700
H  46.97000 16.29500 35.38000
H  53.43700 18.78200 28.30300
H  52.46900 19.35300 29.50200
H  52.67700 20.42000 28.01200
H  53.58900 20.03500 24.34800
H  54.24100 18.91700 25.64900
H  53.17200 20.35400 26.00400
H  48.25300 14.93400 23.17600
H  45.40300 15.26900 23.70600
H  47.82700 16.63500 21.65400
H  47.41800 17.69100 22.91100
H  46.18200 16.61600 22.16000
H  45.92400 12.60200 24.36700
H  47.40900 13.01300 23.67200
H  44.87600 12.49300 22.45600
H  46.44500 12.74900 21.52300
H  45.32500 14.04800 21.81700
H  43.06300 12.74100 27.49300
H  42.01300 14.26400 27.57300
H  42.11200 13.13900 28.92800
H  45.29700 14.80100 32.61200
H  42.42900 17.39400 34.60600
H  44.06300 18.29300 34.83600
H  43.47400 17.09600 35.92500
Mg 16.54400 51.34800 26.23800
C  18.51200 49.74900 28.79400
C  14.30000 52.01700 28.74000
C  14.74300 52.61600 23.91600
C  18.82500 49.91000 23.95100
N  16.45400 50.90400 28.47700
C  17.41400 50.33300 29.30100
C  17.10400 50.66800 30.79400
C  15.61000 51.19400 30.73200
C  15.37800 51.33400 29.18100
C  14.48300 50.35400 31.40300
C  18.04700 51.72900 31.42800
C  18.74400 51.37800 32.73600
H  18.12100 52.01200 33.92000
N  14.68600 52.21500 26.29000
C  13.98100 52.51600 27.43900
C  12.91500 53.43600 26.95200
C  12.96900 53.55000 25.52100
C  14.11700 52.70800 25.18000
C  11.94700 54.07600 27.83100
C  12.16100 54.34000 24.51100
O  12.41700 54.46600 23.32900
C  10.91700 55.05500 25.07000
N  16.76900 51.26500 24.27000
C  15.88800 51.92900 23.51800
C  16.25100 51.81700 22.02900
C  17.54900 50.96900 22.01700
C  17.78800 50.70400 23.46600
C  15.15400 51.19400 21.19400
C  18.71500 51.65600 21.19200
C  19.61500 52.70200 21.95200
N  18.22200 49.99800 26.26500
C  19.06600 49.54800 25.28400
C  20.16900 48.74700 25.86800
C  19.96400 48.84100 27.22400
C  18.81800 49.60800 27.46700
C  21.27800 48.00500 25.09900
C  20.44900 48.42600 28.49600
O  21.45000 47.77700 28.81500
C  19.57200 49.05700 29.56800
C  19.23300 48.05900 30.63100
O  18.45800 47.08500 30.49300
O  19.92000 48.42600 31.73800
C  19.54200 47.70100 32.97200
H  13.50900 52.20500 29.46900
H  14.26900 53.09400 23.05600
H  19.51200 49.51800 23.19700
H  17.21000 49.73200 31.34400
H  15.49300 52.20200 31.13000
H  13.86900 50.86500 32.14500
H  14.98000 49.62500 32.04300
H  13.84000 49.92800 30.63200
H  17.58700 52.71400 31.50200
H  18.85500 51.85300 30.70700
H  19.76200 51.71300 32.53800
H  18.73700 50.33000 33.03500
H  12.05300 55.16100 27.82500
H  12.04900 53.76300 28.87000
H  11.01500 53.65400 27.45500
H  10.32300 55.57300 24.31600
H  11.47600 55.77000 25.67400
H  10.33400 54.37800 25.69400
H  16.59900 52.78400 21.66600
H  17.45600 49.96500 21.60300
H  14.47200 50.84100 21.96800
H  15.37100 50.27800 20.64500
H  14.72200 51.90300 20.48700
H  18.36300 52.15500 20.29000
H  19.32800 50.78300 20.96600
H  20.61600 52.36100 22.21800
H  19.16900 53.14100 22.84400
H  19.74000 53.59700 21.34300
H  20.69000 47.19900 24.66000
H  21.99600 47.64100 25.83500
H  21.67100 48.67100 24.33100
H  20.18800 49.79500 30.08200
H  19.33200 46.66700 32.69800
H  18.72900 48.24800 33.44800
H  20.45100 47.52200 33.54700

