158

Mg 48.11100 25.69100 28.05000
C  49.12200 27.89200 30.62400
C  47.71500 23.23800 30.40800
C  47.32200 23.56800 25.60400
C  49.69200 27.84800 25.73400
N  48.37200 25.62800 30.30200
C  48.65700 26.66800 31.13100
C  48.40200 26.31300 32.62800
C  48.10400 24.73400 32.53000
C  48.10500 24.47400 30.97500
C  48.85900 23.69000 33.32900
C  47.32600 27.32100 33.25700
C  46.59900 26.88800 34.51200
H  46.60000 27.82000 35.78900
N  47.51800 23.70200 28.07800
C  47.52000 22.80300 29.09300
C  46.89400 21.54000 28.64000
C  46.61400 21.73900 27.24500
C  47.19000 23.02800 26.90600
C  46.75400 20.36800 29.51700
C  45.87200 20.85500 26.30400
O  45.67700 21.15600 25.14800
C  45.44900 19.52700 26.79500
N  48.36700 25.71500 25.99500
C  47.88700 24.77700 25.20600
C  48.15200 25.08300 23.68700
C  48.85300 26.44800 23.74000
C  48.97200 26.73900 25.26100
C  49.01600 23.99600 22.92100
C  48.14100 27.63700 22.99400
C  48.98200 28.36300 21.99900
N  49.10000 27.55600 28.10400
C  49.72100 28.30200 27.10200
C  50.22500 29.55600 27.59000
C  50.00600 29.40400 28.96400
C  49.34500 28.16700 29.26000
C  50.89100 30.63300 26.77900
C  50.19100 30.04700 30.22700
O  50.79600 31.07500 30.44500
C  49.61500 29.13500 31.32800
C  50.70900 28.91000 32.33300
O  51.77600 28.32800 32.16300
O  50.29900 29.33800 33.55900
C  51.02800 28.77700 34.68600
H  47.36300 22.52000 31.15100
H  46.91300 22.98900 24.77400
H  50.11200 28.51400 24.97700
H  49.34200 26.40900 33.17200
H  47.05100 24.62200 32.78500
H  48.22400 23.28600 34.11700
H  49.74100 24.03600 33.86800
H  49.27300 22.85100 32.77100
H  46.64100 27.39600 32.41200
H  47.85100 28.25000 33.48000
H  47.06400 25.92700 34.73200
H  45.57700 26.67700 34.19600
H  47.20300 19.47400 29.08300
H  45.68900 20.23400 29.71000
H  47.19600 20.51300 30.50200
H  44.66100 19.61300 27.54300
H  46.30400 18.97400 27.18500
H  45.05500 18.88600 26.00600
H  47.19800 25.15700 23.16400
H  49.85400 26.27000 23.35000
H  50.07000 23.88000 23.17300
H  48.86000 24.09500 21.84700
H  48.54600 23.04400 23.16500
H  47.85000 28.37800 23.73800
H  47.41200 27.18000 22.32400
H  49.95100 27.86900 21.93100
H  49.07100 29.43200 22.19500
H  48.45800 28.32500 21.04400
H  50.18400 30.99400 26.03100
H  51.68800 30.12000 26.24200
H  51.26400 31.48900 27.34100
H  48.85500 29.72900 31.83600
H  50.31400 28.79300 35.50900
H  51.76500 29.45800 35.11000
H  51.37600 27.76200 34.49200
Mg 30.18700 58.15900 39.55700
C  27.29100 56.38900 38.44500
C  32.07300 55.64100 38.25400
C  33.02800 60.17300 39.35100
C  28.23400 60.90600 40.13200
N  29.63700 56.22600 38.48200
C  28.45100 55.66500 38.22200
C  28.53700 54.24700 37.72500
C  30.09000 54.00700 37.88900
C  30.66600 55.41900 38.19900
C  30.57900 52.96300 38.96300
C  28.02900 54.15900 36.22700
C  28.32900 55.35800 35.24300
H  28.12900 55.16100 33.75200
N  32.25700 57.89300 39.03600
C  32.81400 56.77300 38.53800
C  34.24100 56.85400 38.52100
C  34.52000 58.23400 38.88400
C  33.21300 58.84900 39.09200
C  35.21200 55.72600 38.14400
C  35.90500 58.80900 38.94400
O  36.89000 58.09400 38.67200
C  36.23600 60.22400 39.21500
N  30.55600 60.26700 39.44200
C  31.77900 60.90400 39.50800
C  31.71500 62.38000 39.78600
C  30.20100 62.49500 40.32500
C  29.63800 61.13000 39.95900
C  32.79800 63.05700 40.80700
C  29.38300 63.66800 39.70600
C  28.71500 64.68600 40.50000
N  28.19400 58.62500 39.41400
C  27.49600 59.74900 39.69300
C  26.06900 59.54500 39.63400
C  25.90100 58.23300 39.10100
C  27.26100 57.73100 38.90300
C  25.04800 60.50500 40.11300
C  24.97000 57.24000 38.73100
O  23.73400 57.37100 38.78500
C  25.86800 55.96500 38.24800
C  25.51500 54.79300 39.08400
O  25.59700 54.78200 40.28900
O  24.90000 53.83600 38.26300
C  24.27800 52.76600 39.09800
H  32.57900 54.72500 37.94300
H  33.85600 60.85000 39.57200
H  27.56600 61.69600 40.48200
H  27.94200 53.61100 38.38000
H  30.47400 53.70400 36.91500
H  30.98800 52.06200 38.50500
H  29.64700 52.60800 39.40300
H  31.26600 53.43900 39.66200
H  26.97400 53.94000 36.06000
H  28.62900 53.30900 35.90100
H  29.40200 55.27400 35.41800
H  27.95500 56.25800 35.73000
H  35.93300 55.94100 37.35600
H  34.75500 54.80200 37.79000
H  35.70700 55.44500 39.07300
H  37.31200 60.32100 39.07600
H  35.91700 60.50900 40.21800
H  35.87300 60.97800 38.51700
H  31.74200 62.93500 38.84800
H  30.26200 62.69000 41.39500
H  32.30600 63.52600 41.65900
H  33.44800 63.77000 40.30000
H  33.38500 62.27700 41.29100
H  28.50500 63.29800 39.17600
H  30.00700 64.30100 39.07500
H  29.25200 65.63100 40.58900
H  28.64100 64.24000 41.49200
H  27.70500 64.79500 40.10600
H  24.18900 59.86700 40.32300
H  24.73900 61.35100 39.50000
H  25.57300 60.95100 40.95900
H  25.87200 55.80800 37.16900
H  24.98900 52.33000 39.79900
H  23.96400 51.96700 38.42700
H  23.50600 53.10400 39.78900

