158

Mg 35.56100 2.11000 29.31400
C  33.21900 3.41900 31.61700
C  37.85800 2.03400 31.78700
C  37.92800 1.21000 27.03100
C  33.18400 2.43800 26.87300
N  35.55500 2.70600 31.45700
C  34.45100 3.08300 32.18300
C  34.75500 3.01600 33.65200
C  36.33900 2.94900 33.70800
C  36.62500 2.44500 32.25900
C  37.09600 4.26600 34.07900
C  33.97900 1.84500 34.35900
C  33.87800 1.88200 35.86200
H  34.38100 3.20100 36.51100
N  37.56200 1.59200 29.41500
C  38.33500 1.65500 30.50300
C  39.72100 1.33600 30.23400
C  39.64800 0.89200 28.89200
C  38.26700 1.21300 28.38600
C  40.85800 1.50800 31.21500
C  40.79400 0.31000 28.07300
O  40.75600 -0.06000 26.91900
C  42.03800 0.02500 28.80000
N  35.62300 1.85200 27.20000
C  36.65700 1.49800 26.48800
C  36.30300 1.44400 24.97500
C  34.73100 1.64300 24.99400
C  34.46200 1.93200 26.47900
C  37.17700 2.41500 24.10600
C  33.96400 0.43200 24.32400
C  33.41600 -0.69300 25.16700
N  33.58300 2.79700 29.20500
C  32.76800 2.95300 28.10100
C  31.47400 3.48700 28.49000
C  31.58200 3.70600 29.87600
C  32.89500 3.26400 30.25100
C  30.16900 3.65200 27.72300
C  30.92900 4.17000 31.05900
O  29.86000 4.70500 31.17600
C  31.89800 3.84900 32.27800
C  31.99200 5.08300 33.06900
O  32.50100 6.11500 32.65400
O  31.41200 4.98300 34.33300
C  31.36100 6.18700 35.16000
H  38.61000 2.20200 32.56100
H  38.69600 0.88400 26.32600
H  32.35800 2.38400 26.16000
H  34.42300 3.92700 34.15000
H  36.71000 2.21900 34.42700
H  37.82200 4.05000 34.86200
H  36.38800 4.95700 34.53700
H  37.66600 4.66200 33.23800
H  34.52300 0.92500 34.14600
H  33.00000 1.74200 33.89200
H  34.51200 1.08500 36.25000
H  32.87800 1.55600 36.14600
H  41.02400 0.55300 31.71500
H  40.48500 2.15500 32.00900
H  41.70700 2.07300 30.82900
H  42.69300 0.89500 28.84500
H  42.43100 -0.77300 28.16900
H  41.79400 -0.37100 29.78500
H  36.64600 0.47200 24.62200
H  34.38700 2.52900 24.46000
H  36.60800 3.17200 23.56600
H  37.79400 1.78600 23.46400
H  37.85000 2.97700 24.75300
H  34.53200 0.03500 23.48300
H  33.08000 0.92200 23.91700
H  33.62500 -1.62700 24.64700
H  32.32700 -0.65600 25.16700
H  33.80700 -0.64500 26.18400
H  29.84500 2.66500 27.39500
H  30.21900 4.31100 26.85500
H  29.42300 4.14200 28.35000
H  31.52100 3.00300 32.85300
H  31.96200 7.03800 34.84100
H  31.74100 5.77100 36.09200
H  30.30900 6.44600 35.28600
Mg -0.10200 42.75500 26.68700
C  1.63900 42.90100 29.98200
C  -2.76600 41.80900 28.32000
C  -1.16100 42.17400 23.79200
C  3.23600 43.56900 25.29800
N  -0.48100 42.50900 28.91700
C  0.28200 42.73400 30.04100
C  -0.58300 42.66500 31.31900
C  -1.92900 42.00400 30.79400
C  -1.73700 42.09900 29.27100
C  -2.27000 40.60100 31.27400
C  -0.65000 44.09300 31.98300
C  -0.18500 44.05600 33.41400
H  -1.33300 43.82900 34.52300
N  -1.83400 42.20500 26.09900
C  -2.91600 41.86300 26.94800
C  -4.00700 41.45000 26.11100
C  -3.49800 41.45200 24.78800
C  -2.15200 41.99100 24.80700
C  -5.42900 41.16400 26.70600
C  -4.16600 40.83200 23.50300
O  -3.62100 40.95200 22.40000
C  -5.37600 39.94800 23.58400
N  0.92300 42.88300 24.87700
C  0.15500 42.65200 23.77300
C  0.97800 42.72600 22.46600
C  2.28700 43.34500 22.99700
C  2.11700 43.32500 24.52500
C  1.02800 41.34700 21.77700
C  2.62900 44.80500 22.47900
C  2.48300 45.10800 20.95200
N  2.05300 43.17800 27.45100
C  3.20700 43.29400 26.68900
C  4.32300 43.24100 27.62200
C  3.74100 43.03500 28.88900
C  2.37500 43.01300 28.74500
C  5.70800 43.38000 27.19300
C  4.14200 42.76700 30.25700
O  5.26300 42.66600 30.75300
C  2.70800 42.81700 31.07100
C  2.59500 41.63300 31.93200
O  2.71300 40.47800 31.53800
O  2.54100 41.90900 33.24500
C  2.49700 40.76900 34.17500
H  -3.65900 41.43600 28.82600
H  -1.37800 41.96900 22.74200
H  4.19800 43.69100 24.79600
H  -0.09300 42.01600 32.04500
H  -2.83400 42.58600 30.96700
H  -1.67600 40.37300 32.15900
H  -1.99600 39.94700 30.44600
H  -3.33600 40.63800 31.49900
H  -1.69300 44.38300 32.11000
H  -0.13000 44.76600 31.30100
H  0.10000 45.08200 33.64600
H  0.65900 43.38900 33.59100
H  -5.64900 41.84700 27.52600
H  -5.26900 40.19500 27.17900
H  -6.27500 41.15600 26.01900
H  -5.44400 39.23900 22.75900
H  -6.27200 40.56800 23.60300
H  -5.40300 39.27300 24.43900
H  0.44400 43.45600 21.85700
H  3.13200 42.84900 22.51800
H  0.58500 41.42600 20.78400
H  0.45300 40.58500 22.30300
H  2.05600 40.99500 21.69100
H  3.63300 45.10000 22.78400
H  1.90900 45.43700 22.99900
H  3.48700 45.20100 20.53800
H  1.84100 45.97800 20.81300
H  2.15800 44.29300 20.30600
H  6.30200 42.86700 27.94900
H  5.86500 44.45800 27.18900
H  5.80300 42.93000 26.20400
H  2.67800 43.74100 31.64700
H  3.19800 40.03700 33.77200
H  1.52700 40.27900 34.24900
H  2.75100 41.01200 35.20600

