158

Mg 36.61900 49.42400 25.50300
C  36.92200 47.65300 28.44200
C  35.08300 52.03600 27.22800
C  35.95400 51.08100 22.57700
C  37.84300 46.73800 23.69900
N  35.85700 49.75200 27.58000
C  36.33300 48.94700 28.62900
C  35.92500 49.47100 29.99200
C  35.14500 50.74100 29.56000
C  35.33900 50.88900 28.03800
C  33.64100 50.87900 29.95500
C  37.18600 49.83000 30.86300
C  37.07500 49.29400 32.32700
H  35.66400 49.27200 33.02200
N  35.82500 51.31500 24.98700
C  35.31100 52.23500 25.85100
C  35.05400 53.47100 25.21000
C  35.15100 53.21900 23.84100
C  35.70400 51.85100 23.72200
C  34.52100 54.67000 25.93800
C  34.86400 54.07000 22.64000
O  34.97600 53.60100 21.52000
C  34.36200 55.45500 22.69600
N  36.77400 48.94000 23.46500
C  36.45500 49.78900 22.44600
C  36.81000 49.08800 21.06100
C  37.54400 47.79700 21.43400
C  37.41700 47.81300 22.98700
C  35.65900 48.93100 20.15900
C  39.01200 47.81400 20.92800
C  40.16200 48.52600 21.78600
N  37.22300 47.51200 25.92200
C  37.71400 46.55600 25.09000
C  37.96600 45.42800 25.94800
C  37.79800 45.80800 27.29800
C  37.24400 47.01600 27.20800
C  38.53600 44.19200 25.40500
C  37.86900 45.44400 28.62900
O  38.20700 44.41700 29.22100
C  37.31600 46.62700 29.51500
C  36.15400 46.14000 30.35000
O  34.95900 46.23200 30.09000
O  36.70000 45.70700 31.59400
C  35.71300 45.30400 32.60500
H  34.73800 52.78200 27.94800
H  35.71600 51.46600 21.58400
H  38.23200 45.87300 23.15800
H  35.28600 48.80700 30.57500
H  35.59300 51.61500 30.03100
H  33.43700 51.72800 30.60700
H  33.40500 49.91900 30.41400
H  33.04700 51.12200 29.07400
H  37.32400 50.89700 31.03700
H  38.06400 49.36600 30.41400
H  37.77600 49.80200 32.98900
H  37.45400 48.27400 32.40000
H  35.02800 54.87900 26.88100
H  33.52800 54.33100 26.23200
H  34.30800 55.61000 25.42900
H  35.16400 56.00800 23.18400
H  33.43000 55.55200 23.25300
H  34.19400 55.85700 21.69600
H  37.62700 49.66800 20.63000
H  36.97500 46.97200 21.00500
H  35.93600 49.16000 19.13100
H  34.82500 49.55000 20.48900
H  35.23000 47.93000 20.21600
H  38.99400 48.15500 19.89300
H  39.45900 46.84700 20.70000
H  39.69800 48.93600 22.68300
H  40.65800 49.39300 21.34900
H  40.99100 47.89300 22.10200
H  39.51600 44.29700 24.94000
H  37.80200 43.91900 24.64700
H  38.51600 43.43200 26.18600
H  37.99700 46.96500 30.29600
H  35.55500 44.22800 32.67700
H  34.68400 45.65600 32.53200
H  36.08200 45.63100 33.57700
Mg -11.20300 16.46200 42.03500
C  -7.93000 14.95500 41.58400
C  -9.87700 19.27200 40.60600
C  -14.23300 17.47300 41.63700
C  -12.23300 13.35100 43.16100
N  -9.09400 16.95800 41.10500
C  -7.95300 16.25700 41.09100
C  -6.84800 17.07700 40.56400
C  -7.38700 18.55400 40.70000
C  -8.89200 18.25200 40.79200
C  -6.94500 19.49700 41.88900
C  -6.42300 16.68800 39.07000
C  -4.83700 16.36500 38.97200
H  -4.10800 16.75100 37.63900
N  -11.98000 18.23700 41.36500
C  -11.34800 19.29000 40.78700
C  -12.22200 20.34500 40.33200
C  -13.50600 19.76100 40.52300
C  -13.27300 18.41900 41.17000
C  -11.69500 21.59700 39.65000
C  -14.86500 20.49600 40.26400
O  -14.83500 21.62500 39.72400
C  -16.20800 19.89100 40.63700
N  -12.93300 15.53400 42.31700
C  -14.07700 16.17400 42.16200
C  -15.30200 15.33200 42.54200
C  -14.58600 14.22600 43.37500
C  -13.20100 14.29600 42.80900
C  -16.41100 16.06100 43.32200
C  -15.28600 12.86100 43.03600
C  -15.72000 11.97700 44.21700
N  -10.27200 14.47700 42.30800
C  -10.86500 13.30700 42.82000
C  -9.84500 12.30500 43.02500
C  -8.64800 12.91900 42.52600
C  -8.97400 14.24800 42.13700
C  -10.13300 10.94600 43.62400
C  -7.22000 12.69900 42.28400
O  -6.45800 11.76000 42.51200
C  -6.65900 14.07500 41.81900
C  -5.78500 14.62600 42.89700
O  -6.10100 14.98200 44.04500
O  -4.51500 14.88100 42.33200
C  -3.59100 15.59100 43.22200
H  -9.39000 20.22400 40.38500
H  -15.26500 17.82800 41.66000
H  -12.63300 12.42200 43.57300
H  -5.96000 16.99700 41.19100
H  -7.18000 19.05200 39.75300
H  -6.99100 18.98900 42.85300
H  -7.62000 20.35200 41.87700
H  -5.93800 19.73400 41.54600
H  -6.58300 17.36700 38.23200
H  -6.78600 15.71000 38.75400
H  -4.67500 15.29200 39.07600
H  -4.20300 16.85400 39.71200
H  -12.00600 22.42300 40.29000
H  -12.10000 21.78900 38.65600
H  -10.62600 21.67200 39.45000
H  -17.06800 20.51100 40.38600
H  -16.35500 19.87600 41.71700
H  -16.39900 18.92500 40.17000
H  -15.57200 14.95400 41.55600
H  -14.69700 14.44900 44.43600
H  -16.98500 15.32800 43.88800
H  -16.99700 16.64500 42.61200
H  -16.07200 16.78700 44.06200
H  -14.60300 12.34500 42.36000
H  -16.17800 12.98600 42.42200
H  -16.78000 11.73300 44.14400
H  -15.54200 12.44300 45.18700
H  -15.25500 10.99500 44.13000
H  -9.15900 10.45900 43.67800
H  -10.77600 10.30300 43.02400
H  -10.58600 11.13200 44.59800
H  -6.15800 13.90700 40.86500
H  -3.10100 14.89900 43.90700
H  -4.08600 16.27200 43.91500
H  -2.80000 16.21000 42.80000

