158

Mg 34.82000 2.97800 30.50600
C  32.31200 3.93900 32.78000
C  37.19900 3.36300 33.09900
C  37.17500 2.01200 28.44500
C  32.35800 2.69300 28.08200
N  34.71400 3.46600 32.63700
C  33.57100 3.74700 33.35700
C  33.90400 3.99900 34.81300
C  35.49400 3.99500 34.86100
C  35.86300 3.55000 33.49100
C  35.95600 5.38500 35.38100
C  33.19400 2.87800 35.69100
C  33.85400 2.48300 37.02900
H  34.42800 3.62000 37.81800
N  36.96000 2.69500 30.72100
C  37.67400 2.88200 31.85200
C  39.06600 2.43100 31.56800
C  39.12500 1.94600 30.23300
C  37.72300 2.15600 29.76700
C  40.16000 2.52400 32.58300
C  40.24500 1.34100 29.42500
O  40.08600 0.93700 28.27100
C  41.64700 1.23800 30.03100
N  34.81200 2.34200 28.55600
C  35.91000 2.14200 27.81100
C  35.59400 2.08000 26.32600
C  34.08300 1.87200 26.34900
C  33.68700 2.38400 27.71400
C  36.09000 3.31100 25.50600
C  33.70700 0.38700 26.31700
C  32.52900 0.03400 25.38100
N  32.74800 3.22300 30.38700
C  31.86200 3.11900 29.36000
C  30.53300 3.41000 29.80300
C  30.68600 3.73500 31.20000
C  32.00900 3.62400 31.48300
C  29.16800 3.20700 29.08100
C  29.95700 4.13900 32.34700
O  28.76300 4.41700 32.54500
C  31.00400 4.31600 33.40600
C  30.93300 5.63700 34.15700
O  30.99400 6.72100 33.64100
O  30.74500 5.40400 35.58400
C  31.16000 6.57100 36.36200
H  37.92500 3.58100 33.88500
H  37.97500 1.75200 27.75000
H  31.61100 2.56500 27.29600
H  33.51600 5.00100 34.99400
H  35.98400 3.30300 35.54700
H  36.19400 6.03000 34.53400
H  36.89300 5.26200 35.92400
H  35.27600 5.94300 36.02400
H  33.17200 1.97900 35.07500
H  32.14300 3.10100 35.87800
H  34.58700 1.70100 36.82900
H  33.04600 2.06600 37.63100
H  39.84400 2.86600 33.56800
H  40.99000 3.10700 32.18300
H  40.45800 1.47900 32.66200
H  41.66400 0.46900 30.80400
H  41.97300 2.14200 30.54500
H  42.32600 1.15700 29.18200
H  36.07600 1.16200 25.99200
H  33.60900 2.38700 25.51400
H  37.13400 3.30900 25.19100
H  36.06700 4.13800 26.21600
H  35.40000 3.65100 24.73300
H  33.56000 0.03900 27.34000
H  34.47100 -0.36600 26.12400
H  31.72000 -0.36000 25.99600
H  32.80600 -0.72100 24.64400
H  32.12400 0.87900 24.82500
H  29.33000 2.45100 28.31300
H  28.84500 4.12000 28.58000
H  28.42900 2.83100 29.78900
H  30.81000 3.54300 34.15000
H  31.38400 6.20800 37.36500
H  30.28200 7.20600 36.48200
H  31.99800 7.08600 35.89300
Mg 54.30700 23.65700 43.73800
C  51.48300 25.72600 43.26900
C  52.33700 20.98800 42.73400
C  57.16200 22.10100 43.25600
C  56.20400 26.71100 44.23000
N  52.16000 23.40000 42.91800
C  51.16500 24.44800 42.91400
C  49.88100 23.87500 42.38000
C  50.19800 22.33400 42.60500
C  51.66300 22.20200 42.78000
C  49.52600 21.73100 43.80100
C  49.67900 24.18800 40.83500
C  48.24100 24.22500 40.31300
H  47.84400 24.79000 38.91900
N  54.73100 21.79700 43.23700
C  53.77300 20.77800 42.92500
C  54.48900 19.51400 42.68300
C  55.88700 19.76300 42.89500
C  56.03500 21.28400 43.15900
C  53.83700 18.24900 42.17000
C  57.00000 18.70800 42.78200
O  56.81100 17.52000 42.54800
C  58.44600 19.06800 43.08400
N  56.37700 24.29900 43.80700
C  57.39200 23.38600 43.57600
C  58.81800 23.98300 43.89200
C  58.50700 25.48000 44.06400
C  56.95200 25.55400 44.04600
C  59.43500 23.42800 45.12600
C  58.97700 26.35700 42.86800
C  58.74500 25.99200 41.39500
N  53.91000 25.73000 43.89100
C  54.74600 26.78600 44.21200
C  53.97000 27.97700 44.43100
C  52.67000 27.54100 44.08500
C  52.74000 26.22500 43.69400
C  54.39500 29.29100 45.02800
C  51.25100 28.04700 44.09000
O  50.73200 29.11100 44.51200
C  50.46600 26.96100 43.42700
C  50.07900 27.52200 42.12600
O  50.85300 27.93400 41.26200
O  48.67600 27.51300 41.92300
C  48.22900 28.00500 40.60800
H  51.75600 20.07800 42.56900
H  58.00000 21.44900 43.00100
H  56.72500 27.59300 44.60700
H  49.02000 24.18400 42.97300
H  49.96400 21.81200 41.67700
H  48.79600 22.43100 44.20700
H  50.27300 21.48700 44.55700
H  48.99500 20.79300 43.64200
H  50.12500 23.43500 40.18500
H  50.05700 25.20100 40.69700
H  47.70700 24.70600 41.13300
H  47.87500 23.20600 40.43900
H  53.04100 18.31300 41.42800
H  53.42000 17.71800 43.02600
H  54.37500 17.42000 41.71000
H  58.92300 19.74800 42.37800
H  59.09600 18.19800 43.16600
H  58.43200 19.56800 44.05200
H  59.47000 23.74100 43.05300
H  58.68400 25.77600 45.09800
H  60.47500 23.18600 44.90500
H  58.99400 22.45500 45.34300
H  59.28100 24.05400 46.00500
H  60.03900 26.43900 43.10200
H  58.60600 27.36000 43.08000
H  57.93700 25.27300 41.26300
H  59.70700 25.68000 40.99100
H  58.41800 26.90400 40.89500
H  55.22000 29.05200 45.69800
H  53.53300 29.68200 45.56900
H  54.74400 30.09400 44.37800
H  49.56500 26.73300 43.99700
H  48.39700 29.07400 40.48000
H  47.14400 27.90800 40.60600
H  48.69900 27.46600 39.78400

