158

Mg 2.20800 -1.00300 44.72800
C  5.64400 -0.20000 43.96800
C  1.36600 1.57600 42.76500
C  -0.80200 -2.33800 44.56100
C  3.56500 -4.07200 46.09900
N  3.43500 0.49500 43.47600
C  4.76700 0.69000 43.39700
C  5.12400 2.00800 42.76900
C  3.70300 2.70400 42.71900
C  2.76400 1.54200 43.04700
C  3.41900 3.85700 43.70300
C  5.79500 1.78700 41.35000
C  6.93900 2.68400 40.91800
H  6.79600 3.34600 39.51100
N  0.48200 -0.36800 43.97900
C  0.32500 0.69100 43.13500
C  -1.04500 0.85400 42.69500
C  -1.72500 -0.27800 43.17400
C  -0.66500 -1.04300 43.92000
C  -1.63300 1.96600 41.80400
C  -3.11500 -0.55000 43.05500
O  -3.87300 0.12300 42.40300
C  -3.80600 -1.57300 43.82800
N  1.53500 -3.01500 45.08100
C  0.16300 -3.16600 45.27500
C  -0.24800 -4.44800 45.98600
C  1.19600 -5.08300 46.16600
C  2.20700 -3.96400 45.86400
C  -1.12700 -4.27700 47.29900
C  1.59900 -6.27800 45.25900
C  1.81500 -7.61200 46.04800
N  4.20700 -1.92200 45.14400
C  4.56800 -3.06800 45.87400
C  5.98500 -3.14900 46.00200
C  6.42900 -1.99900 45.28000
C  5.31500 -1.34400 44.77000
C  6.75400 -4.27800 46.70200
C  7.61900 -1.34100 44.85900
O  8.81500 -1.68500 44.84800
C  7.18500 -0.01300 44.10200
C  7.47100 1.10100 45.04400
O  6.69200 1.61100 45.77800
O  8.76200 1.54700 44.93100
C  9.36400 2.79600 45.53700
H  1.13200 2.48100 42.20100
H  -1.73200 -2.90900 44.58400
H  3.81200 -5.00500 46.60800
H  5.78000 2.62300 43.38500
H  3.63700 3.03100 41.68200
H  3.23700 3.43700 44.69300
H  2.63700 4.52800 43.34800
H  4.22600 4.54200 43.96400
H  5.03900 1.84400 40.56800
H  6.27500 0.80900 41.33100
H  7.82100 2.06000 40.77400
H  7.12500 3.52800 41.58200
H  -2.07000 1.72000 40.83600
H  -0.86900 2.73700 41.70400
H  -2.42900 2.34300 42.44600
H  -4.88500 -1.42100 43.80800
H  -3.36400 -1.52800 44.82400
H  -3.64500 -2.56100 43.39500
H  -0.83200 -5.02400 45.26800
H  1.37700 -5.30300 47.21800
H  -2.00500 -3.63200 47.31500
H  -0.55000 -3.96700 48.17100
H  -1.66400 -5.21800 47.41500
H  2.58100 -6.16800 44.80000
H  0.96500 -6.40600 44.38200
H  2.79600 -8.02200 45.80600
H  0.91600 -8.18000 45.80700
H  1.80300 -7.51300 47.13300
H  6.11500 -5.13900 46.50800
H  6.92900 -4.15300 47.77000
H  7.73400 -4.46800 46.26300
H  7.62800 0.13200 43.11700
H  8.57100 3.49000 45.81500
H  10.21000 3.31500 45.08500
H  9.85500 2.51600 46.46900
Mg 9.00600 4.13500 27.97500
C  10.31700 2.44300 30.70300
C  7.00400 6.03300 30.01000
C  7.57700 5.60700 25.25100
C  10.53000 1.79900 25.77200
N  8.75000 4.15500 30.10200
C  9.41000 3.47200 31.08200
C  8.97300 3.76200 32.46100
C  7.86700 4.87600 32.19400
C  7.84500 5.06200 30.66700
C  6.46900 4.60700 32.83200
C  10.11200 4.15000 33.40600
C  9.61600 4.78100 34.75000
H  10.73700 5.04100 35.79100
N  7.66100 5.68400 27.65800
C  6.95800 6.34100 28.65500
C  6.13100 7.42700 28.12900
C  6.30100 7.41100 26.64200
C  7.17100 6.16700 26.45500
C  5.30200 8.42100 28.87200
C  5.77700 8.32900 25.55000
O  5.99300 8.18700 24.34500
C  5.14700 9.46300 25.93500
N  9.02200 3.70100 25.76100
C  8.44900 4.50700 24.87700
C  8.51900 3.92100 23.43200
C  9.58900 2.76200 23.70600
C  9.73300 2.75500 25.21300
C  7.07500 3.42100 22.92100
C  10.89900 2.80700 22.87200
C  11.43800 1.59800 22.14800
N  10.22700 2.44800 28.15300
C  10.73200 1.61900 27.17600
C  11.58900 0.66900 27.91200
C  11.40700 0.87200 29.28200
C  10.62800 2.05300 29.33300
C  12.31100 -0.50800 27.26800
C  11.79600 0.48800 30.60500
O  12.46300 -0.52300 30.88600
C  11.05000 1.43500 31.58000
C  10.01000 0.68400 32.31400
O  8.94600 0.30400 31.88800
O  10.54600 0.47500 33.58000
C  9.47600 -0.06100 34.48000
H  6.51600 6.66900 30.75200
H  7.04100 5.97600 24.37400
H  11.03700 1.10600 25.09700
H  8.53500 2.82500 32.80200
H  8.28500 5.76100 32.67400
H  6.38500 5.33700 33.63700
H  6.45700 3.59700 33.24100
H  5.60100 4.64400 32.17400
H  10.78000 4.78800 32.82700
H  10.63800 3.22900 33.65700
H  8.81900 4.21000 35.22600
H  9.26100 5.79600 34.57300
H  5.62300 9.45700 28.76000
H  5.39800 8.16100 29.92600
H  4.23700 8.44000 28.64100
H  4.12000 9.24600 26.23000
H  4.96800 10.15400 25.11100
H  5.67300 9.94100 26.76100
H  9.03700 4.50600 22.67200
H  9.21900 1.73900 23.63500
H  7.00900 2.33800 23.02800
H  6.76800 3.78000 21.93900
H  6.36100 3.81900 23.64200
H  11.69600 3.17800 23.51600
H  10.81200 3.54600 22.07600
H  12.46500 1.58700 22.51300
H  11.38200 1.69400 21.06400
H  10.99300 0.70400 22.58500
H  12.12400 -0.59100 26.19800
H  12.03300 -1.45800 27.72500
H  13.39700 -0.48300 27.35600
H  11.80300 1.92600 32.19700
H  8.88300 0.84600 34.59800
H  9.89300 -0.30300 35.45700
H  8.90600 -0.92600 34.14300

