158

Mg 48.38500 15.57600 27.11800
C  46.80100 15.65400 30.33500
C  50.93800 17.52200 28.59900
C  49.69700 15.77400 24.23300
C  45.57200 13.87000 25.97200
N  48.83100 16.36900 29.22300
C  48.10900 16.24500 30.37100
C  48.85200 16.83000 31.54800
C  49.98900 17.67000 30.91500
C  49.93200 17.16100 29.45800
C  49.81400 19.21600 30.89600
C  49.37200 15.71800 32.47300
C  49.22900 16.10600 34.07100
H  48.99400 17.52800 34.52500
N  50.14800 16.51200 26.47500
C  51.08000 17.20600 27.18400
C  52.16600 17.50500 26.24700
C  51.69500 17.16700 24.95100
C  50.49800 16.39200 25.16800
C  53.33100 18.38300 26.78100
C  52.17300 17.53700 23.62700
O  51.72200 17.13000 22.56700
C  53.31600 18.46700 23.56700
N  47.64400 15.19200 25.34200
C  48.46600 15.15100 24.26400
C  47.79000 14.68000 23.00800
C  46.50000 14.11600 23.60000
C  46.61500 14.34000 25.07600
C  47.52900 15.76100 21.91800
C  46.21900 12.59000 23.26800
C  44.95400 12.39500 22.45600
N  46.50500 14.98200 27.93100
C  45.54600 14.23600 27.34800
C  44.41000 13.99400 28.24900
C  44.93200 14.40000 29.46500
C  46.21000 15.07000 29.21000
C  43.14800 13.24900 27.92000
C  44.59500 14.53100 30.90900
O  43.55400 14.15100 31.49100
C  45.80800 15.36600 31.54000
C  45.26700 16.62300 32.25600
O  44.98800 17.70200 31.77600
O  44.90800 16.33900 33.50300
C  43.75800 17.11900 33.98900
H  51.60100 18.25700 29.06000
H  50.12100 15.64200 23.23500
H  44.80100 13.18200 25.61700
H  48.13100 17.44300 32.08800
H  50.98500 17.50100 31.32400
H  48.85100 19.51700 31.30900
H  49.82200 19.74100 29.94000
H  50.63600 19.63600 31.47400
H  50.43200 15.50400 32.33300
H  48.81600 14.84200 32.13900
H  50.16300 15.80600 34.54600
H  48.46900 15.49300 34.55500
H  53.21200 19.46500 26.72600
H  54.26200 18.14100 26.26800
H  53.43900 18.20600 27.85200
H  53.22600 19.42100 24.08600
H  53.43800 18.68800 22.50700
H  54.17200 17.95500 24.00800
H  48.33800 13.82700 22.60900
H  45.62200 14.74300 23.44400
H  48.00900 16.71200 22.15200
H  46.47000 15.94600 21.74100
H  47.89700 15.33900 20.98300
H  45.99100 12.07600 24.20200
H  47.08400 12.19600 22.73500
H  45.16400 11.85500 21.53300
H  44.68300 13.39200 22.11100
H  44.07800 12.11900 23.04500
H  43.45600 12.45200 27.24400
H  42.44400 13.95800 27.48400
H  42.79000 12.84600 28.86700
H  46.18400 14.64700 32.26700
H  43.29000 16.61500 34.83500
H  43.01200 17.20500 33.19900
H  44.13300 18.10300 34.27200
Mg -5.26500 26.11600 26.91700
C  -4.21900 27.80400 29.82400
C  -7.34400 24.25800 28.80000
C  -5.89100 24.24800 24.13600
C  -2.90800 27.90600 25.16100
N  -5.65200 26.02000 29.09900
C  -5.25300 26.88500 30.10300
C  -6.01800 26.66700 31.36500
C  -6.84200 25.43600 31.08400
C  -6.55600 25.15800 29.58200
C  -6.52700 24.09900 31.94600
C  -6.87900 27.96200 31.69200
C  -7.47600 27.99500 33.09500
H  -7.15500 26.93900 34.17500
N  -6.60000 24.58200 26.46700
C  -7.38300 23.92800 27.41800
C  -8.19400 22.91100 26.71000
C  -7.80100 22.88000 25.36200
C  -6.67600 23.89000 25.27700
C  -9.32100 22.12700 27.41800
C  -8.19500 21.99300 24.22400
O  -7.68500 22.07900 23.15800
C  -9.22700 20.94000 24.48400
N  -4.70000 26.22100 24.89300
C  -4.96600 25.24000 23.95100
C  -4.29200 25.58800 22.60000
C  -3.42600 26.83500 22.95300
C  -3.68600 27.02500 24.44300
C  -3.58600 24.45700 21.85300
C  -3.74400 28.13600 22.12700
C  -3.27300 28.13000 20.63500
N  -3.80900 27.45800 27.36000
C  -2.97700 28.15700 26.51900
C  -2.22000 29.15800 27.28300
C  -2.75500 29.11300 28.49400
C  -3.66900 28.01600 28.55700
C  -1.33200 30.24900 26.78400
C  -2.61400 29.73200 29.79500
O  -1.90100 30.67600 30.13700
C  -3.57900 28.93800 30.73500
C  -2.70500 28.19200 31.73400
O  -1.77000 27.48600 31.39100
O  -3.17000 28.44600 32.99700
C  -2.45700 27.77300 34.01500
H  -7.97700 23.75100 29.53100
H  -6.12300 23.69800 23.22200
H  -2.04300 28.43800 24.75900
H  -5.36700 26.49000 32.22100
H  -7.90200 25.59100 31.28500
H  -6.38200 23.26200 31.26300
H  -7.48000 23.99100 32.46500
H  -5.71500 24.16900 32.66900
H  -7.64800 28.15100 30.94400
H  -6.14400 28.76000 31.80700
H  -8.55100 28.14900 33.00200
H  -7.07700 28.81300 33.69400
H  -8.89200 21.16900 27.71400
H  -10.15700 21.94600 26.74200
H  -9.66200 22.77600 28.22400
H  -10.16400 21.46100 24.68200
H  -9.03000 20.31400 25.35400
H  -9.24900 20.30600 23.59700
H  -4.98200 25.90200 21.81600
H  -2.38000 26.55500 22.82300
H  -2.51800 24.60200 21.68900
H  -4.02600 24.32200 20.86500
H  -3.62000 23.50200 22.37900
H  -3.50000 29.01600 22.72200
H  -4.82400 28.27300 22.07600
H  -2.64700 27.25400 20.46500
H  -2.57900 28.95700 20.48200
H  -4.08400 28.30300 19.92800
H  -1.93300 30.98600 26.25100
H  -0.62400 29.77000 26.10800
H  -0.85900 30.86100 27.55200
H  -4.34400 29.56300 31.19500
H  -1.50400 28.22600 34.28800
H  -2.18800 26.75300 33.73800
H  -3.01100 27.75400 34.95300

