158

Mg -2.79100 17.44400 26.80800
C  -2.88400 15.61300 29.80200
C  -3.60000 20.23300 28.68300
C  -2.95300 19.09300 23.95200
C  -3.01800 14.40600 24.93300
N  -3.22700 17.77300 28.98600
C  -3.07300 16.92400 30.03900
C  -3.34000 17.57600 31.41500
C  -3.88100 19.02900 30.96200
C  -3.55700 19.06300 29.41000
C  -5.32300 19.29800 31.40300
C  -2.06800 17.71300 32.37500
C  -2.32500 17.87600 33.86100
H  -1.09200 17.61800 34.73000
N  -3.18700 19.40500 26.39600
C  -3.27900 20.46000 27.29100
C  -3.33600 21.70000 26.53100
C  -3.07300 21.40700 25.16400
C  -3.01900 19.91700 25.12300
C  -3.56700 23.06400 27.16600
C  -2.79700 22.33400 23.96600
O  -2.51200 21.92400 22.85900
C  -3.02700 23.75300 24.08500
N  -2.94000 16.85300 24.73300
C  -2.97500 17.78000 23.77600
C  -3.03500 17.00800 22.30900
C  -2.70600 15.51200 22.72800
C  -2.99200 15.57100 24.22800
C  -4.46700 17.26000 21.65600
C  -1.17600 15.22100 22.43100
C  -0.97900 13.79800 21.73500
N  -2.76500 15.45900 27.18400
C  -2.87500 14.37200 26.37400
C  -2.92900 13.16200 27.20600
C  -2.86900 13.64200 28.49800
C  -2.83100 15.01000 28.46900
C  -3.14200 11.77600 26.77000
C  -2.94700 13.14200 29.84300
O  -3.13100 11.99600 30.18200
C  -2.76000 14.34200 30.81800
C  -1.45400 14.31900 31.44800
O  -0.38100 14.52000 30.84600
O  -1.58700 13.93000 32.76600
C  -0.36000 13.66900 33.59400
H  -3.72900 21.17900 29.21300
H  -2.84200 19.56600 22.97400
H  -2.87400 13.44300 24.43800
H  -4.12800 16.95600 31.84300
H  -3.21200 19.80100 31.34000
H  -5.97700 19.33000 30.53100
H  -5.23800 20.27400 31.88100
H  -5.68500 18.55600 32.11400
H  -1.55100 18.61100 32.03700
H  -1.37500 16.91700 32.10200
H  -3.05500 17.16400 34.24700
H  -2.75300 18.87800 33.83400
H  -4.56800 23.46400 27.00900
H  -2.86400 23.79100 26.76000
H  -3.42500 23.13100 28.24500
H  -3.98300 23.92400 24.58000
H  -3.40100 24.15700 23.14400
H  -2.23700 24.30000 24.59900
H  -2.19900 17.43200 21.75300
H  -3.35700 14.76400 22.27500
H  -5.17000 17.41200 22.47500
H  -4.73500 16.39000 21.05500
H  -4.37100 18.18700 21.09000
H  -0.61200 15.13600 23.36000
H  -0.71000 15.87100 21.69000
H  -0.15000 13.83700 21.02900
H  -1.88500 13.57500 21.17000
H  -0.71500 13.00300 22.43200
H  -2.51300 11.20100 27.44900
H  -2.80300 11.62600 25.74500
H  -4.17200 11.43200 26.86500
H  -3.55000 14.45300 31.56000
H  -0.41500 14.08000 34.60200
H  0.56100 14.04900 33.15200
H  -0.30400 12.58300 33.66700
Mg 16.67600 -1.20800 27.47600
C  15.76300 0.96900 30.06600
C  18.91400 -2.64900 29.58300
C  18.00700 -2.71700 24.85000
C  14.71500 0.72300 25.31100
N  17.40400 -0.79500 29.58400
C  16.72500 -0.02700 30.47800
C  17.20800 -0.35300 31.89300
C  18.31000 -1.35000 31.60700
C  18.15900 -1.69200 30.19500
C  19.79200 -0.91000 32.02300
C  16.01900 -0.88300 32.77400
C  15.83900 -0.31000 34.13700
H  17.06300 0.47400 34.72300
N  18.21700 -2.56700 27.24200
C  18.99000 -3.08200 28.25600
C  19.79400 -4.22000 27.71300
C  19.56300 -4.22900 26.31900
C  18.54600 -3.16200 26.05700
C  20.60800 -5.12900 28.64300
C  20.28800 -5.10000 25.26700
O  20.18400 -4.96300 24.06700
C  21.34400 -6.13500 25.61800
N  16.43600 -1.02600 25.32800
C  17.11400 -1.75900 24.47100
C  16.80000 -1.46100 23.02800
C  15.83500 -0.23700 23.17200
C  15.56400 -0.20800 24.68400
C  18.04500 -1.14000 22.11400
C  14.51400 -0.45500 22.40300
C  14.44200 0.04100 20.99700
N  15.40600 0.42800 27.61700
C  14.74100 1.15600 26.65600
C  13.99100 2.24700 27.24800
C  14.32400 2.14800 28.61300
C  15.28800 1.06800 28.71000
C  13.09600 3.17100 26.56400
C  14.08400 2.72200 29.97400
O  13.43100 3.67400 30.34400
C  15.01000 1.93400 30.90200
C  15.88200 2.83700 31.61500
O  17.09300 3.03500 31.47600
O  15.17200 3.48100 32.64000
C  15.94500 4.47000 33.43300
H  19.54200 -3.15600 30.31800
H  18.29800 -3.22100 23.92500
H  14.24600 1.40300 24.59700
H  17.61200 0.61000 32.20600
H  18.16400 -2.31700 32.08800
H  19.76500 -0.07000 32.71700
H  20.32900 -0.81300 31.07900
H  20.27100 -1.72500 32.56600
H  16.22100 -1.94700 32.89500
H  15.15200 -0.70300 32.13800
H  15.62600 -1.04400 34.91400
H  14.89300 0.23100 34.10000
H  20.18600 -6.13200 28.57300
H  20.75400 -4.71800 29.64200
H  21.59400 -5.26600 28.19800
H  21.30400 -6.91500 24.85700
H  21.18700 -6.66700 26.55600
H  22.33500 -5.68300 25.64500
H  16.21300 -2.32300 22.71100
H  16.37200 0.64000 22.81200
H  18.93000 -1.68600 22.44500
H  18.29300 -0.08300 22.02400
H  17.78300 -1.51700 21.12500
H  13.68100 0.04100 22.90200
H  14.36700 -1.53400 22.35400
H  13.60300 0.73300 20.93300
H  14.26900 -0.83400 20.37000
H  15.33100 0.59000 20.68700
H  13.41800 4.21300 26.55100
H  12.14800 3.08200 27.09400
H  13.10500 2.83300 25.52800
H  14.35000 1.40900 31.59300
H  16.51300 3.98700 34.22800
H  15.20200 5.03100 34.00000
H  16.51500 5.15100 32.80100

