158

Mg 8.62300 3.09000 27.60300
C  9.97100 1.70400 30.43100
C  6.63900 5.20600 29.52500
C  7.10300 4.25400 24.77600
C  10.16400 0.64800 25.60100
N  8.35100 3.47600 29.73300
C  9.06900 2.77400 30.70800
C  8.62000 3.32000 32.11400
C  7.41700 4.28000 31.83500
C  7.51900 4.37900 30.26700
C  6.02900 3.72000 32.26900
C  9.70900 3.97900 32.94700
C  9.39100 4.04200 34.43100
H  10.60800 4.22000 35.30900
N  7.16100 4.55800 27.23500
C  6.49700 5.32200 28.15900
C  5.73000 6.29200 27.41100
C  5.81800 6.04000 26.02500
C  6.73200 4.85100 25.96300
C  4.95300 7.37600 28.02900
C  4.96600 6.68500 24.83200
O  5.12600 6.40600 23.62100
C  3.99600 7.88300 25.15000
N  8.52200 2.38700 25.48600
C  8.00000 3.16300 24.51700
C  8.32800 2.70000 23.10900
C  9.27600 1.48100 23.37500
C  9.38800 1.50900 24.90400
C  7.01900 2.44900 22.32000
C  10.67400 1.51300 22.70200
C  11.06400 0.36500 21.76200
N  9.79500 1.48200 27.90200
C  10.33000 0.59900 26.99600
C  11.19800 -0.33600 27.73700
C  11.08300 0.08800 29.09800
C  10.21500 1.17900 29.08400
C  11.89900 -1.48800 27.08800
C  11.52300 -0.15700 30.42900
O  12.32300 -0.99200 30.86400
C  10.87400 0.94100 31.38700
C  10.01500 0.38100 32.45300
O  8.96500 -0.20100 32.29900
O  10.52700 0.72000 33.66400
C  9.97700 0.19600 34.87900
H  6.07100 5.93800 30.10100
H  6.72600 4.70900 23.85700
H  10.61400 -0.09200 24.93600
H  8.24200 2.50800 32.73500
H  7.65800 5.26300 32.24100
H  6.06200 2.70100 32.65400
H  5.26300 3.68500 31.49400
H  5.58300 4.42300 32.97300
H  9.90700 5.00000 32.61800
H  10.63700 3.45400 32.72100
H  8.87500 3.14400 34.77200
H  8.84000 4.95800 34.64400
H  5.14600 7.43800 29.10000
H  3.87300 7.29100 27.90600
H  5.27200 8.33800 27.62700
H  4.66400 8.68200 25.47300
H  3.40800 7.61200 26.02600
H  3.48600 8.05500 24.20300
H  8.89700 3.42800 22.53100
H  8.72100 0.58400 23.10000
H  6.11900 2.69600 22.88400
H  6.86800 1.38100 22.16300
H  6.94800 2.96000 21.36000
H  11.40900 1.58100 23.50400
H  10.74600 2.41300 22.09100
H  10.50800 -0.49600 22.13400
H  12.12700 0.15300 21.87000
H  10.94800 0.53000 20.69100
H  11.94400 -1.44300 26.00000
H  11.32400 -2.39500 27.27500
H  12.88900 -1.48600 27.54300
H  11.57100 1.66600 31.81000
H  9.01700 0.69000 35.02900
H  10.65400 0.11800 35.73000
H  9.74900 -0.85100 34.67900
Mg 26.39800 0.13400 29.04800
C  28.11800 0.08000 32.26800
C  23.51100 0.78800 30.76600
C  24.73800 -0.07400 26.23400
C  29.24200 -1.05800 27.59900
N  25.94300 0.30800 31.28900
C  26.78100 0.34700 32.42600
C  26.02000 0.82300 33.68100
C  24.48300 0.89400 33.15000
C  24.58400 0.64700 31.59100
C  23.54800 -0.11500 33.90100
C  26.57100 2.13500 34.21300
C  26.02100 2.64100 35.54900
H  27.09100 2.81100 36.69900
N  24.33300 0.36300 28.54600
C  23.35200 0.66900 29.42900
C  22.09400 0.66700 28.74900
C  22.35700 0.45400 27.35800
C  23.83800 0.20600 27.30900
C  20.73800 1.02100 29.33100
C  21.51100 0.48400 26.11400
O  21.94200 0.24500 25.01800
C  20.08000 0.75400 26.26000
N  26.95000 -0.49000 27.20400
C  26.11100 -0.36000 26.16600
C  26.79000 -0.61500 24.83100
C  28.20400 -1.05900 25.26800
C  28.10100 -0.95800 26.81200
C  26.11400 -1.64700 23.89600
C  29.34100 -0.21800 24.57300
C  29.72600 -0.58300 23.14500
N  28.28700 -0.41800 29.74700
C  29.32700 -0.82100 28.99100
C  30.51600 -0.97300 29.81800
C  30.11500 -0.63400 31.14800
C  28.71300 -0.33500 31.01700
C  31.83300 -1.54300 29.30200
C  30.51500 -0.46500 32.53400
O  31.58000 -0.57100 33.09200
C  29.19800 0.07700 33.24100
C  28.88500 -0.91200 34.32000
O  28.60300 -2.10800 34.12500
O  28.94100 -0.25400 35.54600
C  28.87400 -1.08500 36.70200
H  22.67600 1.03500 31.42500
H  24.29500 -0.10600 25.23700
H  30.18900 -1.38900 27.16600
H  26.10100 0.07900 34.47400
H  24.14900 1.91400 33.34000
H  23.10500 0.36700 34.77200
H  24.24400 -0.85900 34.28900
H  22.77000 -0.47700 33.22900
H  26.40800 2.94500 33.50300
H  27.65500 2.14200 34.33000
H  25.20300 2.02100 35.91600
H  25.61700 3.63500 35.35800
H  20.51600 2.06900 29.13100
H  20.97100 0.99200 30.39600
H  19.88300 0.42300 29.01800
H  19.57700 0.77600 25.29300
H  20.04500 1.78300 26.61800
H  19.59400 -0.01700 26.85900
H  26.77900 0.38900 24.40600
H  28.36400 -2.12100 25.08300
H  25.23000 -1.97000 24.44400
H  26.81100 -2.39700 23.52000
H  25.74900 -1.07700 23.04100
H  30.34600 -0.26800 24.99200
H  29.08100 0.84000 24.57700
H  30.78400 -0.84200 23.09200
H  29.57200 0.31100 22.54100
H  29.18400 -1.43600 22.73700
H  31.59200 -2.22100 28.48300
H  32.27900 -2.00600 30.18200
H  32.51900 -0.77400 28.94700
H  29.40500 1.09400 33.57500
H  29.87100 -1.26400 37.10400
H  28.32400 -2.01600 36.56700
H  28.34500 -0.56600 37.50100

