158

Mg 30.96200 58.25200 39.92100
C  28.45900 56.20800 38.34800
C  33.16700 55.70300 39.27900
C  33.56900 60.39900 40.34100
C  28.70400 60.86500 39.88500
N  30.81900 56.24500 38.75400
C  29.72000 55.59200 38.29800
C  29.96000 54.15600 37.87600
C  31.43100 53.95800 38.37200
C  31.85600 55.36900 38.81900
C  31.62800 52.82400 39.44200
C  29.70600 53.71400 36.37500
C  29.73500 54.89400 35.33800
H  28.61600 54.71000 34.21600
N  33.07300 58.09300 39.89600
C  33.72800 56.91400 39.66300
C  35.12300 57.16400 39.70600
C  35.31700 58.53300 40.12400
C  33.91700 59.04500 40.16900
C  36.12000 55.92600 39.41900
C  36.56900 59.13700 40.60700
O  37.55000 58.42500 40.76100
C  36.59800 60.50800 41.17200
N  31.18400 60.30500 40.14300
C  32.29300 60.97100 40.30100
C  31.99100 62.49000 40.56700
C  30.46800 62.55200 40.41000
C  30.07600 61.11400 40.05400
C  32.58900 62.84800 42.01100
C  29.89800 63.64200 39.47100
C  30.12800 63.44200 37.95800
N  28.93200 58.49200 39.25400
C  28.18000 59.68300 39.36700
C  26.88800 59.37600 38.90900
C  26.92000 58.02800 38.53000
C  28.23000 57.54500 38.71200
C  25.81500 60.44900 38.73400
C  26.12900 56.94600 37.94900
O  24.93800 56.89400 37.60300
C  27.12600 55.66000 37.92400
C  26.55800 54.70100 38.96300
O  26.97700 54.51400 40.09700
O  25.35700 54.17900 38.50600
C  24.69800 53.40300 39.45500
H  33.84200 54.85400 39.16100
H  34.37800 61.10100 40.55400
H  28.01400 61.71000 39.92900
H  29.30600 53.50200 38.45200
H  32.07700 53.69600 37.53400
H  30.69400 52.33500 39.71500
H  32.16200 52.99100 40.37700
H  32.11100 51.99600 38.92300
H  28.71500 53.26300 36.33500
H  30.56600 53.08300 36.15200
H  30.68800 54.89400 34.80900
H  29.42500 55.82600 35.81200
H  35.85100 55.34600 38.53600
H  35.95100 55.21800 40.23000
H  37.13700 56.31400 39.36200
H  35.72100 60.54200 41.81800
H  36.61600 61.21300 40.34000
H  37.49800 60.65700 41.76800
H  32.42400 63.11300 39.78500
H  29.97800 62.64900 41.37900
H  33.15600 63.77300 41.90200
H  33.18600 62.00300 42.35400
H  31.75100 63.01200 42.68900
H  30.40000 64.54200 39.82700
H  28.82400 63.72200 39.63800
H  29.25200 63.07200 37.42500
H  30.89800 62.70500 37.72700
H  30.45200 64.38400 37.51600
H  25.65400 60.88600 39.72000
H  24.84200 60.02700 38.48200
H  26.09100 61.23700 38.03400
H  26.90600 55.25000 36.93800
H  24.63900 53.98900 40.37200
H  25.26100 52.49500 39.67000
H  23.69700 53.09500 39.15000
Mg -5.34800 25.75800 26.12600
C  -4.33100 27.05200 29.17300
C  -6.96500 23.26700 27.59400
C  -5.90900 24.49200 23.07400
C  -2.87600 27.90500 24.64200
N  -5.37800 25.15800 28.07200
C  -5.10800 25.91900 29.19500
C  -5.68200 25.29800 30.45100
C  -6.17500 23.88200 29.92500
C  -6.15200 24.08400 28.37700
C  -5.33600 22.60400 30.34500
C  -6.85900 26.24200 31.16100
C  -6.62000 26.68500 32.57500
H  -6.15700 25.60900 33.64300
N  -6.34500 24.13000 25.43700
C  -7.13200 23.30400 26.22300
C  -7.94900 22.53600 25.37500
C  -7.60200 22.78000 24.06400
C  -6.53000 23.83300 24.12700
C  -8.99100 21.65100 25.94000
C  -8.12300 22.20100 22.84200
O  -7.60900 22.54500 21.76600
C  -9.25900 21.23500 22.86600
N  -4.52400 26.20700 24.17100
C  -5.01000 25.54400 23.05300
C  -4.04200 25.88300 21.85600
C  -3.40600 27.19400 22.31000
C  -3.58300 27.07400 23.79600
C  -3.06900 24.74600 21.60600
C  -4.10500 28.47100 21.74200
C  -4.34800 28.63200 20.25800
N  -3.93900 27.23700 26.70000
C  -2.99100 28.00300 26.01200
C  -2.29200 28.87100 26.92200
C  -2.80700 28.53900 28.14800
C  -3.74400 27.52600 27.94600
C  -1.33600 29.99200 26.61200
C  -2.80300 28.98100 29.59000
O  -2.10800 29.86000 30.15500
C  -3.80600 27.96300 30.33600
C  -3.04700 27.28300 31.51400
O  -2.44400 26.22400 31.37600
O  -3.08700 28.09700 32.61500
C  -2.37200 27.60500 33.87100
H  -7.55100 22.56000 28.18500
H  -6.15800 24.02000 22.12100
H  -2.18500 28.53400 24.07700
H  -4.93600 25.24600 31.24500
H  -7.19700 23.67200 30.24200
H  -4.54900 23.02600 30.96900
H  -4.84900 22.00000 29.58000
H  -5.90500 21.93500 30.99000
H  -7.82800 25.74200 31.14500
H  -6.82300 27.08300 30.46800
H  -7.58800 27.01100 32.95600
H  -5.86800 27.47000 32.49900
H  -9.94300 22.00400 25.54200
H  -9.07100 21.77700 27.02000
H  -8.77500 20.61900 25.66300
H  -8.82500 20.28700 23.18400
H  -9.71600 20.97900 21.91000
H  -9.97300 21.68200 23.55800
H  -4.67300 25.99700 20.97500
H  -2.33000 27.11300 22.15700
H  -2.14900 25.06900 21.11900
H  -3.57700 24.12200 20.87100
H  -2.86900 24.03200 22.40500
H  -3.42100 29.29000 21.96000
H  -5.07300 28.67100 22.20000
H  -5.33700 29.02300 20.02000
H  -4.03900 27.73000 19.73000
H  -3.69600 29.46700 20.00000
H  -1.64200 30.85300 27.20700
H  -1.37200 30.35700 25.58500
H  -0.28200 29.74700 26.74500
H  -4.56300 28.60500 30.78700
H  -2.99000 27.27100 34.70500
H  -1.81200 28.48500 34.18700
H  -1.69400 26.79700 33.59800

