158

Mg 1.54300 -2.91900 45.56700
C  4.77800 -2.11300 44.57400
C  0.33000 -0.61100 43.37700
C  -1.47000 -4.38700 45.94800
C  2.92800 -5.62700 47.29400
N  2.46100 -1.62600 43.99900
C  3.74200 -1.37600 43.88000
C  4.02800 -0.19700 42.90000
C  2.61500 0.36800 42.57300
C  1.70700 -0.62700 43.41000
C  2.28900 1.83000 42.75800
C  4.79000 -0.81500 41.70000
C  6.16200 -0.19500 41.30700
H  6.09100 0.78300 40.04000
N  -0.31900 -2.60600 44.72400
C  -0.59100 -1.55700 43.88800
C  -1.99300 -1.59700 43.49500
C  -2.52100 -2.65000 44.26000
C  -1.42400 -3.31800 44.98900
C  -2.69100 -0.56600 42.61700
C  -4.05300 -2.91900 44.18600
O  -4.75700 -2.29300 43.45600
C  -4.53700 -3.95600 45.12100
N  0.82700 -4.80400 46.44800
C  -0.45400 -5.10600 46.54800
C  -0.69900 -6.45300 47.26800
C  0.73400 -6.85000 47.74900
C  1.55000 -5.69000 47.18700
C  -1.70800 -6.50900 48.46500
C  1.16900 -8.28000 47.42900
C  1.57500 -8.56100 46.03500
N  3.49200 -3.70400 46.00300
C  3.87500 -4.76200 46.74300
C  5.31300 -4.70100 46.91500
C  5.76500 -3.60100 46.14600
C  4.57200 -3.11900 45.54700
C  6.12700 -5.64000 47.67000
C  6.89700 -2.82200 45.66100
O  8.07000 -2.89200 45.94400
C  6.25400 -1.82200 44.62300
C  6.52800 -0.50900 45.32100
O  6.04600 -0.03200 46.36100
O  7.39700 0.09500 44.56600
C  7.69900 1.47700 44.78600
H  -0.00000 0.11700 42.63400
H  -2.39700 -4.93400 46.12900
H  3.40400 -6.44300 47.84100
H  4.62500 0.51700 43.46800
H  2.28400 0.00400 41.60000
H  1.69700 2.16300 41.90600
H  3.18300 2.42200 42.95400
H  1.74700 1.95500 43.69600
H  4.15200 -0.87900 40.81800
H  5.13600 -1.83800 41.84700
H  6.88500 -0.99600 41.14800
H  6.56400 0.33000 42.17300
H  -3.08200 -0.98400 41.68900
H  -1.95700 0.14600 42.24100
H  -3.43500 0.00500 43.17200
H  -4.14000 -4.92000 44.80600
H  -5.62300 -3.94100 45.02500
H  -4.21500 -3.73300 46.13800
H  -1.07800 -7.15300 46.52400
H  0.79200 -6.73900 48.83100
H  -2.68700 -6.77200 48.06500
H  -1.92500 -5.55200 48.94000
H  -1.44000 -7.18600 49.27600
H  0.42300 -9.00000 47.76700
H  2.03400 -8.49500 48.05800
H  1.81100 -7.61900 45.53900
H  0.72100 -8.97400 45.49900
H  2.50500 -9.11700 45.91800
H  7.14800 -5.28100 47.80100
H  6.18100 -6.62900 47.21600
H  5.67300 -5.74300 48.65600
H  6.80000 -1.83500 43.68000
H  6.80800 2.10500 44.78300
H  8.27000 1.82000 43.92400
H  8.37700 1.71200 45.60700
Mg 23.67500 -5.67400 45.88500
C  25.73900 -3.35900 44.11600
C  21.13200 -4.90300 43.59500
C  21.82500 -8.10300 47.18700
C  26.36600 -6.60600 47.86500
N  23.50500 -4.27200 44.06300
C  24.42000 -3.42200 43.59700
C  23.87100 -2.65000 42.35800
C  22.30500 -2.88200 42.53000
C  22.29900 -4.14400 43.40400
C  21.60500 -1.74400 43.32800
C  24.49200 -3.01400 40.97400
C  24.98500 -1.81300 40.17900
H  24.80000 -1.88700 38.59100
N  21.69600 -6.43000 45.44100
C  20.81900 -5.93900 44.48100
C  19.55100 -6.58900 44.70000
C  19.76200 -7.66900 45.55500
C  21.14100 -7.41900 46.13000
C  18.34800 -6.07800 43.93700
C  18.75200 -8.71700 45.96600
O  17.70200 -8.63900 45.36100
C  18.93000 -9.70000 47.05300
N  24.10200 -7.25400 47.23900
C  23.06800 -8.05700 47.72000
C  23.58600 -9.05300 48.75000
C  24.91700 -8.38700 49.24000
C  25.18500 -7.38800 48.05600
C  22.60600 -9.44000 49.89800
C  26.07400 -9.41200 49.54600
C  26.44600 -9.68800 50.97300
N  25.68000 -5.10400 46.02600
C  26.63000 -5.49200 46.93400
C  27.89000 -4.88200 46.62700
C  27.49500 -3.92400 45.64100
C  26.22100 -4.13300 45.26000
C  29.32800 -5.11200 47.26500
C  28.01600 -2.84600 44.83000
O  29.16400 -2.32000 44.82400
C  26.84500 -2.44500 43.78400
C  26.48000 -0.99400 44.01300
O  26.55900 -0.39700 45.08600
O  26.16300 -0.38700 42.90100
C  26.00400 1.04900 42.80400
H  20.34600 -4.57600 42.91100
H  21.17000 -8.87600 47.59400
H  27.21400 -6.58700 48.55300
H  24.08300 -1.62800 42.67300
H  21.74600 -3.00100 41.60200
H  22.31400 -0.93600 43.51100
H  21.30100 -2.14700 44.29400
H  20.81100 -1.23800 42.78100
H  23.70900 -3.53000 40.41800
H  25.30500 -3.73100 41.08900
H  25.94100 -1.38300 40.47900
H  24.29700 -1.02100 40.47100
H  17.96600 -5.35100 44.65400
H  17.59000 -6.84400 43.77700
H  18.57700 -5.72700 42.93100
H  18.14800 -10.45800 47.09100
H  19.04700 -9.19700 48.01300
H  19.81800 -10.30700 46.87700
H  23.77600 -9.92400 48.12300
H  24.75800 -7.88000 50.19100
H  21.62900 -8.95900 49.85700
H  23.04300 -9.26800 50.88200
H  22.49900 -10.49500 49.64700
H  27.04900 -9.13700 49.14500
H  25.80100 -10.29500 48.96800
H  27.29300 -9.12400 51.36300
H  26.65500 -10.74000 51.16600
H  25.49400 -9.48500 51.46400
H  29.59500 -6.14300 47.03200
H  29.20700 -4.94300 48.33500
H  30.11400 -4.47000 46.86700
H  27.27200 -2.53400 42.78500
H  26.01800 1.59100 43.75000
H  24.96000 1.21100 42.53700
H  26.50900 1.49700 41.94900

