158

Mg 52.71800 23.78800 44.17900
C  50.15900 26.08800 43.47200
C  50.80700 21.32500 42.68900
C  55.45800 21.87200 43.99900
C  54.53400 26.42600 45.49700
N  50.75100 23.77900 43.05700
C  49.95000 24.84900 42.89500
C  48.84800 24.36000 41.93100
C  48.80300 22.83500 42.08200
C  50.22700 22.61900 42.64400
C  47.67500 22.29800 43.07400
C  48.94000 24.77300 40.39800
C  50.33900 25.11900 39.87900
H  50.44300 25.95400 38.64600
N  53.07800 21.77200 43.46000
C  52.18400 20.90600 43.01300
C  52.81300 19.58600 42.98400
C  54.18200 19.78900 43.13600
C  54.30500 21.18000 43.60300
C  52.23600 18.22200 42.61000
C  55.28300 18.72700 42.96900
O  54.99000 17.65700 42.55600
C  56.64500 19.11600 43.01800
N  54.74600 24.22500 44.40800
C  55.68500 23.25900 44.30700
C  57.05400 23.70700 44.79700
C  56.73500 25.07800 45.41300
C  55.26900 25.32300 45.12500
C  57.80100 22.76900 45.81400
C  57.40300 26.32900 44.81100
C  57.86500 27.38400 45.78000
N  52.40800 25.85700 44.48400
C  53.21000 26.72600 45.13400
C  52.56400 27.99600 45.22800
C  51.27800 27.79200 44.70900
C  51.26900 26.48300 44.20700
C  53.11100 29.25300 45.82500
C  49.97600 28.37500 44.47000
O  49.59900 29.48300 44.79900
C  49.24300 27.29000 43.54900
C  48.98000 27.87100 42.18500
O  49.85700 28.00600 41.32100
O  47.72100 28.27200 42.09000
C  47.34800 29.12500 40.98600
H  50.20700 20.51900 42.26300
H  56.42300 21.36400 43.92900
H  55.05800 27.16800 46.10300
H  47.85000 24.68900 42.22000
H  48.67300 22.26400 41.16300
H  47.12900 21.50900 42.55700
H  46.92000 23.01100 43.40500
H  48.25600 21.92000 43.91600
H  48.39400 25.69400 40.19200
H  48.55600 23.90300 39.86600
H  50.80700 24.15600 39.67600
H  50.88500 25.55100 40.71800
H  52.38600 17.90700 41.57700
H  51.19900 18.38200 42.90700
H  52.46400 17.40700 43.29700
H  56.86800 19.37000 44.05400
H  56.86000 19.96900 42.37500
H  57.38700 18.37100 42.73000
H  57.69600 23.71900 43.91600
H  56.76800 25.12600 46.50100
H  57.05300 22.05500 46.15800
H  58.26200 23.30500 46.64400
H  58.54000 22.30000 45.16400
H  56.88300 26.80500 43.98000
H  58.28600 25.99800 44.26400
H  58.87300 27.67300 45.48500
H  57.89900 27.03900 46.81400
H  57.25100 28.26800 45.60700
H  52.42800 29.74100 46.52000
H  53.38700 30.06300 45.14900
H  54.04100 29.16500 46.38600
H  48.31600 27.05100 44.07000
H  48.24700 29.69800 40.75700
H  46.57300 29.86500 41.19000
H  47.14000 28.57300 40.06900
Mg -11.15000 16.11900 42.06900
C  -8.27000 14.18200 41.44300
C  -9.75000 18.63500 40.25900
C  -14.24100 17.62600 41.75500
C  -12.68900 13.18000 43.27200
N  -9.25300 16.36500 41.07600
C  -8.15800 15.48000 40.97900
C  -6.94400 16.14200 40.44900
C  -7.44300 17.60600 40.07600
C  -8.91000 17.56800 40.57300
C  -6.59300 18.75200 40.67700
C  -6.31400 15.44600 39.22900
C  -4.83500 15.05000 39.24800
H  -3.85800 15.57800 38.14000
N  -11.87900 17.99000 41.38000
C  -11.06900 18.87900 40.66100
C  -11.82000 20.10700 40.52100
C  -13.19200 19.82500 40.89000
C  -13.13100 18.40800 41.37100
C  -11.26600 21.43100 39.95300
C  -14.28200 20.87500 40.93600
O  -14.12000 22.02500 40.59600
C  -15.61400 20.42500 41.52500
N  -13.21200 15.41500 42.30400
C  -14.27800 16.26500 42.25900
C  -15.56900 15.58800 42.69000
C  -15.10400 14.18300 43.08200
C  -13.59600 14.21200 42.88100
C  -16.45200 16.44200 43.63100
C  -15.82300 13.04100 42.36500
C  -16.27800 11.80100 43.26400
N  -10.58700 14.15700 42.38100
C  -11.32200 13.03100 42.97700
C  -10.45100 11.87000 43.09700
C  -9.24200 12.32900 42.51500
C  -9.39900 13.66700 42.05800
C  -10.97000 10.60500 43.77100
C  -7.86700 11.89600 42.08000
O  -7.31200 10.81000 42.21200
C  -7.18400 13.16000 41.61900
C  -6.18900 13.68500 42.65500
O  -6.49300 14.31100 43.69500
O  -4.89500 13.44900 42.25000
C  -3.78200 13.85900 43.23900
H  -9.29500 19.51100 39.79200
H  -15.26700 17.91300 41.51300
H  -13.12900 12.29100 43.72800
H  -6.19600 16.14100 41.24200
H  -7.47400 17.76000 38.99700
H  -6.30500 19.54800 39.98900
H  -5.77400 18.22600 41.16700
H  -7.18200 19.13800 41.50900
H  -6.45400 15.92900 38.26200
H  -6.94600 14.58700 39.00500
H  -4.82700 13.96600 39.13300
H  -4.41300 15.19000 40.24300
H  -11.82700 21.78000 39.08600
H  -10.25000 21.26300 39.59500
H  -11.30700 22.16300 40.75900
H  -16.26200 21.30000 41.58900
H  -15.44200 19.94900 42.49100
H  -16.14200 19.67700 40.93500
H  -16.12700 15.46700 41.76100
H  -15.17400 13.94200 44.14300
H  -17.27400 16.89200 43.07500
H  -15.80700 17.17000 44.12400
H  -16.90800 15.80800 44.39200
H  -15.29500 12.61400 41.51300
H  -16.75400 13.38500 41.91600
H  -16.32500 10.82600 42.77900
H  -17.29900 12.01700 43.57800
H  -15.61700 11.77300 44.13000
H  -10.10500 10.29400 44.35600
H  -11.27700 9.84000 43.05800
H  -11.69600 10.97900 44.49300
H  -6.64600 12.99200 40.68600
H  -3.49000 14.84200 42.87100
H  -2.96600 13.13600 43.21400
H  -4.05000 13.96700 44.28900

