158

Mg 6.95400 54.58500 41.51100
C  6.64500 51.01100 41.30800
C  10.07100 54.30600 40.34300
C  7.02100 57.82200 41.28200
C  3.47700 54.60400 42.19300
N  8.13200 52.81400 40.79700
C  7.96500 51.45900 40.91500
C  9.25000 50.60600 40.58200
C  10.30400 51.75900 40.68900
C  9.42600 53.01900 40.54800
C  10.99800 51.90900 42.14600
C  9.23100 49.89400 39.27700
C  8.89800 50.71400 38.01000
H  7.49700 50.68200 37.46800
N  8.34400 55.90600 40.79100
C  9.61900 55.56000 40.35600
C  10.34700 56.79300 40.08100
C  9.46800 57.90200 40.44300
C  8.23700 57.25900 40.91200
C  11.77200 56.86200 39.58800
C  9.80300 59.36900 40.24100
O  10.79900 59.73200 39.63100
C  8.85900 60.45600 40.78000
N  5.41100 56.02300 41.46800
C  5.76200 57.29800 41.50100
C  4.58600 58.16700 42.00200
C  3.42300 57.10000 41.91600
C  4.11500 55.81400 41.87300
C  4.83600 58.62800 43.51000
C  2.31000 57.22900 40.87300
C  0.87300 57.62900 41.28300
N  5.41500 53.14800 41.90100
C  4.05300 53.27100 42.12400
C  3.49100 52.01400 42.51700
C  4.47700 51.12900 42.16900
C  5.56700 51.86000 41.68900
C  2.08000 51.69900 42.86700
C  4.77300 49.72100 42.17700
O  4.05500 48.82800 42.66000
C  6.15900 49.59500 41.45300
C  5.82700 48.98300 40.15400
O  4.90700 49.29200 39.35400
O  6.54500 47.85100 40.02800
C  5.94600 46.88300 39.03800
H  11.15000 54.24600 40.18900
H  6.95000 58.91100 41.26400
H  2.41700 54.48900 42.42800
H  9.48100 49.90300 41.38300
H  11.12500 51.67900 39.97600
H  10.77800 51.00800 42.72000
H  10.56400 52.79500 42.61000
H  12.07300 52.08400 42.16500
H  8.54200 49.05100 39.23900
H  10.23900 49.48000 39.30800
H  9.61900 50.41400 37.25000
H  9.09300 51.76600 38.21700
H  12.21800 57.84100 39.41300
H  11.77200 56.26400 38.67600
H  12.28800 56.26900 40.34300
H  9.43000 61.37900 40.67600
H  8.62900 60.22400 41.82000
H  7.98800 60.62200 40.14600
H  4.48700 58.97500 41.27600
H  2.83800 57.03700 42.83400
H  5.90500 58.73300 43.69500
H  4.29200 58.05000 44.25700
H  4.38600 59.59900 43.71600
H  2.12000 56.23000 40.48100
H  2.59900 57.94200 40.10100
H  0.84800 57.94900 42.32400
H  0.20900 56.76600 41.31100
H  0.44200 58.42300 40.67200
H  1.36800 52.52400 42.85000
H  2.04000 51.25300 43.86000
H  1.61800 50.92000 42.26000
H  6.80700 48.92600 42.01900
H  6.28500 47.33900 38.10800
H  4.86600 46.74700 39.08700
H  6.29000 45.85100 39.11100
Mg 9.12800 48.17400 26.75500
C  6.89200 47.87400 29.48000
C  11.44500 49.22800 28.90900
C  11.05900 48.57700 24.17300
C  6.26400 47.89400 24.56700
N  8.99700 48.83500 28.98500
C  8.12000 48.33000 29.87100
C  8.60200 48.67600 31.32800
C  10.10000 49.04200 31.09900
C  10.18500 49.01500 29.57300
C  10.61100 50.38600 31.71200
C  8.23700 47.57600 32.40200
C  8.93800 47.72900 33.78900
H  8.65500 46.69800 34.92200
N  11.06500 48.69900 26.57500
C  11.84900 49.09600 27.57900
C  13.14300 49.42300 27.02800
C  13.06500 49.16000 25.63200
C  11.71100 48.72300 25.41300
C  14.34400 50.07600 27.81400
C  14.22500 49.19100 24.63600
O  14.12100 48.97900 23.49900
C  15.61000 49.58800 25.19600
N  8.66200 48.12600 24.61500
C  9.71900 48.33900 23.78800
C  9.26800 48.24100 22.29300
C  7.76100 47.86600 22.32700
C  7.51600 47.96200 23.88500
C  9.61900 49.45900 21.31500
C  7.38800 46.40600 21.85900
C  6.70100 46.26700 20.48400
N  7.03600 47.87500 26.91800
C  6.08000 47.76600 25.92600
C  4.85700 47.47800 26.60200
C  5.08500 47.47700 27.92000
C  6.45100 47.75600 28.12700
C  3.57900 47.15000 25.92600
C  4.49700 47.38300 29.21000
O  3.32600 47.29700 29.58700
C  5.63000 47.40300 30.26000
C  5.73200 46.09700 30.87500
O  6.53800 45.23200 30.49600
O  4.97400 46.07300 32.03700
C  5.29200 44.86200 32.93400
H  12.24200 49.30300 29.65200
H  11.74900 48.81400 23.36100
H  5.48800 47.77800 23.80800
H  8.17800 49.64900 31.57800
H  10.73500 48.23600 31.46700
H  10.93200 51.17900 31.03700
H  11.44600 49.99600 32.29500
H  9.95800 50.83100 32.46300
H  8.41100 46.59600 31.95600
H  7.18900 47.79400 32.60800
H  8.62700 48.66700 34.25000
H  10.01100 47.57800 33.66900
H  15.26500 49.51700 27.65000
H  14.09600 50.29000 28.85400
H  14.42000 51.05000 27.33200
H  16.10900 48.94700 25.92200
H  15.60800 50.66600 25.35900
H  16.21700 49.43500 24.30400
H  9.75200 47.33100 21.93800
H  7.04800 48.52300 21.82900
H  8.74600 49.87400 20.81000
H  10.39700 49.17500 20.60700
H  10.01400 50.30700 21.87300
H  6.65100 46.02700 22.56800
H  8.25700 45.74900 21.84600
H  7.22100 45.70000 19.71200
H  6.41100 47.15900 19.92800
H  5.84900 45.63200 20.72900
H  2.92100 47.98900 26.15000
H  3.14500 46.33500 26.50500
H  3.57800 46.89200 24.86700
H  5.49700 48.11100 31.07900
H  5.61500 45.31900 33.87000
H  6.13600 44.22600 32.66800
H  4.37300 44.33700 33.19200

