158

Mg 25.80900 0.55400 29.40400
C  27.63400 0.74900 32.38700
C  22.88100 0.97000 31.25000
C  24.04400 0.18300 26.50400
C  28.77000 -0.02800 27.62800
N  25.30200 0.84200 31.57200
C  26.21000 0.87900 32.59500
C  25.55600 1.26500 33.92400
C  24.06100 1.19400 33.56900
C  24.04500 1.01600 32.03000
C  23.04700 0.44500 34.47600
C  26.15900 2.52100 34.66900
C  26.48800 2.33100 36.12500
H  25.46300 2.83900 37.12000
N  23.71900 0.60800 28.93500
C  22.66900 0.80600 29.80700
C  21.45700 0.67600 29.02600
C  21.80400 0.41300 27.69900
C  23.22700 0.34300 27.67400
C  20.10300 0.67000 29.66100
C  20.90400 0.12300 26.54000
O  21.26200 -0.26500 25.39900
C  19.48700 0.33600 26.58400
N  26.35700 -0.00700 27.30400
C  25.46600 0.08300 26.35500
C  26.19800 0.13700 24.99400
C  27.63800 0.40600 25.39100
C  27.64200 0.04500 26.83600
C  25.96000 -1.22500 24.17500
C  28.07200 1.95100 25.14300
C  28.30400 2.39800 23.72600
N  27.79800 0.28800 29.85700
C  28.82500 -0.01700 29.07200
C  29.96000 -0.20300 29.94400
C  29.58800 0.09600 31.22000
C  28.21700 0.43900 31.14800
C  31.28300 -0.76600 29.55700
C  30.01100 0.18900 32.60800
O  31.11800 -0.04900 33.14100
C  28.82000 0.62200 33.38300
C  28.60900 -0.31900 34.46300
O  28.04400 -1.43100 34.34800
O  29.13900 0.19000 35.62500
C  29.07700 -0.53400 36.91900
H  21.90900 1.20000 31.69200
H  23.58700 0.23500 25.51300
H  29.72100 0.01500 27.09400
H  25.92900 0.37200 34.42500
H  23.76200 2.23800 33.66300
H  22.55400 -0.27300 33.82100
H  22.39900 1.24200 34.84000
H  23.55500 -0.02200 35.32000
H  25.31400 3.20600 34.74400
H  26.97900 3.00200 34.13600
H  27.44300 2.85500 36.14800
H  26.72200 1.28400 36.31800
H  20.17300 0.66000 30.74900
H  19.60800 -0.20300 29.23500
H  19.57700 1.56400 29.32500
H  19.01100 -0.53400 27.03800
H  19.17300 0.45100 25.54600
H  19.27700 1.30200 27.04200
H  25.82400 0.99800 24.43800
H  28.38300 -0.21100 24.88900
H  25.80000 -1.04200 23.11300
H  25.12300 -1.82900 24.52600
H  26.90800 -1.75500 24.26600
H  28.99700 2.15000 25.68500
H  27.32100 2.60000 25.59200
H  27.70500 3.26300 23.44100
H  28.13800 1.56700 23.04000
H  29.32300 2.75800 23.58600
H  31.98500 0.06800 29.53400
H  31.14600 -1.39600 28.67800
H  31.59900 -1.43600 30.35600
H  29.08800 1.59700 33.79000
H  29.80100 -0.08400 37.59800
H  29.16200 -1.61800 36.84500
H  28.13900 -0.25100 37.39700
Mg 35.25700 1.74300 30.82500
C  32.66100 3.09600 32.78800
C  37.03000 1.39000 33.61400
C  37.77900 0.75700 28.84500
C  33.18100 1.99200 27.96600
N  34.80000 2.07900 33.03100
C  33.69700 2.67200 33.57200
C  33.88100 2.77500 35.14100
C  35.40700 2.37100 35.31400
C  35.75200 1.91100 33.89500
C  36.28100 3.44800 35.92800
C  32.99900 1.76100 35.85500
C  32.11100 2.34700 36.98500
H  32.62100 3.48500 37.89500
N  37.16200 1.11700 31.18800
C  37.75400 1.05700 32.39200
C  39.15700 0.64400 32.25600
C  39.41700 0.55600 30.83500
C  38.06100 0.76100 30.22600
C  40.05700 0.38500 33.45300
C  40.69900 0.19300 30.07700
O  40.71000 -0.06200 28.90700
C  41.98900 0.18900 30.84400
N  35.40500 1.27500 28.68600
C  36.59500 0.94800 28.13000
C  36.49900 1.03100 26.56300
C  34.98000 0.98300 26.38300
C  34.44300 1.46100 27.75600
C  37.18300 2.26900 25.91100
C  34.42300 -0.40000 25.96100
C  32.98900 -0.93500 26.34700
N  33.36300 2.45700 30.42600
C  32.68200 2.50400 29.23300
C  31.36800 3.11600 29.45500
C  31.33200 3.46300 30.81500
C  32.53500 2.93000 31.38600
C  30.27000 3.22700 28.40900
C  30.56400 4.04500 31.85700
O  29.50900 4.62800 31.79900
C  31.41600 3.90700 33.21600
C  31.78000 5.22300 33.69100
O  32.72800 5.87100 33.33700
O  30.86700 5.61800 34.68200
C  31.22000 6.97400 35.25400
H  37.67200 1.28700 34.49200
H  38.57300 0.55300 28.12300
H  32.69700 2.02800 26.98700
H  33.59600 3.81600 35.29400
H  35.60200 1.44700 35.86000
H  35.71700 4.17900 36.50700
H  36.77700 3.91400 35.07700
H  36.92400 2.86600 36.58800
H  33.59300 0.99800 36.35900
H  32.30800 1.30500 35.14600
H  31.91300 1.55700 37.71000
H  31.20000 2.57400 36.43200
H  39.56700 0.29300 34.42200
H  40.87100 1.10800 33.51400
H  40.43600 -0.61000 33.22100
H  41.94900 -0.40500 31.75700
H  42.23700 1.18600 31.20900
H  42.87100 -0.09900 30.27300
H  37.02800 0.16700 26.16200
H  34.63800 1.65200 25.59300
H  38.09900 1.92200 25.43300
H  37.39200 2.99000 26.70100
H  36.54700 2.74600 25.16500
H  35.10400 -1.09900 26.44700
H  34.65200 -0.63500 24.92200
H  32.24100 -0.18400 26.59700
H  33.10200 -1.65900 27.15400
H  32.69000 -1.56000 25.50600
H  29.58100 4.02400 28.68900
H  29.74400 2.28500 28.26000
H  30.68900 3.52000 27.44600
H  30.72800 3.44100 33.92100
H  30.33600 7.25000 35.83000
H  31.55000 7.69400 34.50500
H  32.09300 6.83300 35.89100

