158

Mg -1.61400 17.76900 27.48000
C  -2.46400 15.53400 30.12400
C  -2.57400 20.32700 29.52700
C  -1.90200 19.80700 24.79900
C  -1.48000 15.04400 25.26000
N  -2.42000 17.79700 29.50300
C  -2.46500 16.83600 30.46200
C  -2.66800 17.32900 31.87700
C  -2.67600 18.92600 31.56100
C  -2.45300 19.03100 30.10600
C  -3.93600 19.64800 32.04800
C  -1.48100 17.00100 32.84200
C  -1.25700 17.99600 34.04400
H  -0.73700 17.46800 35.35100
N  -2.05700 19.80100 27.21800
C  -2.39500 20.68200 28.17400
C  -2.54100 21.99700 27.65500
C  -2.28200 21.86100 26.23800
C  -2.02800 20.47600 26.06700
C  -2.85400 23.24200 28.42300
C  -2.16800 22.99100 25.13600
O  -1.93000 22.79700 23.94000
C  -2.21700 24.37900 25.56300
N  -1.87000 17.47200 25.34400
C  -1.78600 18.51500 24.50100
C  -1.56000 18.02900 23.05400
C  -1.13900 16.51700 23.25900
C  -1.49600 16.31300 24.72400
C  -2.76800 18.16500 22.11600
C  0.38500 16.21200 22.87800
C  1.38900 16.59300 23.89200
N  -1.80200 15.57700 27.65500
C  -1.73100 14.68900 26.64500
C  -2.13700 13.42700 27.22100
C  -2.33100 13.64100 28.62900
C  -2.18500 15.01900 28.78500
C  -2.20400 12.09200 26.56000
C  -2.69700 13.09700 29.86800
O  -2.86700 11.94400 30.16700
C  -2.75400 14.26700 30.90700
C  -1.72400 13.90500 31.94500
O  -0.51800 14.19300 31.98500
O  -2.35100 13.22400 32.93900
C  -1.49000 12.57400 33.87500
H  -2.76200 21.17400 30.19000
H  -1.77100 20.54300 24.00300
H  -1.44900 14.27900 24.48100
H  -3.61700 16.96300 32.26800
H  -1.75300 19.38300 31.91700
H  -3.61700 20.46100 32.70100
H  -4.56000 18.94400 32.59800
H  -4.60600 20.12200 31.33100
H  -0.63500 17.02400 32.15400
H  -1.55200 16.03000 33.33000
H  -2.21100 18.49300 34.21700
H  -0.50100 18.71000 33.71700
H  -3.16800 23.04200 29.44700
H  -3.75900 23.63900 27.96300
H  -1.93500 23.82800 28.45200
H  -3.11300 24.65100 26.12200
H  -2.10000 25.04800 24.71000
H  -1.41700 24.61700 26.26400
H  -0.77300 18.69700 22.70300
H  -1.73100 15.82500 22.66000
H  -3.59400 18.61700 22.66500
H  -3.05300 17.21700 21.65900
H  -2.52000 18.84400 21.30000
H  0.60800 16.55600 21.86800
H  0.45000 15.12400 22.86900
H  0.86600 16.98800 24.76300
H  1.97200 17.34000 23.35400
H  2.09600 15.82300 24.20100
H  -1.26000 11.72000 26.16000
H  -2.89000 12.10900 25.71300
H  -2.61400 11.41400 27.30900
H  -3.68600 14.30500 31.47000
H  -1.37600 13.20400 34.75600
H  -0.46800 12.35700 33.56200
H  -1.85900 11.61600 34.24200
Mg 26.84000 50.35000 26.49700
C  24.56600 51.36300 29.01600
C  29.14100 49.34000 28.79700
C  28.76700 49.46700 23.91500
C  24.68200 52.08700 24.19100
N  26.90200 50.46500 28.62200
C  25.82900 50.76100 29.48300
C  26.16000 50.24400 30.91500
C  27.59400 49.73300 30.76800
C  27.97000 49.86600 29.32700
C  28.65700 50.37800 31.77700
C  25.13600 49.14600 31.27400
C  24.26800 49.47300 32.51100
H  24.44500 48.72000 33.82900
N  28.65400 49.46200 26.40600
C  29.45500 49.05200 27.46100
C  30.56500 48.31600 26.89400
C  30.39700 48.28100 25.44700
C  29.23500 49.14300 25.20900
C  31.54700 47.66000 27.85900
C  31.13800 47.57400 24.37900
O  30.77200 47.46600 23.22400
C  32.27600 46.84700 24.95500
N  26.74300 50.67400 24.40800
C  27.68700 50.17900 23.53200
C  27.42200 50.48500 22.05400
C  26.01700 51.11800 22.18300
C  25.78000 51.34100 23.69800
C  28.50300 51.36800 21.35300
C  24.93600 50.27500 21.46700
C  24.15500 49.18800 22.23000
N  25.04000 51.53500 26.54300
C  24.38900 52.21400 25.56300
C  23.31700 52.94900 26.16100
C  23.21900 52.52700 27.48300
C  24.34000 51.70400 27.66600
C  22.34600 53.84700 25.40700
C  22.46400 52.66000 28.76600
O  21.50300 53.31200 29.14000
C  23.27400 51.78400 29.77000
C  23.37700 52.59800 31.05700
O  24.16900 53.50900 31.28400
O  22.31900 52.25100 31.86700
C  22.19800 53.15000 33.06400
H  29.76900 48.77200 29.48700
H  29.34300 49.09400 23.06500
H  24.10600 52.61400 23.42700
H  26.10900 51.02700 31.67100
H  27.59800 48.64300 30.75300
H  29.60500 49.84600 31.69100
H  28.24700 50.21200 32.77300
H  28.76800 51.45400 31.64400
H  25.65100 48.19800 31.43300
H  24.42000 49.04200 30.45900
H  23.25000 49.32400 32.15400
H  24.30700 50.53300 32.76100
H  31.50800 46.57100 27.88800
H  31.48700 48.07500 28.86500
H  32.60700 47.83900 27.68300
H  31.92700 46.06600 25.63000
H  32.86600 47.61700 25.45200
H  32.65400 46.22600 24.14200
H  27.46200 49.59600 21.42500
H  26.05500 52.08300 21.67700
H  29.39800 51.31400 21.97400
H  28.25300 52.42500 21.27100
H  28.69300 50.92800 20.37400
H  25.46800 49.75800 20.66800
H  24.24600 50.93200 20.93800
H  24.40000 49.16500 23.29200
H  24.41500 48.18400 21.89200
H  23.07100 49.29600 22.18500
H  21.94800 53.35200 24.52100
H  22.87400 54.71600 25.01400
H  21.54400 54.20400 26.05200
H  22.77900 50.85600 30.05800
H  21.11400 53.25500 33.09900
H  22.52200 54.18200 32.92500
H  22.59800 52.76300 34.00100

