158

Mg 48.70900 46.89900 42.64400
C  45.33900 47.22000 41.78300
C  48.79800 43.96100 41.05400
C  51.96600 47.06000 42.94300
C  48.51500 50.38600 43.77200
N  47.20500 45.74100 41.48200
C  45.86300 45.97600 41.37400
C  45.15100 44.79500 40.69200
C  46.35000 43.76900 40.52400
C  47.52700 44.51300 41.07700
C  46.12800 42.47800 41.47800
C  44.59200 45.21400 39.27500
C  43.13100 44.76100 39.04600
H  42.84600 43.93700 37.75000
N  50.16200 45.51100 42.26100
C  50.02500 44.34400 41.60700
C  51.32800 43.72900 41.57000
C  52.20600 44.52100 42.34100
C  51.45500 45.73700 42.57100
C  51.68900 42.38900 40.89300
C  53.56200 44.06100 42.76300
O  54.06200 43.01000 42.38500
C  54.43200 44.78800 43.68000
N  50.04000 48.60600 43.07700
C  51.37500 48.29800 43.25900
C  52.21100 49.55400 43.83600
C  51.03000 50.63400 43.96000
C  49.77100 49.86500 43.55800
C  52.94500 49.27600 45.14200
C  51.19400 51.91000 43.01200
C  50.52000 53.17200 43.56500
N  47.25100 48.50400 42.87700
C  47.30500 49.83800 43.33800
C  45.96900 50.37000 43.34600
C  45.15700 49.37500 42.77700
C  46.01600 48.28400 42.44100
C  45.58800 51.72000 43.90400
C  43.77200 49.08500 42.30300
O  42.74600 49.75000 42.39900
C  43.85700 47.59000 41.72100
C  43.08300 46.74600 42.66000
O  43.46300 46.34700 43.72800
O  41.82200 46.26900 42.18100
C  41.07900 45.39800 43.06300
H  48.78300 42.98500 40.56500
H  53.01000 46.98000 43.25500
H  48.58000 51.42600 44.09800
H  44.49000 44.31900 41.41700
H  46.53800 43.40400 39.51400
H  46.05500 41.64100 40.78300
H  45.19300 42.56600 42.03200
H  46.88500 42.37700 42.25500
H  45.20200 44.88700 38.43300
H  44.70800 46.29500 39.19800
H  42.45500 45.58200 38.80600
H  42.67600 44.34500 39.94500
H  52.36600 42.53900 40.05200
H  50.75100 42.14200 40.39700
H  51.98600 41.55200 41.52500
H  54.87400 45.66400 43.20500
H  55.28300 44.13800 43.88200
H  53.94900 45.02400 44.62900
H  52.89700 50.06600 43.16100
H  50.93000 51.03700 44.96700
H  53.82200 48.71000 44.82900
H  52.22100 48.70400 45.72100
H  53.29400 50.09900 45.76600
H  50.74000 51.71200 42.04200
H  52.21100 52.18800 42.73700
H  49.67200 53.57100 43.00700
H  51.28500 53.94900 43.57400
H  50.28300 53.00400 44.61500
H  46.31100 52.46100 43.56200
H  45.46900 51.95900 44.96100
H  44.68700 51.98300 43.34900
H  43.45700 47.57400 40.70800
H  41.18500 45.76600 44.08400
H  41.46800 44.38100 43.00900
H  40.02900 45.33400 42.78100
Mg -1.92900 34.22800 27.42600
C  -3.72400 32.41000 29.76200
C  -1.03600 36.34900 30.01800
C  -0.63000 36.32600 25.15600
C  -3.57700 32.37600 24.94300
N  -2.64800 34.53500 29.58500
C  -3.21900 33.55800 30.31300
C  -2.96600 33.80700 31.77500
C  -2.38100 35.30800 31.80100
C  -1.97400 35.43800 30.38700
C  -3.29500 36.39800 32.34200
C  -1.99000 32.74200 32.39500
C  -2.46700 31.74100 33.55900
H  -1.66700 31.92000 34.90100
N  -0.91100 35.98500 27.59500
C  -0.50900 36.56000 28.76400
C  0.51400 37.50800 28.37700
C  0.63900 37.61000 26.95900
C  -0.28500 36.59100 26.47200
C  1.26800 38.21200 29.49400
C  1.46800 38.51200 26.05700
O  1.43300 38.50000 24.80500
C  2.49900 39.33100 26.65500
N  -1.97200 34.23000 25.35000
C  -1.49800 35.31100 24.63500
C  -2.17000 35.39900 23.24700
C  -2.91800 33.98100 23.12400
C  -2.77100 33.49300 24.55600
C  -3.17000 36.63000 23.06300
C  -2.42300 32.89200 22.14300
C  -1.39700 31.86200 22.47700
N  -3.21700 32.51800 27.35900
C  -3.80000 31.90900 26.26800
C  -4.67300 30.80900 26.66700
C  -4.71200 30.90100 28.08200
C  -3.79700 31.98200 28.38800
C  -5.45000 29.99600 25.66000
C  -5.19300 30.38800 29.31400
O  -5.94500 29.40400 29.56900
C  -4.50500 31.27700 30.46500
C  -5.64100 31.66200 31.21400
O  -6.34800 32.60400 30.93200
O  -5.79700 30.95700 32.33600
C  -7.08800 31.21200 33.09400
H  -0.69700 36.99100 30.83300
H  -0.22500 37.03100 24.42800
H  -4.14100 31.88100 24.14900
H  -3.94400 33.80100 32.25700
H  -1.47600 35.35900 32.40700
H  -2.90500 36.71400 33.31000
H  -4.32300 36.03900 32.40400
H  -3.30500 37.17300 31.57600
H  -1.11700 33.23000 32.83100
H  -1.62800 32.00100 31.68300
H  -2.25400 30.74900 33.16200
H  -3.53400 31.84600 33.75600
H  1.41300 37.60200 30.38600
H  0.72600 39.13800 29.68100
H  2.30000 38.34300 29.16700
H  1.88000 39.95000 27.30500
H  3.02700 39.99100 25.96700
H  3.23600 38.85400 27.30100
H  -1.38300 35.49900 22.50000
H  -3.97800 34.07100 22.88800
H  -2.95000 37.36600 23.83700
H  -4.20600 36.37400 23.28300
H  -3.19700 37.19200 22.12900
H  -2.00100 33.38500 21.26600
H  -3.31200 32.34700 21.82500
H  -1.04200 32.09100 23.48200
H  -0.55000 31.86300 21.79100
H  -1.83500 30.86400 22.47600
H  -5.98500 29.25800 26.25800
H  -4.74700 29.44200 25.03900
H  -6.24500 30.45000 25.06800
H  -3.98300 30.60800 31.14900
H  -7.96200 31.24600 32.44300
H  -6.97900 32.05400 33.77800
H  -7.18300 30.30100 33.68500

