158

Mg 16.79000 -1.67500 28.38300
C  15.42000 0.19100 30.92400
C  18.71800 -3.26800 30.87200
C  18.84600 -2.96200 26.08600
C  15.12200 0.24400 25.92200
N  17.28200 -1.39800 30.65700
C  16.45000 -0.60600 31.43300
C  16.78800 -0.79100 32.99800
C  18.02700 -1.80600 32.87600
C  18.04100 -2.22100 31.38400
C  19.41200 -1.15700 33.20900
C  15.62400 -1.56200 33.64900
C  15.42300 -1.34800 35.17200
H  16.68200 -0.90400 36.07200
N  18.46900 -3.01000 28.45900
C  18.98000 -3.67900 29.54200
C  19.84500 -4.78300 29.13700
C  20.00400 -4.59800 27.76200
C  19.13800 -3.47600 27.36100
C  20.46700 -5.81800 30.06800
C  20.91000 -5.39100 26.73500
O  20.97000 -5.03400 25.55600
C  21.76300 -6.61400 27.19200
N  16.92200 -1.43900 26.36500
C  17.86900 -2.06000 25.58600
C  17.74300 -1.63200 24.10500
C  16.40900 -0.83500 24.07500
C  16.12600 -0.64500 25.54900
C  18.99900 -0.87800 23.51500
C  15.21300 -1.59400 23.40800
C  14.22000 -0.73300 22.59800
N  15.51000 -0.12000 28.37400
C  14.87300 0.53300 27.29800
C  13.93800 1.50600 27.89200
C  14.13500 1.45600 29.26400
C  15.09800 0.44900 29.55200
C  13.04200 2.39800 27.06100
C  13.68400 1.97300 30.49100
O  12.87400 2.84800 30.77100
C  14.46400 1.19900 31.62100
C  15.32200 2.30800 32.35000
O  15.97200 3.16000 31.86100
O  15.19100 2.09600 33.71900
C  15.99900 3.06700 34.51200
H  19.29100 -3.76900 31.65400
H  19.38100 -3.37500 25.22700
H  14.60500 0.86500 25.18700
H  17.07100 0.10300 33.55400
H  17.91500 -2.77300 33.36600
H  20.07100 -1.90900 33.64300
H  19.33700 -0.24200 33.79700
H  19.91300 -0.80800 32.30600
H  15.69000 -2.63600 33.47800
H  14.72000 -1.15400 33.19800
H  15.25100 -2.30300 35.67000
H  14.65200 -0.60200 35.36700
H  20.24100 -6.81800 29.69700
H  20.06400 -5.71500 31.07500
H  21.55000 -5.89400 30.16100
H  22.10400 -6.32700 28.18700
H  22.59800 -6.67700 26.49400
H  21.19400 -7.51300 27.42500
H  17.68900 -2.57200 23.55600
H  16.55500 0.07400 23.49100
H  19.85800 -1.05100 24.16400
H  18.78100 0.18700 23.44100
H  19.33400 -1.16900 22.51900
H  14.60800 -2.09500 24.16400
H  15.61900 -2.41000 22.81000
H  14.73100 0.22000 22.46100
H  13.26600 -0.60300 23.10800
H  14.02600 -1.15000 21.61000
H  13.73600 2.86100 26.35900
H  12.47800 3.15300 27.60800
H  12.36200 1.73500 26.52700
H  13.76700 0.70200 32.29500
H  17.05500 2.79800 34.50000
H  15.55000 2.99800 35.50400
H  15.75800 4.06500 34.14700
Mg 30.50800 58.00900 39.21800
C  27.79200 55.90600 38.36500
C  32.53600 55.35800 38.19800
C  32.98500 60.09900 39.18600
C  28.26400 60.55700 39.86300
N  30.16200 55.82900 38.22400
C  28.96500 55.21700 38.12400
C  29.17200 53.73600 37.86100
C  30.70800 53.52200 38.18100
C  31.18500 54.98000 38.12700
C  31.03900 52.79500 39.51700
C  28.78200 53.24700 36.41900
C  29.17800 54.35000 35.26700
H  28.10100 54.89800 34.38500
N  32.54700 57.72900 38.70000
C  33.21000 56.55100 38.38500
C  34.62800 56.90200 38.19000
C  34.77300 58.30700 38.42900
C  33.43200 58.82000 38.74400
C  35.64700 55.91000 37.78000
C  36.04400 59.15300 38.44700
O  37.14800 58.66700 38.19500
C  36.04500 60.58200 38.79500
N  30.67700 60.02700 39.46400
C  31.81300 60.67500 39.52400
C  31.71000 62.12500 39.94600
C  30.14700 62.26800 40.16900
C  29.64900 60.85600 39.81200
C  32.54200 62.61300 41.18900
C  29.45000 63.40800 39.31400
C  28.60900 64.39300 40.08900
N  28.37300 58.23100 39.22800
C  27.63100 59.32900 39.51000
C  26.27000 59.01900 39.36300
C  26.25100 57.66500 38.94800
C  27.61000 57.24300 38.78900
C  25.12400 59.91300 39.63600
C  25.38100 56.52500 38.62600
O  24.17900 56.48400 38.69900
C  26.37000 55.30000 38.28800
C  26.06800 54.22800 39.27000
O  26.52700 54.13800 40.39900
O  25.06000 53.49900 38.80000
C  24.49500 52.63400 39.76700
H  33.21400 54.52400 38.00300
H  33.66100 60.93000 39.40000
H  27.50700 61.34400 39.85700
H  28.43700 53.27000 38.51700
H  31.23300 52.92800 37.43200
H  30.11700 52.29600 39.81500
H  31.15400 53.55700 40.28900
H  31.84700 52.09400 39.31300
H  27.72400 52.99800 36.34000
H  29.42100 52.41000 36.13800
H  29.87700 53.86300 34.58800
H  29.84200 55.13000 35.64000
H  35.21700 54.97900 37.40900
H  36.13400 55.76300 38.74400
H  36.40000 56.26100 37.07600
H  37.04600 61.00500 38.88400
H  35.64800 60.49500 39.80600
H  35.44900 61.08300 38.03200
H  32.03300 62.75900 39.12000
H  29.83000 62.54800 41.17400
H  33.37300 61.96000 41.45800
H  31.96600 62.81300 42.09200
H  33.01400 63.54500 40.87700
H  28.84500 63.09000 38.46500
H  30.11300 64.16600 38.89800
H  28.01900 65.01100 39.41300
H  29.20100 65.11500 40.65000
H  27.92500 63.83900 40.73200
H  25.22600 60.99400 39.74100
H  24.57500 59.63300 40.53500
H  24.47400 59.69500 38.78900
H  26.04100 55.06000 37.27800
H  24.17500 53.13300 40.68200
H  25.16600 51.84600 40.10900
H  23.62000 52.12700 39.35900

