158

Mg 53.56500 24.91400 43.92500
C  50.59200 26.82300 43.19500
C  52.16200 22.28100 42.34400
C  56.51800 23.51000 44.03100
C  54.94800 28.03100 45.14700
N  51.74200 24.76800 42.76000
C  50.66400 25.62100 42.55800
C  49.50600 24.85100 41.94400
C  49.87900 23.41700 42.16200
C  51.37600 23.47600 42.39800
C  49.19400 22.61700 43.35000
C  49.04500 25.32600 40.47900
C  47.60700 24.89000 40.08800
H  47.46100 23.47000 39.56500
N  54.28500 23.07300 43.34100
C  53.49600 22.10800 42.72600
C  54.31700 20.85900 42.71300
C  55.65000 21.12900 43.25300
C  55.53600 22.62800 43.53500
C  53.72200 19.73500 42.02400
C  56.73400 20.17400 43.51400
O  56.52300 18.98400 43.25100
C  58.11500 20.51000 44.11400
N  55.48900 25.68500 44.49900
C  56.52200 24.89100 44.39100
C  57.75100 25.51700 45.14000
C  57.34800 27.02900 45.37400
C  55.90800 26.96800 44.93600
C  58.18000 24.75200 46.41400
C  58.17700 28.13900 44.63800
C  58.22300 28.30000 43.10100
N  52.98200 26.98000 44.18800
C  53.55900 28.00800 44.84600
C  52.62200 28.99300 45.19800
C  51.48900 28.63300 44.53000
C  51.69600 27.38300 43.88100
C  52.91700 30.25200 45.97600
C  50.14700 29.00000 44.23300
O  49.49100 29.97700 44.52800
C  49.48500 27.81500 43.44400
C  48.79800 28.26100 42.22400
O  49.35800 28.61900 41.20200
O  47.42000 28.27600 42.38900
C  46.73200 28.60200 41.13900
H  51.66300 21.36300 42.03000
H  57.51800 23.15500 44.28900
H  55.33600 28.97400 45.53700
H  48.57300 24.94900 42.50000
H  49.66700 22.93300 41.20900
H  48.47400 23.27500 43.83700
H  49.94400 22.37600 44.10300
H  48.71600 21.75000 42.89500
H  49.74200 24.84100 39.79500
H  49.16900 26.38000 40.23400
H  47.20600 25.56600 39.33200
H  47.14400 25.03100 41.06500
H  54.35400 18.84700 41.98500
H  53.45600 19.89200 40.97800
H  52.75100 19.52700 42.47300
H  58.74000 21.16000 43.50100
H  58.75200 19.62600 44.10600
H  58.09400 21.09000 45.03600
H  58.60100 25.51200 44.45800
H  57.49700 27.19900 46.44000
H  57.35300 24.27200 46.93800
H  58.71800 25.43000 47.07700
H  58.88100 23.96300 46.14200
H  59.20900 27.96600 44.94300
H  57.86900 29.07800 45.09900
H  57.60100 29.11100 42.72100
H  57.82600 27.41600 42.60200
H  59.24800 28.48900 42.78300
H  52.03900 30.68400 46.45600
H  53.45100 31.07900 45.50800
H  53.59100 30.08900 46.81700
H  48.66900 27.30400 43.95500
H  46.70500 27.68100 40.55600
H  47.15900 29.31000 40.42900
H  45.68800 28.86700 41.30800
Mg 16.00100 52.93200 25.52900
C  17.74300 51.53700 28.34000
C  13.73900 54.22900 27.66100
C  14.64700 54.19000 22.85900
C  18.43700 51.29700 23.46400
N  15.71100 52.69900 27.74200
C  16.54400 52.22000 28.70600
C  16.04200 52.51600 30.12000
C  14.57800 53.16000 29.86100
C  14.70400 53.40900 28.32200
C  13.41000 52.27600 30.37900
C  17.05100 53.39900 30.86000
C  17.61000 52.91100 32.23900
H  16.87300 51.90900 33.17200
N  14.32800 53.95800 25.31400
C  13.58000 54.54300 26.29700
C  12.58300 55.30300 25.62800
C  12.69300 55.17800 24.17000
C  13.88400 54.35200 24.03500
C  11.48400 55.97500 26.41800
C  11.85000 55.61800 23.03600
O  12.07700 55.24400 21.91700
C  10.53300 56.32200 23.27300
N  16.27600 52.45400 23.43600
C  15.77300 53.38700 22.58000
C  16.24700 53.18200 21.18900
C  17.56200 52.37600 21.36800
C  17.44700 52.06100 22.87000
C  15.07800 52.38500 20.43600
C  18.81800 53.15000 20.91500
C  18.92700 54.55000 21.55700
N  17.79700 51.69700 25.78100
C  18.62900 51.09100 24.80200
C  19.71900 50.41600 25.53700
C  19.41600 50.56800 26.86200
C  18.22100 51.32600 26.97400
C  21.01600 49.88200 25.06100
C  19.89500 50.27400 28.16800
O  20.88500 49.67000 28.53200
C  18.76400 50.83800 29.23500
C  18.24900 49.60900 29.87500
O  17.49900 48.77800 29.33700
O  18.56300 49.65400 31.19100
C  18.01200 48.48000 31.93800
H  13.05800 54.73900 28.34600
H  14.40100 54.85400 22.02700
H  19.14000 50.73900 22.84200
H  15.96900 51.61600 30.73100
H  14.56700 54.16500 30.28300
H  13.02400 51.72000 29.52400
H  12.58400 52.80100 30.85800
H  13.86600 51.56300 31.06600
H  16.51900 54.34200 30.99400
H  17.93800 53.65300 30.28000
H  17.66400 53.85100 32.78900
H  18.62800 52.52200 32.26000
H  11.31500 57.01000 26.12000
H  11.75400 56.01500 27.47300
H  10.54600 55.43000 26.31700
H  9.94400 56.47500 22.36800
H  10.68800 57.27900 23.77000
H  9.97400 55.60300 23.87200
H  16.35000 54.10100 20.61200
H  17.56900 51.44500 20.80000
H  14.21300 52.22400 21.07900
H  15.40300 51.44500 19.99100
H  14.77500 53.08500 19.65800
H  18.70300 53.40200 19.86100
H  19.77800 52.64100 21.00100
H  18.01900 54.93300 22.02400
H  19.24700 55.37600 20.92100
H  19.56000 54.54900 22.44500
H  21.30700 49.02500 25.66900
H  21.75400 50.66900 25.21200
H  20.99100 49.51600 24.03500
H  19.28100 51.38800 30.02100
H  18.30400 47.48000 31.61600
H  16.92600 48.39000 31.90700
H  18.30000 48.54900 32.98700

