158

Mg 47.28100 16.15500 28.29500
C  45.80800 15.93300 31.45600
C  49.90500 18.00900 29.73000
C  48.79200 16.09600 25.35700
C  44.51700 14.76400 26.88900
N  47.76300 16.95400 30.36900
C  46.97100 16.74500 31.51000
C  47.62300 17.35300 32.78900
C  48.77500 18.27100 32.15400
C  48.86700 17.72500 30.64300
C  48.61100 19.81600 32.24600
C  48.02900 16.15200 33.82700
C  48.00400 16.43900 35.33500
H  48.21800 17.82100 35.94400
N  49.04500 16.90700 27.70700
C  50.03100 17.46600 28.47800
C  51.21900 17.53100 27.67900
C  50.93900 17.03000 26.41400
C  49.53900 16.59200 26.42100
C  52.56700 17.99200 28.22900
C  51.90700 16.95900 25.25900
O  51.68200 16.32800 24.22900
C  53.22100 17.73700 25.18300
N  46.69900 15.71200 26.29700
C  47.50700 15.75200 25.20800
C  46.85200 15.28100 23.87400
C  45.47700 14.70500 24.45400
C  45.53700 15.21200 25.99100
C  46.62900 16.34500 22.82300
C  45.26000 13.26400 24.23700
C  46.16300 12.21100 25.02800
N  45.54900 15.54000 28.94700
C  44.45400 14.99600 28.22800
C  43.47500 14.58700 29.14200
C  43.98700 14.96000 30.42500
C  45.17700 15.59900 30.26500
C  42.22100 13.90500 28.79800
C  43.69500 14.88900 31.87800
O  42.76600 14.41800 32.52300
C  44.84400 15.64200 32.57700
C  44.27000 16.87000 33.17200
O  44.06500 17.90000 32.57500
O  43.89400 16.53800 34.45100
C  42.95600 17.40900 35.15300
H  50.81400 18.48800 30.10000
H  49.34700 15.98700 24.42300
H  43.68800 14.15200 26.53000
H  46.89400 17.99200 33.28800
H  49.77700 18.06500 32.53200
H  47.75900 20.14200 32.84200
H  48.68600 20.40300 31.33000
H  49.48700 20.04800 32.85200
H  48.99000 15.71000 33.56600
H  47.35900 15.32300 33.59800
H  48.82000 15.81200 35.69600
H  47.04800 16.00600 35.62900
H  52.70100 17.89200 29.30600
H  52.80500 18.98500 27.84900
H  53.31700 17.30300 27.84100
H  53.19600 18.78000 25.49600
H  53.54800 17.87500 24.15200
H  54.04300 17.28600 25.73800
H  47.45300 14.42100 23.57800
H  44.58100 15.24900 24.15500
H  46.84100 17.30400 23.29600
H  45.59700 16.49000 22.50400
H  47.35600 16.21200 22.02200
H  45.25300 13.09500 23.16000
H  44.24400 13.13800 24.61300
H  46.59200 12.71300 25.89400
H  46.94300 11.87000 24.34700
H  45.62000 11.32400 25.35700
H  42.25400 13.18200 29.61300
H  42.18900 13.42600 27.81900
H  41.35200 14.55600 28.89400
H  45.21000 15.05600 33.42000
H  41.96600 16.96700 35.04500
H  42.99500 18.38100 34.66100
H  43.35100 17.48800 36.16600
Mg 29.36800 57.53100 40.56500
C  27.07700 55.31900 39.30600
C  31.91300 55.68500 39.47300
C  31.43100 60.26900 40.97400
C  26.61800 59.74600 41.07800
N  29.45200 55.76200 39.54900
C  28.41000 54.98400 39.14600
C  28.83300 53.56100 38.73500
C  30.37300 53.63600 38.97400
C  30.63400 55.10700 39.37400
C  30.89200 52.57600 40.05700
C  28.47800 53.18800 37.23500
C  28.71300 54.37600 36.23200
H  27.73300 54.77200 35.21400
N  31.35900 57.95700 40.37400
C  32.27800 57.01400 39.90900
C  33.62800 57.62300 39.81000
C  33.49600 58.94800 40.18600
C  32.04600 59.15600 40.53500
C  34.73200 56.84400 39.16800
C  34.65100 59.96300 40.22000
O  35.80800 59.62800 39.99800
C  34.41200 61.47100 40.39200
N  29.02900 59.74000 40.76800
C  30.10900 60.52400 41.19900
C  29.63000 61.84900 41.74300
C  28.07800 61.74600 41.49100
C  27.83600 60.31000 41.16200
C  29.90700 62.13700 43.28100
C  27.59200 62.68500 40.33700
C  27.00200 63.99700 40.87700
N  27.25800 57.54800 40.41300
C  26.28000 58.46500 40.60900
C  24.94900 57.93100 40.30700
C  25.22700 56.66100 39.83200
C  26.64600 56.47600 39.77100
C  23.62200 58.62300 40.48700
C  24.59000 55.44000 39.20500
O  23.42100 55.14900 38.97600
C  25.78800 54.52300 38.77700
C  25.46500 53.19700 39.44900
O  25.50700 52.90300 40.64100
O  25.02700 52.35700 38.46000
C  24.70000 50.99600 38.82800
H  32.73700 55.13000 39.02000
H  31.99900 61.16900 41.21900
H  25.73400 60.36000 41.26100
H  28.27500 52.90100 39.39900
H  30.86400 53.47600 38.01400
H  31.49800 53.15600 40.75300
H  31.42800 51.80900 39.49900
H  29.99800 52.12600 40.48700
H  27.50800 52.71700 37.07400
H  29.24600 52.45400 36.98700
H  29.55500 53.89900 35.73000
H  29.03500 55.29100 36.72900
H  35.54500 56.85700 39.89400
H  35.13800 57.15300 38.20500
H  34.43800 55.80000 39.05800
H  34.18100 61.86700 41.38000
H  33.61100 61.65600 39.67600
H  35.18000 62.03500 39.86300
H  30.09700 62.60800 41.11500
H  27.41700 61.86700 42.35000
H  30.94200 62.47800 43.26000
H  29.64200 61.31300 43.94400
H  29.40500 63.04300 43.62100
H  26.78800 62.18100 39.80000
H  28.36900 62.82800 39.58600
H  25.91300 63.96200 40.86700
H  27.27100 64.87000 40.28200
H  27.38000 64.27700 41.86000
H  23.56000 59.40600 39.73200
H  23.64700 59.11000 41.46200
H  22.84400 57.91200 40.20900
H  25.94800 54.41100 37.70400
H  23.67000 51.01900 39.18500
H  25.37900 50.54900 39.55400
H  24.69100 50.45700 37.88000

