158

Mg 48.69300 35.74200 26.46200
C  46.90400 34.17000 28.87200
C  48.66300 38.68800 28.34800
C  50.60900 37.26900 24.08300
C  48.29700 33.07700 24.36300
N  47.99600 36.30600 28.39600
C  47.39900 35.43200 29.30200
C  47.35700 36.12900 30.64800
C  47.49700 37.64200 30.33200
C  48.00900 37.58900 28.88700
C  46.22800 38.60300 30.56900
C  48.46100 35.69400 31.63200
C  47.99000 35.31900 33.10800
H  46.92700 36.19600 33.77300
N  49.54600 37.64600 26.25400
C  49.39400 38.71100 27.08800
C  50.23600 39.78600 26.72800
C  50.94900 39.35500 25.59700
C  50.33800 38.04200 25.23500
C  50.37000 41.07600 27.50200
C  52.03200 40.06000 24.74700
O  52.51300 39.46300 23.78600
C  52.52700 41.40800 25.19100
N  49.15200 35.27600 24.40400
C  50.06500 36.05500 23.67700
C  50.28300 35.44600 22.30700
C  49.52800 34.08600 22.38700
C  48.96900 34.09100 23.77800
C  49.72800 36.40600 21.16700
C  50.56400 32.89200 22.15600
C  51.03100 32.74100 20.66700
N  47.72200 34.02300 26.50600
C  47.64100 33.02800 25.60200
C  46.91900 31.91300 26.15300
C  46.54400 32.31900 27.43800
C  47.00800 33.65600 27.55100
C  46.70900 30.61000 25.51000
C  45.93200 31.87200 28.69400
O  45.42600 30.82400 29.10100
C  46.03100 33.14900 29.59900
C  46.61900 32.68600 30.86700
O  47.83600 32.44300 31.06300
O  45.60300 32.37700 31.79500
C  46.07000 31.57700 32.97200
H  48.58300 39.47900 29.09600
H  51.28900 37.68200 23.33500
H  48.37200 32.14200 23.80400
H  46.41500 35.95300 31.16700
H  48.23700 38.10500 30.98400
H  45.38000 38.06600 30.99400
H  46.08300 39.11700 29.61900
H  46.48600 39.39600 31.27000
H  49.17600 36.49800 31.80500
H  48.99000 34.80600 31.28500
H  48.83500 35.39200 33.79300
H  47.68700 34.27300 33.13300
H  51.35500 41.53000 27.61300
H  49.93600 40.97400 28.49700
H  49.70000 41.86600 27.16100
H  51.83100 42.24200 25.09900
H  53.37800 41.62900 24.54700
H  52.88000 41.30800 26.21700
H  51.33900 35.20100 22.18600
H  48.71100 33.97500 21.67400
H  49.75300 37.49300 21.23400
H  48.72400 36.08700 20.88800
H  50.47500 36.28600 20.38200
H  50.20800 31.88100 22.35600
H  51.40100 33.06900 22.83200
H  50.98000 31.72300 20.28100
H  52.08400 33.00000 20.55300
H  50.45900 33.39500 20.01000
H  45.75300 30.18100 25.81100
H  47.44800 29.89100 25.86300
H  46.61800 30.63900 24.42400
H  45.10800 33.69600 29.79300
H  46.79600 32.15300 33.54500
H  46.67500 30.68200 32.83000
H  45.17800 31.24300 33.50100
Mg 9.43100 48.77700 26.06900
C  7.32500 48.68100 28.84800
C  11.81000 50.14600 27.95200
C  11.09300 49.04600 23.32000
C  6.41600 48.10500 24.13600
N  9.35900 49.52800 28.12300
C  8.54200 49.22600 29.13800
C  9.03800 49.67300 30.50700
C  10.36100 50.31800 30.13700
C  10.60600 49.94600 28.63300
C  10.44900 51.84700 30.40200
C  9.22900 48.61800 31.66100
C  8.25500 48.86500 32.78200
H  8.80100 49.65100 33.96800
N  11.27100 49.36500 25.74900
C  12.18600 49.83700 26.62500
C  13.47900 49.76900 25.94800
C  13.27800 49.48200 24.55400
C  11.84700 49.30100 24.50400
C  14.73500 50.00200 26.75000
C  14.23000 49.38700 23.37200
O  13.87500 49.36100 22.17800
C  15.76300 49.56500 23.58400
N  8.81200 48.79100 24.04800
C  9.71300 48.90100 23.05000
C  9.20900 48.60100 21.63500
C  7.71100 48.17400 22.02900
C  7.61500 48.40700 23.50800
C  9.28300 49.73100 20.55800
C  7.29400 46.70000 21.57100
C  7.43100 45.55600 22.52400
N  7.28600 48.45400 26.39500
C  6.20300 48.17500 25.56600
C  5.03900 47.92800 26.29400
C  5.47300 48.06100 27.63800
C  6.81900 48.44000 27.60900
C  3.66200 47.53600 25.71600
C  4.94600 48.14600 28.99200
O  3.81100 47.94300 29.39900
C  6.20400 48.44800 29.86200
C  6.38200 47.15400 30.58500
O  7.07000 46.22500 30.17600
O  5.73800 47.08500 31.83500
C  6.04400 45.83300 32.59200
H  12.60200 50.57100 28.57200
H  11.62600 48.88800 22.38000
H  5.60400 47.71900 23.51600
H  8.32000 50.43900 30.80000
H  11.17400 49.94300 30.75800
H  9.65500 52.12100 31.09700
H  10.27100 52.37700 29.46600
H  11.44100 52.15700 30.72900
H  10.21500 48.55900 32.12200
H  8.99700 47.65300 31.20900
H  7.84600 47.91300 33.12200
H  7.38600 49.30700 32.29600
H  14.54500 49.80800 27.80600
H  15.01000 51.01900 26.47000
H  15.67200 49.48400 26.54300
H  15.86800 48.83700 24.38800
H  16.02200 50.58700 23.86300
H  16.33700 49.30900 22.69400
H  9.63500 47.71200 21.17000
H  6.98400 48.82800 21.55000
H  9.65300 50.68200 20.94100
H  8.27700 49.93500 20.19300
H  9.94500 49.41300 19.75200
H  7.63800 46.44000 20.56900
H  6.23100 46.79500 21.35300
H  8.18000 45.67500 23.30600
H  7.57900 44.66100 21.91900
H  6.45200 45.30800 22.93500
H  3.68900 47.19800 24.68000
H  3.04300 48.43300 25.69400
H  3.18400 46.85700 26.42200
H  6.00500 49.15600 30.66600
H  5.41500 45.06900 32.13600
H  5.69600 45.95300 33.61800
H  7.08000 45.50600 32.68400

