158

Mg 40.77500 7.90100 29.70300
C  42.42400 9.40900 32.53300
C  38.43900 6.81400 31.93100
C  39.38900 6.35000 27.06600
C  43.56100 8.89100 27.71600
N  40.56600 8.11400 31.96500
C  41.18800 8.80100 32.88400
C  40.48700 8.84300 34.23100
C  39.28400 7.96300 34.01200
C  39.48300 7.50400 32.57900
C  39.21900 6.69900 34.98400
C  40.05400 10.30000 34.59600
C  39.31200 10.48900 35.87400
H  40.01600 11.25800 36.98900
N  39.11100 6.76200 29.54500
C  38.29100 6.42600 30.55700
C  37.10500 5.68000 29.95700
C  37.40700 5.52300 28.55800
C  38.71300 6.22300 28.33800
C  35.93000 5.23300 30.87600
C  36.64300 4.76300 27.51500
O  37.13100 4.35200 26.50900
C  35.24200 4.35100 27.87700
N  41.45700 7.60800 27.73100
C  40.65900 6.90900 26.80500
C  41.39700 6.81100 25.44800
C  42.62500 7.84500 25.64700
C  42.59200 8.06600 27.17600
C  41.85000 5.32200 25.05500
C  42.63800 9.13900 24.80200
C  41.37400 10.06800 24.81800
N  42.50900 8.93900 29.89700
C  43.53400 9.26500 29.01500
C  44.50900 10.06500 29.67100
C  44.14300 10.17000 31.03800
C  42.89800 9.50000 31.13800
C  45.89500 10.55400 29.08200
C  44.49700 10.69800 32.34800
O  45.38100 11.45000 32.60600
C  43.35400 10.29200 33.34200
C  43.83200 9.73500 34.58000
O  44.28200 8.60600 34.61400
O  43.71300 10.62400 35.65300
C  43.72700 9.99600 36.96800
H  37.71600 6.51200 32.69200
H  38.79700 5.94700 26.24100
H  44.25100 9.41400 27.05000
H  41.17400 8.51200 35.00900
H  38.35000 8.52600 34.02600
H  39.83900 6.92500 35.85200
H  39.68100 5.89500 34.41100
H  38.19100 6.66800 35.34500
H  39.38800 10.68200 33.82200
H  40.89800 10.99000 34.58700
H  38.90200 9.65200 36.43800
H  38.46000 11.15500 35.73500
H  34.95300 5.60100 30.56100
H  36.10200 5.59900 31.88800
H  35.89900 4.14400 30.85200
H  34.69200 5.23300 28.20500
H  35.38400 3.73200 28.76300
H  34.74300 3.88000 27.02900
H  40.79200 7.08400 24.58400
H  43.52400 7.40300 25.21800
H  41.54800 5.20200 24.01500
H  41.38700 4.63400 25.76300
H  42.92700 5.22200 25.18900
H  42.67200 8.85000 23.75100
H  43.61000 9.59500 24.98900
H  40.65700 9.67600 25.53900
H  40.82400 10.04700 23.87700
H  41.78800 11.06300 24.97700
H  46.34300 9.90100 28.33300
H  46.57400 10.62200 29.93200
H  45.82800 11.54600 28.63600
H  42.91800 11.25900 33.59200
H  44.43500 9.18600 37.13900
H  42.72000 9.61700 37.14200
H  43.97600 10.73400 37.73100
Mg 7.12200 54.08800 40.73900
C  6.60000 50.74400 40.80400
C  10.37500 53.62400 40.10700
C  7.30300 57.47000 39.98600
C  3.56000 54.58300 41.28000
N  8.37800 52.34500 40.64100
C  7.95200 51.05500 40.50600
C  9.12000 50.13500 40.34700
C  10.34100 51.11600 40.45700
C  9.69100 52.46000 40.40100
C  11.21100 50.91600 41.73900
C  9.20200 49.31900 39.02900
C  9.32200 50.00400 37.63900
H  7.94300 50.07900 36.93800
N  8.67000 55.38800 40.08400
C  9.94800 54.98300 39.92400
C  10.72800 56.15600 39.45100
C  9.92800 57.33800 39.56300
C  8.58000 56.76000 39.84200
C  12.19500 56.18800 39.19600
C  10.37300 58.82900 39.37500
O  11.46700 59.13600 38.95200
C  9.40100 59.86800 39.75800
N  5.61600 55.73700 40.59200
C  6.00700 57.01800 40.31600
C  4.88400 58.05900 40.60700
C  3.62700 57.10400 40.82900
C  4.29200 55.72700 40.92500
C  5.19500 59.06100 41.73400
C  2.53400 57.17300 39.79200
C  1.31800 58.15100 40.05400
N  5.44000 52.98300 41.07300
C  4.07800 53.33900 41.27000
C  3.30700 52.15200 41.57800
C  4.25800 51.09800 41.35600
C  5.47800 51.64100 41.00100
C  1.85400 52.06200 41.87000
C  4.40500 49.65500 41.31700
O  3.61100 48.71500 41.55700
C  5.92500 49.36100 40.96000
C  5.93400 48.41900 39.80300
O  5.48300 48.59000 38.68100
O  6.32900 47.13500 40.30900
C  6.26400 46.02500 39.34200
H  11.43900 53.43300 39.95300
H  7.34700 58.49900 39.62500
H  2.50900 54.79800 41.48100
H  9.12000 49.50500 41.23700
H  10.98600 50.89800 39.60500
H  11.14100 49.96700 42.27100
H  10.91400 51.73900 42.38800
H  12.26100 50.99800 41.45700
H  8.32000 48.67900 39.00900
H  10.04900 48.63700 39.10200
H  9.94900 49.45100 36.93900
H  9.66400 51.02000 37.83200
H  12.56900 55.16400 39.18100
H  12.75500 56.82200 39.88300
H  12.41300 56.63400 38.22600
H  8.69000 59.76900 38.93800
H  9.81200 60.87700 39.71700
H  8.92300 59.68400 40.72000
H  4.77800 58.57400 39.65200
H  3.15900 57.20900 41.80800
H  6.25600 58.91000 41.93400
H  4.49700 58.93100 42.56200
H  5.24200 60.10700 41.43400
H  2.14100 56.16900 39.63300
H  2.99200 57.54300 38.87400
H  0.49600 57.49500 40.33900
H  1.24600 58.79200 39.17500
H  1.61700 58.74400 40.91800
H  1.62400 51.46900 42.75500
H  1.35300 51.60200 41.01900
H  1.30700 52.99700 41.99200
H  6.22200 48.89900 41.90100
H  5.92800 45.16200 39.91800
H  7.16900 45.79300 38.78000
H  5.49100 46.20900 38.59700

