158

Mg 8.97800 4.05800 27.89300
C  10.33800 2.45200 30.85700
C  7.28500 6.22400 29.92000
C  7.44000 5.11800 25.17300
C  10.70000 1.72100 25.92600
N  8.71600 4.27100 30.18200
C  9.43200 3.59100 31.22000
C  9.14200 4.12300 32.56200
C  8.13600 5.31700 32.23300
C  8.07900 5.34900 30.65900
C  6.67300 5.21000 32.61200
C  10.44000 4.59500 33.23400
C  10.85500 3.95500 34.54200
H  11.36600 4.95400 35.60800
N  7.51000 5.40700 27.65300
C  6.92700 6.24200 28.53900
C  6.16600 7.26600 27.88200
C  6.10900 6.86400 26.49700
C  7.07500 5.71400 26.35300
C  5.47200 8.46200 28.50000
C  5.23600 7.32900 25.33400
O  5.35600 6.95100 24.18900
C  4.16700 8.29800 25.61300
N  9.12900 3.50700 25.87500
C  8.34500 4.08400 24.87300
C  8.63500 3.66600 23.42800
C  9.75000 2.61900 23.74600
C  9.90700 2.62600 25.28500
C  7.43500 3.22400 22.58800
C  11.15100 2.86100 23.10600
C  11.68900 1.79400 22.17500
N  10.27800 2.50000 28.22100
C  10.92000 1.67000 27.29600
C  11.75800 0.71300 27.98700
C  11.57600 0.99100 29.32300
C  10.65700 2.12700 29.46300
C  12.68500 -0.33200 27.34500
C  12.01400 0.65900 30.68800
O  12.84100 -0.12100 31.13200
C  11.24500 1.61500 31.68100
C  10.58900 0.85000 32.75200
O  9.52800 0.22400 32.65400
O  11.31600 0.93200 33.94600
C  10.72700 0.21000 35.02400
H  6.96000 7.02700 30.58500
H  7.05900 5.56300 24.25100
H  11.16400 1.04300 25.20700
H  8.59500 3.33500 33.08100
H  8.54900 6.31300 32.39300
H  6.10000 4.87600 31.74700
H  6.30400 6.17300 32.96500
H  6.51700 4.54800 33.46300
H  10.31300 5.65000 33.47400
H  11.28500 4.39300 32.57500
H  11.69100 3.26900 34.40600
H  10.03000 3.32300 34.87000
H  5.76800 9.43400 28.10700
H  5.63100 8.42700 29.57800
H  4.40700 8.25900 28.38100
H  3.62500 8.50900 24.69100
H  4.48600 9.22100 26.09700
H  3.41100 7.91800 26.30100
H  9.11400 4.57300 23.05900
H  9.29900 1.69000 23.39700
H  6.54800 3.17000 23.22000
H  7.59000 2.20000 22.24800
H  7.25300 3.89400 21.74700
H  11.87700 2.97900 23.91100
H  11.17500 3.83100 22.61000
H  12.04500 2.10200 21.19200
H  10.97000 0.97600 22.13200
H  12.54100 1.33500 22.67600
H  13.47900 -0.50800 28.07100
H  13.06700 0.06800 26.40600
H  12.13300 -1.26200 27.20900
H  11.93500 2.18100 32.30700
H  10.22700 -0.70300 34.70000
H  10.07400 0.77600 35.68800
H  11.53700 -0.22400 35.61100
Mg 47.42100 35.12500 27.57200
C  45.58900 33.66900 30.02300
C  47.76600 37.95000 29.44000
C  49.10100 36.67800 25.00600
C  46.51700 32.45800 25.47600
N  46.80300 35.66600 29.38000
C  46.25200 34.84700 30.30100
C  46.45700 35.42400 31.69300
C  46.59400 36.93600 31.39900
C  47.09600 36.86200 29.96300
C  45.44000 37.93900 31.72200
C  47.63600 34.75200 32.41600
C  47.41700 34.55500 33.97500
H  46.53800 35.52200 34.79900
N  48.34700 37.05600 27.25300
C  48.31900 38.09300 28.17000
C  49.21900 39.18000 27.82500
C  49.63200 38.77400 26.52300
C  49.01300 37.41100 26.19800
C  49.65700 40.35400 28.74800
C  50.70700 39.34400 25.61700
O  51.02200 38.75000 24.59400
C  51.36800 40.73500 25.91700
N  47.72900 34.65200 25.56200
C  48.52200 35.42400 24.71000
C  48.49800 34.80200 23.24400
C  47.74400 33.51600 23.48300
C  47.23100 33.55000 24.88300
C  47.86400 35.67700 22.14600
C  48.66700 32.18400 23.13500
C  49.92700 31.95900 24.07100
N  46.27000 33.34000 27.67900
C  46.05300 32.32100 26.80400
C  45.26300 31.26000 27.47400
C  45.06300 31.76900 28.70400
C  45.67800 32.96700 28.79500
C  44.70500 29.96200 26.84700
C  44.40200 31.47500 29.92700
O  43.81200 30.47200 30.29900
C  44.61400 32.75500 30.79200
C  45.18900 32.37100 32.15500
O  46.24900 31.78200 32.33700
O  44.22300 32.51600 33.14100
C  44.35900 31.79000 34.32400
H  47.97100 38.81100 30.08000
H  49.60600 37.09000 24.13000
H  46.27300 31.58900 24.86100
H  45.59100 35.30200 32.34300
H  47.36900 37.33100 32.05600
H  44.54500 37.34900 31.92000
H  45.25900 38.60600 30.87900
H  45.69200 38.51200 32.61400
H  48.50100 35.38100 32.20500
H  47.64500 33.75300 31.98100
H  48.42200 34.60400 34.39600
H  47.05800 33.56200 34.24700
H  50.63300 40.11800 29.17200
H  48.91600 40.65400 29.48900
H  49.79700 41.24500 28.13500
H  51.96800 40.67500 26.82600
H  50.60000 41.48000 26.12200
H  51.80000 41.05200 24.96800
H  49.54100 34.61600 22.98700
H  46.85300 33.37900 22.87000
H  48.45600 35.61600 21.23300
H  47.80600 36.73000 22.42400
H  46.84700 35.36100 21.91400
H  48.92800 32.25200 22.07900
H  48.07800 31.27300 23.24400
H  49.90200 32.68800 24.88100
H  50.89600 31.90000 23.57400
H  49.82200 30.90100 24.31200
H  44.79000 30.18600 25.78300
H  43.65600 29.94400 27.14200
H  45.33800 29.13000 27.15600
H  43.66400 33.26400 30.95300
H  43.81600 30.86200 34.14600
H  43.79200 32.29400 35.10600
H  45.37000 31.63100 34.69800

