158

Mg 8.31500 2.76300 27.27300
C  9.81200 1.05900 30.05500
C  7.00300 4.94900 29.44700
C  6.46400 3.78600 24.74600
C  9.68100 0.21300 25.25100
N  8.32200 2.86200 29.55100
C  9.09200 2.16600 30.43100
C  8.92600 2.77700 31.83100
C  7.88800 3.94900 31.62600
C  7.79100 4.00900 30.13100
C  6.56800 3.71800 32.40500
C  10.28300 3.29900 32.39200
C  10.13700 3.92900 33.79500
H  11.09900 3.47400 34.91500
N  7.02200 4.26400 27.04700
C  6.62900 5.06800 28.08900
C  5.79700 6.18000 27.50800
C  5.54400 5.83800 26.11300
C  6.33100 4.59900 25.91000
C  5.49500 7.39000 28.29000
C  4.78500 6.50700 25.06200
O  4.63000 5.92200 23.96300
C  3.96400 7.69400 25.28200
N  8.02300 2.14100 25.29500
C  7.15800 2.65400 24.39700
C  7.14200 2.06600 23.03700
C  8.33400 1.06900 23.11500
C  8.72600 1.13300 24.62300
C  5.77400 1.56400 22.61000
C  9.49200 1.48300 22.15100
C  10.23900 0.31100 21.58800
N  9.51000 1.13700 27.51800
C  9.97200 0.14400 26.59000
C  10.84200 -0.78400 27.31700
C  10.80600 -0.44500 28.62800
C  9.96200 0.67000 28.73600
C  11.60900 -1.99100 26.83600
C  11.26100 -0.84100 29.96600
O  11.98600 -1.81300 30.33400
C  10.62200 0.16200 30.96800
C  10.02500 -0.57800 32.15000
O  8.96800 -1.14100 32.11500
O  10.91900 -0.49600 33.26600
C  10.30200 -1.16100 34.42000
H  6.74400 5.79600 30.08600
H  5.81600 3.92000 23.87800
H  10.04400 -0.60500 24.62500
H  8.49200 2.00800 32.47000
H  8.28500 4.94700 31.81100
H  5.77400 3.47700 31.69900
H  6.22900 4.61500 32.92300
H  6.67000 2.97800 33.19900
H  10.84400 3.97700 31.74900
H  11.02700 2.51300 32.52200
H  9.07900 3.75100 33.98500
H  10.42300 4.97700 33.70300
H  6.03900 7.47200 29.23100
H  4.43200 7.41700 28.53200
H  5.77000 8.15400 27.56200
H  3.02400 7.59400 24.73900
H  4.44000 8.66200 25.12600
H  3.74900 7.67800 26.35000
H  7.46200 2.83200 22.33200
H  7.92600 0.09000 22.86200
H  5.33800 2.30900 21.94400
H  5.09300 1.40500 23.44600
H  5.86700 0.63900 22.04000
H  10.17200 2.12200 22.71400
H  9.19300 2.14500 21.33800
H  10.47600 0.48700 20.53900
H  9.71700 -0.62200 21.80000
H  11.21000 0.29000 22.08400
H  11.44700 -2.76100 27.59000
H  12.64000 -1.64600 26.75500
H  11.11600 -2.31000 25.91700
H  11.43800 0.79700 31.31200
H  10.09700 -2.22900 34.34100
H  9.44400 -0.56500 34.73100
H  10.90900 -1.14300 35.32600
Mg -8.91000 40.17100 43.60900
C  -7.88200 36.90100 42.44400
C  -6.34000 41.37700 41.67700
C  -10.07500 43.18800 44.28200
C  -11.89500 38.73600 44.81700
N  -7.33600 39.21600 42.23600
C  -7.10300 37.89100 41.94800
C  -5.76600 37.76000 41.18600
C  -5.36700 39.22100 40.93300
C  -6.41200 40.00700 41.66400
C  -3.87900 39.63200 41.24800
C  -5.87200 36.88100 39.87000
C  -4.96500 37.22500 38.63100
H  -4.52100 36.18300 37.65400
N  -8.21100 42.08900 43.16000
C  -7.19800 42.37800 42.33800
C  -7.07700 43.82900 42.13100
C  -7.95100 44.36100 43.10800
C  -8.75000 43.19900 43.71100
C  -6.02100 44.49100 41.19100
C  -8.13800 45.84600 43.32800
O  -7.62600 46.69900 42.60000
C  -8.82300 46.32300 44.58000
N  -10.81400 40.90400 44.33200
C  -10.99400 42.19600 44.66100
C  -12.28100 42.43900 45.23300
C  -12.89700 41.03400 45.29400
C  -11.79100 40.11300 44.83100
C  -12.28900 43.15300 46.65900
C  -14.38400 40.85100 44.76500
C  -14.48300 40.16600 43.42600
N  -9.83600 38.28600 43.63100
C  -11.00800 37.86100 44.14300
C  -11.04600 36.46300 44.04800
C  -9.84900 36.01000 43.36800
C  -9.14700 37.21700 43.11100
C  -12.21900 35.62600 44.54700
C  -9.10600 34.89400 42.91400
O  -9.38700 33.67900 42.88600
C  -7.77500 35.39300 42.27600
C  -6.56300 34.83400 42.98700
O  -6.31900 34.98900 44.18600
O  -5.71700 34.12400 42.10500
C  -4.50900 33.63300 42.68900
H  -5.56400 41.90300 41.11700
H  -10.39500 44.16800 44.64200
H  -12.84300 38.46900 45.28800
H  -5.09400 37.20700 41.84200
H  -5.46600 39.45200 39.87200
H  -3.44700 40.18700 40.41500
H  -3.25200 38.74900 41.36900
H  -3.80800 40.31200 42.09700
H  -6.84100 37.17300 39.46500
H  -6.02200 35.82700 40.10400
H  -4.03100 37.61900 39.03200
H  -5.51600 38.00200 38.10100
H  -6.36500 45.50100 40.97100
H  -5.88100 43.87500 40.30200
H  -5.12000 44.54000 41.80200
H  -8.39100 47.28700 44.84600
H  -8.79600 45.64000 45.42900
H  -9.88100 46.44200 44.34500
H  -12.83200 43.05600 44.52300
H  -12.82800 40.84000 46.36500
H  -11.38100 42.88100 47.19700
H  -13.10000 42.79600 47.29500
H  -12.37100 44.22900 46.50600
H  -14.93300 41.78400 44.88800
H  -14.89400 40.08100 45.34400
H  -13.56800 40.12600 42.83500
H  -15.20200 40.78900 42.89300
H  -14.87700 39.14900 43.41500
H  -12.26400 34.74000 43.91400
H  -13.14600 36.18800 44.65700
H  -11.92800 35.38200 45.56800
H  -7.70900 35.21300 41.20300
H  -4.47900 33.18000 43.68000
H  -3.71700 34.38200 42.68200
H  -4.19500 32.91000 41.93700

