158

Mg 5.18400 57.09700 41.92600
C  5.24900 53.61200 41.46900
C  8.13200 57.33600 40.27000
C  4.65200 60.50000 41.75200
C  1.90200 56.67000 43.24100
N  6.38400 55.64600 40.89200
C  6.21500 54.27600 40.77600
C  7.36500 53.70500 39.90900
C  8.44500 54.75600 40.06600
C  7.63100 56.01100 40.42700
C  9.52200 54.42900 41.10600
C  6.84200 53.41700 38.46000
C  7.35800 52.08500 37.82600
H  6.50100 51.57200 36.68800
N  6.27300 58.76400 41.08700
C  7.50500 58.59200 40.52500
C  7.91200 59.89000 40.09000
C  6.87700 60.83600 40.41900
C  5.90400 60.06200 41.16200
C  9.30300 60.13500 39.49900
C  6.90200 62.34600 40.10600
O  7.96500 62.88100 39.72700
C  5.76600 63.27000 40.37500
N  3.49700 58.34500 42.39200
C  3.69600 59.72900 42.43900
C  2.42400 60.44900 42.98500
C  1.63500 59.23400 43.49900
C  2.40300 57.95700 43.04300
C  2.75700 61.52000 44.01300
C  0.08600 59.14600 43.16100
C  -1.03200 58.62300 44.10900
N  3.88500 55.52500 42.43000
C  2.57600 55.46800 42.94500
C  2.15300 54.09600 43.08300
C  3.21600 53.40000 42.56400
C  4.21900 54.26800 42.08600
C  1.00900 53.62600 43.82200
C  3.69600 52.06700 42.41500
O  3.30900 51.00700 42.72400
C  5.03300 52.16100 41.71300
C  5.01100 51.33300 40.47600
O  4.15400 51.34500 39.55800
O  5.97000 50.30400 40.58500
C  5.91400 49.25700 39.57800
H  9.09400 57.36100 39.75300
H  4.45900 61.57400 41.71300
H  1.03100 56.50800 43.88000
H  7.68400 52.73500 40.29000
H  9.01300 55.16600 39.23100
H  10.49200 54.54600 40.62300
H  9.42300 53.36700 41.33300
H  9.28000 55.06400 41.95800
H  7.39500 54.19200 37.93100
H  5.76500 53.57600 38.40100
H  7.37100 51.33000 38.61100
H  8.37700 52.16400 37.44600
H  9.06500 60.79800 38.66700
H  9.82100 59.24200 39.15100
H  9.93500 60.67500 40.20400
H  4.87700 62.80300 39.95100
H  6.04600 64.18200 39.84600
H  5.61000 63.42000 41.44300
H  1.78500 60.88600 42.21800
H  1.65700 59.09300 44.58000
H  3.84000 61.62500 43.95200
H  2.47000 61.22200 45.02200
H  2.16100 62.40500 43.78800
H  -0.05900 58.88000 42.11400
H  -0.19100 60.18200 42.97000
H  -1.66400 59.40800 44.52600
H  -0.45200 58.00200 44.79100
H  -1.69900 57.91200 43.62200
H  1.21200 53.58200 44.89200
H  0.53200 52.71400 43.46100
H  0.17800 54.32300 43.71800
H  5.84600 51.81100 42.34900
H  6.96000 48.98400 39.43300
H  5.40600 49.49500 38.64400
H  5.45400 48.39200 40.05600
Mg -0.25500 43.98900 25.36300
C  1.76300 43.81200 27.93900
C  -2.99400 43.05300 27.39600
C  -2.47300 43.75000 22.54400
C  2.18500 44.67300 23.20900
N  -0.59200 43.34900 27.44400
C  0.42300 43.51600 28.33500
C  0.01500 43.28000 29.74700
C  -1.59200 43.07900 29.62300
C  -1.76900 43.21500 28.08100
C  -1.94800 41.70600 30.11300
C  0.24500 44.63300 30.66600
C  0.52900 44.48500 32.21100
H  0.37000 43.15000 32.92200
N  -2.44900 43.44700 25.04800
C  -3.37200 43.05200 26.03100
C  -4.61000 42.72800 25.40000
C  -4.49800 43.08800 24.02200
C  -3.08500 43.47900 23.83600
C  -5.64700 42.06800 26.26200
C  -5.52300 43.05700 22.92400
O  -5.39700 43.57400 21.81700
C  -6.81700 42.34800 23.16200
N  -0.19900 44.28900 23.21800
C  -1.18500 44.16100 22.30200
C  -0.66200 44.38700 20.86900
C  0.74000 45.01800 21.14500
C  0.97400 44.49200 22.62700
C  -0.52100 43.04000 20.11900
C  0.79600 46.56600 21.00600
C  -0.34400 47.41600 21.52700
N  1.69000 44.16800 25.49700
C  2.59500 44.40000 24.51000
C  3.89800 44.55100 25.19400
C  3.63500 44.19600 26.53400
C  2.29600 44.00700 26.67100
C  5.17400 44.89300 24.46400
C  4.15600 44.03500 27.76600
O  5.35800 44.02000 28.08300
C  2.95300 43.82200 28.74200
C  3.18300 42.67500 29.66200
O  3.04700 41.46800 29.37800
O  3.74800 43.18900 30.80300
C  4.24700 42.20400 31.82200
H  -3.89300 42.85900 27.98500
H  -3.07700 43.66900 21.63800
H  2.93000 45.06700 22.51500
H  0.50400 42.42800 30.22000
H  -2.09600 43.86900 30.17900
H  -2.85900 41.86700 30.69000
H  -1.21500 41.34600 30.83500
H  -2.11000 40.86200 29.44200
H  -0.70800 45.15500 30.75500
H  0.88400 45.38000 30.19700
H  -0.04200 45.22500 32.77200
H  1.57900 44.77600 32.21200
H  -5.16600 41.25300 26.80300
H  -6.43700 41.58400 25.68700
H  -5.97800 42.79500 27.00400
H  -7.45300 42.76900 23.94100
H  -6.64000 41.29600 23.38500
H  -7.38600 42.38000 22.23300
H  -1.34000 45.15300 20.49400
H  1.52900 44.53500 20.56700
H  0.51300 42.76000 20.31600
H  -0.84800 43.20300 19.09200
H  -1.15800 42.30700 20.61300
H  1.06100 46.89400 20.00000
H  1.59100 46.83700 21.70100
H  -0.71000 48.21500 20.88200
H  0.03900 47.91800 22.41500
H  -1.17900 46.90800 22.01000
H  5.19500 45.45200 23.52900
H  5.67100 43.95700 24.21100
H  5.87400 45.52900 25.00500
H  3.02800 44.70700 29.37400
H  4.51000 42.78300 32.70700
H  5.15000 41.63200 31.60900
H  3.43700 41.50000 32.01700

