158

Mg 35.67900 0.76900 29.98600
C  33.34600 1.85200 32.48100
C  37.98800 0.41100 32.74500
C  37.97800 0.16100 27.80800
C  33.38700 1.52400 27.63800
N  35.62200 1.10700 32.29700
C  34.61000 1.60300 33.02400
C  34.98200 1.61800 34.49200
C  36.58000 1.53900 34.46200
C  36.74000 1.00700 33.05900
C  37.26900 2.91700 34.51400
C  34.38000 0.41600 35.23100
C  34.44700 0.42200 36.81000
H  35.27700 1.50000 37.49300
N  37.68500 0.29600 30.23800
C  38.45600 0.13200 31.39600
C  39.79800 -0.27700 31.03800
C  39.76500 -0.56800 29.63500
C  38.45400 -0.00600 29.15800
C  40.99900 -0.45100 32.02200
C  40.78800 -1.15300 28.71400
O  40.60400 -1.16600 27.46700
C  42.04200 -1.59900 29.27500
N  35.73900 0.91700 27.99100
C  36.77300 0.55100 27.25500
C  36.46500 0.66600 25.72500
C  34.92800 0.95100 25.67500
C  34.61200 1.13800 27.15300
C  37.37500 1.66600 24.87300
C  33.98100 -0.10900 25.07700
C  33.42600 -1.27300 25.93900
N  33.73900 1.49600 29.94300
C  32.85200 1.65400 28.91100
C  31.57100 2.07200 29.41800
C  31.69700 2.13800 30.82400
C  33.02200 1.76400 31.09500
C  30.31400 2.24100 28.55200
C  31.06100 2.43700 32.09600
O  29.86400 2.68900 32.33600
C  32.11000 2.31800 33.21800
C  32.26400 3.73600 33.70800
O  32.57100 4.74700 32.99200
O  31.98700 3.73700 35.05500
C  31.46400 4.97100 35.58700
H  38.78400 0.30900 33.48500
H  38.68700 -0.06600 27.00900
H  32.77100 1.93100 26.83300
H  34.56600 2.48400 35.00700
H  36.95700 0.86500 35.23200
H  36.57700 3.73200 34.72800
H  37.73700 3.07300 33.54200
H  38.05500 2.86500 35.26800
H  34.94300 -0.50400 35.07100
H  33.34400 0.24900 34.93500
H  34.84200 -0.54800 37.11100
H  33.40400 0.55700 37.09800
H  41.83600 0.07500 31.56200
H  41.10400 -1.52400 32.18600
H  40.92400 0.04500 32.98900
H  42.04700 -2.05300 30.26600
H  42.69800 -0.73100 29.33200
H  42.46300 -2.32300 28.57700
H  36.66500 -0.33500 25.34400
H  34.68300 1.85900 25.12300
H  38.19800 1.93600 25.53400
H  36.79800 2.56200 24.64100
H  37.59700 1.11700 23.95800
H  34.62100 -0.60500 24.34800
H  33.13900 0.45300 24.67000
H  33.83200 -2.22200 25.59000
H  32.33700 -1.22100 25.96700
H  33.80400 -1.28000 26.96100
H  30.62300 2.67600 27.60200
H  29.62000 2.93800 29.02200
H  29.98900 1.21200 28.39800
H  31.74400 1.71400 34.04800
H  30.59500 4.80600 36.22300
H  31.14200 5.68300 34.82700
H  32.22300 5.50500 36.15900
Mg -0.65700 43.04100 26.82300
C  1.61000 42.90200 29.38400
C  -3.04000 41.81000 28.90100
C  -2.60600 42.57200 24.00300
C  2.11200 43.49400 24.49900
N  -0.65100 42.23600 28.86000
C  0.33200 42.51600 29.77600
C  -0.14500 42.36000 31.26300
C  -1.46900 41.53100 30.99700
C  -1.83200 41.94200 29.50700
C  -1.30200 40.00800 31.11300
C  -0.39600 43.57100 32.13100
C  0.49400 43.57700 33.40100
H  0.22300 42.50000 34.41400
N  -2.58100 42.48700 26.54500
C  -3.45100 42.08200 27.55000
C  -4.83000 41.96600 26.98700
C  -4.60900 42.21800 25.56100
C  -3.20400 42.42900 25.34900
C  -6.01800 41.48000 27.81400
C  -5.60500 42.30700 24.52700
O  -5.43100 42.47900 23.31500
C  -7.00900 42.01800 24.89700
N  -0.32600 43.28600 24.48600
C  -1.33700 43.05500 23.64500
C  -0.88800 43.16300 22.11400
C  0.61100 43.64200 22.32500
C  0.86600 43.43300 23.86500
C  -1.15000 41.92000 21.22900
C  0.76200 45.23800 21.93600
C  1.71700 45.56800 20.71100
N  1.44300 43.24300 26.90000
C  2.37300 43.49200 25.86600
C  3.66600 43.57700 26.48600
C  3.45600 43.30200 27.85800
C  2.08600 43.08400 28.03700
C  4.98000 43.92500 25.81500
C  4.05100 43.11600 29.18500
O  5.24600 43.12300 29.42500
C  2.87200 42.94900 30.21000
C  3.01400 41.68500 30.98800
O  2.89700 40.54300 30.51100
O  3.25500 42.00700 32.27100
C  3.55100 40.85000 33.12700
H  -3.82500 41.65000 29.64300
H  -3.22900 42.32300 23.14100
H  3.00200 43.62300 23.88000
H  0.58100 41.73900 31.78800
H  -2.30000 41.82500 31.63800
H  -0.25800 39.71800 30.99500
H  -1.80500 39.55200 30.26000
H  -1.63700 39.71200 32.10700
H  -1.40900 43.52500 32.52900
H  -0.31000 44.53000 31.62000
H  0.18600 44.53000 33.83200
H  1.55900 43.63300 33.17600
H  -6.28800 40.48900 27.44800
H  -6.85700 42.07000 27.44600
H  -5.86800 41.40400 28.89100
H  -6.96300 40.94500 25.08500
H  -7.66000 42.18300 24.03800
H  -7.16300 42.81400 25.62500
H  -1.36200 44.00400 21.60900
H  1.28200 43.06800 21.68600
H  -1.91400 42.38600 20.60700
H  -1.64900 41.11900 21.77500
H  -0.26600 41.69300 20.63300
H  1.18900 45.71800 22.81600
H  -0.17700 45.71400 21.65100
H  2.07700 44.59200 20.38500
H  2.59900 46.13500 21.01200
H  1.28700 46.09500 19.86000
H  5.27500 43.10100 25.16400
H  5.78200 43.99600 26.55000
H  5.12000 44.87800 25.30600
H  2.94200 43.84400 30.82900
H  3.57400 41.25600 34.13800
H  4.48200 40.33300 32.89100
H  2.74500 40.11700 33.14700

