158

Mg 6.73400 53.66100 40.55600
C  6.20300 50.19800 40.35700
C  10.03800 53.12100 39.75100
C  7.10500 57.02700 40.04700
C  3.22600 54.03100 40.81800
N  7.89600 51.86400 39.94200
C  7.45600 50.58700 40.01500
C  8.60600 49.63700 39.62000
C  9.86800 50.55300 39.89700
C  9.26400 51.99500 39.92300
C  10.80500 50.15900 41.09100
C  8.67700 49.10700 38.16300
C  8.07900 50.02800 36.97600
H  7.13700 49.43800 35.92800
N  8.42400 54.90500 40.00200
C  9.71600 54.51100 39.79800
C  10.51600 55.67100 39.62800
C  9.63600 56.83100 39.63300
C  8.28700 56.28600 39.89900
C  12.04500 55.60600 39.30000
C  10.09200 58.18900 39.36400
O  11.28100 58.48600 39.11300
C  9.16800 59.44700 39.53400
N  5.29700 55.30500 40.09900
C  5.83100 56.59400 40.27500
C  4.66000 57.57100 40.48700
C  3.40800 56.66200 40.57300
C  4.01000 55.22100 40.53300
C  4.85600 58.48200 41.77000
C  2.44400 56.91900 39.41500
C  1.47100 58.08300 39.63500
N  4.97600 52.42300 40.63500
C  3.66200 52.68500 40.77900
C  2.97000 51.51400 40.92500
C  3.86700 50.48500 40.82000
C  5.08800 51.08200 40.48600
C  1.50400 51.39000 41.19200
C  4.00100 49.06900 40.92000
O  3.18400 48.19400 41.19000
C  5.58300 48.80000 40.65400
C  5.59300 47.75900 39.58300
O  5.24800 47.94300 38.44600
O  5.80100 46.47700 40.10800
C  5.70300 45.43100 39.18500
H  11.10400 52.88700 39.72300
H  7.25800 58.10000 39.91600
H  2.18400 54.27700 41.02800
H  8.53200 48.82200 40.33900
H  10.46500 50.56500 38.98500
H  11.52300 49.36100 40.89900
H  10.08200 49.76500 41.80400
H  11.40300 51.00200 41.43900
H  8.33900 48.07200 38.21500
H  9.73400 49.10800 37.89700
H  8.91600 50.40500 36.38900
H  7.52800 50.89000 37.35200
H  12.17900 56.03100 38.30500
H  12.30200 54.55800 39.14800
H  12.72800 56.01600 40.04300
H  9.71400 60.37200 39.35000
H  8.86000 59.41600 40.57900
H  8.37200 59.41700 38.78900
H  4.60900 58.17200 39.58000
H  2.92000 56.76200 41.54300
H  5.83100 58.96700 41.73800
H  4.70500 57.89400 42.67600
H  4.14400 59.30400 41.69800
H  1.85400 56.00200 39.42800
H  3.03800 57.13800 38.52800
H  0.46600 57.66200 39.66500
H  1.68100 58.76800 38.81400
H  1.47600 58.59100 40.60000
H  1.12800 52.36700 41.49600
H  1.25000 50.73800 42.02800
H  0.98700 51.06200 40.29100
H  5.84300 48.35700 41.61500
H  6.11200 45.71700 38.21600
H  4.67700 45.08100 39.07400
H  6.30700 44.54700 39.39300
Mg -12.72500 14.68300 41.88300
C  -9.29300 13.81700 41.63600
C  -11.98200 17.47000 40.15300
C  -15.92800 15.10100 41.62100
C  -13.19600 11.42500 43.39700
N  -10.83100 15.51100 41.04500
C  -9.55000 15.02500 41.02300
C  -8.59000 15.92000 40.15900
C  -9.46500 17.13600 39.85700
C  -10.89000 16.67600 40.37900
C  -8.91300 18.53800 40.37800
C  -8.03600 15.13800 38.87900
C  -6.44500 15.16500 38.76400
H  -6.03400 16.19700 37.60200
N  -13.81000 16.11200 40.97800
C  -13.38800 17.15400 40.27100
C  -14.54000 17.82000 39.65900
C  -15.69400 17.11200 40.06300
C  -15.19900 16.02900 40.93500
C  -14.43400 19.02000 38.68800
C  -17.09800 17.48600 39.65500
O  -17.26900 18.62400 39.23000
C  -18.26000 16.55000 39.79000
N  -14.36400 13.29600 42.30000
C  -15.58100 13.83300 42.17500
C  -16.58900 12.92700 42.95800
C  -15.75200 11.62300 43.22600
C  -14.36800 12.10200 43.01200
C  -17.03800 13.64700 44.25800
C  -16.02500 10.44900 42.28200
C  -16.02100 9.06100 42.85400
N  -11.51400 12.86300 42.42000
C  -11.83000 11.71300 43.06700
C  -10.59900 10.92800 43.26400
C  -9.64200 11.73500 42.73100
C  -10.20900 12.86900 42.21200
C  -10.65100 9.57600 43.90200
C  -8.20500 11.81300 42.46700
O  -7.29500 11.03200 42.73500
C  -7.97500 13.19500 41.73800
C  -7.08500 13.97400 42.58200
O  -7.42200 14.67200 43.54200
O  -5.79600 14.00500 42.01100
C  -4.87500 14.90000 42.74700
H  -11.80200 18.38300 39.58100
H  -17.00800 15.21300 41.73900
H  -13.23600 10.40700 43.79000
H  -7.75600 16.07500 40.84300
H  -9.77400 17.24100 38.81700
H  -8.01400 18.26600 40.93200
H  -9.64600 19.02200 41.02400
H  -8.56500 19.16600 39.55800
H  -8.39800 15.65700 37.99100
H  -8.26100 14.07200 38.83300
H  -6.02200 14.16100 38.74000
H  -6.00300 15.64500 39.63700
H  -14.33000 20.03300 39.07700
H  -15.25600 18.98600 37.97300
H  -13.53900 18.79200 38.10900
H  -17.95800 15.60600 39.33400
H  -19.04500 17.19300 39.39300
H  -18.49100 16.37900 40.84200
H  -17.43600 12.65400 42.32800
H  -15.81300 11.22800 44.24100
H  -16.77700 13.03500 45.12200
H  -18.08700 13.89900 44.41200
H  -16.39900 14.52400 44.35700
H  -15.37600 10.34600 41.41200
H  -17.02100 10.62000 41.87400
H  -17.08400 8.81800 42.84200
H  -15.57700 9.10200 43.84800
H  -15.50900 8.34800 42.20800
H  -11.53800 9.01100 43.61600
H  -10.71000 9.58100 44.99000
H  -9.76800 8.99200 43.64400
H  -7.48600 12.95600 40.79400
H  -5.22300 15.92300 42.60400
H  -3.86000 14.80700 42.36100
H  -4.73200 14.76300 43.81900

