158

Mg 41.21700 41.10000 27.01700
C  40.34700 43.39700 29.47300
C  41.96300 38.88800 29.49300
C  42.21100 38.94200 24.60200
C  40.69500 43.53300 24.47000
N  41.24000 41.17900 29.19900
C  40.72800 42.15200 29.99300
C  40.59400 41.79000 31.51900
C  41.05000 40.32600 31.49000
C  41.46000 40.06100 29.95900
C  42.27100 39.92600 32.29400
C  39.14100 42.01400 32.16200
C  38.84500 42.87200 33.45400
H  38.15300 42.10400 34.61300
N  42.16400 39.20600 27.04400
C  42.32800 38.45600 28.18300
C  42.96000 37.20600 27.83500
C  42.91200 37.18400 26.38500
C  42.38100 38.51000 25.94400
C  43.51900 36.27500 28.77600
C  43.36800 36.08800 25.42500
O  43.18900 36.05700 24.16400
C  44.13700 34.90900 25.98100
N  41.32100 41.20500 24.77200
C  41.70000 40.10800 24.06200
C  41.69400 40.49300 22.50000
C  41.15300 41.99300 22.52700
C  41.07400 42.29300 24.01600
C  43.04300 40.39400 21.74700
C  39.79200 42.04300 21.87100
C  38.56800 41.49000 22.60000
N  40.73000 43.03300 26.94800
C  40.51900 43.95000 25.86000
C  40.15400 45.23300 26.32500
C  40.01400 45.03200 27.75600
C  40.41700 43.72200 28.06100
C  39.86100 46.47700 25.55200
C  39.61200 45.73200 29.03100
O  39.28000 46.89200 29.17500
C  39.86100 44.68100 30.17400
C  40.93200 45.12500 31.12700
O  42.04000 45.48900 30.81200
O  40.49100 45.25700 32.37000
C  41.33500 46.00400 33.26300
H  42.05000 38.18000 30.32000
H  42.57000 38.25800 23.83100
H  40.43900 44.35700 23.80100
H  41.35800 42.44700 31.93300
H  40.26300 39.60900 31.72100
H  42.11400 40.37200 33.27600
H  43.22200 40.19600 31.83700
H  42.27300 38.83600 32.29800
H  38.75000 41.03800 32.44800
H  38.56700 42.29400 31.27900
H  38.24100 43.72000 33.13200
H  39.75500 43.36800 33.79100
H  43.39200 35.20400 28.61700
H  43.03500 36.43000 29.74100
H  44.57700 36.53500 28.80600
H  44.46100 34.16600 25.25200
H  43.60800 34.28000 26.69700
H  45.12000 35.24400 26.31200
H  40.98400 39.82400 22.01500
H  41.84700 42.72300 22.10900
H  43.85800 40.54000 22.45600
H  43.04700 41.17600 20.98800
H  43.05500 39.42700 21.24400
H  39.94100 41.54500 20.91300
H  39.60800 43.10000 21.67400
H  38.37600 40.57100 22.04500
H  37.73000 42.15500 22.39100
H  38.71200 41.27600 23.65900
H  39.54600 46.27300 24.52900
H  40.67200 47.19600 25.66900
H  38.91400 46.81300 25.97600
H  38.98600 44.71300 30.82200
H  40.63900 46.22600 34.07100
H  41.97600 46.82300 32.93700
H  42.03500 45.31400 33.73400
Mg -1.98100 34.33200 26.32400
C  -3.16400 32.41900 29.06900
C  -0.70800 36.49200 28.56400
C  -1.47200 36.18000 23.62900
C  -3.42400 31.90100 24.24700
N  -2.04200 34.47500 28.61900
C  -2.45900 33.47500 29.48500
C  -2.15000 33.89500 30.97700
C  -1.31400 35.22100 30.72600
C  -1.42800 35.47000 29.18500
C  -1.81900 36.49500 31.50700
C  -1.39100 32.74900 31.78200
C  -2.17000 32.12900 32.99500
H  -1.42200 32.36600 34.40000
N  -1.20900 36.02000 26.11700
C  -0.69200 36.85400 27.15000
C  -0.07700 37.99500 26.58800
C  -0.25700 37.90100 25.15400
C  -1.05400 36.66900 24.90600
C  0.59300 39.09700 27.29800
C  0.28700 38.81000 24.06800
O  0.22000 38.57600 22.86600
C  1.12500 39.99200 24.42700
N  -2.40500 34.09400 24.28400
C  -2.07200 34.98100 23.28200
C  -2.58800 34.62500 21.92400
C  -3.06700 33.22200 22.14600
C  -2.91400 33.03000 23.67800
C  -3.53100 35.49000 21.10500
C  -2.27600 32.14400 21.33400
C  -0.81300 31.83500 21.68900
N  -3.07600 32.51500 26.52500
C  -3.65500 31.68600 25.61900
C  -4.43600 30.64800 26.26500
C  -4.20600 30.85700 27.60300
C  -3.38800 32.02500 27.73000
C  -5.24700 29.58500 25.59000
C  -4.62500 30.39800 28.85300
O  -5.43000 29.53000 29.16200
C  -4.00800 31.42600 29.85600
C  -5.02500 32.20200 30.51900
O  -5.47500 33.24900 30.23000
O  -5.30000 31.56100 31.66500
C  -5.98800 32.37600 32.69500
H  -0.22600 37.17300 29.26900
H  -1.43800 36.83600 22.75700
H  -3.93100 31.20500 23.57600
H  -3.12100 34.22900 31.34500
H  -0.28700 35.06700 31.05600
H  -1.03900 36.99800 32.07900
H  -2.55500 36.14300 32.23000
H  -2.45700 37.11200 30.87500
H  -0.41000 33.10000 32.10200
H  -1.07700 31.89500 31.18200
H  -2.24500 31.05200 32.84700
H  -3.16800 32.56700 32.97600
H  0.65600 38.99800 28.38100
H  0.08500 40.05200 27.15900
H  1.61800 39.14000 26.93100
H  2.10700 39.63100 24.73300
H  0.77500 40.66500 25.21000
H  1.27300 40.64300 23.56600
H  -1.67100 34.58700 21.33500
H  -4.12100 33.17800 21.87000
H  -4.26900 34.83200 20.64400
H  -3.03100 36.01700 20.29200
H  -4.00700 36.24000 21.73700
H  -2.27000 32.44800 20.28800
H  -2.86900 31.23000 21.33300
H  -0.35800 32.31800 22.55300
H  -0.25800 31.96200 20.75900
H  -0.88300 30.76400 21.87900
H  -5.43800 28.71400 26.21600
H  -4.72200 29.25600 24.69300
H  -6.26100 29.93800 25.40400
H  -3.37700 30.86600 30.54500
H  -6.89500 32.74700 32.21600
H  -5.39400 33.21700 33.05300
H  -6.25600 31.73000 33.53100

