158

Mg 35.05400 49.81600 26.27600
C  35.43900 47.75500 28.98800
C  33.94800 52.26400 28.30200
C  34.05900 51.45400 23.53500
C  36.12800 47.13300 24.16100
N  34.68900 49.97200 28.41800
C  34.90600 48.97200 29.30700
C  34.76800 49.52600 30.74000
C  33.93300 50.83700 30.44500
C  34.14100 51.05000 28.97600
C  32.40500 50.92000 30.98800
C  36.20500 49.87200 31.29500
C  36.42400 49.44400 32.80500
H  36.33800 50.55600 33.88300
N  34.37000 51.73900 25.97200
C  34.00300 52.58900 26.91700
C  33.75500 53.94200 26.30800
C  33.65000 53.61100 24.90100
C  34.06800 52.19900 24.74400
C  33.59800 55.19400 27.08900
C  33.38600 54.58600 23.63300
O  33.42100 54.16900 22.47200
C  32.98800 56.08600 23.89500
N  35.01500 49.24200 24.14700
C  34.55100 50.13100 23.27700
C  34.62000 49.61300 21.82500
C  35.50100 48.26800 21.90100
C  35.61200 48.19700 23.47700
C  33.26700 49.35600 21.01400
C  36.98100 48.32700 21.36700
C  37.46600 47.00100 20.75000
N  35.61600 47.73500 26.44700
C  36.10000 46.84700 25.55100
C  36.47400 45.63500 26.26000
C  36.30300 45.97600 27.62000
C  35.71300 47.26000 27.68200
C  36.98200 44.38100 25.66700
C  36.35800 45.42600 28.94900
O  36.79900 44.38600 29.41400
C  35.86700 46.57500 29.86600
C  34.87900 46.12900 30.87600
O  33.81900 45.53900 30.60300
O  35.39700 46.26700 32.16100
C  34.70700 45.41500 33.17400
H  33.44100 53.08500 28.81300
H  33.57100 51.91800 22.67500
H  36.56300 46.44200 23.43600
H  34.11300 48.83700 31.27300
H  34.35900 51.71700 30.92600
H  31.65000 50.72500 30.22700
H  32.27100 51.99100 31.14400
H  32.19700 50.38100 31.91200
H  36.30700 50.94900 31.16200
H  36.93100 49.37600 30.65100
H  37.42700 49.02400 32.88400
H  35.72000 48.65200 33.05900
H  34.56200 55.69300 27.19200
H  33.38500 54.98400 28.13700
H  32.96600 55.93600 26.60200
H  32.00900 56.21600 24.35600
H  32.92200 56.62900 22.95200
H  33.78800 56.61200 24.41500
H  35.27700 50.17400 21.16100
H  34.86900 47.44600 21.56600
H  33.23700 48.37800 20.53500
H  33.33600 50.08900 20.21000
H  32.35700 49.48900 21.60000
H  37.72100 48.50000 22.14900
H  37.20700 49.12700 20.66200
H  37.67000 47.15000 19.69000
H  36.61900 46.31600 20.80700
H  38.36100 46.64800 21.26200
H  37.96700 44.62000 25.26500
H  36.38100 44.11900 24.79600
H  36.95000 43.53100 26.34900
H  36.77200 46.98800 30.31200
H  34.08800 44.65400 32.69900
H  34.03800 45.97400 33.82800
H  35.32200 44.85000 33.87400
Mg -10.18200 17.02600 41.47600
C  -6.86400 16.71000 41.25800
C  -9.88500 20.47000 40.77500
C  -13.60900 17.16100 40.92600
C  -10.52500 13.46000 41.39700
N  -8.55100 18.40800 40.93600
C  -7.24700 17.94900 41.00000
C  -6.30400 19.17900 40.76600
C  -7.26500 20.43400 41.00700
C  -8.63500 19.75500 40.76500
C  -7.12100 21.09100 42.40000
C  -5.77100 19.19000 39.32200
C  -4.30000 18.65400 39.05700
H  -4.14200 17.37800 38.32200
N  -11.59800 18.60500 40.97300
C  -11.24000 19.95000 40.82500
C  -12.46800 20.65100 40.72300
C  -13.57600 19.74200 40.82900
C  -12.97100 18.43900 40.85100
C  -12.50000 22.08300 40.48000
C  -15.00800 20.13700 40.72800
O  -15.40900 21.28400 40.58000
C  -16.08300 19.16900 40.82400
N  -11.86900 15.54300 41.09400
C  -13.12000 15.86000 40.96600
C  -14.04200 14.63500 41.01200
C  -13.03500 13.37300 41.06700
C  -11.71300 14.21500 41.23900
C  -15.17800 14.70000 42.14100
C  -13.11600 12.45500 39.80200
C  -12.79100 10.94200 40.09200
N  -9.02300 15.44100 41.66600
C  -9.25700 14.04800 41.54200
C  -8.04600 13.32500 41.57500
C  -7.04800 14.31100 41.45600
C  -7.69300 15.60800 41.57900
C  -7.75600 11.85800 41.54500
C  -5.61300 14.61900 41.30500
O  -4.65300 13.88900 41.17400
C  -5.48000 16.12900 41.35900
C  -4.69200 16.60800 42.60700
O  -3.96300 17.58100 42.71300
O  -4.79200 15.68400 43.63000
C  -3.65200 15.47300 44.66400
H  -9.89800 21.56100 40.73900
H  -14.70100 17.18100 40.94900
H  -10.62700 12.37300 41.42700
H  -5.56000 19.20900 41.56200
H  -7.06100 21.17500 40.23400
H  -8.04500 21.22700 42.96300
H  -6.70200 22.07100 42.17100
H  -6.32700 20.60600 42.96800
H  -5.91900 20.15900 38.84500
H  -6.39200 18.49200 38.76100
H  -3.82400 18.53200 40.03000
H  -3.71000 19.44000 38.58600
H  -13.39500 22.52200 40.92000
H  -12.15200 22.28500 39.46700
H  -11.68600 22.62700 40.96000
H  -15.93700 18.44500 40.02200
H  -17.05400 19.62900 40.63800
H  -16.15800 18.74000 41.82300
H  -14.56700 14.66400 40.05700
H  -13.11400 12.75800 41.96400
H  -15.22100 15.63100 42.70600
H  -14.91500 13.89300 42.82600
H  -16.15400 14.54400 41.68100
H  -12.43800 12.81000 39.02600
H  -14.08900 12.44500 39.31100
H  -13.74400 10.44400 39.91000
H  -12.66100 10.83300 41.16800
H  -11.92900 10.62500 39.50500
H  -7.71300 11.48700 40.52100
H  -8.44600 11.20100 42.07300
H  -6.78800 11.80300 42.04300
H  -4.96600 16.39800 40.43600
H  -3.83200 15.78100 45.69400
H  -2.65500 15.81700 44.38800
H  -3.59000 14.38600 44.70600

