158

Mg 17.20500 -0.69900 27.79900
C  16.13300 1.07300 30.79500
C  19.55500 -2.15900 29.81600
C  18.57200 -1.52300 25.11900
C  14.84800 1.36500 26.05500
N  17.82000 -0.53900 30.05900
C  17.16400 0.10700 31.12600
C  17.71800 -0.25900 32.51300
C  18.98300 -1.17300 32.12000
C  18.71700 -1.36000 30.62500
C  20.33300 -0.56100 32.48800
C  16.59700 -0.85800 33.42000
C  16.53300 -0.36700 34.84400
H  17.85500 0.12300 35.47400
N  18.67100 -1.82300 27.54700
C  19.49400 -2.35700 28.41900
C  20.53000 -3.10900 27.68600
C  20.22500 -3.03400 26.33300
C  19.13600 -2.10400 26.26100
C  21.62900 -3.89100 28.31300
C  20.83700 -3.74600 25.18400
O  20.35100 -3.66600 24.04000
C  22.06200 -4.63400 25.33400
N  16.87900 -0.04300 25.83600
C  17.65700 -0.57600 24.86700
C  17.20700 -0.04700 23.42100
C  15.91000 0.80700 23.74200
C  15.86900 0.67800 25.29400
C  18.34100 0.75400 22.64100
C  14.59400 0.45400 23.00800
C  14.63600 0.70500 21.45300
N  15.65800 0.62400 28.27700
C  14.83100 1.40300 27.45400
C  14.08400 2.40000 28.15000
C  14.63600 2.26100 29.41100
C  15.56500 1.21000 29.49600
C  13.11700 3.46800 27.67200
C  14.56200 2.86300 30.73400
O  14.02200 3.92000 30.97000
C  15.42500 2.02700 31.74200
C  16.41800 2.96700 32.47100
O  17.56000 3.19000 32.13700
O  15.82700 3.45100 33.57300
C  16.45700 4.40000 34.43300
H  20.37200 -2.64300 30.35500
H  18.84600 -1.91200 24.13600
H  14.15300 2.02000 25.52500
H  18.08000 0.63500 33.02100
H  18.87900 -2.10100 32.68300
H  20.26200 0.41400 32.97000
H  21.00000 -0.44300 31.63300
H  20.87600 -1.20700 33.17700
H  16.70600 -1.94200 33.45800
H  15.55500 -0.69700 33.14500
H  16.20300 -1.18400 35.48500
H  15.73300 0.36600 34.94400
H  21.29900 -4.90900 28.51800
H  21.99600 -3.56600 29.28700
H  22.58100 -3.91500 27.78300
H  22.88700 -3.97600 25.60700
H  22.32400 -4.91700 24.31500
H  22.02500 -5.51100 25.98000
H  16.93300 -1.01300 22.99900
H  16.13300 1.85400 23.53600
H  18.68000 0.09100 21.84500
H  19.14400 1.08500 23.30000
H  17.84600 1.60700 22.17800
H  13.74500 1.00700 23.40800
H  14.47600 -0.62100 23.14400
H  14.29300 1.67700 21.09700
H  14.05100 -0.08600 20.98400
H  15.63900 0.59000 21.04400
H  13.19400 4.12800 28.53600
H  12.14400 2.97700 27.65600
H  13.38000 3.96000 26.73600
H  14.69000 1.64900 32.45300
H  16.37700 4.12700 35.48600
H  16.00200 5.37100 34.23600
H  17.53100 4.41200 34.24900
Mg 48.27600 25.21700 28.30300
C  49.21300 27.45100 30.86800
C  47.55600 22.93700 30.66500
C  47.62600 23.13100 25.76800
C  49.18900 27.79300 25.90900
N  48.50800 25.22900 30.57900
C  48.69500 26.27600 31.39500
C  48.40200 25.92700 32.85800
C  47.97700 24.45100 32.75600
C  48.02400 24.14100 31.24000
C  48.99200 23.49000 33.56900
C  47.42500 26.96100 33.43000
C  47.86200 27.60100 34.76900
H  47.04100 27.54500 35.99900
N  47.65400 23.30500 28.22500
C  47.34400 22.55000 29.32100
C  46.75900 21.28100 28.88800
C  46.88200 21.23600 27.45900
C  47.45400 22.61500 27.13900
C  46.28600 20.24300 29.75400
C  46.56400 20.10200 26.45300
O  46.68700 20.23200 25.29400
C  45.92400 18.86400 26.98000
N  48.43800 25.42400 26.17500
C  48.00400 24.37900 25.30500
C  48.13700 24.81900 23.84400
C  48.41100 26.38500 23.93600
C  48.68000 26.58800 25.43800
C  49.22800 23.97900 23.07000
C  47.30700 27.18300 23.42200
C  46.00600 27.25000 24.28200
N  49.22600 27.07300 28.34000
C  49.50700 28.01600 27.30600
C  50.05900 29.21700 27.86900
C  49.91900 29.05800 29.23900
C  49.42500 27.73800 29.49600
C  50.57600 30.43600 27.16100
C  50.06500 29.72000 30.51300
O  50.50800 30.84000 30.76600
C  49.68400 28.73000 31.57900
C  50.87300 28.36600 32.49600
O  51.54200 27.37400 32.36300
O  50.85800 29.16600 33.58400
C  51.91300 29.01200 34.61200
H  47.36400 22.33200 31.55300
H  47.33400 22.49400 24.93000
H  49.34200 28.51100 25.10000
H  49.36200 26.06100 33.35700
H  46.93200 24.36400 33.05300
H  49.81300 23.03700 33.01300
H  48.53500 22.59500 33.99200
H  49.26700 24.04700 34.46400
H  46.47700 26.42400 33.46200
H  47.19800 27.82000 32.79900
H  47.91700 28.64200 34.44900
H  48.84400 27.21800 35.04700
H  46.87900 19.33000 29.80300
H  45.24500 20.07600 29.47500
H  46.32100 20.66500 30.75800
H  46.64000 18.09600 27.27300
H  45.39400 18.42800 26.13300
H  45.12400 18.98200 27.71100
H  47.10400 24.60500 23.56900
H  49.37100 26.64300 23.48900
H  50.07100 24.59800 22.76200
H  48.79400 23.63000 22.13300
H  49.63000 23.17500 23.68700
H  47.01200 26.71500 22.48200
H  47.63900 28.21900 23.35600
H  46.19800 27.16300 25.35100
H  45.32000 26.47700 23.93600
H  45.55000 28.21300 24.05300
H  50.06300 30.56400 26.20800
H  51.63700 30.29000 26.95700
H  50.35800 31.34900 27.71500
H  48.79400 29.04100 32.12600
H  52.63700 28.26900 34.27700
H  51.49600 28.70000 35.57000
H  52.22300 30.03000 34.84700

