158

Mg 45.05500 4.10700 46.18700
C  43.15300 7.02800 46.12800
C  42.11900 2.27200 45.65600
C  46.95400 1.38600 45.71900
C  47.86800 6.11100 46.25900
N  42.86600 4.57500 46.04200
C  42.37400 5.81600 46.03100
C  40.81300 5.75500 45.76500
C  40.58400 4.22700 45.70100
C  41.95100 3.60600 45.77900
C  39.47300 3.74100 46.65000
C  40.22100 6.52700 44.56400
C  41.17800 6.90700 43.45700
H  40.57200 7.13400 42.10000
N  44.57500 2.10000 45.76100
C  43.31600 1.56600 45.59500
C  43.50900 0.23700 45.16300
C  44.87700 -0.11100 45.09700
C  45.56300 1.10200 45.52600
C  42.34100 -0.58400 44.66300
C  45.46400 -1.50800 44.74700
O  44.74700 -2.49600 44.47900
C  46.90000 -1.73800 44.79500
N  47.10800 3.78800 45.70800
C  47.64100 2.52700 45.84700
C  49.20700 2.58600 45.79900
C  49.47200 4.10200 46.03000
C  48.02700 4.73200 45.90800
C  50.02700 1.76700 46.78400
C  50.62200 4.87200 45.14300
C  52.01800 5.22600 45.88700
N  45.45100 6.18600 46.27600
C  46.66500 6.82800 46.35700
C  46.53200 8.26800 46.50400
C  45.11200 8.43900 46.47000
C  44.54800 7.11000 46.34600
C  47.61200 9.29400 46.70500
C  44.00500 9.33200 46.55700
O  43.94600 10.52600 46.69600
C  42.75000 8.44600 46.32500
C  41.84800 8.62500 47.50800
O  41.81300 7.78600 48.41400
O  40.97300 9.69700 47.39500
C  39.76400 9.71200 48.28800
H  41.18600 1.71500 45.55000
H  47.66900 0.56500 45.63000
H  48.73400 6.72400 46.51500
H  40.30900 6.12000 46.66000
H  40.28600 4.01700 44.67400
H  38.84700 4.58600 46.93500
H  39.87300 3.30600 47.56600
H  38.91700 2.98900 46.08900
H  39.80400 7.49700 44.83800
H  39.37000 5.97800 44.16100
H  42.06700 6.29100 43.32300
H  41.63000 7.85200 43.75900
H  41.57100 -0.70100 45.42600
H  42.63100 -1.61800 44.47600
H  41.89500 -0.23500 43.73100
H  47.18800 -2.72900 44.44500
H  47.08200 -1.59900 45.86100
H  47.50500 -0.96900 44.31300
H  49.60100 2.39500 44.80100
H  49.76700 4.29200 47.06200
H  50.90100 2.32200 47.12600
H  50.23900 0.76300 46.41500
H  49.38200 1.45100 47.60400
H  50.04700 5.75100 44.85400
H  50.64800 4.26700 44.23700
H  52.04700 4.69000 46.83600
H  52.27900 6.27100 46.05300
H  52.90000 4.85700 45.36300
H  47.91800 9.74500 45.76200
H  48.47500 8.85100 47.20200
H  47.24400 10.08600 47.35700
H  42.19600 8.81800 45.46300
H  39.82600 9.74200 49.37600
H  39.10000 8.89800 47.99700
H  39.20300 10.62300 48.08400
Mg 48.87200 35.62100 28.31800
C  46.96700 33.73700 30.64500
C  48.91000 38.13600 30.66000
C  50.49400 37.39100 26.10000
C  48.70000 32.93200 26.20400
N  48.25100 35.84500 30.56400
C  47.54100 34.87400 31.24100
C  47.33900 35.33300 32.72800
C  47.70000 36.90300 32.58500
C  48.36300 36.96400 31.19800
C  46.55400 37.87200 32.80000
C  48.31600 34.45000 33.45800
C  47.97300 34.11000 34.92600
H  47.04200 35.10500 35.70300
N  49.67100 37.48900 28.35700
C  49.55000 38.37700 29.39200
C  50.19100 39.58900 29.06600
C  50.72400 39.45500 27.73100
C  50.25800 38.07600 27.28400
C  50.26000 40.72400 29.98700
C  51.62900 40.37800 26.95900
O  52.08200 40.09000 25.84000
C  52.15800 41.63800 27.61900
N  49.24800 35.27400 26.33100
C  50.11400 36.14500 25.65200
C  50.51600 35.52700 24.29800
C  50.16100 34.06500 24.46900
C  49.31300 34.03200 25.74500
C  49.94800 36.22000 23.05900
C  51.32500 33.02700 24.51300
C  51.87400 32.50900 23.17600
N  47.77100 33.81200 28.23000
C  47.88700 32.79800 27.31400
C  47.06600 31.68200 27.69500
C  46.58900 32.07400 29.01100
C  47.10600 33.31400 29.31600
C  46.94900 30.48200 27.00500
C  45.76400 31.68600 30.08600
O  45.09800 30.65300 30.21500
C  45.88200 32.79300 31.14700
C  46.04500 32.16600 32.51400
O  46.88600 31.31200 32.75400
O  44.99100 32.58400 33.37700
C  44.85700 31.92000 34.73200
H  48.80100 38.94900 31.38200
H  51.13600 37.87400 25.36000
H  48.82100 32.02300 25.61000
H  46.32400 35.18500 33.09800
H  48.53600 37.25900 33.18600
H  46.38400 38.45000 31.89200
H  46.79500 38.53200 33.63300
H  45.69500 37.22700 32.98600
H  49.23700 35.03000 33.39500
H  48.51300 33.55000 32.87500
H  48.96300 34.34100 35.32000
H  47.85500 33.05100 35.15900
H  51.21000 41.25100 30.07500
H  50.14300 40.39900 31.02100
H  49.53800 41.46000 29.63300
H  51.48100 42.37700 28.04900
H  52.67500 42.05100 26.75200
H  52.96700 41.33000 28.28100
H  51.59300 35.69600 24.30600
H  49.48600 33.77900 23.66300
H  49.70300 37.22700 23.39800
H  49.07600 35.72700 22.63000
H  50.67000 36.31600 22.24800
H  50.88900 32.17600 25.03600
H  52.13300 33.43800 25.11900
H  51.22600 32.87300 22.37800
H  51.79300 31.42400 23.24400
H  52.93700 32.73200 23.07500
H  47.70600 30.36300 26.22900
H  46.01300 30.42000 26.45000
H  47.04900 29.64400 27.69300
H  45.00800 33.43300 31.26300
H  45.73100 31.35200 35.04900
H  44.06000 31.17800 34.77200
H  44.77300 32.60100 35.57900

