158

Mg 43.82900 4.34800 47.17700
C  41.65100 7.07600 46.64300
C  41.22400 2.28100 46.85100
C  46.01900 1.93200 46.89300
C  46.51100 6.74300 47.29800
N  41.69600 4.64400 46.53200
C  41.06800 5.84600 46.51600
C  39.61800 5.64700 46.14400
C  39.39200 4.16400 46.65000
C  40.85900 3.63000 46.72100
C  38.75300 4.12100 48.06100
C  39.32000 5.90100 44.69400
C  38.13300 6.84300 44.36600
H  37.68000 6.80200 42.88200
N  43.66200 2.27000 46.92000
C  42.48100 1.61800 46.82400
C  42.78700 0.22900 46.79200
C  44.16200 0.09100 46.62700
C  44.72200 1.43500 46.74100
C  41.73000 -0.87600 46.80900
C  44.94600 -1.18000 46.62500
O  44.35600 -2.27400 46.57000
C  46.43500 -1.23100 46.52400
N  46.01300 4.32600 47.02000
C  46.63400 3.14000 47.10400
C  48.16600 3.30700 47.22100
C  48.27400 4.89100 47.48900
C  46.86700 5.40500 47.29000
C  48.94000 2.32900 48.27500
C  49.37200 5.53900 46.55700
C  50.46200 6.34000 47.41900
N  44.09600 6.51800 46.91600
C  45.20900 7.33600 47.11200
C  44.87100 8.74600 46.91400
C  43.44800 8.72200 46.84900
C  43.03400 7.33000 46.82900
C  45.81900 9.95400 46.77700
C  42.21200 9.47900 46.61600
O  42.00900 10.72000 46.46200
C  41.08500 8.46600 46.55100
C  40.12000 8.76600 47.62000
O  40.31600 8.57400 48.79300
O  38.90800 9.21400 47.12900
C  38.04800 9.79100 48.13500
H  40.36600 1.63600 46.64900
H  46.79600 1.25700 46.52800
H  47.32300 7.46200 47.42300
H  38.98100 6.36800 46.65600
H  38.82900 3.56300 45.93500
H  38.27300 5.09000 48.20000
H  39.46800 4.03600 48.87900
H  38.02300 3.31500 48.13700
H  39.29000 4.93800 44.18200
H  40.19900 6.37600 44.25700
H  38.32000 7.89300 44.59100
H  37.27900 6.58700 44.99300
H  41.85800 -1.51700 45.93600
H  40.72500 -0.45200 46.82200
H  41.92100 -1.42300 47.73200
H  47.07600 -0.77300 47.27700
H  46.69800 -0.88500 45.52400
H  46.73900 -2.25500 46.74000
H  48.46800 3.11900 46.19100
H  48.42600 4.96400 48.56500
H  48.32200 2.05500 49.13000
H  49.80100 2.77700 48.77300
H  49.32600 1.55800 47.60900
H  48.88600 6.35700 46.02600
H  49.77500 4.84000 45.82400
H  51.46700 6.11200 47.06400
H  50.60400 6.08100 48.46900
H  50.32200 7.41500 47.30600
H  45.95600 10.45400 47.73600
H  45.49000 10.75900 46.12000
H  46.81100 9.57300 46.53600
H  40.61500 8.70900 45.59800
H  37.11500 10.15800 47.70500
H  38.50400 10.68100 48.56900
H  37.82300 9.07200 48.92300
Mg 30.25200 58.27000 41.13000
C  27.50000 56.29800 40.05700
C  32.34800 55.53700 40.19400
C  32.80900 60.29200 41.10100
C  28.03000 60.87300 41.43100
N  30.01800 56.20100 40.12000
C  28.74500 55.63900 39.88000
C  28.95400 54.27100 39.21700
C  30.40900 53.89500 39.77200
C  30.98400 55.30300 40.00500
C  30.51800 53.02000 41.07100
C  28.94100 54.45700 37.61600
C  27.94600 53.56900 36.88800
H  26.95100 54.26600 35.96400
N  32.33600 57.97800 40.83600
C  32.95000 56.84100 40.38800
C  34.42900 57.02600 40.36200
C  34.63300 58.39600 40.60700
C  33.23200 58.98200 40.82300
C  35.42500 55.83300 40.09500
C  35.93000 59.13500 40.65600
O  36.97700 58.39300 40.61700
C  36.12100 60.60300 40.73500
N  30.37900 60.28500 41.12300
C  31.57300 60.88300 41.35600
C  31.39600 62.38100 41.59100
C  29.94200 62.50500 41.87900
C  29.40100 61.14800 41.37900
C  32.35300 63.10500 42.61300
C  29.22400 63.77600 41.29300
C  28.18200 64.39600 42.19400
N  28.14300 58.55400 40.92300
C  27.40200 59.67300 41.14000
C  25.99400 59.41300 40.88700
C  25.97500 58.04600 40.65500
C  27.31800 57.62900 40.48700
C  24.85900 60.35800 40.90500
C  25.13700 56.89800 40.36200
O  23.88000 56.85100 40.40300
C  26.06800 55.70500 39.83100
C  25.87400 54.54300 40.71200
O  26.49300 54.26800 41.77400
O  24.89200 53.76500 40.14900
C  24.63600 52.49100 40.85800
H  32.88900 54.60100 40.03800
H  33.62000 60.97800 41.35300
H  27.42300 61.77900 41.49000
H  28.17300 53.59700 39.57000
H  30.98700 53.36800 39.01300
H  30.86400 53.57600 41.94200
H  31.25500 52.24500 40.86000
H  29.54400 52.60600 41.33300
H  29.90500 54.11600 37.23900
H  28.72500 55.47300 37.28400
H  27.36100 53.03400 37.63600
H  28.48600 52.79100 36.34900
H  35.84100 55.97300 39.09700
H  35.08500 54.81500 39.90500
H  36.16800 55.66000 40.87400
H  35.74900 60.84100 41.73200
H  35.58300 60.92600 39.84400
H  37.15800 60.92100 40.63100
H  31.60200 62.83300 40.62100
H  29.72900 62.41500 42.94400
H  33.19100 63.70600 42.25700
H  32.79100 62.31100 43.21700
H  31.70600 63.63400 43.31300
H  28.85900 63.54000 40.29300
H  30.02500 64.49900 41.13900
H  28.68800 65.20300 42.72500
H  27.95900 63.75400 43.04600
H  27.20900 64.68600 41.79900
H  25.31800 61.30300 40.61300
H  24.43200 60.46200 41.90300
H  24.15400 60.01200 40.15000
H  25.74200 55.44200 38.82500
H  24.33200 52.74200 41.87400
H  25.55400 51.91800 40.98000
H  23.85500 52.07500 40.22200

