158

Mg 35.06900 2.99500 29.88000
C  32.86200 4.28400 32.36500
C  37.31300 2.58600 32.13800
C  37.04900 1.88400 27.40700
C  32.43700 3.45600 27.59100
N  34.99400 3.40800 32.04800
C  34.03500 3.92800 32.88600
C  34.55200 3.76500 34.35800
C  36.07100 3.45100 34.24000
C  36.14500 3.12200 32.73400
C  37.11000 4.55800 34.52600
C  33.73300 2.69100 35.10000
C  33.30800 3.05800 36.54500
H  33.87200 4.25600 37.19500
N  36.90700 2.29300 29.75200
C  37.74500 2.19600 30.85500
C  38.90800 1.56800 30.51500
C  38.89400 1.35700 29.09900
C  37.59400 1.83900 28.69000
C  40.08100 1.22600 31.43300
C  39.98200 0.68000 28.28900
O  39.87200 0.51400 27.08200
C  41.28700 0.03300 28.92800
N  34.83100 2.83700 27.71700
C  35.82600 2.40800 26.89600
C  35.25500 2.32400 25.41800
C  33.71300 2.39500 25.64800
C  33.63000 2.95400 27.04100
C  35.75700 3.46700 24.45400
C  32.91900 1.05600 25.39900
C  33.10400 0.57600 23.94700
N  33.04200 3.75600 29.90300
C  32.08900 3.87500 28.83600
C  30.88000 4.40200 29.37300
C  31.11600 4.53600 30.76800
C  32.45300 4.15200 31.02300
C  29.55800 4.63900 28.59100
C  30.43100 4.90500 31.98800
O  29.33400 5.31700 32.28400
C  31.60300 4.73800 33.16100
C  31.54500 6.13800 33.75700
O  32.27400 7.07200 33.40700
O  30.72800 6.12300 34.88500
C  30.79100 7.22500 35.84200
H  38.17300 2.63800 32.80900
H  37.69000 1.56900 26.58100
H  31.65900 3.42300 26.82600
H  34.31800 4.73200 34.80300
H  36.28800 2.57600 34.85200
H  37.86400 4.13900 35.19300
H  36.54900 5.35600 35.01200
H  37.49500 4.95500 33.58600
H  34.27300 1.75000 35.21000
H  32.88100 2.38200 34.49400
H  33.52600 2.28100 37.27800
H  32.22700 3.18200 36.47700
H  40.34200 0.16900 31.40300
H  39.94500 1.51700 32.47400
H  40.97300 1.80900 31.20300
H  41.92500 0.75700 29.43400
H  41.93500 -0.49100 28.22500
H  41.01200 -0.70600 29.68100
H  35.52800 1.33400 25.05500
H  33.25300 3.19100 25.06200
H  34.98900 4.07300 23.97400
H  36.36100 3.06300 23.64200
H  36.37600 4.16900 25.01400
H  31.85200 1.17900 25.58200
H  33.28400 0.35000 26.14400
H  33.66500 1.35700 23.43300
H  32.22000 0.51100 23.31200
H  33.69000 -0.34200 23.99000
H  29.02500 3.70600 28.41000
H  29.75300 5.12500 27.63500
H  28.93100 5.34300 29.13900
H  31.34900 3.95400 33.87400
H  31.00000 6.70000 36.77300
H  29.82500 7.71900 35.94700
H  31.57400 7.97500 35.73200
Mg -12.66400 17.00000 40.84200
C  -9.59600 15.20700 40.72400
C  -11.19400 19.73600 39.31600
C  -15.72900 18.57900 40.94400
C  -14.07700 14.05000 41.85500
N  -10.66900 17.40900 40.14200
C  -9.56000 16.55700 40.14300
C  -8.35900 17.32000 39.53500
C  -8.84800 18.73800 39.19100
C  -10.33800 18.68700 39.58400
C  -8.03700 19.86200 39.95800
C  -7.74500 16.64700 38.37800
C  -6.34600 17.07600 38.05300
H  -6.09700 17.73500 36.70600
N  -13.35800 18.86600 40.28600
C  -12.55700 19.89100 39.71100
C  -13.34900 21.06800 39.54700
C  -14.64900 20.82100 40.00000
C  -14.64000 19.35900 40.42500
C  -12.78800 22.35600 39.00600
C  -15.78800 21.85200 40.09300
O  -15.75200 22.99900 39.62100
C  -17.06600 21.36200 40.80700
N  -14.61200 16.42300 41.24100
C  -15.65200 17.27600 41.33500
C  -16.93700 16.51800 41.74400
C  -16.44600 15.12400 42.08700
C  -14.94500 15.16400 41.68800
C  -17.68600 17.35600 42.88300
C  -17.27500 14.01800 41.41100
C  -17.66500 12.94100 42.42800
N  -12.07600 14.98100 41.14800
C  -12.69000 13.92700 41.70300
C  -11.86200 12.76300 41.90900
C  -10.58600 13.17700 41.50100
C  -10.77300 14.54500 41.10800
C  -12.34600 11.42900 42.28400
C  -9.19800 12.79100 41.27100
O  -8.64600 11.68000 41.34900
C  -8.50500 14.08900 40.70500
C  -7.32600 14.37400 41.53500
O  -7.28700 14.64200 42.77000
O  -6.19300 14.36500 40.68900
C  -4.85800 14.69200 41.29000
H  -10.78900 20.55600 38.72000
H  -16.74800 18.96100 41.03300
H  -14.70000 13.20500 42.15400
H  -7.64000 17.30800 40.35400
H  -8.80300 18.93800 38.12000
H  -7.66700 20.57600 39.22100
H  -7.14800 19.41800 40.40500
H  -8.78000 20.25100 40.65400
H  -8.47700 16.89200 37.60900
H  -7.83800 15.56300 38.44700
H  -5.82700 16.12500 38.16900
H  -5.77100 17.67600 38.75800
H  -13.32100 23.20200 39.44100
H  -12.80500 22.37400 37.91600
H  -11.74900 22.49200 39.30500
H  -17.59300 20.72600 40.09500
H  -17.66500 22.23500 41.06600
H  -16.78400 20.85400 41.72900
H  -17.51600 16.43300 40.82500
H  -16.71200 14.97300 43.13300
H  -18.64800 17.80300 42.63100
H  -17.03300 18.20300 43.09100
H  -17.89100 16.78800 43.79100
H  -16.60500 13.52400 40.70800
H  -18.14900 14.40700 40.88900
H  -18.73100 13.01200 42.64300
H  -17.17900 12.99500 43.40200
H  -17.56100 11.95200 41.98200
H  -11.62700 10.64300 42.05300
H  -13.33200 11.19600 41.88100
H  -12.47800 11.31300 43.36000
H  -8.11400 13.88800 39.70700
H  -4.50300 15.70600 41.10600
H  -4.12400 14.04000 40.81700
H  -4.75300 14.57600 42.36800

