158

Mg 36.27800 1.12800 29.92400
C  33.77600 1.98700 32.42400
C  38.56500 0.96700 32.59300
C  38.68300 0.61600 27.71800
C  33.90200 1.65400 27.50900
N  36.12400 1.42000 32.33300
C  35.01400 1.78600 33.06200
C  35.37900 1.96200 34.57100
C  36.92900 1.82600 34.52300
C  37.24600 1.32300 33.09500
C  37.68700 3.14800 34.80500
C  34.71900 0.78400 35.26800
C  34.38900 1.04100 36.78000
H  34.81200 2.31600 37.55200
N  38.29600 0.62800 30.14200
C  39.01000 0.57700 31.29100
C  40.37300 0.05900 30.89700
C  40.45200 -0.00600 29.51100
C  39.10300 0.43400 29.04100
C  41.43900 -0.05400 31.99200
C  41.63200 -0.32300 28.49800
O  41.47300 -0.38400 27.27000
C  42.92400 -0.70800 29.08000
N  36.27100 1.07900 27.93200
C  37.42000 0.87500 27.17000
C  37.09300 1.02900 25.67200
C  35.52600 1.06400 25.62900
C  35.19000 1.30900 27.07500
C  37.70200 2.27200 25.00700
C  34.99900 -0.32900 25.11000
C  33.93800 -0.26800 23.99800
N  34.28300 1.69900 29.86000
C  33.44600 1.78800 28.83300
C  32.14500 2.10200 29.27000
C  32.21800 2.21900 30.68600
C  33.55000 1.95400 30.99000
C  30.93300 2.27300 28.42400
C  31.47900 2.63300 31.84100
O  30.34200 3.05400 32.00100
C  32.45600 2.44700 33.02600
C  32.67700 3.73900 33.71000
O  33.52300 4.54100 33.36900
O  31.68600 3.86700 34.66200
C  31.66600 5.16400 35.35600
H  39.24800 0.98200 33.44600
H  39.35800 0.66900 26.86200
H  33.14300 1.93300 26.77400
H  35.03900 2.86900 35.07100
H  37.21600 0.98800 35.15900
H  36.95400 3.94200 34.94700
H  38.33800 3.51500 34.01100
H  38.11300 2.95100 35.78800
H  35.40600 -0.05300 35.38800
H  33.81200 0.47400 34.74800
H  34.97700 0.36100 37.39700
H  33.32600 0.80200 36.80600
H  42.14400 0.76700 31.86400
H  41.96900 -1.00300 31.90300
H  41.13300 -0.00400 33.03700
H  43.19600 -0.14000 29.97000
H  43.72700 -0.72000 28.34400
H  42.74000 -1.75000 29.34200
H  37.58600 0.18600 25.18800
H  35.11600 1.90600 25.07200
H  38.37400 2.61800 25.79300
H  36.93700 3.02700 24.82700
H  38.38100 2.02800 24.19100
H  34.63900 -0.93400 25.94300
H  35.78500 -0.90200 24.61800
H  33.79900 0.73800 23.60200
H  33.05000 -0.69600 24.46100
H  34.26600 -0.94900 23.21300
H  31.20600 2.69700 27.45800
H  30.13100 2.73400 29.00200
H  30.48100 1.30700 28.19600
H  31.98700 1.75500 33.72600
H  31.88500 5.12400 36.42300
H  30.69000 5.58700 35.11800
H  32.39000 5.86300 34.93600
Mg 46.95100 34.75300 26.71600
C  45.20900 33.27700 29.47800
C  47.28300 37.57700 28.69900
C  48.07500 36.37000 24.05600
C  46.45800 31.90200 24.81200
N  46.42500 35.29900 29.05600
C  45.64200 34.58600 29.89500
C  45.29800 35.38700 31.13500
C  45.94600 36.84600 30.80400
C  46.52400 36.60300 29.40800
C  44.95700 38.10600 30.85900
C  45.91700 34.80100 32.43200
C  45.84400 35.71000 33.66200
H  47.07000 36.28800 34.20900
N  47.59300 36.69200 26.47800
C  47.77700 37.65500 27.41800
C  48.51900 38.77200 26.82100
C  48.80300 38.32700 25.51200
C  48.11400 37.11900 25.25800
C  48.82500 39.99100 27.62800
C  49.79300 39.02800 24.53600
O  49.99100 38.57700 23.34900
C  50.53900 40.16900 25.04100
N  47.16900 34.23200 24.69400
C  47.66400 35.09000 23.78100
C  47.70200 34.35800 22.34200
C  47.51200 32.79300 22.67100
C  47.03200 32.93200 24.17900
C  46.60800 35.00300 21.43800
C  48.67700 31.82400 22.49100
C  49.86600 31.84400 23.45100
N  46.08300 32.96900 26.97100
C  46.02800 31.87400 26.18200
C  45.32300 30.75700 26.90400
C  44.91700 31.31100 28.09000
C  45.46700 32.62000 28.16900
C  44.86400 29.46100 26.27700
C  44.23200 31.03400 29.30900
O  43.58500 29.99600 29.66700
C  44.32700 32.31600 30.21600
C  44.75700 31.90900 31.51700
O  45.91800 31.73200 31.82500
O  43.69900 31.73100 32.32600
C  44.02900 31.12200 33.64400
H  47.46600 38.41800 29.37100
H  48.49500 36.92400 23.21400
H  46.45700 30.85500 24.49900
H  44.22000 35.35000 31.29100
H  46.69900 37.07700 31.55700
H  45.44700 38.88200 31.44700
H  44.02800 37.80100 31.34100
H  44.64500 38.40900 29.85900
H  46.91700 34.42300 32.21900
H  45.28800 33.97600 32.76700
H  45.53000 35.09600 34.50600
H  45.10700 36.49200 33.47600
H  48.39500 40.86200 27.13400
H  49.90300 40.12800 27.70100
H  48.34100 39.97700 28.60500
H  49.84500 40.84900 25.53500
H  51.15500 40.60300 24.25400
H  51.19400 39.60400 25.70400
H  48.67100 34.50200 21.86400
H  46.78500 32.30000 22.02600
H  46.08000 35.83400 21.90700
H  45.85500 34.27000 21.15000
H  47.12200 35.27900 20.51800
H  49.16900 32.12500 21.56600
H  48.30000 30.82700 22.26600
H  50.81600 31.52400 23.02300
H  49.55200 31.24500 24.30700
H  49.97900 32.87500 23.78700
H  43.84800 29.34100 26.65400
H  45.49800 28.66600 26.66900
H  44.77300 29.55400 25.19500
H  43.31400 32.71800 30.22900
H  43.20600 30.62900 34.16200
H  44.18300 31.99900 34.27300
H  44.88500 30.44900 33.70400

