158

Mg 7.61000 2.40600 28.34300
C  9.32100 0.95400 31.09600
C  5.69000 4.10800 30.49400
C  5.92400 3.37900 25.74800
C  9.35700 0.01600 26.31000
N  7.52900 2.46700 30.60600
C  8.35400 1.89800 31.51100
C  8.07300 2.36300 32.94900
C  6.78400 3.28000 32.72600
C  6.64400 3.32500 31.20500
C  5.54600 3.00100 33.51300
C  9.38600 2.97000 33.47600
C  9.84300 2.47100 34.85300
H  10.36500 3.54400 35.81800
N  6.12900 3.71100 28.14300
C  5.40100 4.27800 29.11200
C  4.33200 5.12600 28.54600
C  4.48400 5.07300 27.19700
C  5.54100 3.95600 26.94100
C  3.48300 6.03200 29.34800
C  3.85300 5.89300 26.10100
O  4.18600 5.67100 24.94300
C  2.79900 6.92600 26.43900
N  7.54300 1.69000 26.31000
C  6.83800 2.42000 25.39600
C  7.07800 1.86900 23.98200
C  8.28000 0.88900 24.20200
C  8.43000 0.80600 25.68600
C  5.77500 1.16500 23.20000
C  9.66500 1.30100 23.54800
C  10.70600 2.08700 24.34700
N  8.90000 0.70300 28.65800
C  9.54600 -0.11100 27.72800
C  10.47300 -1.01600 28.35100
C  10.40600 -0.64200 29.71500
C  9.47000 0.42600 29.83300
C  11.39900 -1.96000 27.65500
C  10.94500 -0.88900 31.01500
O  11.80700 -1.68600 31.41600
C  10.23000 0.03600 32.02200
C  9.54700 -0.78100 33.10800
O  8.42100 -1.22100 33.06800
O  10.31200 -0.85000 34.21600
C  9.60200 -1.08800 35.49400
H  5.10400 4.59800 31.27500
H  5.27000 3.67500 24.92500
H  9.92600 -0.60900 25.61900
H  7.69500 1.45700 33.42300
H  7.04800 4.25500 33.13800
H  5.47900 3.70200 34.34500
H  5.49100 2.02500 33.99600
H  4.68600 3.16000 32.86300
H  9.24200 4.05000 33.51400
H  10.13500 2.87400 32.69100
H  10.64200 1.75800 34.65000
H  9.03600 1.98000 35.39800
H  2.44300 6.01300 29.02200
H  3.77000 7.08000 29.26500
H  3.45800 5.71900 30.39200
H  3.23600 7.54800 27.22000
H  1.85200 6.48100 26.74300
H  2.68000 7.62400 25.61000
H  7.32900 2.65200 23.26700
H  7.95000 -0.07600 23.81800
H  4.84400 1.37000 23.72900
H  5.86900 0.09100 23.35500
H  5.70600 1.41000 22.14000
H  9.38100 1.93400 22.70700
H  10.07700 0.39500 23.10400
H  11.64200 1.53100 24.39200
H  10.22800 2.35100 25.29100
H  11.04200 2.88400 23.68500
H  11.59800 -1.50000 26.68700
H  10.89700 -2.91100 27.47800
H  12.29900 -2.14800 28.24100
H  10.92400 0.65400 32.59100
H  10.18300 -0.96900 36.40800
H  9.23900 -2.11300 35.57800
H  8.70300 -0.47800 35.57700
Mg 24.71700 -5.76200 46.17200
C  26.51700 -2.96000 45.09200
C  22.10400 -4.60500 44.02200
C  23.22300 -8.60100 46.67600
C  27.63400 -6.98700 47.82100
N  24.47200 -4.02800 44.65200
C  25.30700 -3.05000 44.38400
C  24.73300 -2.07500 43.32700
C  23.22000 -2.34000 43.52300
C  23.27400 -3.74500 44.11400
C  22.37500 -1.37600 44.45700
C  25.35600 -2.61700 41.98400
C  25.65200 -1.55400 40.88200
H  25.27100 -1.95300 39.46200
N  22.85600 -6.51200 45.50300
C  22.00900 -5.91200 44.63600
C  20.92100 -6.86400 44.40700
C  21.16400 -8.03400 45.16700
C  22.44800 -7.73800 45.87600
C  19.70400 -6.47400 43.65700
C  20.37900 -9.30000 45.12600
O  19.44600 -9.21700 44.32000
C  20.65200 -10.47300 45.92100
N  25.35400 -7.57800 47.05200
C  24.45300 -8.54800 47.23700
C  25.12500 -9.76300 47.91500
C  26.49700 -9.12100 48.40400
C  26.57700 -7.82500 47.64600
C  24.37700 -10.49100 49.04300
C  27.76100 -10.00200 48.23000
C  28.62300 -9.82700 46.94900
N  26.60800 -5.12300 46.51800
C  27.71800 -5.71900 47.18200
C  28.83200 -4.81400 47.05000
C  28.44600 -3.75500 46.21600
C  27.06500 -3.89500 46.00500
C  30.20900 -4.99700 47.70300
C  28.92100 -2.59300 45.50900
O  29.99000 -1.99000 45.56400
C  27.64900 -2.01400 44.76200
C  27.33600 -0.66400 45.17200
O  26.42900 -0.25300 45.81300
O  28.31100 0.10100 44.65100
C  28.15500 1.46100 45.03900
H  21.31800 -4.24400 43.35600
H  22.77800 -9.58200 46.85800
H  28.54000 -7.31300 48.33700
H  25.06500 -1.05100 43.49400
H  22.65900 -2.31500 42.58900
H  21.70100 -1.87300 45.15600
H  21.70100 -0.75200 43.87000
H  23.01900 -0.70500 45.02400
H  24.54500 -3.18000 41.52200
H  26.29800 -3.16500 42.01300
H  26.71700 -1.32500 40.86700
H  25.02200 -0.68400 41.07000
H  18.80900 -6.84600 44.15600
H  19.84600 -6.77900 42.62000
H  19.60100 -5.39200 43.73300
H  19.81300 -11.15500 45.78300
H  20.79100 -10.16200 46.95600
H  21.56700 -10.85200 45.46700
H  25.43000 -10.53200 47.20400
H  26.56100 -8.90000 49.47000
H  24.17900 -11.51600 48.73000
H  23.41400 -10.04700 49.29200
H  24.90700 -10.41200 49.99300
H  27.34300 -11.00600 48.15000
H  28.30700 -9.95800 49.17300
H  28.76500 -10.80400 46.48700
H  29.62200 -9.48800 47.22600
H  28.24400 -9.11300 46.21800
H  30.09400 -5.22500 48.76300
H  30.82300 -4.09900 47.64800
H  30.83500 -5.74200 47.21200
H  27.65100 -2.16400 43.68200
H  28.93500 2.05300 44.56000
H  28.13000 1.48300 46.12800
H  27.22800 1.94700 44.73400

