158

Mg 16.17900 -2.07700 28.05300
C  15.30400 0.22400 30.72800
C  18.05600 -3.81200 30.30600
C  17.16000 -3.84000 25.42900
C  14.57300 0.30600 25.81800
N  16.72700 -1.70600 30.29600
C  16.17800 -0.83600 31.16900
C  16.77600 -0.97700 32.58700
C  17.75300 -2.26600 32.34400
C  17.46200 -2.65000 30.87600
C  19.26700 -2.02100 32.51100
C  15.67500 -1.09400 33.76800
C  15.95200 -0.35800 35.10700
H  17.40400 0.01500 35.40500
N  17.49200 -3.67800 27.86800
C  18.07800 -4.28900 28.91100
C  18.59100 -5.54000 28.40200
C  18.35300 -5.53900 26.95400
C  17.65500 -4.32800 26.67300
C  19.27900 -6.48700 29.29900
C  18.76500 -6.57500 25.99000
O  18.54300 -6.50800 24.75800
C  19.39600 -7.81500 26.44400
N  15.97400 -1.68800 25.89000
C  16.46800 -2.64200 25.04100
C  16.22100 -2.13400 23.55000
C  15.58900 -0.69200 23.64500
C  15.25400 -0.72000 25.15600
C  17.52200 -2.22400 22.66800
C  14.31200 -0.59800 22.79100
C  13.91900 0.85900 22.51200
N  14.98600 -0.30000 28.19700
C  14.49100 0.54500 27.19400
C  13.81400 1.60500 27.87700
C  14.15700 1.58800 29.22000
C  14.91600 0.38200 29.34000
C  12.90300 2.58600 27.27700
C  13.97000 2.25000 30.49100
O  13.22200 3.19300 30.71600
C  14.80400 1.44700 31.49100
C  15.81700 2.46700 31.96900
O  16.47900 3.18100 31.23500
O  15.73500 2.56800 33.35200
C  16.50500 3.74900 33.91900
H  18.53100 -4.48200 31.02500
H  17.51100 -4.39100 24.55400
H  14.08900 1.08900 25.23100
H  17.33700 -0.07000 32.81200
H  17.50700 -3.12700 32.96500
H  19.59400 -1.40200 33.34700
H  19.68400 -1.61900 31.58700
H  19.63400 -3.03900 32.64100
H  15.32600 -2.12300 33.86100
H  14.81100 -0.55800 33.37800
H  15.67500 -0.91300 36.00400
H  15.39700 0.57900 35.06400
H  20.00300 -7.21300 28.92800
H  18.65200 -7.05600 29.98600
H  19.86600 -5.91100 30.01400
H  18.76700 -8.26600 27.21200
H  20.43600 -7.71100 26.75200
H  19.31900 -8.54100 25.63500
H  15.49900 -2.82300 23.11100
H  16.19800 0.19900 23.49500
H  17.81700 -1.24200 22.29900
H  17.30700 -2.81200 21.77600
H  18.39600 -2.59400 23.20400
H  13.55200 -1.04100 23.43500
H  14.42200 -1.20900 21.89600
H  12.93100 1.09500 22.90600
H  13.95700 0.87700 21.42200
H  14.63000 1.64800 22.75500
H  13.46600 3.31400 26.69400
H  12.26800 2.95000 28.08500
H  12.19800 2.05800 26.63400
H  14.15400 1.12300 32.30400
H  15.93100 4.02100 34.80600
H  16.64200 4.67800 33.36500
H  17.51200 3.41700 34.17000
Mg 44.73700 4.42200 45.77100
C  42.86800 7.58400 45.84400
C  41.71500 2.85500 45.35600
C  46.51300 1.71300 45.12000
C  47.58800 6.42800 45.21600
N  42.54000 5.21000 45.50300
C  42.00800 6.44500 45.62000
C  40.48900 6.37300 45.53100
C  40.20500 4.84300 45.48700
C  41.59200 4.24000 45.47300
C  39.24400 4.27000 46.53800
C  39.85200 7.13800 44.37600
C  40.70600 7.43400 43.10100
H  40.09400 7.01700 41.78200
N  44.21900 2.47800 45.47000
C  42.91100 2.01300 45.30200
C  42.97500 0.62200 44.91400
C  44.37100 0.27500 44.96400
C  45.10300 1.49600 45.22400
C  41.75600 -0.22000 44.69800
C  44.86300 -1.16800 44.63500
O  44.04700 -2.04700 44.30400
C  46.33900 -1.50900 44.54700
N  46.76600 4.18700 45.03700
C  47.24200 2.88800 45.03900
C  48.74600 2.88000 44.71100
C  49.04300 4.41900 44.77400
C  47.76100 5.05900 44.97200
C  49.64000 2.02500 45.65200
C  49.75500 4.91600 43.54100
C  51.11500 5.39200 43.77100
N  45.21900 6.54500 45.76500
C  46.44800 7.18300 45.59500
C  46.26000 8.66900 45.71800
C  44.89900 8.86000 45.96200
C  44.30100 7.53200 45.94800
C  47.32000 9.71200 45.61200
C  43.88200 9.85600 46.19800
O  43.95600 11.06800 46.31500
C  42.51600 9.08800 46.02500
C  41.76000 9.31800 47.27400
O  41.90800 8.63000 48.29400
O  40.94500 10.40700 47.14700
C  40.15000 10.65100 48.37800
H  40.77500 2.32600 45.18700
H  47.03100 0.76500 44.96000
H  48.53800 6.96500 45.18200
H  40.14400 6.79000 46.47600
H  39.74500 4.57200 44.53700
H  39.83700 3.66200 47.22100
H  38.44200 3.64700 46.14300
H  38.79600 5.05100 47.15200
H  39.64900 8.10500 44.83400
H  38.98100 6.58400 44.02600
H  41.69500 7.01700 43.29000
H  40.82000 8.51800 43.10500
H  41.93800 -0.95500 43.91400
H  40.89000 0.33800 44.34200
H  41.49400 -0.68400 45.64900
H  46.30500 -2.58500 44.37600
H  46.77200 -1.36700 45.53700
H  46.84200 -0.97000 43.74400
H  48.74800 2.48500 43.69600
H  49.57500 4.74900 45.66600
H  48.90700 1.70900 46.39400
H  50.50900 2.60600 45.96000
H  50.02400 1.16800 45.10000
H  49.28300 5.70900 42.96100
H  49.95000 4.05400 42.90300
H  51.80900 4.72900 43.25600
H  51.37100 5.22800 44.81800
H  51.39400 6.42600 43.56700
H  46.90400 10.69100 45.84900
H  47.66100 9.81800 44.58200
H  48.08400 9.55000 46.37300
H  41.93000 9.48900 45.19800
H  40.70200 10.40900 49.28600
H  39.16400 10.18900 48.32900
H  39.94800 11.72200 48.34900

