158

Mg 35.88400 48.93900 24.54500
C  36.32700 47.08200 27.56400
C  34.47500 51.46700 26.38300
C  35.31100 50.58000 21.64200
C  37.09000 46.08600 22.68100
N  35.31700 49.18500 26.69400
C  35.72200 48.38900 27.74800
C  35.35300 49.06000 29.12800
C  34.62500 50.38500 28.63000
C  34.85700 50.40600 27.14900
C  33.12100 50.50100 29.07800
C  36.61700 49.37400 30.06000
C  36.20700 49.05900 31.52200
H  35.01500 49.85800 32.20000
N  35.10500 50.71400 24.07300
C  34.49200 51.57900 24.98900
C  34.15700 52.82000 24.30400
C  34.40900 52.64500 22.92200
C  34.95200 51.31600 22.83600
C  33.74500 54.10900 25.00000
C  34.22700 53.66500 21.72200
O  34.50500 53.35300 20.53100
C  33.96200 55.13300 22.00800
N  36.13300 48.41300 22.47500
C  35.85100 49.30200 21.46600
C  35.83900 48.56700 20.11300
C  36.78600 47.31900 20.47600
C  36.64000 47.21000 21.99800
C  34.37700 48.26300 19.61100
C  38.24800 47.51000 20.26900
C  38.92500 46.59200 19.24300
N  36.41200 46.94700 24.94600
C  37.03900 45.94400 24.13000
C  37.48900 44.79300 24.94500
C  37.21200 45.25300 26.25200
C  36.63400 46.58200 26.23400
C  38.18600 43.48100 24.56600
C  37.32100 44.78000 27.58800
O  37.83200 43.72200 28.05700
C  36.78200 45.98800 28.47400
C  35.65100 45.52400 29.31200
O  34.62700 45.13600 28.86800
O  35.99100 45.46800 30.61700
C  35.03000 44.84300 31.56100
H  34.08900 52.27100 27.01300
H  35.14900 51.13300 20.71400
H  37.51700 45.19900 22.20800
H  34.67200 48.38500 29.64800
H  35.18400 51.26100 28.95900
H  32.99200 50.18700 30.11300
H  32.57800 49.94000 28.31800
H  32.87600 51.56300 29.05500
H  36.98100 50.38900 29.90000
H  37.44500 48.72000 29.78500
H  37.17100 49.09100 32.03100
H  35.78800 48.05400 31.48100
H  33.36000 53.82300 25.97900
H  32.97900 54.74900 24.56400
H  34.64800 54.69300 25.17900
H  32.92300 55.29000 22.29800
H  34.22100 55.71900 21.12600
H  34.57500 55.31700 22.89100
H  36.30200 49.21600 19.37000
H  36.28400 46.40600 20.15500
H  33.63700 48.54300 20.36000
H  34.32700 47.23000 19.26600
H  34.26400 48.79900 18.66900
H  38.84000 47.37200 21.17400
H  38.36100 48.52300 19.88200
H  38.18500 46.03300 18.66900
H  39.58100 45.85800 19.71000
H  39.41700 47.27300 18.54800
H  39.20100 43.60900 24.18800
H  37.59400 43.04100 23.76400
H  38.16900 42.83000 25.43900
H  37.56100 46.40300 29.11300
H  35.72400 44.32900 32.22500
H  34.46100 44.09600 31.00600
H  34.36500 45.59300 31.98800
Mg -6.17300 25.51300 26.13500
C  -4.64300 26.68800 28.94900
C  -8.33500 23.84800 28.00500
C  -7.18300 23.85300 23.32100
C  -3.62900 27.10800 24.16100
N  -6.22400 25.10300 28.21100
C  -5.64300 25.82500 29.25000
C  -6.28700 25.42400 30.58800
C  -7.26000 24.24600 30.23800
C  -7.30400 24.38600 28.72400
C  -6.75800 22.83100 30.63300
C  -6.89900 26.62100 31.43000
C  -6.74500 26.60900 32.93600
H  -6.12400 25.33500 33.61600
N  -7.60900 24.03700 25.67800
C  -8.41000 23.51600 26.58700
C  -9.26400 22.57200 26.04300
C  -8.88300 22.46300 24.66800
C  -7.83300 23.44100 24.47100
C  -10.35700 21.81500 26.90400
C  -9.47900 21.58700 23.60400
O  -9.06500 21.70200 22.43700
C  -10.71500 20.83500 23.88800
N  -5.57900 25.58900 24.10600
C  -6.06900 24.68500 23.13300
C  -5.33600 24.74300 21.80800
C  -4.29500 25.87800 22.03000
C  -4.53100 26.27200 23.49900
C  -4.71200 23.38700 21.42800
C  -4.30600 27.02000 20.92200
C  -3.02400 27.38700 20.17600
N  -4.59600 26.79800 26.42000
C  -3.69200 27.35100 25.55500
C  -2.87500 28.32200 26.30400
C  -3.22400 28.05600 27.65900
C  -4.15000 27.06100 27.69700
C  -1.74600 29.21100 25.84300
C  -2.89500 28.42800 29.02800
O  -2.07500 29.27400 29.48000
C  -3.89300 27.55600 29.94100
C  -3.14600 26.80300 30.92500
O  -2.74700 25.63000 30.83300
O  -2.89100 27.51300 32.05900
C  -1.96400 27.00800 33.06600
H  -9.13600 23.49100 28.65600
H  -7.55600 23.34800 22.42800
H  -2.89300 27.70500 23.61900
H  -5.44100 25.12100 31.20600
H  -8.19100 24.42800 30.77500
H  -6.02100 23.08800 31.39400
H  -6.30200 22.40500 29.73900
H  -7.58500 22.23000 31.01000
H  -7.97800 26.64200 31.27700
H  -6.53100 27.53500 30.96400
H  -7.70800 26.77100 33.42100
H  -6.23100 27.54300 33.16300
H  -10.30700 22.14600 27.94200
H  -10.11300 20.75700 26.81400
H  -11.33100 22.09300 26.50300
H  -10.53800 19.92700 24.46500
H  -11.11300 20.55400 22.91300
H  -11.50200 21.45100 24.32200
H  -5.98400 25.11700 21.01500
H  -3.26900 25.51200 22.08400
H  -5.03500 22.64900 22.16100
H  -3.63200 23.27300 21.33400
H  -5.09100 23.13600 20.43700
H  -4.54600 27.96700 21.40400
H  -5.06600 26.83400 20.16300
H  -2.17700 26.79500 20.52200
H  -2.74000 28.43500 20.07900
H  -3.11200 27.28400 19.09400
H  -2.23800 30.16900 25.67100
H  -1.38500 28.94000 24.85100
H  -1.09800 29.34500 26.70900
H  -4.50600 28.23700 30.53000
H  -1.66600 25.96300 32.97700
H  -2.50600 27.12200 34.00500
H  -1.09100 27.64200 33.22200

