158

Mg 49.70700 34.60500 26.15200
C  47.80200 33.49000 28.94900
C  49.93400 37.59900 27.76400
C  51.38800 35.77500 23.43800
C  48.95600 31.68500 24.51700
N  48.95000 35.43400 28.23500
C  48.24400 34.83400 29.15500
C  47.97300 35.74800 30.33600
C  48.54500 37.14700 29.81900
C  49.05600 36.79300 28.41700
C  47.60300 38.36800 29.84200
C  48.58000 35.24500 31.73600
C  47.55000 35.00100 32.95800
H  47.73900 35.81200 34.28600
N  50.65400 36.39400 25.74900
C  50.73400 37.48500 26.53700
C  51.56800 38.48400 25.92800
C  52.02300 37.96200 24.68400
C  51.35300 36.64300 24.50700
C  51.84500 39.88100 26.57900
C  53.02800 38.59700 23.66400
O  53.41900 37.94500 22.69100
C  53.36000 40.01700 23.74200
N  50.01100 33.89200 24.27900
C  50.85900 34.50900 23.34600
C  51.13200 33.53400 22.17400
C  50.47000 32.19600 22.57200
C  49.75100 32.57700 23.86800
C  50.68200 34.10200 20.70300
C  51.47600 30.96900 22.81000
C  51.15500 29.69000 22.05900
N  48.59100 32.94000 26.57100
C  48.34900 31.84500 25.77200
C  47.48700 30.94100 26.44300
C  47.17200 31.56200 27.63400
C  47.95000 32.75000 27.73100
C  47.08900 29.60100 25.92000
C  46.41500 31.40600 28.84000
O  45.59500 30.61700 29.24800
C  46.92000 32.59900 29.80400
C  47.67900 32.00800 30.91200
O  48.85500 31.85800 31.05000
O  46.73600 31.57200 31.83700
C  47.13300 30.98100 33.10700
H  50.10300 38.57300 28.23000
H  51.95200 36.16200 22.58600
H  48.91000 30.72500 23.99900
H  46.90800 35.73900 30.56600
H  49.36900 37.49200 30.44400
H  48.04000 39.21000 30.37900
H  46.62100 38.15400 30.26200
H  47.53200 38.70400 28.80700
H  49.35700 35.92000 32.09300
H  49.02800 34.27200 31.53500
H  47.52400 33.95800 33.27600
H  46.57700 35.23700 32.52800
H  52.89900 39.90300 26.85500
H  51.28600 40.11900 27.48400
H  51.66200 40.60900 25.78800
H  53.67100 40.25900 24.75900
H  52.47100 40.61100 23.52900
H  54.26700 40.14900 23.15200
H  52.18900 33.27700 22.10000
H  49.66900 31.87200 21.90700
H  50.32400 35.13000 20.76700
H  49.97800 33.54200 20.08800
H  51.62600 34.25400 20.17900
H  51.52500 30.80300 23.88600
H  52.50000 31.28900 22.61800
H  52.08500 29.47800 21.53100
H  50.36200 29.87200 21.33300
H  50.67600 28.94200 22.69100
H  47.43900 28.94300 26.71500
H  47.51300 29.33800 24.95100
H  46.00000 29.56500 25.97200
H  46.05100 33.05600 30.27700
H  48.22000 30.91800 33.16800
H  46.77800 29.95700 33.21700
H  46.66700 31.60300 33.87200
Mg -9.93100 39.09600 39.47700
C  -9.16900 35.84100 38.84600
C  -6.72300 40.04100 38.35400
C  -11.02400 42.25800 39.44800
C  -13.30700 38.11800 40.30300
N  -8.20000 38.08000 38.67100
C  -8.08400 36.68300 38.54700
C  -6.60800 36.29800 38.12000
C  -5.82700 37.65800 38.22900
C  -7.00000 38.66300 38.44300
C  -4.67700 37.69900 39.27900
C  -6.58500 35.63900 36.73000
C  -7.12300 36.47700 35.52100
H  -8.21100 35.84000 34.61900
N  -9.03800 40.83900 38.89000
C  -7.71500 41.05700 38.53100
C  -7.58000 42.50700 38.27100
C  -8.80100 43.17500 38.42800
C  -9.68500 42.07000 38.97600
C  -6.21700 43.10700 37.89300
C  -9.00600 44.70600 38.15300
O  -8.24300 45.31800 37.45300
C  -10.43000 45.35200 38.50100
N  -11.94200 40.07600 40.02200
C  -12.04600 41.39800 39.94900
C  -13.49900 41.88500 40.31300
C  -14.18200 40.54400 40.72700
C  -13.12200 39.49000 40.35000
C  -13.65300 42.96500 41.44200
C  -15.55000 40.21500 40.09100
C  -16.81900 40.86300 40.66400
N  -11.06800 37.41200 39.52100
C  -12.44100 37.12000 39.83800
C  -12.66600 35.69100 39.82500
C  -11.40300 35.18700 39.38300
C  -10.46800 36.23600 39.17400
C  -13.81400 34.89100 40.16400
C  -10.75000 33.93300 38.92900
O  -11.18300 32.82100 38.74500
C  -9.26800 34.29700 38.58100
C  -8.40900 33.48800 39.46900
O  -8.55200 33.30600 40.68100
O  -7.35800 32.93400 38.72800
C  -6.50900 32.06300 39.49800
H  -5.70100 40.39800 38.21800
H  -11.25700 43.31300 39.61000
H  -14.27000 37.73000 40.64200
H  -6.23300 35.67900 38.93400
H  -5.39300 37.78000 37.23700
H  -3.82900 38.22100 38.83500
H  -4.38200 36.70700 39.62000
H  -4.94000 38.35800 40.10700
H  -7.16100 34.71400 36.69500
H  -5.55500 35.31500 36.58500
H  -6.26400 36.71100 34.89200
H  -7.61300 37.38900 35.86000
H  -6.16200 44.06100 38.41600
H  -6.06300 43.22300 36.82000
H  -5.41100 42.47000 38.25600
H  -10.51000 45.48500 39.58000
H  -11.10100 44.65900 37.99300
H  -10.53600 46.31900 38.00900
H  -13.98200 42.21900 39.39500
H  -14.35300 40.57000 41.80300
H  -14.17900 43.88200 41.17700
H  -12.58900 43.07300 41.65100
H  -14.08500 42.60500 42.37600
H  -15.68100 39.13400 40.11100
H  -15.36200 40.38000 39.03000
H  -16.63000 41.44400 41.56700
H  -17.46100 40.05300 41.01200
H  -17.33100 41.34900 39.83500
H  -13.75700 33.94500 39.62400
H  -14.67700 35.49400 39.88100
H  -13.83400 34.61500 41.21800
H  -9.23600 34.01800 37.52800
H  -5.86400 32.73200 40.06700
H  -5.95700 31.40100 38.83000
H  -7.16900 31.47600 40.13800

