158

Mg 44.19800 5.23900 47.92000
C  42.08300 7.94400 46.97800
C  41.79300 3.13700 47.26100
C  46.53900 2.85000 48.04000
C  46.73300 7.64500 48.30200
N  42.14600 5.59600 47.26800
C  41.49000 6.73900 46.85400
C  40.08400 6.34500 46.33800
C  39.89700 4.86200 46.84500
C  41.38500 4.52000 47.13700
C  38.97000 4.70000 48.08000
C  40.02100 6.36700 44.78500
C  39.15900 7.48600 44.14500
H  39.92200 8.48200 43.24600
N  44.14900 3.30800 47.73000
C  43.04700 2.59900 47.56100
C  43.40200 1.20100 47.56500
C  44.85300 1.10400 47.68800
C  45.25900 2.48600 47.73600
C  42.37500 0.09000 47.47000
C  45.60700 -0.19300 47.65000
O  44.98300 -1.24600 47.81100
C  47.10300 -0.31800 47.38400
N  46.36800 5.29900 47.90200
C  47.07800 4.17900 48.16400
C  48.57000 4.41600 48.38800
C  48.66200 6.00400 48.28200
C  47.16800 6.34800 48.19600
C  49.07300 3.83500 49.79600
C  49.57300 6.58100 47.17300
C  50.65400 7.57300 47.61700
N  44.41600 7.35600 47.76500
C  45.50900 8.16700 47.96500
C  45.12800 9.57800 47.81600
C  43.77300 9.51400 47.42200
C  43.44000 8.15300 47.37900
C  45.96300 10.83600 47.90800
C  42.68400 10.33300 47.08800
O  42.56000 11.53900 46.97500
C  41.50700 9.34700 46.79000
C  40.58100 9.71400 47.87800
O  40.58000 9.20700 49.04300
O  39.68900 10.67000 47.54400
C  38.66500 11.03900 48.54100
H  40.87000 2.55400 47.30200
H  47.33300 2.12400 48.22600
H  47.48600 8.41100 48.49800
H  39.35200 7.00600 46.80200
H  39.39500 4.28800 46.06600
H  38.42800 5.62800 48.26100
H  39.51200 4.35100 48.95900
H  38.22800 3.94700 47.81400
H  39.70800 5.40800 44.37300
H  41.02500 6.53000 44.39200
H  38.63600 8.03300 44.92900
H  38.31400 7.16600 43.53500
H  42.40600 -0.72200 48.19500
H  42.42400 -0.34100 46.47000
H  41.44300 0.65000 47.54800
H  47.44600 0.28300 46.54200
H  47.40400 -1.35600 47.24000
H  47.66700 -0.01500 48.26700
H  49.20300 3.94400 47.63700
H  48.86200 6.48600 49.23900
H  48.34400 3.09800 50.13300
H  49.33500 4.65900 50.45900
H  50.00000 3.26200 49.76800
H  48.86100 7.07400 46.51000
H  49.99500 5.80000 46.54100
H  50.14500 8.50900 47.84800
H  51.51300 7.68700 46.95700
H  51.08500 7.29700 48.57900
H  45.38000 11.73700 48.09600
H  46.59900 10.90200 47.02500
H  46.50100 10.78600 48.85500
H  41.05600 9.47900 45.80700
H  37.75000 10.53100 48.23500
H  38.67000 12.12900 48.52800
H  38.80800 10.72600 49.57600
Mg -10.62200 37.80500 42.44700
C  -9.01300 34.97800 40.92400
C  -8.49100 39.74200 40.92400
C  -12.92400 40.38500 42.65100
C  -13.06300 35.58100 43.70700
N  -9.05100 37.36100 40.90100
C  -8.51000 36.21700 40.51900
C  -7.21200 36.38200 39.70200
C  -6.92800 37.90100 40.01700
C  -8.21800 38.33500 40.69400
C  -5.64900 38.31400 40.78200
C  -7.44300 35.94000 38.26200
C  -6.47500 35.01300 37.56700
H  -5.47700 35.76600 36.61300
N  -10.60900 39.85500 41.96400
C  -9.49400 40.50700 41.51700
C  -9.66400 41.88900 41.58000
C  -11.02700 42.09400 41.96300
C  -11.62800 40.72600 42.27800
C  -8.51100 42.80600 41.32000
C  -11.59000 43.48800 42.28200
O  -10.95700 44.45100 41.93000
C  -12.92700 43.72700 43.07200
N  -12.66800 37.95200 43.07500
C  -13.42200 39.12400 43.03000
C  -14.88000 38.88900 43.51900
C  -14.84200 37.37600 43.79500
C  -13.44400 36.90800 43.45300
C  -15.19700 39.80500 44.78200
C  -15.84900 36.54800 43.07600
C  -16.87700 35.81300 43.96800
N  -10.84500 35.73200 42.56900
C  -11.84200 34.98500 43.16700
C  -11.52100 33.53600 43.10200
C  -10.36900 33.56500 42.27000
C  -10.04700 34.85200 41.86900
C  -12.27900 32.31200 43.66100
C  -9.24800 32.69700 41.66600
O  -8.95600 31.51700 41.88500
C  -8.34200 33.65800 40.81500
C  -7.02300 33.46800 41.46600
O  -6.16700 32.67200 41.12500
O  -6.82600 34.38500 42.44300
C  -5.60700 34.14100 43.19500
H  -7.62300 40.32300 40.60700
H  -13.64300 41.20500 42.70800
H  -13.87900 34.97100 44.09900
H  -6.33100 35.86800 40.08300
H  -6.81700 38.51200 39.12100
H  -5.07500 37.39900 40.92600
H  -5.91200 38.72100 41.75800
H  -5.09800 39.04700 40.19200
H  -7.52100 36.83100 37.63900
H  -8.43800 35.49600 38.22200
H  -6.88300 34.26500 36.88800
H  -5.76800 34.50500 38.22200
H  -8.63000 43.88400 41.42800
H  -8.22100 42.57300 40.29500
H  -7.68200 42.43000 41.91900
H  -13.80000 43.36600 42.52900
H  -12.99300 44.78700 43.31700
H  -12.85200 43.29400 44.06900
H  -15.59300 39.23800 42.77200
H  -15.06600 37.18400 44.84400
H  -14.36300 40.50000 44.88400
H  -15.24300 39.30800 45.75100
H  -16.13600 40.29800 44.53200
H  -15.33700 35.77500 42.50200
H  -16.46100 37.17100 42.42500
H  -17.85300 36.12600 43.59800
H  -16.90000 36.16600 44.99900
H  -16.82300 34.73400 43.82500
H  -13.11200 32.03400 43.01500
H  -12.68800 32.62600 44.62100
H  -11.62900 31.44000 43.73300
H  -8.28300 33.40200 39.75700
H  -5.42800 34.88900 43.96800
H  -4.71100 34.25600 42.58500
H  -5.59000 33.23100 43.79400

