158

Mg 3.15800 -0.09400 44.31200
C  5.98100 1.96700 44.12700
C  1.59800 2.25100 42.30500
C  0.53500 -2.15100 44.13700
C  5.14900 -2.67000 45.58500
N  3.88700 1.89700 43.13200
C  5.03800 2.56500 43.33900
C  5.13100 3.86100 42.57000
C  3.59000 4.00400 42.27100
C  2.94600 2.64400 42.52000
C  2.95500 5.03300 43.24400
C  6.13600 3.75500 41.41600
C  6.21000 2.46100 40.57900
H  6.19500 2.64400 39.06600
N  1.34100 0.02700 43.38000
C  0.86600 1.12500 42.71300
C  -0.59800 1.03700 42.63500
C  -0.95100 -0.31800 43.02000
C  0.33900 -0.85500 43.55100
C  -1.47900 2.10800 41.88500
C  -2.32500 -0.98100 42.89500
O  -3.28500 -0.34000 42.56900
C  -2.49000 -2.43600 43.22700
N  2.98400 -2.23900 44.61900
C  1.73200 -2.88100 44.59300
C  1.80300 -4.39600 45.06100
C  3.31600 -4.49100 45.58100
C  3.86000 -3.01900 45.28400
C  0.72300 -4.97700 46.10400
C  4.23400 -5.64500 44.96900
C  5.28000 -6.17800 46.06800
N  5.16300 -0.35600 44.84000
C  5.79800 -1.43100 45.42800
C  7.17100 -1.05900 45.74700
C  7.33000 0.28900 45.33400
C  6.08400 0.65300 44.70700
C  8.16200 -1.87500 46.53500
C  8.23900 1.46700 45.15000
O  9.42700 1.57800 45.35600
C  7.35200 2.56500 44.42300
C  7.28300 3.74500 45.35300
O  8.21800 4.56900 45.51300
O  6.00100 3.85400 45.87200
C  5.72900 5.05600 46.58700
H  1.07500 3.03200 41.74900
H  -0.29600 -2.83600 44.31900
H  5.70000 -3.41500 46.16300
H  5.37600 4.70000 43.22100
H  3.29100 4.31200 41.27000
H  1.94000 4.68000 43.42800
H  3.04000 6.04200 42.84300
H  3.31500 5.08500 44.27200
H  7.12000 3.81500 41.88000
H  5.98200 4.60800 40.75500
H  5.33900 1.84600 40.80400
H  7.15200 1.96400 40.80900
H  -1.46500 2.03800 40.79700
H  -1.16500 3.10900 42.18100
H  -2.53000 2.14700 42.16900
H  -3.47600 -2.80900 42.94800
H  -2.33200 -2.65600 44.28300
H  -1.79700 -2.90200 42.52600
H  1.68700 -4.88400 44.09400
H  3.35000 -4.60600 46.66400
H  -0.10700 -5.37000 45.51800
H  0.37900 -4.20700 46.79400
H  1.20300 -5.75500 46.69800
H  4.88900 -5.25300 44.19100
H  3.62800 -6.44500 44.54300
H  6.30700 -6.00900 45.74400
H  5.13600 -7.24800 46.21500
H  5.31200 -5.69700 47.04500
H  8.31600 -2.82100 46.01700
H  7.75800 -2.08300 47.52600
H  9.13600 -1.39100 46.60500
H  7.97000 2.88400 43.58400
H  4.67500 5.07800 46.86300
H  6.08300 5.93000 46.04000
H  6.20600 5.06600 47.56700
Mg 7.14200 57.54600 41.51700
C  6.28900 54.20700 41.28700
C  10.28800 56.72100 40.38900
C  7.81200 60.89700 41.16900
C  3.94100 58.30400 42.53200
N  8.10000 55.73200 40.72500
C  7.55000 54.46800 40.80800
C  8.51900 53.39300 40.32300
C  9.88500 54.17400 40.37000
C  9.39700 55.61300 40.45200
C  10.94100 53.73800 41.48400
C  8.18100 52.71900 38.95500
C  8.31100 51.21100 38.91500
H  9.48100 50.75900 38.05500
N  8.80400 58.60500 40.85800
C  9.98200 58.10200 40.47200
C  10.93200 59.16600 40.19700
C  10.33500 60.40200 40.38100
C  8.90800 60.02900 40.77200
C  12.41400 58.88100 39.65800
C  11.01900 61.80700 40.27800
O  12.22600 61.86700 39.90900
C  10.28000 63.06100 40.55000
N  5.92900 59.42300 41.58100
C  6.46000 60.62400 41.57700
C  5.53200 61.67900 42.14200
C  4.20400 60.94400 42.52900
C  4.70000 59.43900 42.28400
C  6.08200 62.75400 43.13300
C  2.88100 61.24800 41.76800
C  1.64800 60.78800 42.51800
N  5.41300 56.46200 41.84200
C  4.16700 56.89800 42.34900
C  3.34900 55.73600 42.56600
C  4.13900 54.62000 42.19700
C  5.33900 55.15600 41.73800
C  2.01600 55.69000 43.29800
C  4.11700 53.24300 42.14700
O  3.28800 52.39200 42.32200
C  5.50100 52.88200 41.39400
C  5.07100 52.59100 39.95700
O  4.83200 53.42500 39.10500
O  4.99200 51.21300 39.83600
C  4.48800 50.71300 38.56100
H  11.34700 56.50800 40.23000
H  8.09700 61.94400 41.04900
H  2.94700 58.37800 42.97800
H  8.57300 52.63000 41.09900
H  10.29300 54.14500 39.35900
H  11.53300 54.64700 41.59000
H  11.67500 53.00700 41.14400
H  10.53800 53.39000 42.43500
H  8.89800 53.17500 38.27200
H  7.26400 53.03800 38.46000
H  7.37100 50.81600 38.52900
H  8.48000 50.78000 39.90200
H  12.65000 57.83100 39.48000
H  13.15600 59.27900 40.35100
H  12.59000 59.28000 38.66000
H  9.90800 63.04900 41.57400
H  9.55300 63.27700 39.76700
H  11.06400 63.81300 40.63000
H  5.09100 62.35700 41.41100
H  4.06100 60.88100 43.60800
H  7.16900 62.67900 43.08000
H  5.65900 62.68700 44.13600
H  5.85900 63.78200 42.84700
H  2.99200 60.79700 40.78200
H  2.91000 62.32500 41.60300
H  0.83700 61.47100 42.26400
H  1.73700 60.78400 43.60500
H  1.32700 59.82700 42.11600
H  1.67100 54.68100 43.52400
H  1.28900 56.22800 42.69100
H  2.06800 56.22200 44.24800
H  6.04900 52.10100 41.92200
H  3.44600 51.01000 38.44100
H  4.61600 49.63500 38.46900
H  5.02300 51.19800 37.74500

