158

Mg 47.12300 17.22300 28.31500
C  45.10900 17.13700 31.22100
C  49.48400 18.95600 30.21700
C  48.70500 17.71000 25.49300
C  44.53700 15.66000 26.57700
N  47.29400 17.89000 30.49100
C  46.37400 17.73500 31.45300
C  46.94600 18.06700 32.83800
C  48.24800 18.90300 32.45500
C  48.38500 18.58800 30.93800
C  48.26000 20.49900 32.76800
C  47.11300 16.86100 33.78100
C  46.88300 17.07600 35.29800
H  46.45400 18.49000 35.76000
N  48.94200 17.97200 27.96300
C  49.75800 18.66000 28.84700
C  50.95900 19.08400 28.09100
C  50.77400 18.75100 26.68700
C  49.43600 18.14400 26.62900
C  52.13600 19.70700 28.84800
C  51.69600 19.01900 25.51500
O  51.38800 18.70000 24.37400
C  53.03100 19.62700 25.78600
N  46.67300 16.74900 26.40400
C  47.45500 17.07600 25.34100
C  47.03300 16.46700 24.02100
C  45.97700 15.47600 24.52200
C  45.63000 16.08100 25.92600
C  46.60000 17.60700 23.04100
C  46.34000 13.97100 24.47500
C  45.58900 13.13700 23.43600
N  45.21500 16.60000 28.73400
C  44.28900 15.94500 27.89900
C  43.15800 15.61100 28.61900
C  43.41900 16.01200 29.94700
C  44.70900 16.69300 29.94600
C  41.94000 14.87100 28.01700
C  42.93100 15.97500 31.31900
O  41.91000 15.44200 31.77000
C  44.03800 16.70500 32.12000
C  43.46900 17.68600 33.11300
O  43.24400 18.90100 32.94000
O  43.01600 16.92000 34.14100
C  42.27300 17.66000 35.11600
H  50.21000 19.53700 30.79000
H  49.39400 17.82400 24.65400
H  43.79500 15.17100 25.94100
H  46.18300 18.67400 33.32400
H  49.15100 18.49900 32.91100
H  48.24500 21.07900 31.84400
H  49.07600 20.78400 33.43100
H  47.39100 20.69800 33.39500
H  48.12600 16.49600 33.61300
H  46.46500 16.02000 33.53600
H  47.84800 16.96800 35.79200
H  46.35000 16.27600 35.81300
H  52.03100 20.79200 28.81400
H  53.01300 19.27300 28.36700
H  52.22400 19.43200 29.89900
H  52.78500 20.44900 26.45800
H  53.49900 20.00900 24.87800
H  53.64600 18.86500 26.26400
H  47.94400 16.08100 23.56500
H  45.04700 15.61100 23.97100
H  47.40400 17.67700 22.30900
H  46.47600 18.56800 23.54100
H  45.65000 17.23600 22.65700
H  46.12800 13.66100 25.49900
H  47.42300 13.92200 24.36400
H  46.30700 12.38200 23.11800
H  45.35200 13.70200 22.53400
H  44.75500 12.56700 23.84600
H  41.99500 13.82500 28.31600
H  41.89500 14.91600 26.92800
H  41.00900 15.23100 28.45600
H  44.51900 15.97600 32.77200
H  41.23600 17.80500 34.81300
H  42.81300 18.57500 35.36100
H  42.29800 17.08000 36.03900
Mg 41.93400 41.45500 26.59300
C  41.02400 43.84300 29.02000
C  43.05600 39.42600 28.98000
C  42.66700 39.18800 24.09500
C  41.10200 43.75200 24.21200
N  42.18300 41.68700 28.77300
C  41.50600 42.60000 29.54300
C  41.55600 42.21700 31.06300
C  42.46900 40.90000 30.92800
C  42.58000 40.60600 29.47700
C  43.90300 41.16300 31.50000
C  40.18000 42.17000 31.67100
C  39.92700 41.10600 32.82500
H  39.25300 41.81800 34.01600
N  42.81200 39.61700 26.51800
C  43.13200 38.91300 27.62300
C  43.77400 37.64700 27.25900
C  43.50400 37.50600 25.81900
C  43.00400 38.82000 25.42300
C  44.30900 36.66100 28.25100
C  43.63100 36.32500 24.92100
O  43.35800 36.35200 23.71400
C  44.07600 34.91100 25.50100
N  42.01600 41.43300 24.50200
C  42.19700 40.36900 23.67300
C  42.06300 40.69400 22.16800
C  41.31900 42.10000 22.31500
C  41.49600 42.49300 23.80600
C  43.35400 40.65200 21.36400
C  39.86100 42.14600 21.79500
C  38.85200 41.18000 22.40100
N  41.16800 43.40100 26.55300
C  41.03400 44.28300 25.48000
C  40.55300 45.50500 26.02600
C  40.54800 45.44100 27.36400
C  40.98800 44.15100 27.65700
C  40.02200 46.72300 25.26400
C  40.20600 46.10500 28.62600
O  39.72900 47.22500 28.80400
C  40.49300 45.02200 29.77700
C  41.41200 45.44000 30.88900
O  42.55900 45.75300 30.77700
O  40.68700 45.52700 32.06600
C  41.50100 45.47100 33.32600
H  43.50800 38.82800 29.77400
H  42.91100 38.47500 23.30500
H  40.62600 44.49300 23.56600
H  41.97300 43.00200 31.69300
H  42.08000 40.05900 31.50200
H  44.20600 40.19600 31.90200
H  43.88000 41.90400 32.29900
H  44.66500 41.45800 30.77900
H  39.57500 41.77700 30.85300
H  39.74900 43.14500 31.89800
H  40.86700 40.64000 33.11900
H  39.28000 40.35900 32.36500
H  45.19700 36.25200 27.77000
H  43.66500 35.80000 28.42900
H  44.66800 37.25100 29.09500
H  45.15400 34.78000 25.41500
H  43.73700 34.06900 24.89700
H  43.68500 34.56800 26.45900
H  41.47000 39.86400 21.78400
H  41.89800 42.83600 21.75600
H  43.53200 41.63300 20.92300
H  43.43600 39.83600 20.64600
H  44.17300 40.53200 22.07400
H  39.86400 41.99700 20.71600
H  39.51300 43.11700 22.14800
H  38.07400 41.69800 22.96300
H  39.32200 40.51600 23.12700
H  38.45000 40.57100 21.59100
H  39.25000 47.17900 25.88300
H  39.61500 46.24400 24.37300
H  40.85100 47.40200 25.06500
H  39.49000 44.81600 30.15200
H  41.48900 44.46300 33.74100
H  41.11100 46.23600 33.99700
H  42.52900 45.67100 33.02300

