158

Mg 47.69300 45.96600 43.59800
C  44.30600 46.06800 42.75700
C  47.95200 43.04500 41.87300
C  51.06700 46.19900 44.00800
C  47.51800 49.46500 44.29100
N  46.26500 44.64300 42.57000
C  44.97200 44.93600 42.31600
C  44.23800 43.85900 41.54700
C  45.40000 42.78400 41.38600
C  46.62200 43.52500 41.90000
C  45.10100 41.43600 42.07300
C  43.71400 44.34000 40.15100
C  42.38100 43.77900 39.69300
H  42.48100 42.82800 38.51100
N  49.27300 44.78800 42.94300
C  49.13900 43.52700 42.38200
C  50.40600 42.85300 42.21500
C  51.35600 43.76700 42.79100
C  50.62000 45.00700 43.25900
C  50.72700 41.57600 41.42400
C  52.87500 43.56300 42.80400
O  53.36300 42.58000 42.26400
C  53.80400 44.46200 43.55700
N  49.08400 47.66000 43.87700
C  50.37100 47.37600 44.25400
C  50.98500 48.56400 45.06400
C  49.99900 49.74200 44.63800
C  48.81800 48.91700 44.24600
C  50.88500 48.22200 46.56800
C  50.51400 50.63600 43.54100
C  49.73400 51.95500 43.37800
N  46.19700 47.49300 43.82100
C  46.27500 48.78700 44.08200
C  44.94200 49.36300 44.02900
C  44.11400 48.36200 43.56500
C  44.94700 47.23500 43.32900
C  44.53100 50.68400 44.53700
C  42.78500 47.96000 43.35200
O  41.70900 48.60200 43.41300
C  42.80800 46.42300 42.80400
C  41.97300 45.55300 43.64900
O  41.05400 44.79700 43.25500
O  42.47200 45.44900 44.91300
C  41.92000 44.35900 45.78800
H  47.98100 42.07300 41.37700
H  52.02400 46.00700 44.49700
H  47.47700 50.53900 44.48800
H  43.46900 43.48700 42.22400
H  45.70400 42.54500 40.36600
H  45.87000 40.87800 41.53900
H  44.15100 40.99100 41.77300
H  45.41700 41.40100 43.11600
H  44.51800 44.09300 39.45800
H  43.59100 45.42300 40.16500
H  41.69400 44.61100 39.54200
H  42.01600 43.19900 40.54100
H  50.73000 41.55200 40.33400
H  49.98600 40.89100 41.83600
H  51.70600 41.20000 41.71900
H  53.62100 44.50800 44.63100
H  53.81600 45.46700 43.13600
H  54.82600 44.10400 43.43700
H  52.00300 48.77000 44.73400
H  49.64400 50.38000 45.44800
H  51.86100 47.93600 46.95900
H  50.35600 47.28000 46.71800
H  50.34800 48.95400 47.17200
H  50.54300 50.22200 42.53300
H  51.49900 50.89500 43.93000
H  50.39800 52.79500 43.58400
H  48.87400 52.08300 44.03700
H  49.25300 51.92500 42.40000
H  44.61100 51.47800 43.79500
H  45.11000 50.85500 45.44500
H  43.46700 50.66000 44.77300
H  42.40000 46.46800 41.79400
H  41.58500 43.50900 45.19400
H  41.18900 44.76300 46.48800
H  42.78700 43.93400 46.29300
Mg 40.54200 41.09000 27.18300
C  40.10000 43.53700 29.77100
C  41.96800 39.05300 29.66800
C  41.31300 38.88100 24.82500
C  39.89100 43.44600 24.81100
N  40.78000 41.20900 29.52000
C  40.40100 42.26900 30.25700
C  40.64200 41.90300 31.78600
C  41.33700 40.44400 31.76600
C  41.35200 40.19600 30.25400
C  42.67700 40.38900 32.54200
C  39.34700 41.99300 32.61600
C  39.27700 41.16200 33.95200
H  38.53800 41.75800 35.21500
N  41.55200 39.26700 27.24000
C  41.97400 38.57100 28.33000
C  42.47300 37.25200 27.93300
C  42.15000 37.12100 26.57700
C  41.60200 38.45400 26.16300
C  43.18800 36.33300 28.80800
C  42.25300 35.93500 25.65000
O  41.93800 36.01300 24.47500
C  42.88800 34.67500 26.13300
N  40.85600 41.23300 25.06300
C  40.93000 40.09900 24.32200
C  40.71400 40.41400 22.76400
C  40.18400 41.89800 22.81600
C  40.34800 42.20200 24.28400
C  41.93200 40.23700 21.82000
C  38.78000 42.14400 22.24700
C  37.64800 41.61600 23.09400
N  40.10700 43.14900 27.23800
C  39.84000 43.91300 26.17900
C  39.39800 45.21100 26.67000
C  39.54900 45.12300 28.07200
C  39.96500 43.85200 28.37700
C  38.97300 46.34100 25.76500
C  39.45700 45.86100 29.25500
O  38.99100 46.99000 29.46800
C  39.86100 44.87100 30.43000
C  41.04700 45.31000 31.10300
O  42.05700 45.67200 30.59100
O  40.85800 45.22600 32.44100
C  41.96500 45.57200 33.35100
H  42.54100 38.32500 30.24500
H  41.39300 38.16300 24.00500
H  39.67300 44.19100 24.04300
H  41.35100 42.63400 32.17400
H  40.66100 39.69300 32.17500
H  43.51700 39.99000 31.97500
H  42.41300 39.67100 33.31800
H  43.02900 41.29000 33.04600
H  38.61700 41.64300 31.88600
H  39.06600 43.02900 32.80700
H  40.25600 40.83500 34.30300
H  38.64500 40.28700 33.80200
H  42.42300 35.66000 29.19500
H  43.80600 36.85200 29.54100
H  43.96700 35.77500 28.28700
H  42.84600 33.90500 25.36200
H  42.39600 34.29900 27.03000
H  43.96800 34.81100 26.19400
H  39.97400 39.63000 22.60200
H  40.84200 42.65000 22.38000
H  42.04000 41.11800 21.18600
H  41.69700 39.37000 21.20200
H  42.82700 40.21400 22.44200
H  38.80800 41.72100 21.24300
H  38.73900 43.22100 22.08400
H  37.36000 42.37100 23.82500
H  37.95600 40.78000 23.72200
H  36.82500 41.26300 22.47200
H  39.03800 46.01500 24.72700
H  39.60300 47.21200 25.94800
H  37.97500 46.66600 26.05800
H  39.06900 44.92900 31.17600
H  41.99100 46.63800 33.57700
H  42.89600 45.34200 32.83300
H  41.79300 45.01600 34.27300

