158

Mg 30.26100 57.35700 39.52100
C  27.77300 55.13700 38.74300
C  32.67400 54.94200 38.82000
C  32.70400 59.67100 39.55500
C  27.82900 59.85100 40.29900
N  30.19100 55.27500 38.78500
C  29.07800 54.56900 38.54700
C  29.48600 53.16900 37.99700
C  31.02800 53.05800 38.18300
C  31.32200 54.50500 38.66500
C  31.48300 52.11300 39.23700
C  29.04000 52.98800 36.49900
C  29.33400 54.00000 35.49200
H  28.24000 54.52600 34.68300
N  32.44800 57.28400 39.20400
C  33.20200 56.23500 38.99000
C  34.53200 56.61900 38.86300
C  34.59800 57.99800 39.16100
C  33.26300 58.36600 39.36400
C  35.60000 55.63200 38.62900
C  35.83900 58.80500 39.30300
O  36.97100 58.33800 39.09600
C  35.91800 60.15200 39.73100
N  30.20100 59.46400 39.66800
C  31.35700 60.15600 39.78400
C  31.07800 61.60200 40.24300
C  29.66000 61.57200 40.64000
C  29.11000 60.25800 39.97200
C  32.08500 62.17700 41.26800
C  28.89600 62.87600 40.20300
C  28.15800 63.63400 41.31300
N  28.16500 57.49700 39.67400
C  27.34100 58.53200 40.02000
C  25.98300 58.06600 39.87200
C  26.13600 56.74400 39.32500
C  27.52300 56.45600 39.21600
C  24.87600 58.92200 40.08900
C  25.33100 55.60200 38.91800
O  24.17600 55.40000 38.93700
C  26.39000 54.55800 38.42900
C  26.21100 53.23600 39.11300
O  26.65800 52.98900 40.23300
O  25.29700 52.52300 38.35100
C  24.97500 51.17300 38.86600
H  33.33800 54.09300 38.64900
H  33.42900 60.48600 39.62400
H  27.08300 60.58700 40.60900
H  28.86100 52.43700 38.50800
H  31.57000 52.92400 37.24700
H  30.57600 51.68500 39.66500
H  32.12800 52.52800 40.01200
H  31.95500 51.27100 38.73100
H  27.98000 52.74100 36.56400
H  29.45700 52.04700 36.14200
H  30.01400 53.48200 34.81500
H  29.89600 54.85500 35.86800
H  36.10500 55.99100 37.73200
H  35.26900 54.60600 38.46900
H  36.28900 55.67000 39.47300
H  36.94700 60.40700 39.98300
H  35.22800 60.41000 40.53500
H  35.54000 60.84100 38.97500
H  31.12400 62.15600 39.30500
H  29.56800 61.39600 41.71200
H  32.90900 62.77900 40.88600
H  32.50300 61.28800 41.74100
H  31.60600 62.73400 42.07400
H  28.21500 62.50000 39.43900
H  29.62300 63.53400 39.72800
H  28.75100 64.51000 41.57700
H  27.99700 63.09300 42.24600
H  27.28200 64.08900 40.85200
H  24.53600 59.33400 39.13900
H  25.18800 59.74400 40.73400
H  24.03500 58.40900 40.55500
H  26.34900 54.39500 37.35100
H  24.76400 50.40000 38.12600
H  24.05000 51.40100 39.39500
H  25.65400 50.79600 39.63200
Mg 1.71600 41.58200 25.24500
C  2.75100 41.62400 28.62900
C  -1.40100 40.49300 26.41700
C  1.00700 40.86600 22.09100
C  5.10500 42.34800 24.36400
N  0.82300 40.99500 27.28300
C  1.40000 41.21200 28.55500
C  0.32200 41.19100 29.61300
C  -0.87900 40.59700 28.85500
C  -0.47000 40.72100 27.38800
C  -1.27700 39.12300 29.38200
C  -0.03000 42.52400 30.36800
C  -0.21400 42.36100 31.85000
H  -1.51900 41.67700 32.32600
N  0.03100 40.82700 24.34100
C  -1.17500 40.54000 25.00700
C  -2.06700 40.00300 23.98500
C  -1.36600 40.05800 22.73500
C  -0.04200 40.62200 23.02200
C  -3.54500 39.44800 24.28300
C  -1.85800 39.48100 21.43500
O  -1.05900 39.19400 20.57600
C  -3.22500 39.05800 21.16900
N  2.92700 41.62800 23.60100
C  2.26000 41.44600 22.35500
C  3.13300 41.93200 21.15100
C  4.44100 42.53100 21.92700
C  4.14800 42.13300 23.37100
C  3.31900 40.94200 20.02800
C  4.47600 44.02300 21.76200
C  4.87300 44.45700 20.34800
N  3.58400 42.04700 26.22100
C  4.87300 42.29700 25.76300
C  5.70000 42.63600 26.89300
C  4.90800 42.44900 28.05200
C  3.60100 42.07000 27.57200
C  7.17400 42.93600 26.95400
C  4.91000 42.35800 29.53000
O  5.81700 42.56700 30.30900
C  3.55300 41.88500 29.97500
C  3.85000 40.63700 30.90300
O  4.20500 39.49500 30.53900
O  3.51500 41.01900 32.26100
C  3.64200 39.98200 33.21200
H  -2.42800 40.30400 26.73900
H  0.67900 40.78200 21.05300
H  6.09400 42.65000 24.01400
H  0.73500 40.45800 30.30700
H  -1.83100 41.12500 28.91500
H  -0.85700 38.86600 30.35400
H  -0.88300 38.36200 28.70700
H  -2.35300 38.97300 29.28900
H  -0.92900 42.95100 29.92300
H  0.71400 43.31200 30.25000
H  -0.11000 43.28400 32.42000
H  0.60200 41.72800 32.19800
H  -4.23600 39.66900 23.46900
H  -3.99500 39.77500 25.22000
H  -3.59400 38.36100 24.33700
H  -3.26600 38.34500 20.34500
H  -3.79500 39.96600 20.97000
H  -3.57400 38.43300 21.99000
H  2.42900 42.65100 20.73400
H  5.37700 42.08700 21.58900
H  3.16200 39.90400 20.32200
H  4.33200 40.86700 19.63300
H  2.57800 41.17500 19.26300
H  5.18100 44.52400 22.42500
H  3.49800 44.37700 22.08900
H  4.83700 43.60700 19.66600
H  5.89500 44.83100 20.40700
H  4.14200 45.18100 19.98800
H  7.73100 42.62200 26.07100
H  7.60100 42.55600 27.88200
H  7.25600 44.01200 27.10800
H  3.15700 42.77600 30.46200
H  4.57500 39.43900 33.06000
H  2.81300 39.29100 33.06200
H  3.48600 40.39500 34.20800

