158

Mg 25.72300 0.09300 29.29900
C  27.47600 -0.20300 32.33700
C  22.91600 0.46300 31.02000
C  24.21800 0.35300 26.38000
C  28.65700 -0.85600 27.67000
N  25.35500 0.26900 31.44800
C  26.17400 0.15500 32.53800
C  25.44200 0.49200 33.81900
C  23.90200 0.63200 33.38300
C  24.06000 0.41100 31.87000
C  22.84800 -0.31600 34.15600
C  25.94800 1.82600 34.43300
C  27.03600 1.79300 35.52500
H  26.88800 2.53100 36.73400
N  23.81200 0.36500 28.79300
C  22.81900 0.69200 29.62700
C  21.59700 0.91200 28.87300
C  21.95600 0.81000 27.52100
C  23.41700 0.59100 27.51900
C  20.24400 0.87100 29.54900
C  20.99500 0.85700 26.28200
O  21.32300 0.79100 25.11000
C  19.51400 1.08800 26.43900
N  26.31700 -0.30100 27.37100
C  25.55200 0.02700 26.29400
C  26.20900 -0.24600 24.94900
C  27.66500 -0.58300 25.40800
C  27.54100 -0.65700 26.89200
C  25.59300 -1.40900 24.02400
C  28.75600 0.36700 24.81300
C  28.88600 1.68200 25.58900
N  27.73700 -0.50900 29.82700
C  28.80100 -0.77700 29.10800
C  29.98500 -1.02600 29.87100
C  29.55100 -0.86100 31.20600
C  28.16600 -0.51600 31.11800
C  31.38300 -1.34500 29.39800
C  29.85800 -0.96100 32.59800
O  30.89200 -1.33300 33.11600
C  28.58100 -0.48400 33.33800
C  28.22000 -1.52300 34.33700
O  27.36800 -2.44400 34.16500
O  28.88900 -1.35300 35.51600
C  28.51900 -2.40800 36.52600
H  21.92700 0.50000 31.48200
H  23.76000 0.37700 25.38900
H  29.49600 -1.11400 27.02000
H  25.48000 -0.35200 34.50800
H  23.54300 1.65900 33.44300
H  22.01500 0.34200 34.40500
H  23.13800 -0.63500 35.15700
H  22.44600 -1.11700 33.53500
H  25.14200 2.39500 34.89700
H  26.19500 2.49200 33.60600
H  27.96300 2.05600 35.01500
H  27.30200 0.75000 35.69600
H  20.30100 1.55600 30.39500
H  20.14100 -0.10600 30.02200
H  19.31400 1.12900 29.04300
H  18.92300 1.02800 25.52500
H  19.38700 2.15000 26.65100
H  19.14000 0.46100 27.24800
H  26.13800 0.66100 24.34800
H  28.02200 -1.58400 25.16400
H  26.13800 -2.30700 24.31500
H  25.66500 -1.22600 22.95200
H  24.55500 -1.41900 24.35800
H  28.52500 0.57700 23.76900
H  29.70400 -0.17100 24.81100
H  28.41300 1.64100 26.57000
H  28.47100 2.50000 25.00000
H  29.93200 1.97000 25.69700
H  31.55100 -0.82000 28.45800
H  31.41000 -2.42200 29.23700
H  32.03400 -0.93000 30.16700
H  28.83400 0.38400 33.94700
H  29.15100 -2.17300 37.38300
H  28.86200 -3.40000 36.23200
H  27.48900 -2.45200 36.88000
Mg -4.80400 25.60100 26.12300
C  -3.31500 27.01100 28.87900
C  -6.51000 23.34000 28.27400
C  -6.00700 23.99000 23.53300
C  -2.76900 27.63600 24.02400
N  -4.94100 25.28900 28.29200
C  -4.24700 26.04200 29.25000
C  -4.71900 25.69800 30.72500
C  -5.68200 24.42700 30.39200
C  -5.70500 24.36200 28.87900
C  -5.06300 23.15900 31.03400
C  -5.46400 26.95000 31.28500
C  -5.25400 27.17300 32.73100
H  -5.18500 25.99200 33.68300
N  -6.14500 23.90100 25.95800
C  -6.74000 23.14900 26.95200
C  -7.68500 22.28700 26.34100
C  -7.65200 22.51700 24.92100
C  -6.62100 23.52000 24.72100
C  -8.49400 21.33200 27.23600
C  -8.47200 21.91200 23.88500
O  -8.50700 22.34800 22.72600
C  -9.56200 20.89400 24.24800
N  -4.48400 25.85400 24.12200
C  -5.12000 25.00600 23.29300
C  -4.94000 25.45500 21.77400
C  -3.89600 26.63400 21.95100
C  -3.65400 26.67100 23.42800
C  -4.40500 24.36100 20.79100
C  -4.27400 28.01900 21.33400
C  -3.09000 28.73000 20.70200
N  -3.16700 26.86100 26.31400
C  -2.54400 27.72900 25.43000
C  -1.53800 28.54100 26.19200
C  -1.79000 28.32700 27.54800
C  -2.81600 27.28800 27.57000
C  -0.49000 29.50400 25.61400
C  -1.37600 28.68700 28.86500
O  -0.50800 29.48400 29.25800
C  -2.34100 27.84300 29.80000
C  -1.47300 27.05500 30.71500
O  -1.14200 25.89700 30.61600
O  -1.20600 27.92900 31.73200
C  -0.75000 27.39000 32.93400
H  -6.93800 22.63200 28.98700
H  -6.40100 23.65200 22.57200
H  -2.20400 28.33200 23.40000
H  -3.83200 25.48100 31.32100
H  -6.72300 24.53300 30.70000
H  -3.97600 23.16800 30.95000
H  -5.60400 22.28600 30.67100
H  -5.25700 23.22300 32.10500
H  -6.53700 26.83600 31.12600
H  -5.08600 27.81200 30.73600
H  -5.97100 27.86200 33.17700
H  -4.26100 27.59300 32.88800
H  -8.13600 20.30400 27.18900
H  -9.55900 21.20600 27.04600
H  -8.32100 21.63600 28.26900
H  -10.21500 20.51800 23.46100
H  -10.20800 21.43100 24.94200
H  -9.08600 20.01300 24.67700
H  -5.94800 25.71900 21.45400
H  -3.01400 26.39400 21.35600
H  -4.00200 23.50100 21.32600
H  -3.61000 24.70000 20.12800
H  -5.12600 24.09700 20.01600
H  -4.73000 28.69200 22.06000
H  -5.08600 27.81900 20.63500
H  -3.39800 29.05200 19.70700
H  -2.21700 28.09000 20.57600
H  -2.98400 29.64700 21.28100
H  0.08300 30.01600 26.38700
H  -1.18400 30.24400 25.21600
H  0.27000 29.18400 24.90100
H  -2.89900 28.65200 30.27100
H  0.33600 27.37500 33.03100
H  -1.16200 26.39600 33.10800
H  -1.10300 27.94600 33.80200

