158

Mg 17.92700 -1.78600 27.70700
C  16.92000 0.28700 30.33300
C  19.98200 -3.55500 29.72400
C  18.94000 -3.55700 24.89200
C  16.26100 0.44800 25.60600
N  18.49500 -1.51800 29.74400
C  17.82900 -0.80700 30.70700
C  18.23000 -1.17300 32.14300
C  19.40600 -2.22900 31.88800
C  19.37900 -2.42300 30.35400
C  20.75900 -1.80700 32.32500
C  17.02700 -1.62500 32.97000
C  16.92500 -1.25200 34.46800
H  18.11000 -0.49100 35.02000
N  19.21400 -3.42600 27.37600
C  19.85000 -4.09200 28.43000
C  20.44300 -5.29000 27.86200
C  20.23500 -5.30300 26.43000
C  19.41200 -4.04700 26.18000
C  21.20700 -6.23300 28.68700
C  20.72600 -6.22700 25.28300
O  20.42800 -6.03400 24.09300
C  21.59300 -7.35100 25.58000
N  17.74500 -1.48100 25.52900
C  18.18200 -2.39000 24.61800
C  17.91600 -1.94600 23.12300
C  16.84300 -0.81100 23.43700
C  16.98200 -0.54900 24.93000
C  19.18400 -1.45000 22.41400
C  15.45700 -1.30100 23.15500
C  14.50300 -0.28300 22.47200
N  16.84600 -0.08500 27.92500
C  16.13300 0.65600 27.01700
C  15.40500 1.77600 27.63100
C  15.73000 1.65700 28.97900
C  16.55800 0.51300 29.06600
C  14.58900 2.82300 27.03000
C  15.60800 2.26100 30.30300
O  15.01500 3.29700 30.67400
C  16.32700 1.32200 31.28700
C  17.31800 2.03200 32.11500
O  18.54500 2.18900 31.89900
O  16.64500 2.67000 33.13400
C  17.29400 3.53600 34.19400
H  20.50100 -4.14200 30.48500
H  19.28600 -4.08200 23.99900
H  15.62700 1.11300 25.01500
H  18.71900 -0.35800 32.67800
H  19.13100 -3.21100 32.27200
H  20.76200 -0.81600 32.77900
H  21.41800 -1.71800 31.46200
H  21.19200 -2.46700 33.07700
H  16.95800 -2.71000 32.89100
H  16.08100 -1.36200 32.49600
H  16.74200 -2.16600 35.03200
H  15.98600 -0.72000 34.62400
H  22.25600 -6.30500 28.40000
H  20.72600 -7.20300 28.56100
H  21.20800 -5.98200 29.74800
H  22.04500 -7.77700 24.68500
H  20.87400 -8.05800 25.99400
H  22.27200 -7.27500 26.42900
H  17.47600 -2.75100 22.53300
H  17.10600 0.03000 22.79600
H  19.14700 -2.01100 21.48100
H  20.05900 -1.72000 23.00500
H  19.06500 -0.40600 22.12500
H  14.92000 -1.62100 24.04800
H  15.38400 -2.14300 22.46700
H  14.54300 -0.27600 21.38300
H  14.47800 0.75300 22.81100
H  13.49600 -0.66800 22.62600
H  14.38300 2.50400 26.00900
H  15.19600 3.72700 26.99500
H  13.75300 3.14800 27.65000
H  15.57500 0.79100 31.87000
H  17.13300 4.58400 33.94000
H  18.37700 3.41100 34.17400
H  16.98300 3.32100 35.21700
Mg 47.60800 15.97700 28.61800
C  45.34800 15.61300 31.30700
C  49.33400 18.16300 30.52000
C  49.50500 16.70800 25.87900
C  45.50000 13.99900 26.59400
N  47.36000 16.67000 30.65500
C  46.40600 16.43400 31.68400
C  46.80200 17.06800 32.97000
C  47.88900 18.07500 32.55300
C  48.19800 17.62800 31.13100
C  47.49500 19.61300 32.69000
C  47.26400 16.16800 34.17100
C  47.57300 16.98300 35.48500
H  48.60600 16.37000 36.47800
N  49.20000 17.24300 28.28300
C  49.81200 18.01500 29.22200
C  50.97000 18.79700 28.63800
C  51.04400 18.35700 27.24800
C  49.88900 17.36900 27.06100
C  51.78000 19.80300 29.42500
C  51.94700 18.81800 26.09900
O  51.96400 18.24000 25.00500
C  52.67000 20.06000 26.22800
N  47.50800 15.38100 26.57800
C  48.43600 15.78700 25.63600
C  48.30700 14.99200 24.29900
C  47.22000 13.91800 24.67800
C  46.74100 14.43600 26.06100
C  47.92000 15.96900 23.10600
C  47.74000 12.47000 24.64000
C  48.88900 12.04300 23.71700
N  45.82600 15.07400 28.85200
C  45.00600 14.38300 27.92700
C  43.77400 13.96800 28.56100
C  43.91900 14.36800 29.87500
C  45.11600 15.03600 30.02600
C  42.62600 13.24300 28.02600
C  43.24800 14.41100 31.15900
O  42.12700 14.00700 31.49500
C  44.19700 15.13700 32.21400
C  43.47000 16.19300 32.86800
O  42.73300 16.99700 32.30300
O  43.86000 16.28800 34.19400
C  43.12200 17.36000 34.92000
H  49.92100 18.89200 31.08300
H  50.13400 16.72100 24.98600
H  44.95100 13.31000 25.94900
H  46.00300 17.67900 33.38900
H  48.81100 17.98200 33.12700
H  46.44800 19.81400 32.91900
H  47.77600 20.24800 31.85100
H  48.05900 19.95400 33.55800
H  48.24600 15.80900 33.86500
H  46.63200 15.32500 34.45200
H  46.61300 17.02700 36.00000
H  47.95400 17.99100 35.32100
H  51.48300 19.97700 30.45900
H  51.82900 20.85300 29.13700
H  52.82400 19.49200 29.46400
H  52.00700 20.90500 26.41300
H  53.09200 20.28100 25.24700
H  53.56100 19.94300 26.84500
H  49.31200 14.62600 24.09000
H  46.36400 14.00000 24.00800
H  46.95900 15.68000 22.67900
H  48.69300 15.93700 22.33900
H  47.87200 17.04200 23.29200
H  46.90400 11.79600 24.45800
H  48.15300 12.25100 25.62400
H  48.58800 11.17200 23.13400
H  49.76000 11.72500 24.28800
H  49.33200 12.78300 23.05000
H  42.96600 12.82000 27.08100
H  41.81500 13.96000 27.89200
H  42.19200 12.52000 28.71700
H  44.58000 14.44500 32.96400
H  43.55600 17.29400 35.91800
H  42.03700 17.32000 35.01600
H  43.36400 18.33900 34.50500

