158

Mg 47.87100 24.83200 29.32300
C  48.38000 27.46000 31.80500
C  46.64500 22.89100 31.96300
C  47.46500 22.51600 27.13100
C  49.45400 26.93300 27.01000
N  47.69500 25.09700 31.67400
C  47.82600 26.29800 32.43000
C  47.29800 26.25200 33.87900
C  46.87500 24.70500 33.90000
C  47.00200 24.17400 32.42700
C  47.48500 23.77900 34.98700
C  46.10000 27.23400 34.23500
C  46.19700 27.83100 35.65700
H  47.05900 27.27500 36.75400
N  47.16400 22.91200 29.53400
C  46.61100 22.29800 30.63000
C  46.10900 21.04000 30.20100
C  46.26300 20.94500 28.79800
C  46.98900 22.14800 28.42900
C  45.61400 20.02100 31.16800
C  45.78900 19.85100 27.84800
O  45.84100 19.90900 26.64100
C  45.06600 18.57700 28.29200
N  48.69100 24.51500 27.43600
C  48.32500 23.48300 26.67200
C  48.78200 23.58400 25.20300
C  49.13900 25.12100 25.22200
C  49.12000 25.59600 26.66000
C  49.92900 22.65400 24.77900
C  48.29200 25.94900 24.17000
C  46.81200 26.01400 24.52400
N  48.79500 26.78000 29.32100
C  49.36900 27.46300 28.32500
C  49.79600 28.74400 28.74300
C  49.36100 28.84600 30.06300
C  48.80500 27.59200 30.42200
C  50.52500 29.79200 27.91700
C  49.23300 29.71400 31.20800
O  49.47900 30.87800 31.29000
C  48.59200 28.85500 32.35000
C  49.61800 28.90600 33.46700
O  50.74800 28.45800 33.35200
O  49.17600 29.47800 34.58700
C  50.24600 29.70400 35.61100
H  46.24800 22.33200 32.81400
H  47.34800 21.75500 26.35600
H  49.84400 27.43100 26.12000
H  48.10300 26.33700 34.60800
H  45.82800 24.58100 34.17600
H  48.45600 23.33400 34.76700
H  46.68100 23.06500 35.16500
H  47.49700 24.41700 35.87000
H  45.09500 26.81300 34.28100
H  46.13500 28.11100 33.59000
H  45.16300 27.97100 35.97200
H  46.52500 28.86500 35.55200
H  45.38100 20.56600 32.08300
H  46.30400 19.18200 31.25600
H  44.64400 19.56400 30.97400
H  45.82900 18.13900 28.93500
H  44.78100 17.95100 27.44700
H  44.24300 19.05800 28.82000
H  47.95900 23.45500 24.50000
H  50.15400 25.29900 24.86400
H  49.62700 22.12000 23.87800
H  50.12700 21.91900 25.55900
H  50.84300 23.17600 24.49800
H  48.44400 25.32700 23.28800
H  48.62700 26.97700 24.03300
H  46.72400 26.10700 25.60600
H  46.23700 25.22900 24.03100
H  46.44800 26.95900 24.12100
H  51.17400 30.33200 28.60600
H  49.88000 30.54900 27.47100
H  51.18500 29.30300 27.20100
H  47.72000 29.36500 32.75900
H  50.57000 28.80300 36.13200
H  50.04700 30.46700 36.36300
H  51.10200 30.16400 35.11700
Mg 26.90100 50.66300 27.01500
C  24.80000 51.77400 29.60100
C  29.23300 49.78200 29.36400
C  29.09400 49.85000 24.51600
C  24.56300 51.78100 24.68900
N  27.07100 50.89000 29.26000
C  25.97700 51.24100 30.09600
C  26.32800 50.86700 31.55600
C  27.86000 50.48800 31.51300
C  28.11400 50.36900 29.98400
C  28.80800 51.43200 32.16600
C  25.34200 49.77100 32.21400
C  24.05700 50.42700 33.02600
H  23.69500 49.80600 34.42600
N  28.93600 49.84900 26.96900
C  29.68300 49.46800 28.07200
C  30.87300 48.81700 27.58600
C  30.84100 48.88400 26.15100
C  29.58600 49.59900 25.82000
C  31.98900 48.32800 28.55600
C  31.83900 48.46100 25.08500
O  31.65600 48.57800 23.88000
C  33.17000 48.01800 25.46400
N  26.86000 50.86600 24.88600
C  27.83300 50.44300 24.06700
C  27.42500 50.38800 22.57100
C  25.90000 50.95500 22.65500
C  25.73000 51.25600 24.13500
C  28.37800 51.25100 21.69800
C  24.82900 49.98600 22.18600
C  24.20300 48.95000 23.09200
N  25.15000 51.78200 27.05900
C  24.32500 52.12200 26.04200
C  23.16400 52.88700 26.53700
C  23.33600 52.73000 27.93900
C  24.51600 52.02300 28.20700
C  22.12200 53.63400 25.74600
C  22.74200 52.99100 29.18200
O  21.68400 53.59700 29.40600
C  23.68200 52.44200 30.34400
C  24.21400 53.65300 31.12500
O  25.04800 54.48300 30.79900
O  23.47600 53.75400 32.30100
C  23.90700 54.70500 33.26800
H  29.85900 49.31500 30.12700
H  29.70400 49.55900 23.65900
H  23.79700 52.00900 23.94500
H  26.25300 51.80600 32.10500
H  28.05300 49.52400 31.98500
H  28.64900 51.19400 33.21800
H  28.53300 52.45900 31.92500
H  29.84000 51.37700 31.82100
H  25.87400 49.09400 32.88100
H  24.93500 49.17000 31.40100
H  23.20800 49.97900 32.51000
H  24.10100 51.51700 33.03700
H  32.14400 47.25300 28.64900
H  31.89500 48.72500 29.56700
H  32.94000 48.67500 28.15200
H  33.70500 48.94600 25.66500
H  33.58600 47.59200 24.55100
H  33.12800 47.26900 26.25400
H  27.60700 49.33700 22.34400
H  25.79200 51.95500 22.23600
H  29.10600 50.65500 21.14700
H  28.92800 51.96300 22.31300
H  27.91800 51.82900 20.89700
H  25.14200 49.45100 21.28900
H  23.96200 50.54300 21.82800
H  24.60200 48.97900 24.10600
H  24.46100 47.95900 22.71900
H  23.12200 49.07900 23.13700
H  22.25500 53.52100 24.67000
H  22.11700 54.69100 26.01200
H  21.16700 53.18500 26.01700
H  23.18600 51.69300 30.96100
H  24.60700 54.26700 33.97900
H  23.05600 54.98700 33.88700
H  24.32500 55.62400 32.85600

