158

Mg 45.69200 5.26600 47.33500
C  43.43300 7.88700 46.47700
C  42.95800 3.05900 46.91200
C  47.73100 2.64900 47.21200
C  48.28300 7.55300 47.45400
N  43.45900 5.45300 46.40900
C  42.82300 6.67500 46.23600
C  41.35100 6.46400 45.88500
C  41.17500 4.91400 46.26800
C  42.57700 4.41600 46.59200
C  40.27800 4.62700 47.41800
C  40.99400 6.78300 44.32800
C  39.97800 7.86000 44.02600
H  40.39000 8.83300 42.90900
N  45.43400 3.14900 47.09200
C  44.19800 2.45900 47.03900
C  44.49100 1.07200 46.92700
C  45.86600 0.81200 46.90600
C  46.43900 2.23900 47.00800
C  43.33700 0.06700 46.89600
C  46.51100 -0.60600 46.71900
O  45.80500 -1.58500 46.54200
C  48.01300 -0.69100 46.64200
N  47.72900 5.17100 47.22200
C  48.30000 3.95900 47.37200
C  49.87200 4.09700 47.52200
C  50.05400 5.65900 47.77300
C  48.59900 6.17100 47.49300
C  50.51200 3.24600 48.67700
C  51.08400 6.33700 46.83400
C  51.93700 7.62100 47.30800
N  45.86500 7.30000 47.14200
C  47.00900 8.12200 47.14400
C  46.56500 9.50200 47.00800
C  45.20300 9.43900 46.82200
C  44.78500 8.08400 46.80900
C  47.52500 10.59900 46.98500
C  44.03800 10.25900 46.62000
O  43.94500 11.47600 46.58000
C  42.86000 9.33400 46.28200
C  41.72500 9.55900 47.24000
O  41.48900 8.97300 48.29500
O  40.88000 10.44800 46.69400
C  39.56000 10.67100 47.45100
H  42.09800 2.39200 46.99300
H  48.45500 1.83300 47.26300
H  49.10900 8.21000 47.73100
H  40.81100 7.10800 46.57900
H  40.83300 4.32100 45.41900
H  40.49300 3.65800 47.87000
H  39.22400 4.78400 47.19000
H  40.42800 5.31100 48.25400
H  40.49500 5.91000 43.90700
H  41.92200 6.99500 43.79800
H  39.99800 8.47000 44.92900
H  39.04200 7.36400 43.77000
H  43.53400 -0.79700 47.53000
H  43.27700 -0.35700 45.89400
H  42.30500 0.38200 47.05300
H  48.54200 -0.39200 47.54700
H  48.32400 0.00100 45.85900
H  48.21900 -1.73900 46.42400
H  50.37700 3.95600 46.56700
H  50.32300 5.87700 48.80700
H  51.34600 2.64100 48.32200
H  49.72100 2.67700 49.16700
H  50.92300 3.71800 49.57000
H  50.60300 6.63700 45.90400
H  51.78300 5.51500 46.68100
H  52.79800 7.23900 47.85600
H  51.41600 8.18500 48.08100
H  52.08500 8.33200 46.49400
H  48.01500 10.77600 47.94300
H  46.90200 11.37600 46.54300
H  48.18900 10.15600 46.24200
H  42.52000 9.46600 45.25500
H  39.68400 11.33700 48.30500
H  39.07800 9.77100 47.83500
H  38.86300 11.08600 46.72300
Mg 1.97800 41.61800 25.18500
C  2.52500 42.15600 28.52500
C  -0.95000 40.01000 25.92700
C  1.46100 41.30000 21.88400
C  5.19600 42.73400 24.56900
N  0.75100 41.30200 27.05300
C  1.26300 41.56000 28.26200
C  0.26000 41.17400 29.32700
C  -0.74000 40.17200 28.58000
C  -0.36600 40.54000 27.11300
C  -0.72100 38.68900 28.98200
C  -0.49100 42.32400 29.97500
C  -0.32600 42.64700 31.46400
H  -0.86800 41.64500 32.47400
N  0.34700 40.84100 24.08400
C  -0.72300 40.18600 24.54400
C  -1.57200 39.79800 23.42900
C  -0.94200 40.26300 22.20000
C  0.32300 40.86600 22.65100
C  -2.95000 39.27600 23.69100
C  -1.57200 40.33500 20.83300
O  -1.01100 40.81400 19.83900
C  -2.88900 39.72500 20.62300
N  3.25100 41.72700 23.50300
C  2.72200 41.73100 22.28000
C  3.77200 42.17300 21.24300
C  4.92400 42.78300 22.09600
C  4.40800 42.44600 23.45800
C  4.14500 41.05800 20.28200
C  5.04400 44.34100 21.73000
C  3.72600 45.24900 21.89900
N  3.63300 42.19500 26.29600
C  4.85600 42.67000 25.86600
C  5.68400 43.00600 27.09100
C  4.73300 42.88100 28.10600
C  3.50700 42.47400 27.58500
C  7.10300 43.52900 27.08800
C  4.57900 43.09400 29.53200
O  5.32100 43.56500 30.38900
C  3.13100 42.56700 29.86000
C  3.34900 41.27500 30.61000
O  4.05400 40.39300 30.27400
O  2.66500 41.29900 31.82000
C  2.83500 40.13000 32.71400
H  -1.87200 39.47400 26.16100
H  1.27200 41.29800 20.80800
H  6.14200 43.21200 24.30400
H  0.76700 40.61900 30.11600
H  -1.75200 40.56900 28.66500
H  0.00900 38.52200 29.77400
H  -0.46800 38.02700 28.15400
H  -1.67700 38.27200 29.29900
H  -1.56600 42.25800 29.80700
H  -0.24400 43.18400 29.35300
H  -0.77800 43.62600 31.62700
H  0.74500 42.64100 31.66300
H  -3.68100 40.03500 23.40900
H  -3.10300 38.98300 24.72900
H  -3.09200 38.40900 23.04600
H  -3.64100 40.08500 21.32500
H  -2.70600 38.65300 20.69900
H  -3.17000 39.88000 19.58200
H  3.27500 42.96900 20.68800
H  5.87600 42.32000 21.83500
H  5.08500 41.08800 19.73100
H  3.35000 40.91300 19.55000
H  4.22900 40.12900 20.84500
H  5.57100 44.50300 20.79000
H  5.77200 44.70200 22.45600
H  3.88000 45.98200 22.69100
H  2.85800 44.60700 22.05000
H  3.58000 45.83100 20.98900
H  7.82800 42.71600 27.12800
H  7.10400 44.16800 27.97100
H  7.30300 44.13400 26.20400
H  2.68700 43.33400 30.49500
H  2.88000 39.14800 32.24200
H  1.95000 40.06000 33.34700
H  3.70400 40.24100 33.36300

