158

Mg 41.50200 41.35900 25.88200
C  40.64500 43.84700 28.33900
C  42.32100 39.27900 28.57400
C  42.36400 39.14500 23.66800
C  40.83100 43.68700 23.43700
N  41.45700 41.53600 28.08600
C  40.99700 42.55800 28.85600
C  40.83600 42.27600 30.38900
C  41.64500 40.90000 30.45000
C  41.78100 40.50900 28.95800
C  43.05300 40.90000 31.13700
C  39.35000 42.08800 30.77500
C  38.95000 42.88100 32.01500
H  38.76500 42.20800 33.43400
N  42.20800 39.42400 26.07300
C  42.50400 38.73400 27.26000
C  42.88700 37.38300 26.86300
C  42.92300 37.35900 25.47300
C  42.52300 38.65200 25.05400
C  43.23500 36.39100 27.93300
C  43.38900 36.26100 24.51700
O  43.29600 36.32000 23.30700
C  44.08700 35.04300 25.01100
N  41.75900 41.48800 23.88100
C  42.05100 40.36800 23.11000
C  41.89400 40.60600 21.62700
C  41.04300 41.94200 21.62900
C  41.24900 42.44100 23.04900
C  43.25100 40.68000 20.87300
C  39.58500 41.67500 21.20500
C  38.78700 40.88500 22.27000
N  40.96900 43.37700 25.85900
C  40.73000 44.19000 24.77200
C  40.47400 45.53000 25.16500
C  40.41300 45.45200 26.58900
C  40.66700 44.10100 26.91100
C  40.28700 46.75700 24.31500
C  40.16300 46.20000 27.84800
O  39.79900 47.35100 28.01900
C  40.37400 45.12600 29.00000
C  41.41400 45.60200 29.91400
O  42.63800 45.37700 29.84400
O  40.82500 46.21100 30.98500
C  41.64700 46.63200 32.08400
H  42.29700 38.77000 29.54000
H  42.55300 38.40700 22.88600
H  40.47800 44.41200 22.70100
H  41.28900 43.07400 30.97700
H  41.15200 40.09200 30.99000
H  43.32400 41.90900 31.44800
H  43.84900 40.55900 30.47500
H  43.06100 40.23600 32.00100
H  39.02100 41.05800 30.91400
H  38.79500 42.30600 29.86300
H  37.99300 43.39000 31.90400
H  39.67200 43.67200 32.21800
H  42.99800 36.64500 28.96600
H  44.28800 36.14000 28.06700
H  42.80100 35.40100 27.79200
H  45.05700 35.36500 25.39100
H  44.31200 34.40200 24.15900
H  43.48900 34.40300 25.65900
H  41.29300 39.81000 21.18600
H  41.53100 42.75100 21.08500
H  43.51700 41.72800 20.73400
H  43.16800 40.05700 19.98200
H  44.06100 40.25700 21.46900
H  39.58000 41.21900 20.21500
H  39.04600 42.61600 21.09500
H  38.00600 41.53200 22.66900
H  39.33400 40.48900 23.12700
H  38.29000 40.06600 21.75000
H  40.81400 47.57100 24.81200
H  39.27400 47.15500 24.25400
H  40.77400 46.60400 23.35200
H  39.43300 45.07800 29.54900
H  41.93100 47.68400 32.09000
H  42.57500 46.07700 32.22200
H  41.15400 46.37900 33.02300
Mg 0.00600 44.18700 26.43900
C  2.13900 43.91100 29.12500
C  -2.53700 42.72000 28.44000
C  -1.93900 44.00000 23.76800
C  2.63400 45.19700 24.47800
N  -0.17700 43.55200 28.60100
C  0.81600 43.59400 29.49900
C  0.32700 43.27000 30.98700
C  -1.10100 42.68200 30.69500
C  -1.33100 42.99600 29.14900
C  -1.32800 41.18500 30.99500
C  0.30300 44.61900 31.72100
C  1.05700 44.70400 33.03600
H  0.73500 43.49600 34.05500
N  -1.91800 43.47700 26.14300
C  -2.80000 42.88200 27.09800
C  -4.06000 42.60900 26.46200
C  -3.93200 43.10600 25.10900
C  -2.58900 43.56900 24.92000
C  -5.24700 42.13800 27.24100
C  -4.86400 42.88500 23.91400
O  -4.68300 43.40400 22.79900
C  -6.14300 42.07500 24.17100
N  0.30400 44.55200 24.38500
C  -0.67000 44.43900 23.49300
C  -0.19600 44.88600 22.10500
C  1.21400 45.43600 22.35000
C  1.42700 45.04100 23.81700
C  -0.35800 43.83100 20.98100
C  1.55600 46.89500 22.00700
C  1.45500 47.93900 23.08200
N  1.95600 44.42200 26.66900
C  2.93400 44.73000 25.74100
C  4.25900 44.77400 26.39800
C  3.94700 44.48600 27.75700
C  2.59600 44.23300 27.84400
C  5.61900 44.89500 25.72100
C  4.51400 44.27900 29.07100
O  5.68500 44.32500 29.35800
C  3.30900 43.83900 30.03500
C  3.59400 42.58700 30.79400
O  3.30600 41.44800 30.45600
O  4.08300 42.95400 31.98900
C  4.08900 41.85000 32.92500
H  -3.33300 42.23700 29.00900
H  -2.52300 43.83900 22.85900
H  3.55400 45.51300 23.98100
H  0.90700 42.50500 31.50400
H  -1.89200 43.23200 31.20400
H  -0.48900 40.74600 31.53600
H  -1.52800 40.56100 30.12400
H  -2.21700 41.12100 31.62300
H  -0.72500 44.93300 31.90300
H  0.74300 45.32400 31.01500
H  0.88000 45.66400 33.52000
H  2.13400 44.82400 32.91500
H  -5.27100 42.44000 28.28800
H  -5.34600 41.05300 27.23600
H  -6.12900 42.62700 26.82500
H  -6.47800 41.72000 23.19700
H  -6.82600 42.79600 24.62000
H  -6.02100 41.25300 24.87600
H  -0.83900 45.72500 21.83900
H  1.96300 44.87800 21.78800
H  0.55000 43.87600 20.38000
H  -1.14900 44.19800 20.32700
H  -0.63200 42.84700 21.36200
H  0.86600 47.36700 21.30800
H  2.52100 46.82800 21.50500
H  2.47400 48.27100 23.28200
H  0.98400 47.64400 24.02000
H  0.94000 48.83000 22.72500
H  5.76900 45.97200 25.64500
H  5.58300 44.47600 24.71500
H  6.39300 44.39500 26.30400
H  3.22900 44.68400 30.71800
H  3.14100 41.31400 32.94600
H  4.45000 42.18300 33.89800
H  4.89100 41.15000 32.68900

