158

Mg 52.74900 23.19700 43.96100
C  49.83100 24.96800 43.17800
C  51.08000 20.38200 44.04500
C  55.68700 21.69000 43.72200
C  54.39900 26.32200 43.64000
N  50.66300 22.69900 43.35800
C  49.65500 23.56300 43.35100
C  48.26900 22.84100 43.42900
C  48.82600 21.47900 44.04300
C  50.28500 21.47400 43.83500
C  48.47600 21.03700 45.51600
C  47.54400 22.71000 42.04900
C  48.12100 22.01800 40.87100
H  47.94600 22.71900 39.49100
N  53.31900 21.32300 43.74900
C  52.47400 20.28500 43.95000
C  53.27000 19.09400 44.04900
C  54.65700 19.40100 44.08900
C  54.62400 20.84000 43.82500
C  52.70300 17.72300 44.06100
C  55.74800 18.34400 44.33000
O  55.49200 17.22700 44.63400
C  57.14900 18.70000 44.04700
N  54.74100 23.94100 43.59100
C  55.81000 23.02400 43.68600
C  57.15100 23.76900 43.97100
C  56.75400 25.28100 43.65000
C  55.18300 25.15500 43.64700
C  57.78900 23.53900 45.41500
C  57.16900 25.89800 42.30200
C  57.81900 27.28600 42.39400
N  52.29700 25.31100 43.72100
C  52.96000 26.45200 43.62700
C  52.14400 27.59900 43.56800
C  50.86400 27.08600 43.29800
C  51.04500 25.67600 43.37800
C  52.61600 29.07500 43.53600
C  49.53900 27.43900 42.98700
O  49.02400 28.51300 42.91800
C  48.86500 26.02100 42.73800
C  48.72100 26.04500 41.23600
O  49.50600 25.63300 40.37900
O  47.48700 26.59600 40.94000
C  47.25000 26.67000 39.50200
H  50.60800 19.40600 44.18200
H  56.60700 21.10400 43.77400
H  54.81700 27.31900 43.48700
H  47.64300 23.39200 44.13000
H  48.40600 20.70100 43.40600
H  49.38700 20.79300 46.06100
H  47.82100 20.16700 45.47400
H  48.01000 21.80300 46.13600
H  47.15800 23.66700 41.69700
H  46.67300 22.16900 42.41800
H  47.74900 20.99500 40.92500
H  49.20400 21.94700 40.98000
H  53.32900 17.02700 43.50400
H  51.67600 17.67900 43.69900
H  52.54200 17.27900 45.04300
H  57.69200 17.75500 44.01100
H  57.45100 19.23000 44.95100
H  57.19500 19.29200 43.13300
H  57.85900 23.36100 43.24900
H  56.98300 25.96800 44.46500
H  58.02000 24.49600 45.88400
H  58.67100 22.89900 45.36800
H  56.91600 23.09500 45.89400
H  56.22100 25.95300 41.76500
H  57.88200 25.18000 41.89700
H  57.24000 28.09700 41.95100
H  58.73700 27.06700 41.85000
H  58.11700 27.56700 43.40400
H  52.02500 29.71500 44.19100
H  52.55600 29.40700 42.50000
H  53.63200 29.17000 43.92000
H  47.90700 25.93600 43.25100
H  46.68400 25.80900 39.14700
H  48.13700 26.75700 38.87500
H  46.57900 27.52800 39.45600
Mg 41.11400 41.98500 27.32000
C  40.55700 44.32500 29.79700
C  42.11700 39.79300 29.73100
C  42.32300 39.86900 24.90600
C  40.59200 44.48600 24.93700
N  41.42200 42.12500 29.43700
C  41.05800 43.14900 30.31600
C  41.05700 42.74700 31.82800
C  41.87100 41.38300 31.74500
C  41.84800 41.06700 30.26600
C  43.21600 41.42500 32.47500
C  39.75100 42.68200 32.63000
C  39.75300 43.59900 33.88600
H  39.18400 43.00800 35.13400
N  41.96600 40.05300 27.36100
C  42.21000 39.28100 28.44100
C  42.70500 37.89600 28.04200
C  42.74300 37.87800 26.61000
C  42.30000 39.30600 26.23100
C  43.00600 36.85200 29.02800
C  43.11000 36.84200 25.65700
O  43.14600 36.96300 24.48700
C  43.58500 35.49400 26.17000
N  41.49100 42.18700 25.29800
C  41.91900 41.08900 24.46600
C  41.68300 41.40200 22.97600
C  40.94700 42.79400 23.05200
C  40.96000 43.16400 24.56100
C  42.93400 41.31600 22.10400
C  39.62700 42.71500 22.27700
C  38.52300 41.92300 22.95100
N  40.66200 44.00200 27.28000
C  40.46400 44.98100 26.25500
C  39.95700 46.23200 26.81900
C  40.02700 46.01000 28.18900
C  40.46900 44.72500 28.44800
C  39.38000 47.42000 26.05100
C  39.85400 46.64500 29.45900
O  39.57800 47.79400 29.70000
C  40.07600 45.54900 30.61200
C  41.02200 46.12800 31.68900
O  42.22000 46.36900 31.57000
O  40.30100 46.50000 32.72900
C  40.90200 47.13700 33.86000
H  42.29900 38.99500 30.45300
H  42.66700 39.20600 24.11000
H  40.35400 45.25300 24.19700
H  41.65500 43.56000 32.24000
H  41.30700 40.65200 32.32500
H  43.57600 42.39600 32.81500
H  43.91800 41.03600 31.73700
H  43.12000 40.75300 33.32800
H  39.45000 41.68800 32.96100
H  38.96800 43.15400 32.03700
H  39.04700 44.38900 33.62900
H  40.67100 44.12900 34.14300
H  43.11800 37.24600 30.03900
H  43.94900 36.36500 28.78000
H  42.09400 36.26300 29.12200
H  42.84300 34.94400 26.74900
H  44.58100 35.64100 26.58700
H  43.71700 34.86900 25.28700
H  41.09000 40.58000 22.57300
H  41.60300 43.51700 22.56800
H  42.67200 41.09200 21.07000
H  43.60600 40.53900 22.47100
H  43.43600 42.25700 21.87900
H  39.82000 42.28300 21.29500
H  39.29300 43.73600 22.09300
H  37.68100 42.61200 22.89000
H  38.78200 41.61300 23.96300
H  38.19900 41.04000 22.39900
H  38.50400 47.79000 26.58400
H  39.12400 47.01200 25.07400
H  40.24400 48.08200 25.98500
H  39.10700 45.33600 31.06200
H  41.59300 47.92600 33.56600
H  41.43600 46.41300 34.47600
H  40.11900 47.53200 34.50800

