158

Mg 48.02300 36.12800 28.31500
C  46.03800 34.73400 30.84800
C  48.79500 38.69700 30.56100
C  49.79800 37.61100 25.95000
C  47.25000 33.36600 26.30600
N  47.54200 36.55900 30.54500
C  46.70600 35.82200 31.36700
C  46.73500 36.33300 32.84400
C  47.26200 37.79100 32.57500
C  47.95900 37.70400 31.19500
C  46.07000 38.78600 32.45100
C  47.67400 35.48900 33.83900
C  48.85600 36.06500 34.71400
H  48.50400 36.64200 36.04000
N  49.08000 37.92400 28.26400
C  49.28200 38.83500 29.29600
C  50.09000 39.90500 28.76900
C  50.39100 39.58800 27.47800
C  49.77300 38.32200 27.19500
C  50.67700 41.09200 29.67800
C  51.25600 40.43200 26.51200
O  51.73700 39.96200 25.51300
C  51.63300 41.80900 26.84700
N  48.39700 35.64300 26.36200
C  49.28500 36.34900 25.57900
C  49.43200 35.70400 24.18700
C  48.89000 34.28200 24.38800
C  48.20400 34.33800 25.79600
C  48.84100 36.61800 23.08300
C  49.93200 33.14600 24.38300
C  50.81700 32.95000 23.21800
N  46.74400 34.49600 28.39200
C  46.61200 33.39100 27.57300
C  45.72600 32.38500 28.13200
C  45.41500 32.89600 29.39200
C  46.10800 34.12600 29.52500
C  45.33600 31.07000 27.45300
C  44.72800 32.61100 30.66900
O  44.04100 31.65900 30.98300
C  45.02400 33.86800 31.56200
C  45.20300 33.49100 32.91600
O  46.00600 32.74600 33.35300
O  44.26200 34.07500 33.69500
C  44.05200 33.65900 35.12000
H  49.00200 39.48900 31.28400
H  50.45700 38.04000 25.19200
H  47.31200 32.42800 25.75100
H  45.71000 36.37600 33.21400
H  47.97700 38.07800 33.34700
H  45.91600 39.34600 33.37300
H  45.15200 38.23900 32.23500
H  46.39600 39.55200 31.74700
H  47.95400 34.61400 33.25300
H  46.91400 35.21500 34.57200
H  49.35500 36.86700 34.17100
H  49.59700 35.26800 34.76900
H  51.75900 41.22400 29.64700
H  50.52000 40.93300 30.74500
H  50.21400 42.03100 29.37500
H  50.72500 42.26700 27.23900
H  51.95500 42.35000 25.95700
H  52.45200 41.76000 27.56400
H  50.51000 35.58300 24.07600
H  48.10400 34.01000 23.68300
H  48.07000 36.04700 22.56600
H  49.66700 36.87200 22.41800
H  48.43800 37.50700 23.56800
H  49.43000 32.19300 24.55400
H  50.48500 33.34600 25.30100
H  51.84700 32.95500 23.57300
H  50.87400 33.79600 22.53300
H  50.72300 31.97500 22.73900
H  44.34300 31.07600 27.00300
H  45.64100 30.23600 28.08600
H  46.06700 30.98900 26.64900
H  44.08700 34.40700 31.41900
H  43.47800 32.73400 35.18100
H  43.42700 34.39600 35.62400
H  44.97500 33.57100 35.69300
Mg 36.15600 50.21500 25.11400
C  36.53300 48.46200 28.08700
C  34.55800 52.74700 26.79200
C  35.82100 51.87100 22.14300
C  37.65000 47.58500 23.46200
N  35.65200 50.57900 27.17900
C  35.96600 49.73100 28.24100
C  35.62900 50.35400 29.60000
C  34.81100 51.65400 29.14900
C  35.01400 51.72400 27.61400
C  33.28200 51.67600 29.52400
C  36.92300 50.58900 30.50900
C  36.81700 50.24900 31.96700
H  35.42200 50.00200 32.53800
N  35.46800 52.16700 24.56000
C  34.70800 52.95900 25.35600
C  34.18900 54.07900 24.51300
C  34.66900 53.93800 23.21800
C  35.42900 52.62400 23.24000
C  33.31400 55.12600 25.21300
C  34.40900 54.81200 21.95600
O  34.83400 54.57700 20.80100
C  33.65700 56.07700 22.20300
N  36.73200 49.77400 23.06500
C  36.47800 50.65200 22.03400
C  36.74000 49.88800 20.67000
C  37.52200 48.63300 21.14500
C  37.28800 48.60800 22.63700
C  35.34300 49.50600 20.06400
C  38.95400 48.49400 20.57500
C  40.11000 48.38200 21.63800
N  36.85900 48.32800 25.58400
C  37.44900 47.33300 24.82700
C  37.69500 46.12400 25.59900
C  37.43100 46.55500 26.91700
C  36.98400 47.86600 26.88000
C  38.31600 44.84600 25.17800
C  37.46600 46.18100 28.29900
O  37.76500 45.06700 28.75300
C  37.00200 47.45400 29.13700
C  35.96600 46.90700 30.06000
O  34.78600 46.87800 29.82100
O  36.52100 46.33900 31.19700
C  35.55300 45.62700 32.04000
H  34.05200 53.55200 27.33100
H  35.67600 52.39000 21.19400
H  38.20200 46.86600 22.85200
H  35.03100 49.64100 30.16700
H  35.26200 52.52600 29.62200
H  32.84600 50.68100 29.61500
H  32.70200 52.17200 28.74600
H  33.06600 52.22000 30.44300
H  37.13900 51.65200 30.40100
H  37.77000 50.14800 29.98400
H  37.22900 51.00700 32.63300
H  37.40400 49.36700 32.22500
H  33.95500 55.95000 25.52300
H  32.76600 54.63600 26.01800
H  32.55400 55.64700 24.63000
H  32.58000 55.96500 22.33200
H  33.78000 56.74000 21.34600
H  34.09100 56.61500 23.04600
H  37.34900 50.40600 19.93000
H  36.90300 47.83500 20.73500
H  34.50500 50.12000 20.39400
H  35.14900 48.46900 20.33900
H  35.44800 49.65400 18.99000
H  39.18200 49.40400 20.02000
H  39.05500 47.64900 19.89400
H  39.86400 48.80400 22.61200
H  40.89800 49.07800 21.35000
H  40.46600 47.35600 21.72900
H  38.24000 44.77100 24.09300
H  37.93500 43.90800 25.58200
H  39.36700 44.87800 25.46500
H  37.77600 47.78000 29.83200
H  35.28900 44.68900 31.55200
H  34.66300 46.17900 32.34300
H  36.05300 45.31600 32.95700

