158

Mg 17.15400 -2.25800 28.13500
C  16.13700 -0.05400 30.80700
C  18.99800 -3.88200 30.42800
C  18.74100 -3.62900 25.50600
C  15.80400 0.17800 25.91900
N  17.47700 -1.93500 30.43700
C  16.87300 -1.14400 31.28700
C  17.30600 -1.45000 32.68200
C  18.30400 -2.61300 32.53000
C  18.26500 -2.81000 31.01100
C  19.74200 -2.31300 32.99400
C  16.13700 -1.62900 33.66900
C  16.59500 -2.19700 35.01300
H  17.85800 -1.66800 35.75200
N  18.52200 -3.72100 28.04300
C  19.15000 -4.31900 29.08800
C  19.97000 -5.37600 28.51100
C  19.97000 -5.31800 27.06700
C  18.99900 -4.19400 26.78200
C  20.64600 -6.41100 29.40900
C  20.67200 -6.19400 26.02800
O  20.45300 -6.05400 24.83300
C  21.61200 -7.30100 26.41000
N  17.08500 -1.87900 25.96600
C  17.90800 -2.52700 25.15900
C  17.80100 -2.02900 23.74000
C  16.75200 -0.87000 23.81200
C  16.57400 -0.83200 25.28200
C  19.19300 -1.68700 23.04100
C  15.54100 -1.11000 22.96000
C  14.26200 -1.67900 23.70300
N  15.99600 -0.46000 28.23800
C  15.54400 0.39300 27.22900
C  14.99300 1.56000 27.81100
C  15.16500 1.39600 29.18200
C  15.85800 0.19700 29.41800
C  14.43800 2.64300 27.07200
C  14.81100 2.00700 30.39900
O  14.27100 3.05900 30.65400
C  15.40200 1.03000 31.52100
C  16.35000 1.79500 32.49500
O  17.49900 2.07500 32.18900
O  15.70800 2.23400 33.62400
C  16.44000 3.14600 34.40500
H  19.58800 -4.50500 31.10300
H  19.31700 -4.07400 24.69100
H  15.38200 0.94600 25.26800
H  17.91100 -0.55300 32.81700
H  17.89500 -3.48700 33.03500
H  19.85400 -1.36200 33.51500
H  20.37200 -2.24500 32.10700
H  20.06600 -3.14900 33.61400
H  15.44200 -2.33400 33.21200
H  15.78300 -0.61700 33.87000
H  16.59400 -3.27400 34.84600
H  15.76200 -2.01700 35.69400
H  20.54200 -7.36300 28.88900
H  20.48300 -6.40300 30.48700
H  21.68800 -6.10300 29.32100
H  22.24500 -7.06000 27.26500
H  22.32500 -7.56900 25.63000
H  21.03800 -8.21300 26.57200
H  17.39200 -2.93000 23.28400
H  17.31400 -0.03200 23.39800
H  19.31300 -0.64900 22.72800
H  19.48900 -2.34800 22.22700
H  19.96300 -1.80800 23.80300
H  15.70300 -1.77600 22.11300
H  15.14200 -0.15600 22.61400
H  13.70800 -0.80800 24.05300
H  14.57700 -2.39200 24.46500
H  13.68200 -2.27700 23.00000
H  13.87400 3.31600 27.71700
H  13.64600 2.29300 26.41000
H  15.25600 3.12000 26.53000
H  14.60800 0.66100 32.17000
H  15.93800 3.47700 35.31400
H  16.70100 4.03500 33.83000
H  17.36600 2.68700 34.75100
Mg 35.86400 0.77700 29.93100
C  33.33800 1.69400 32.19800
C  38.20400 1.26000 32.42000
C  38.25500 0.70200 27.51200
C  33.37900 1.16400 27.28300
N  35.82600 1.24500 32.06000
C  34.62700 1.57100 32.75500
C  34.92800 1.72400 34.24900
C  36.49300 1.94700 34.25200
C  36.92100 1.50800 32.84600
C  36.79200 3.48900 34.46800
C  34.32500 0.47200 35.00200
C  33.94100 0.41100 36.47400
H  34.83200 1.42200 37.29500
N  37.92000 0.68000 29.97500
C  38.65800 0.86300 31.12500
C  39.98700 0.36200 30.74700
C  40.09800 0.33300 29.36200
C  38.69500 0.57700 28.87900
C  41.15400 0.33300 31.75100
C  41.25500 0.12400 28.42100
O  41.21900 0.23100 27.16900
C  42.60800 -0.13000 28.92600
N  35.79500 0.89200 27.76400
C  36.95800 0.91100 26.99800
C  36.68700 0.77400 25.51700
C  35.11000 0.86200 25.40600
C  34.71300 0.87600 26.91400
C  37.47200 1.67700 24.49300
C  34.28900 -0.07900 24.49500
C  33.15900 0.63800 23.75100
N  33.76600 1.27800 29.68600
C  32.89300 1.37000 28.60200
C  31.56200 1.60200 29.02000
C  31.72700 1.75300 30.39200
C  33.08800 1.55300 30.76700
C  30.37400 1.79000 28.21000
C  30.98100 2.04100 31.65500
O  29.79900 2.18400 31.81400
C  32.02700 2.11000 32.86700
C  32.05400 3.46100 33.46200
O  32.35000 4.47000 32.83000
O  31.55500 3.50500 34.72100
C  31.49700 4.76700 35.35700
H  38.97100 1.34000 33.19300
H  39.02600 0.52200 26.76000
H  32.59300 1.10500 26.52700
H  34.36700 2.58400 34.61600
H  36.92300 1.32600 35.03800
H  37.41500 3.53400 35.36200
H  35.90800 4.07000 34.73200
H  37.38200 3.91700 33.65800
H  35.12700 -0.26500 35.05100
H  33.47500 -0.01200 34.52200
H  34.00600 -0.61900 36.82300
H  32.91000 0.76000 36.52000
H  42.03600 0.82400 31.34100
H  41.52200 -0.66000 32.01000
H  40.94100 0.89900 32.65800
H  43.35000 -0.47700 28.20700
H  42.52700 -0.85700 29.73500
H  43.00200 0.82400 29.27400
H  36.98600 -0.25900 25.33600
H  34.86000 1.89300 25.15700
H  38.12400 2.30400 25.10100
H  36.79200 2.26700 23.87900
H  37.94200 0.91100 23.87600
H  33.86500 -0.91300 25.05300
H  34.95900 -0.41900 23.70500
H  33.56600 1.30300 22.98900
H  32.47100 1.24300 24.34200
H  32.62300 -0.16300 23.24100
H  30.61900 2.20600 27.23300
H  29.73700 2.57300 28.62100
H  29.80300 0.89100 27.97600
H  31.78000 1.38000 33.63700
H  32.28400 4.68700 36.10600
H  30.55100 4.82500 35.89600
H  31.56700 5.54900 34.60100

