158

Mg -1.46000 18.13900 27.34900
C  -2.17800 15.86800 29.94600
C  -1.86300 20.68600 29.51400
C  -1.07200 20.12400 24.75700
C  -1.10700 15.31200 25.23400
N  -1.93100 18.20700 29.54400
C  -2.09500 17.21800 30.42100
C  -2.22800 17.80600 31.85800
C  -2.40800 19.32700 31.58500
C  -1.97100 19.41200 30.11800
C  -3.85000 19.72000 31.91100
C  -1.11500 17.38800 32.81800
C  -1.63600 16.87100 34.18900
H  -0.54800 16.53900 35.23200
N  -1.42800 20.10200 27.25000
C  -1.61800 20.98300 28.23500
C  -1.55600 22.36300 27.64500
C  -1.22400 22.19100 26.20500
C  -1.18600 20.72700 26.01200
C  -1.94900 23.57700 28.43200
C  -1.10900 23.32100 25.11700
O  -0.75200 23.10900 23.96700
C  -1.66500 24.67000 25.47800
N  -1.16700 17.75400 25.25900
C  -1.00100 18.77100 24.38200
C  -0.66500 18.22300 23.01100
C  -0.44600 16.70800 23.26200
C  -0.92400 16.57800 24.66400
C  -1.84000 18.49600 22.05800
C  1.03100 16.22600 23.10500
C  2.15400 16.83800 23.97600
N  -1.61000 16.06200 27.47900
C  -1.54800 15.04600 26.53600
C  -1.84100 13.73800 27.05000
C  -2.13800 14.04400 28.42500
C  -1.91900 15.46100 28.63500
C  -1.75800 12.45100 26.43700
C  -2.46400 13.42200 29.63300
O  -2.60000 12.22400 29.90700
C  -2.55900 14.57200 30.70400
C  -1.69400 14.10700 31.81900
O  -0.45000 14.15400 31.84900
O  -2.42600 13.55600 32.83700
C  -1.70500 12.90500 33.97900
H  -1.64300 21.53200 30.16800
H  -0.98100 20.79700 23.90200
H  -1.03600 14.47700 24.53400
H  -3.09300 17.37400 32.36000
H  -1.72200 19.89500 32.21300
H  -4.14700 20.60100 31.34100
H  -4.10800 20.06300 32.91300
H  -4.49800 18.92800 31.53400
H  -0.44700 18.21200 33.06700
H  -0.52300 16.60800 32.33800
H  -2.20500 15.96100 34.00100
H  -2.16800 17.69600 34.66400
H  -2.44600 23.28800 29.35800
H  -2.57000 24.25500 27.84600
H  -1.16800 24.16000 28.92100
H  -2.69000 24.42300 25.75700
H  -1.66000 25.45400 24.72100
H  -1.21900 25.06600 26.39000
H  0.26700 18.66700 22.66100
H  -1.13800 16.18900 22.59900
H  -1.58000 18.41000 21.00300
H  -2.23000 19.47400 22.33900
H  -2.56700 17.71400 22.27800
H  1.47900 16.49600 22.14900
H  1.00500 15.15600 23.31100
H  1.73600 17.51000 24.72600
H  2.69000 17.54300 23.34000
H  2.75800 16.01200 24.35200
H  -1.30100 11.75000 27.13700
H  -1.17800 12.52100 25.51700
H  -2.79600 12.20700 26.20900
H  -3.55300 14.74900 31.11400
H  -2.35200 13.09400 34.83600
H  -0.77100 13.40100 34.24100
H  -1.55100 11.83500 33.84100
Mg -5.38100 25.85600 26.43100
C  -3.89900 27.03100 29.40600
C  -7.34000 23.83700 28.26100
C  -6.21200 24.35300 23.55600
C  -3.08800 27.77700 24.63800
N  -5.52700 25.41700 28.62100
C  -4.90100 26.09000 29.61200
C  -5.52100 25.67700 30.90800
C  -6.46800 24.55000 30.56300
C  -6.49300 24.60500 29.08400
C  -6.03100 23.11100 31.04200
C  -6.13100 26.87600 31.70800
C  -5.84200 26.98600 33.25200
H  -5.29100 25.65400 33.92800
N  -6.64900 24.37100 25.92500
C  -7.48500 23.77500 26.84100
C  -8.39300 22.91000 26.16400
C  -8.13000 23.02300 24.78700
C  -6.91300 23.95000 24.67200
C  -9.24800 21.97800 26.89300
C  -8.77300 22.39400 23.62700
O  -8.46000 22.58500 22.45700
C  -9.94600 21.44400 23.82400
N  -4.74300 26.06400 24.47400
C  -5.21700 25.33200 23.39300
C  -4.39400 25.42500 22.13800
C  -3.69500 26.82900 22.44900
C  -3.81400 26.94400 23.98300
C  -3.36700 24.33800 21.90600
C  -4.32100 28.08700 21.74000
C  -3.81100 28.46000 20.33400
N  -3.89900 27.25700 26.88100
C  -2.99400 27.95800 26.05900
C  -2.16800 28.89100 26.87100
C  -2.54000 28.51400 28.15600
C  -3.49400 27.53500 28.17100
C  -1.23100 29.91900 26.40700
C  -2.20100 28.70000 29.56700
O  -1.35300 29.49500 30.01600
C  -3.11500 27.88800 30.43100
C  -2.25900 27.14900 31.36100
O  -1.63600 26.15500 31.01000
O  -2.28200 27.77900 32.58300
C  -1.64400 27.01700 33.63800
H  -8.04000 23.20300 28.81100
H  -6.43600 23.84400 22.61600
H  -2.43400 28.48500 24.12500
H  -4.60600 25.41300 31.43800
H  -7.42500 24.60800 31.08100
H  -5.32600 23.08900 31.87400
H  -5.40000 22.74500 30.23200
H  -6.97200 22.58600 31.20600
H  -7.21700 26.83500 31.62500
H  -5.78600 27.77800 31.20300
H  -6.81000 27.11100 33.73800
H  -5.17800 27.80600 33.52400
H  -10.13200 21.61200 26.37200
H  -9.76000 22.51400 27.69200
H  -8.76600 21.13000 27.38000
H  -9.53700 20.57900 24.34500
H  -10.35700 20.95800 22.93900
H  -10.72900 21.97600 24.36500
H  -4.93700 25.62800 21.21500
H  -2.64800 26.68500 22.18100
H  -3.81000 23.43500 21.48500
H  -2.87800 24.08000 22.84500
H  -2.57300 24.55300 21.19100
H  -4.36700 28.92500 22.43500
H  -5.38800 27.89200 21.63000
H  -3.78500 27.65000 19.60400
H  -2.76200 28.69900 20.51000
H  -4.21100 29.34000 19.83100
H  -1.56200 30.86500 25.97700
H  -0.58400 29.41300 25.69100
H  -0.66900 30.16500 27.30800
H  -3.68900 28.66100 30.94200
H  -2.02800 27.47500 34.55000
H  -0.57300 27.08700 33.44800
H  -1.89400 25.95700 33.67400

