158

Mg 44.52900 4.70400 48.36600
C  42.22500 7.17200 47.60300
C  42.07400 2.23000 47.87600
C  46.92500 2.40800 48.58300
C  46.90700 7.33400 48.34100
N  42.42700 4.71500 47.76500
C  41.62000 5.86400 47.69700
C  40.11000 5.59900 47.57200
C  40.13200 3.99200 47.66000
C  41.64500 3.56600 47.83700
C  39.30200 3.36000 48.85300
C  39.24700 6.10400 46.40200
C  39.90400 6.33300 44.95700
H  39.20700 7.11100 43.83900
N  44.52500 2.58800 48.19400
C  43.45700 1.79800 47.97700
C  43.83500 0.38100 47.79800
C  45.32700 0.43000 47.93500
C  45.65100 1.87100 48.20800
C  42.92700 -0.78200 47.52200
C  46.32800 -0.77300 47.79300
O  45.88300 -1.90100 47.62900
C  47.76500 -0.54900 47.80200
N  46.58500 4.90100 48.39900
C  47.33200 3.81200 48.68000
C  48.73900 4.15100 49.05900
C  48.75000 5.67800 49.11200
C  47.38000 6.04100 48.55300
C  49.37600 3.39100 50.30700
C  49.97900 6.39600 48.62500
C  50.58000 7.47100 49.58900
N  44.59600 6.82200 48.04200
C  45.60400 7.73800 48.10600
C  45.11200 9.06600 47.86100
C  43.72400 8.89900 47.72000
C  43.50300 7.50400 47.76900
C  45.86400 10.26800 47.97800
C  42.54600 9.62300 47.53600
O  42.36800 10.80500 47.35900
C  41.47100 8.50700 47.44800
C  40.47500 8.70700 48.50100
O  40.61700 8.17200 49.58700
O  39.49600 9.52700 48.10700
C  38.34900 9.18100 48.91400
H  41.28800 1.49300 47.69900
H  47.75500 1.72500 48.77200
H  47.69900 8.07900 48.44400
H  39.73300 5.92900 48.54000
H  39.64200 3.49100 46.82500
H  40.08600 3.17200 49.58700
H  38.89800 2.36100 48.68400
H  38.56600 3.97200 49.37300
H  38.57200 6.82500 46.86300
H  38.55200 5.27200 46.28700
H  40.13800 5.37700 44.49000
H  40.89900 6.76500 45.06600
H  43.24800 -1.48400 46.75200
H  41.88200 -0.56600 47.29800
H  42.73000 -1.28300 48.47000
H  48.19900 0.18700 47.12600
H  48.14000 -1.50600 47.43800
H  47.98200 -0.59600 48.87000
H  49.41800 3.87100 48.25300
H  48.68600 5.85600 50.18500
H  48.64100 2.89400 50.94100
H  49.95500 4.11400 50.88200
H  50.18100 2.69300 50.07900
H  49.80500 6.91100 47.68000
H  50.81300 5.71000 48.47800
H  50.71100 8.39400 49.02500
H  51.56100 7.18200 49.96900
H  49.84800 7.69700 50.36400
H  46.58000 10.14500 48.79100
H  45.26200 11.16700 48.10900
H  46.46900 10.33000 47.07400
H  40.98900 8.70800 46.49100
H  38.26200 8.10300 48.77900
H  37.48100 9.73300 48.55300
H  38.56600 9.39800 49.96000
Mg 49.05500 35.64100 27.19100
C  47.22400 33.84400 29.61600
C  49.11100 38.33700 29.49800
C  50.38500 37.48200 24.87100
C  48.43300 32.99700 24.97300
N  48.40900 35.94300 29.34300
C  47.75900 35.00700 30.11500
C  47.49500 35.56000 31.51700
C  47.68500 37.12200 31.28200
C  48.42900 37.15200 29.93600
C  46.48100 38.06700 31.35300
C  48.35400 34.89000 32.64300
C  48.63900 35.76200 33.89700
H  47.47500 36.52200 34.48900
N  49.82600 37.55400 27.24700
C  49.74800 38.49300 28.23200
C  50.45600 39.63200 27.80600
C  50.68800 39.48600 26.41500
C  50.27200 38.09600 26.15500
C  50.65500 40.83900 28.76500
C  51.10900 40.47200 25.40500
O  51.34900 40.25800 24.23600
C  51.22100 41.91800 25.83200
N  49.39700 35.26900 25.27600
C  50.06900 36.17700 24.55000
C  50.47100 35.52700 23.16400
C  50.19800 33.97800 23.38800
C  49.26100 34.03100 24.60700
C  49.60400 36.17300 22.09600
C  51.48000 33.18100 23.74300
C  51.99200 32.29200 22.61700
N  47.93500 33.86200 27.20500
C  47.73100 32.92100 26.16600
C  46.88300 31.84500 26.67900
C  46.61500 32.19700 27.98600
C  47.30800 33.41400 28.28000
C  46.62500 30.59300 25.96700
C  46.00200 31.70600 29.29100
O  45.23200 30.74400 29.51000
C  46.32700 32.71900 30.32800
C  47.03700 32.08400 31.43300
O  48.23100 31.85300 31.51200
O  46.15500 31.77900 32.43600
C  46.61900 31.02800 33.61000
H  49.04100 39.14100 30.23300
H  51.09600 37.96700 24.19800
H  48.36600 32.13400 24.30700
H  46.44600 35.37200 31.74200
H  48.40900 37.55600 31.97100
H  46.30800 38.67600 30.46600
H  46.72000 38.79400 32.12800
H  45.70100 37.37900 31.67900
H  49.28800 34.44200 32.30400
H  47.74100 34.09900 33.07300
H  49.54500 36.34900 33.74500
H  48.85500 35.25100 34.83500
H  49.98800 41.65500 28.48600
H  51.64900 41.27100 28.65000
H  50.56500 40.52600 29.80500
H  50.25100 42.23800 26.21400
H  51.61400 42.53400 25.02300
H  51.99200 41.89200 26.60200
H  51.53800 35.61400 22.96000
H  49.70700 33.56800 22.50500
H  48.70200 36.59400 22.53800
H  49.41400 35.42500 21.32600
H  50.14700 37.00300 21.64400
H  51.30500 32.56300 24.62300
H  52.28900 33.88600 23.93700
H  51.44200 32.47400 21.69400
H  51.86700 31.22400 22.79800
H  53.04600 32.49600 22.43000
H  47.51200 29.97300 26.10000
H  46.42800 30.69200 24.90000
H  45.69800 30.20900 26.39400
H  45.41400 33.14900 30.73900
H  45.90300 30.73900 34.37900
H  47.32200 31.66200 34.15000
H  47.00000 30.10300 33.17700

