158

Mg 36.01100 50.06700 25.40300
C  36.36400 48.32600 28.40100
C  34.70400 52.75300 27.10900
C  35.72500 51.65700 22.50200
C  37.46000 47.36900 23.75400
N  35.58500 50.50300 27.50900
C  35.81700 49.63700 28.56100
C  35.41900 50.24700 29.93600
C  34.70500 51.58900 29.51300
C  35.00100 51.62700 27.93100
C  33.19200 51.57500 29.82000
C  36.66500 50.46600 30.92100
C  36.39700 50.25000 32.38700
H  34.96600 50.09100 32.96600
N  35.18600 51.85400 24.83200
C  34.83300 52.84700 25.72600
C  34.55900 54.08400 24.98400
C  34.81800 53.78500 23.57400
C  35.26200 52.39600 23.56900
C  34.07700 55.33800 25.63800
C  34.80200 54.69000 22.30100
O  35.04700 54.17200 21.19800
C  34.48800 56.18300 22.41000
N  36.57400 49.56400 23.36200
C  36.34000 50.41300 22.33800
C  36.78900 49.79700 20.98300
C  37.66400 48.61100 21.55900
C  37.17300 48.43900 22.98000
C  35.59800 49.30600 20.16500
C  39.24500 48.98100 21.60700
C  40.18300 48.16100 20.62300
N  36.66800 48.21600 25.97200
C  37.26200 47.25400 25.18300
C  37.71900 46.12900 25.99900
C  37.31900 46.44600 27.31400
C  36.66700 47.73600 27.19500
C  38.50000 44.87700 25.58600
C  37.40500 46.02900 28.70800
O  37.88800 45.03100 29.21600
C  36.81700 47.33900 29.49000
C  35.75500 46.64700 30.37800
O  34.82300 46.01300 29.95800
O  36.15000 46.61200 31.74000
C  35.34100 45.63400 32.51000
H  34.27700 53.62500 27.60900
H  35.52600 52.11700 21.53100
H  38.23800 46.72200 23.34300
H  34.76200 49.53300 30.43300
H  35.18300 52.45600 29.96800
H  32.97300 50.69600 30.42700
H  32.54600 51.52200 28.94400
H  32.95700 52.49900 30.34800
H  37.14500 51.42100 30.70900
H  37.33900 49.66900 30.60500
H  36.82100 51.12500 32.87900
H  37.05300 49.42400 32.65900
H  34.10600 56.22300 25.00200
H  34.76000 55.52900 26.46600
H  33.11100 55.28000 26.13900
H  35.20300 56.71300 23.03900
H  33.45800 56.33200 22.73700
H  34.63300 56.54000 21.39100
H  37.42500 50.50400 20.45000
H  37.47500 47.65500 21.07100
H  35.79400 49.73700 19.18300
H  34.66100 49.65700 20.59700
H  35.61400 48.23100 19.98100
H  39.70000 48.72800 22.56500
H  39.40700 50.03400 21.38100
H  39.53000 47.95500 19.77500
H  40.59200 47.25400 21.06800
H  40.94700 48.88300 20.33500
H  39.26300 44.59500 26.31200
H  38.94400 45.12300 24.62200
H  37.86400 44.02200 25.36200
H  37.60000 47.70900 30.15300
H  35.34200 44.68900 31.96600
H  34.34400 45.97300 32.79000
H  35.75700 45.47900 33.50600
Mg 7.07700 53.82400 41.50400
C  6.89900 50.40900 40.64700
C  10.11100 53.77800 39.80000
C  7.12300 57.03900 41.83000
C  3.92600 53.56000 42.89800
N  8.19800 52.33700 40.15700
C  7.96300 51.01500 39.96000
C  8.83100 50.46400 38.81100
C  10.09000 51.36000 38.91400
C  9.42100 52.55000 39.69100
C  11.27700 50.88300 39.64100
C  8.20100 50.34500 37.40800
C  8.33800 49.02400 36.49500
H  7.89400 48.92700 35.04200
N  8.41000 55.23000 40.88700
C  9.57600 55.04600 40.21700
C  10.20200 56.36300 40.02500
C  9.35700 57.38400 40.54300
C  8.24500 56.58400 41.14700
C  11.44600 56.56900 39.27800
C  9.52900 58.96900 40.57900
O  10.46800 59.40700 39.95100
C  8.65100 59.90100 41.29100
N  5.68500 55.14500 42.11700
C  5.94800 56.44900 42.28100
C  4.79500 57.22400 42.89800
C  3.80000 56.08200 43.26700
C  4.51600 54.82000 42.75600
C  5.26600 58.26500 43.97400
C  2.27600 56.22500 42.82100
C  1.77900 57.60600 42.59900
N  5.66700 52.32300 41.74900
C  4.53700 52.35400 42.52400
C  3.97500 51.00500 42.61600
C  4.96400 50.18300 41.98800
C  5.91100 51.07000 41.43600
C  2.63300 50.59100 43.26700
C  5.24300 48.87500 41.66700
O  4.68100 47.75300 41.84700
C  6.61800 48.95000 40.93900
C  6.43800 48.07200 39.73700
O  5.80900 48.41400 38.71800
O  7.07700 46.85800 39.91300
C  6.79000 45.86500 38.85700
H  11.12400 53.76700 39.39300
H  7.00000 58.08900 42.10500
H  2.96900 53.52000 43.42300
H  9.10300 49.44600 39.09100
H  10.43600 51.69600 37.93600
H  12.04900 51.64800 39.55300
H  11.65600 49.88600 39.41600
H  11.07800 50.87600 40.71200
H  8.60900 51.14100 36.78500
H  7.11400 50.32900 37.48200
H  7.69400 48.28600 36.97300
H  9.39300 48.75000 36.52200
H  11.43600 55.93500 38.39200
H  12.16700 56.24900 40.03000
H  11.67500 57.55700 38.88000
H  8.60500 59.63200 42.34600
H  7.68800 59.76300 40.79800
H  8.94200 60.95100 41.31300
H  4.41500 57.86300 42.10000
H  3.82300 55.93400 44.34600
H  4.96100 57.99100 44.98400
H  4.70100 59.16200 43.72100
H  6.29700 58.61800 43.96300
H  1.84100 55.83300 43.74000
H  2.05500 55.52700 42.01300
H  0.90100 57.58800 43.24400
H  1.50600 57.68500 41.54600
H  2.43300 58.40300 42.95300
H  1.89900 51.22200 42.76600
H  2.64300 50.92200 44.30600
H  2.33900 49.57400 43.00800
H  7.32900 48.60900 41.69100
H  6.82900 46.24600 37.83600
H  5.78500 45.46500 38.98900
H  7.45300 45.00500 38.95400

