158

Mg -2.36500 16.96600 26.15800
C  -2.28000 14.63300 28.75400
C  -2.93500 19.27200 28.50700
C  -2.63500 19.17500 23.70500
C  -2.16900 14.55100 23.80000
N  -2.97300 16.88000 28.42600
C  -2.59600 15.84700 29.26900
C  -2.83200 16.31000 30.71700
C  -3.00700 17.89100 30.63900
C  -2.83100 18.06400 29.10000
C  -4.41700 18.40100 31.15000
C  -1.61700 16.06700 31.65000
C  -1.47400 16.76100 33.03200
H  -1.71000 16.07300 34.36700
N  -2.70600 18.92100 26.06600
C  -2.89900 19.77200 27.18100
C  -3.10700 21.12300 26.73000
C  -3.07200 21.08900 25.28000
C  -2.84300 19.66900 24.96000
C  -3.33100 22.22000 27.78900
C  -3.13700 22.20500 24.25400
O  -3.14700 22.09700 23.03700
C  -3.26100 23.57300 24.84500
N  -2.46800 16.85400 23.98700
C  -2.56000 17.88800 23.20200
C  -2.40400 17.55500 21.67400
C  -2.27700 15.95600 21.73700
C  -2.32700 15.72100 23.26700
C  -3.55700 18.02400 20.85800
C  -0.93200 15.44700 21.06500
C  0.36900 15.85100 21.78100
N  -2.26000 15.08600 26.26800
C  -2.09700 14.19600 25.14200
C  -1.90200 12.89900 25.67400
C  -2.01200 13.07700 27.07400
C  -2.26200 14.34800 27.40300
C  -1.83400 11.64700 25.01700
C  -1.80700 12.25800 28.27600
O  -1.40200 11.09200 28.43800
C  -2.10700 13.26600 29.49100
C  -0.97400 13.04400 30.40300
O  0.08100 13.62300 30.19700
O  -1.31700 12.26800 31.43500
C  -0.23200 11.83200 32.27900
H  -3.01400 20.06700 29.25200
H  -2.72900 19.93800 22.93000
H  -1.88400 13.74200 23.12400
H  -3.72800 15.80900 31.08300
H  -2.18200 18.35800 31.17500
H  -4.33900 18.96000 32.08300
H  -5.01900 17.51600 31.35600
H  -4.95300 19.03900 30.44700
H  -0.70700 15.96500 31.05900
H  -1.86300 15.06500 32.00200
H  -1.99000 17.71000 33.17500
H  -0.42000 17.03100 33.09700
H  -3.77900 23.08100 27.29300
H  -2.34600 22.52300 28.14500
H  -3.96200 21.94700 28.63500
H  -4.32200 23.71500 25.05200
H  -2.95900 24.31700 24.10800
H  -2.65300 23.58700 25.74900
H  -1.51000 18.06300 21.31400
H  -3.15000 15.60000 21.19000
H  -3.32300 18.99400 20.42100
H  -4.44800 18.06000 21.48500
H  -3.64900 17.37100 19.99000
H  -0.79600 15.99200 20.13000
H  -0.96000 14.35900 21.00300
H  0.16900 16.53600 22.60400
H  1.02900 16.38900 21.10100
H  0.83800 14.97900 22.23900
H  -1.40000 11.84500 24.03700
H  -2.84000 11.23000 25.05500
H  -1.15300 11.11900 25.68600
H  -2.98800 12.83700 29.97000
H  -0.05800 12.67300 32.95000
H  0.64100 11.54700 31.69000
H  -0.59000 11.02000 32.91200
Mg 42.25400 41.11100 26.41600
C  41.63800 43.50500 28.95100
C  42.96000 38.73900 28.58800
C  43.49400 39.29400 23.76300
C  41.76400 43.82600 24.02600
N  42.52100 41.23400 28.58600
C  41.99300 42.19600 29.46100
C  41.89300 41.68000 30.94700
C  42.30400 40.18100 30.67500
C  42.54500 40.00800 29.18600
C  43.42100 39.69100 31.66400
C  40.47300 41.89100 31.58000
C  40.21900 41.18800 32.93800
H  39.48400 42.02300 34.02400
N  43.03800 39.25100 26.23400
C  43.34800 38.38100 27.27600
C  43.84200 37.15100 26.77500
C  44.04500 37.30200 25.36200
C  43.53200 38.69600 25.05400
C  44.02200 35.90100 27.62700
C  44.57200 36.33700 24.28900
O  44.77800 36.56700 23.11800
C  44.72500 34.83500 24.64200
N  42.47800 41.48600 24.24100
C  43.03100 40.55000 23.34600
C  43.00600 40.95300 21.86100
C  42.15700 42.24900 21.94300
C  42.18800 42.62300 23.49700
C  44.41900 41.13800 21.16000
C  40.70700 42.11500 21.47700
C  39.70200 40.97800 21.96300
N  41.90300 43.29600 26.39200
C  41.61500 44.19800 25.41300
C  41.15600 45.43600 25.97800
C  41.18100 45.24700 27.33900
C  41.64700 43.91100 27.56100
C  40.77300 46.72000 25.36600
C  40.95500 45.84200 28.66800
O  40.55500 46.93800 28.93500
C  41.10600 44.73700 29.70400
C  42.04000 45.18400 30.79900
O  43.28300 45.26900 30.74200
O  41.29200 45.41700 31.85100
C  41.96100 45.52700 33.13300
H  43.21200 37.90700 29.24800
H  43.68700 38.64300 22.90800
H  41.53900 44.59600 23.28500
H  42.69000 42.19800 31.48200
H  41.42400 39.57100 30.88300
H  44.35200 39.70100 31.09600
H  43.08800 38.75400 32.11100
H  43.53900 40.41100 32.47400
H  39.81000 41.48500 30.81600
H  40.18200 42.91300 31.82200
H  41.20300 40.85100 33.26500
H  39.53500 40.34900 32.80900
H  43.40600 35.13700 27.15300
H  43.84300 36.01400 28.69600
H  45.01300 35.45300 27.55500
H  45.07500 34.32300 23.74600
H  43.82400 34.50200 25.15700
H  45.44700 34.81100 25.45800
H  42.43900 40.19200 21.32400
H  42.54800 43.07700 21.35300
H  44.51300 40.39300 20.37000
H  45.03600 40.75500 21.97400
H  44.80600 42.10200 20.83000
H  40.84200 41.98900 20.40300
H  40.37700 43.11100 21.77200
H  39.96100 40.42900 22.86900
H  39.42800 40.46700 21.04100
H  38.78600 41.47800 22.27800
H  39.84700 47.07600 25.81800
H  40.50900 46.48100 24.33500
H  41.56700 47.46100 25.45600
H  40.13300 44.63400 30.18300
H  42.35100 44.52500 33.31400
H  41.43100 45.87800 34.01800
H  42.76800 46.25800 33.18500

