158

Mg 6.98100 53.63600 41.58400
C  6.74400 50.14600 41.52900
C  10.26700 53.19500 40.16700
C  7.15700 56.86200 40.61600
C  3.77800 53.85000 42.50100
N  8.32900 51.89100 41.12100
C  7.96500 50.61700 41.08200
C  9.15800 49.70000 40.74300
C  10.39700 50.71700 40.81100
C  9.64100 52.05700 40.73700
C  11.31200 50.44700 42.13400
C  9.17100 48.84700 39.44100
C  8.96500 49.66600 38.20400
H  7.76600 49.27600 37.24000
N  8.49700 54.82200 40.54700
C  9.73000 54.45200 40.02600
C  10.47700 55.65500 39.69400
C  9.66800 56.79600 39.92400
C  8.37500 56.18000 40.37800
C  11.93500 55.63200 39.28100
C  10.09300 58.24600 39.80900
O  11.15600 58.65300 39.36500
C  9.22600 59.33700 40.32900
N  5.64700 55.02900 41.55000
C  5.99000 56.28900 41.13500
C  4.72200 57.13100 41.17300
C  3.65200 56.27800 41.95500
C  4.41300 54.92400 42.03800
C  4.64100 58.56100 41.81200
C  2.30500 56.14800 41.29100
C  1.10800 56.07100 42.28200
N  5.52200 52.31200 42.12400
C  4.26900 52.52800 42.60800
C  3.68300 51.24800 42.93700
C  4.57800 50.25100 42.57100
C  5.68800 51.01100 41.99300
C  2.36000 50.98500 43.55000
C  4.75500 48.87900 42.52400
O  4.03700 47.94500 42.77700
C  6.18000 48.76500 41.68200
C  5.72800 48.14100 40.34300
O  4.97000 48.66500 39.49300
O  6.04800 46.79100 40.36500
C  5.43400 45.94700 39.38200
H  11.29200 52.99100 39.85200
H  7.05400 57.92800 40.40300
H  2.75300 53.85100 42.87800
H  9.19200 48.92000 41.50400
H  11.06800 50.59000 39.96100
H  12.36400 50.57500 41.87900
H  11.18900 49.41800 42.47400
H  11.13600 51.20200 42.90000
H  8.43600 48.04200 39.46400
H  10.18400 48.47500 39.28800
H  9.83800 49.48700 37.57600
H  8.88000 50.73400 38.40100
H  12.13600 54.66700 38.81600
H  12.63500 55.81500 40.09600
H  12.13100 56.39700 38.53000
H  8.45700 59.63200 39.61500
H  9.78800 60.25700 40.48800
H  8.88900 58.99600 41.30800
H  4.49800 57.25600 40.11400
H  3.59000 56.54000 43.01100
H  5.66500 58.81800 42.08700
H  3.96400 58.89200 42.60000
H  4.36900 59.15900 40.94200
H  2.37800 55.21000 40.74100
H  2.14700 56.88900 40.50700
H  0.54600 57.00400 42.26000
H  1.51600 55.95800 43.28700
H  0.40200 55.26500 42.08200
H  1.57200 51.72600 43.41000
H  2.39000 50.69200 44.60000
H  1.99200 50.13600 42.97500
H  6.85100 48.06400 42.18000
H  6.22000 45.54100 38.74500
H  4.66700 46.30700 38.69600
H  4.99300 45.03600 39.78600
Mg 16.65300 51.82600 26.81400
C  18.84800 50.74600 29.32900
C  14.52700 52.87700 29.38900
C  14.65600 53.06300 24.57600
C  18.90300 50.75300 24.45200
N  16.65900 51.75000 29.12800
C  17.68200 51.30700 29.88600
C  17.40600 51.53000 31.32600
C  15.85800 51.92600 31.36200
C  15.59900 52.20100 29.86100
C  14.88600 50.90500 31.95400
C  18.35500 52.66500 31.86300
C  18.26100 53.04100 33.42600
H  17.38200 52.10100 34.30500
N  14.77400 52.71000 26.94600
C  14.19000 53.23100 28.08200
C  13.09600 54.03800 27.67300
C  13.07400 54.14800 26.26000
C  14.22200 53.29700 25.86100
C  12.13400 54.66600 28.71600
C  12.18800 54.86100 25.32300
O  12.29600 54.82400 24.10200
C  11.13100 55.78700 25.96000
N  16.75100 51.72000 24.82500
C  15.71800 52.30700 24.01000
C  15.88100 51.92600 22.49200
C  17.42800 51.64700 22.52300
C  17.69300 51.28400 23.98800
C  15.09100 50.65800 21.98200
C  18.23400 52.91500 21.93300
C  19.47500 52.58200 21.04700
N  18.52600 50.89600 26.75500
C  19.27600 50.48600 25.72400
C  20.52200 49.91500 26.17800
C  20.33700 49.92600 27.56600
C  19.11000 50.55500 27.90100
C  21.62500 49.45500 25.33600
C  20.98700 49.68900 28.86200
O  22.10500 49.23600 29.17800
C  20.00400 50.15000 30.00300
C  19.66300 48.93800 30.82600
O  19.14500 47.92800 30.37300
O  20.06300 49.09600 32.17200
C  19.59900 48.08700 33.15800
H  13.89300 53.20300 30.21600
H  13.97700 53.37700 23.78100
H  19.58800 50.45800 23.65400
H  17.48300 50.62900 31.93500
H  15.83900 52.91700 31.81500
H  14.21300 51.44000 32.62400
H  15.40900 50.07800 32.43400
H  14.28700 50.48300 31.14700
H  18.10900 53.55400 31.28200
H  19.39400 52.40600 31.66500
H  17.95500 54.07800 33.56200
H  19.31600 53.18900 33.65600
H  11.33500 53.95700 28.93500
H  11.75900 55.64900 28.43300
H  12.59100 54.77400 29.69900
H  11.57900 56.65200 26.45000
H  10.49500 55.20100 26.62400
H  10.48800 55.99600 25.10500
H  15.74200 52.68200 21.71900
H  17.76500 50.77000 21.96900
H  14.26000 50.45700 22.65800
H  15.64300 49.72100 22.04900
H  14.78600 50.82500 20.94800
H  18.57300 53.46100 22.81300
H  17.55700 53.67100 21.53500
H  19.24900 52.86600 20.01900
H  19.71300 51.51800 21.02800
H  20.35600 53.01900 21.51700
H  21.98300 50.14900 24.57600
H  21.41900 48.53600 24.78700
H  22.42400 49.18700 26.02700
H  20.64700 50.77000 30.62800
H  18.89400 47.34200 32.79000
H  19.01100 48.65600 33.87800
H  20.48300 47.62000 33.59100

