158

Mg 41.51200 8.28600 28.96600
C  43.27400 9.75700 31.51100
C  39.24700 6.95700 31.11600
C  39.70400 6.87400 26.27200
C  43.92000 9.37100 26.71000
N  41.33000 8.36700 31.04200
C  42.17200 8.95800 31.95600
C  41.65900 8.90500 33.35300
C  40.38000 8.03800 33.17400
C  40.27700 7.80600 31.71400
C  40.44600 6.73000 33.94400
C  41.44700 10.19600 34.29700
C  41.10700 9.95900 35.75500
H  41.50800 11.07800 36.70500
N  39.65400 7.12500 28.71900
C  38.93100 6.69600 29.73900
C  37.86500 5.91600 29.29200
C  37.88800 5.92800 27.88700
C  39.07100 6.67800 27.57100
C  36.72500 5.34800 30.22300
C  36.96100 5.27800 26.96600
O  37.26700 5.12700 25.78700
C  35.56600 4.76500 27.38100
N  41.82300 7.94500 26.80300
C  40.85900 7.50200 25.92400
C  41.35100 7.64900 24.44100
C  42.49200 8.76200 24.64800
C  42.85500 8.57400 26.14700
C  41.89100 6.34300 23.85300
C  42.03400 10.18800 24.34500
C  40.56900 10.57400 24.52800
N  43.32100 9.23500 29.08000
C  44.19800 9.62800 28.10500
C  45.26200 10.41900 28.63800
C  44.92300 10.58800 30.02700
C  43.76400 9.85500 30.19800
C  46.36800 11.06300 27.87200
C  45.31500 11.08900 31.28200
O  46.17000 11.87200 31.55500
C  44.22600 10.50100 32.33000
C  44.82400 9.62500 33.32900
O  45.33000 8.49100 33.19900
O  44.62600 10.17200 34.61200
C  45.05600 9.31000 35.68700
H  38.52400 6.61300 31.85900
H  39.09800 6.58800 25.41000
H  44.53100 9.81800 25.92300
H  42.39500 8.30600 33.89000
H  39.47000 8.53000 33.51700
H  39.46500 6.54600 34.38300
H  41.25400 6.82400 34.67000
H  40.65100 5.94900 33.21100
H  40.54300 10.67600 33.92000
H  42.29000 10.88600 34.27000
H  41.60500 9.02600 36.01900
H  40.01800 9.92600 35.72500
H  35.79100 5.85400 29.97800
H  37.00700 5.35300 31.27600
H  36.70800 4.30000 29.92400
H  34.97100 5.49600 27.92900
H  35.87400 3.93600 28.01900
H  35.06100 4.35000 26.50900
H  40.60800 8.04500 23.74900
H  43.26800 8.51500 23.92300
H  42.97500 6.31600 23.74300
H  41.37800 6.33300 22.89200
H  41.53900 5.63600 24.60500
H  42.28500 10.28900 23.28900
H  42.60100 10.95000 24.88100
H  40.41400 11.56400 24.95600
H  39.97400 9.95600 25.20100
H  40.02500 10.66100 23.58700
H  46.11200 11.27600 26.83400
H  47.18400 10.34600 27.95700
H  46.65300 11.93500 28.46100
H  43.62800 11.28700 32.79100
H  44.77900 9.93900 36.53200
H  46.14300 9.22700 35.72800
H  44.51300 8.37400 35.55900
Mg 46.91800 24.92500 28.41400
C  47.55800 27.01600 31.08500
C  46.22200 22.25200 30.61100
C  47.06100 22.81000 25.82200
C  48.51300 27.36600 26.28100
N  47.01100 24.63100 30.54900
C  47.15600 25.70800 31.47300
C  46.72600 25.39500 32.86000
C  46.43900 23.91800 32.74900
C  46.60300 23.53500 31.20700
C  47.44700 22.97800 33.49900
C  45.47800 26.22800 33.30900
C  45.50500 27.04600 34.66200
H  44.43200 26.85700 35.75300
N  46.62600 22.86900 28.21400
C  46.20900 21.98600 29.23500
C  45.76800 20.69400 28.63100
C  46.04800 20.85000 27.23800
C  46.55700 22.20000 26.99700
C  45.27100 19.49200 29.40400
C  45.81900 19.84700 26.21500
O  46.16100 20.04400 25.06300
C  44.96600 18.63800 26.62000
N  47.70900 25.03600 26.32300
C  47.65700 23.95900 25.50300
C  48.13700 24.33400 24.07800
C  48.55200 25.88700 24.21800
C  48.23300 26.12000 25.68200
C  49.36500 23.45100 23.56600
C  47.83400 26.74000 23.11000
C  46.25400 26.95900 23.28000
N  47.69700 26.83100 28.58800
C  48.26200 27.66500 27.63900
C  48.53900 28.88600 28.33400
C  48.32400 28.70700 29.66900
C  47.86600 27.38500 29.76800
C  49.11000 30.15800 27.75400
C  48.34200 29.27100 30.92600
O  48.58700 30.42600 31.22000
C  48.02400 28.18500 31.99200
C  49.22400 27.97400 32.90400
O  50.23500 27.35600 32.55500
O  48.85900 28.35800 34.20200
C  49.90500 28.12300 35.23300
H  45.85000 21.52800 31.33800
H  47.08100 22.21600 24.90600
H  49.04900 28.18200 25.79300
H  47.49500 25.67700 33.57900
H  45.41900 23.75500 33.09900
H  48.26100 23.57400 33.91200
H  47.89000 22.32100 32.75000
H  46.80000 22.52500 34.25000
H  44.65900 25.52800 33.47300
H  45.16800 26.95600 32.56000
H  45.49500 28.11500 34.44700
H  46.46600 26.95400 35.16700
H  44.22400 19.40900 29.11100
H  45.29800 19.76700 30.45800
H  45.81900 18.56900 29.21200
H  45.34900 17.92500 27.35000
H  44.64700 18.13600 25.70600
H  43.96400 18.93200 26.93300
H  47.38800 24.20300 23.29800
H  49.62000 25.98300 24.02200
H  49.72800 22.80100 24.36100
H  50.16000 23.93000 22.99300
H  48.83300 22.78800 22.88400
H  48.01600 26.17300 22.19700
H  48.21000 27.74300 22.90600
H  45.95300 26.60400 24.26600
H  45.62400 26.47700 22.53300
H  45.92600 27.99800 23.25900
H  48.40200 30.97000 27.58700
H  49.62800 30.01800 26.80500
H  49.89200 30.53200 28.41400
H  47.17500 28.48800 32.60500
H  50.73600 27.46900 34.97100
H  49.40800 27.57500 36.03400
H  50.38300 29.00800 35.65500

