158

Mg 49.90600 45.93700 42.14700
C  46.77500 46.28200 40.42800
C  49.86800 42.63400 40.85700
C  53.13200 45.89400 42.85200
C  49.95100 49.53200 42.36700
N  48.46200 44.61100 40.65200
C  47.28900 45.04100 40.20200
C  46.58400 43.87100 39.47300
C  47.46800 42.62600 39.86700
C  48.66300 43.33700 40.51900
C  46.84500 41.51800 40.75900
C  46.53600 44.12100 37.94900
C  45.24700 43.73800 37.29100
H  44.82500 44.38400 35.96100
N  51.25300 44.45200 41.94800
C  51.06400 43.20900 41.40700
C  52.29000 42.42500 41.61900
C  53.20300 43.30800 42.30700
C  52.56700 44.60500 42.36200
C  52.46600 40.90000 41.22500
C  54.57000 42.92500 42.88400
O  54.93900 41.78000 42.93300
C  55.68100 43.88200 43.45500
N  51.27700 47.50300 42.67100
C  52.56900 47.18100 42.95500
C  53.38300 48.50300 43.24500
C  52.48200 49.61200 42.80200
C  51.14300 48.88500 42.62400
C  53.83100 48.58900 44.64700
C  53.00600 50.36800 41.52000
C  53.26900 51.87200 41.87200
N  48.62400 47.55900 41.74300
C  48.78300 48.94200 41.84600
C  47.60600 49.66100 41.37400
C  46.82300 48.65600 40.90200
C  47.45300 47.39800 41.13900
C  47.41700 51.12100 41.22100
C  45.58900 48.39400 40.21600
O  44.80400 49.20700 39.78500
C  45.43200 46.93100 39.91300
C  44.33500 46.38800 40.78600
O  44.43000 46.09400 41.97600
O  43.18800 46.43200 40.02600
C  41.99400 46.13900 40.85700
H  49.93600 41.59200 40.53500
H  54.17100 45.79900 43.17300
H  49.96100 50.61700 42.49300
H  45.60500 43.67200 39.91100
H  47.87200 42.06100 39.02700
H  46.92800 41.59300 41.84400
H  47.51600 40.71700 40.45200
H  45.80800 41.33400 40.47700
H  47.22500 43.45600 37.42900
H  46.81900 45.11100 37.59200
H  44.34100 43.87600 37.88100
H  45.21600 42.66100 37.12800
H  52.01300 40.30800 42.02000
H  53.46800 40.65200 40.87300
H  51.93300 40.69500 40.29700
H  55.18700 44.43500 44.25400
H  55.79300 44.52700 42.58400
H  56.57900 43.33900 43.75000
H  54.27300 48.43200 42.61900
H  52.30900 50.30200 43.62800
H  54.85500 48.96000 44.68600
H  53.83400 47.61500 45.13700
H  53.12100 49.16000 45.24600
H  52.34500 50.27800 40.65700
H  53.95000 49.95000 41.16800
H  52.83800 52.47300 41.07200
H  54.35800 51.84100 41.84200
H  52.93100 52.12200 42.87700
H  47.38200 51.52000 42.23500
H  46.43900 51.28700 40.76900
H  48.18400 51.55500 40.58100
H  45.19500 46.78100 38.86000
H  41.11800 46.08300 40.21100
H  41.92700 46.96500 41.56600
H  41.99800 45.14500 41.30500
Mg 29.36800 57.53100 40.56500
C  27.07700 55.31900 39.30600
C  31.91300 55.68500 39.47300
C  31.43100 60.26900 40.97400
C  26.61800 59.74600 41.07800
N  29.45200 55.76200 39.54900
C  28.41000 54.98400 39.14600
C  28.83300 53.56100 38.73500
C  30.37300 53.63600 38.97400
C  30.63400 55.10700 39.37400
C  30.89200 52.57600 40.05700
C  28.47800 53.18800 37.23500
C  28.71300 54.37600 36.23200
H  27.73300 54.77200 35.21400
N  31.35900 57.95700 40.37400
C  32.27800 57.01400 39.90900
C  33.62800 57.62300 39.81000
C  33.49600 58.94800 40.18600
C  32.04600 59.15600 40.53500
C  34.73200 56.84400 39.16800
C  34.65100 59.96300 40.22000
O  35.80800 59.62800 39.99800
C  34.41200 61.47100 40.39200
N  29.02900 59.74000 40.76800
C  30.10900 60.52400 41.19900
C  29.63000 61.84900 41.74300
C  28.07800 61.74600 41.49100
C  27.83600 60.31000 41.16200
C  29.90700 62.13700 43.28100
C  27.59200 62.68500 40.33700
C  27.00200 63.99700 40.87700
N  27.25800 57.54800 40.41300
C  26.28000 58.46500 40.60900
C  24.94900 57.93100 40.30700
C  25.22700 56.66100 39.83200
C  26.64600 56.47600 39.77100
C  23.62200 58.62300 40.48700
C  24.59000 55.44000 39.20500
O  23.42100 55.14900 38.97600
C  25.78800 54.52300 38.77700
C  25.46500 53.19700 39.44900
O  25.50700 52.90300 40.64100
O  25.02700 52.35700 38.46000
C  24.70000 50.99600 38.82800
H  32.73700 55.13000 39.02000
H  31.99900 61.16900 41.21900
H  25.73400 60.36000 41.26100
H  28.27500 52.90100 39.39900
H  30.86400 53.47600 38.01400
H  31.49800 53.15600 40.75300
H  31.42800 51.80900 39.49900
H  29.99800 52.12600 40.48700
H  27.50800 52.71700 37.07400
H  29.24600 52.45400 36.98700
H  29.55500 53.89900 35.73000
H  29.03500 55.29100 36.72900
H  35.54500 56.85700 39.89400
H  35.13800 57.15300 38.20500
H  34.43800 55.80000 39.05800
H  34.18100 61.86700 41.38000
H  33.61100 61.65600 39.67600
H  35.18000 62.03500 39.86300
H  30.09700 62.60800 41.11500
H  27.41700 61.86700 42.35000
H  30.94200 62.47800 43.26000
H  29.64200 61.31300 43.94400
H  29.40500 63.04300 43.62100
H  26.78800 62.18100 39.80000
H  28.36900 62.82800 39.58600
H  25.91300 63.96200 40.86700
H  27.27100 64.87000 40.28200
H  27.38000 64.27700 41.86000
H  23.56000 59.40600 39.73200
H  23.64700 59.11000 41.46200
H  22.84400 57.91200 40.20900
H  25.94800 54.41100 37.70400
H  23.67000 51.01900 39.18500
H  25.37900 50.54900 39.55400
H  24.69100 50.45700 37.88000

