158

Mg 17.19100 -0.36500 27.68200
C  16.40000 1.47300 30.65800
C  19.13500 -2.36300 29.53300
C  18.38200 -1.64200 24.83100
C  15.68800 2.19900 25.83600
N  17.95700 -0.20000 29.81600
C  17.33600 0.45600 30.87100
C  17.59500 -0.21700 32.22500
C  18.56600 -1.36400 31.81200
C  18.62000 -1.26300 30.29400
C  20.00300 -1.29400 32.49600
C  16.37100 -0.73900 32.98800
C  16.30900 -0.46200 34.51200
H  17.60600 0.03100 35.22500
N  18.54800 -1.87400 27.23200
C  19.19900 -2.70400 28.18700
C  19.81300 -3.82300 27.53200
C  19.58700 -3.56700 26.07200
C  18.78000 -2.34200 25.99900
C  20.41600 -4.96700 28.32100
C  19.84800 -4.48200 24.90700
O  19.43900 -4.28000 23.75300
C  20.68600 -5.70500 25.08800
N  17.16900 0.23200 25.68900
C  17.68100 -0.49300 24.69600
C  17.58300 0.18400 23.27800
C  16.66200 1.39800 23.64100
C  16.41300 1.27300 25.13500
C  18.98900 0.57300 22.66900
C  15.31700 1.31200 22.79500
C  14.27800 0.40800 23.28300
N  16.02800 1.27800 28.10200
C  15.42900 2.25600 27.24600
C  14.71100 3.23500 27.98900
C  15.09600 2.98000 29.30000
C  15.93300 1.77600 29.34700
C  14.04600 4.48900 27.49100
C  14.92700 3.49200 30.67700
O  14.31000 4.46300 31.05700
C  15.83600 2.55300 31.62900
C  16.87600 3.27600 32.30900
O  18.04200 3.31300 31.96900
O  16.40700 3.93500 33.45700
C  17.35400 4.62500 34.36900
H  19.51800 -3.16600 30.16600
H  18.63000 -2.07900 23.86100
H  15.16100 3.01300 25.33300
H  18.16300 0.39800 32.92300
H  18.25600 -2.37600 32.07300
H  19.90000 -2.24500 33.01700
H  20.09000 -0.42600 33.15000
H  20.86600 -1.22900 31.83300
H  16.23700 -1.78100 32.69600
H  15.48500 -0.24500 32.58900
H  16.00800 -1.38700 35.00400
H  15.48400 0.19400 34.78900
H  19.92600 -5.92400 28.14000
H  20.33200 -4.83800 29.40000
H  21.48900 -5.12300 28.21200
H  21.61300 -5.46300 25.60900
H  20.93000 -6.04800 24.08300
H  20.12400 -6.54500 25.49500
H  17.09700 -0.46700 22.55200
H  17.19900 2.34100 23.53900
H  19.00400 1.58000 22.25400
H  19.36600 -0.21200 22.01300
H  19.71900 0.42200 23.46400
H  15.59600 0.97500 21.79700
H  14.89200 2.31100 22.69300
H  13.78400 -0.04900 22.42600
H  13.57700 0.95200 23.91600
H  14.57200 -0.41900 23.93000
H  14.76200 4.89600 26.77800
H  13.80400 5.13900 28.33200
H  13.21000 4.07200 26.93000
H  15.19800 2.04200 32.35000
H  17.16100 4.27800 35.38400
H  17.29300 5.70600 34.24500
H  18.38500 4.31000 34.20600
Mg 48.38500 34.74100 26.71000
C  46.21800 33.54500 29.23300
C  48.79000 37.74900 28.61400
C  49.74500 36.32200 24.08300
C  47.36800 31.99800 24.80200
N  47.65800 35.47800 28.65400
C  46.93600 34.69400 29.55100
C  47.03200 35.34300 30.97500
C  47.45300 36.82600 30.68100
C  47.99300 36.72700 29.22400
C  46.37200 37.89000 30.94700
C  47.99800 34.61500 31.90100
C  47.92300 34.89100 33.35400
H  46.82400 35.83500 33.87600
N  49.26300 36.73700 26.38200
C  49.31800 37.82000 27.33300
C  50.15200 38.81900 26.74800
C  50.36500 38.42100 25.42400
C  49.79100 37.12000 25.25100
C  50.49000 40.07300 27.57900
C  51.06000 39.14000 24.28400
O  51.16100 38.64400 23.12900
C  51.67100 40.54100 24.46500
N  48.60100 34.14300 24.78000
C  49.23900 35.02800 23.92900
C  49.35100 34.27500 22.50500
C  48.78300 32.80000 22.77100
C  48.23300 32.97200 24.15900
C  48.69900 34.97500 21.29100
C  49.72800 31.57000 22.75500
C  50.19600 31.20100 21.39200
N  47.05300 33.06700 26.86400
C  46.76400 32.01400 26.05500
C  45.86100 31.09100 26.67600
C  45.56200 31.68000 27.89200
C  46.30300 32.90900 27.97400
C  45.47800 29.77800 26.06600
C  44.82600 31.43600 29.13300
O  44.14100 30.51100 29.52200
C  45.20100 32.69700 30.09800
C  45.61200 32.26900 31.46800
O  46.55500 31.57900 31.73200
O  44.71900 32.72000 32.40300
C  44.71900 31.99100 33.68400
H  48.95700 38.67000 29.17600
H  49.99200 36.78900 23.12700
H  47.11300 31.11500 24.21100
H  46.01300 35.33200 31.36000
H  48.31200 37.19100 31.24300
H  46.50700 38.65800 31.70800
H  45.46300 37.30200 31.08000
H  46.26500 38.43400 30.00800
H  48.94800 34.96200 31.49500
H  47.93500 33.53700 31.75400
H  48.89700 35.28600 33.64200
H  47.70900 33.95300 33.86500
H  51.54900 40.27800 27.73700
H  50.08700 40.06100 28.59100
H  49.91300 40.88700 27.13900
H  50.80000 41.05800 24.86800
H  51.95000 41.06100 23.54900
H  52.47400 40.62500 25.19600
H  50.42500 34.28600 22.32200
H  47.91100 32.61600 22.14400
H  48.03900 35.75900 21.66300
H  48.12400 34.24400 20.72200
H  49.41700 35.60600 20.76700
H  49.19900 30.75500 23.24800
H  50.56100 31.86600 23.39200
H  51.28000 31.12800 21.47600
H  49.79700 31.76200 20.54700
H  50.03800 30.13300 21.24500
H  44.74100 29.72500 25.26400
H  45.24000 29.12000 26.90200
H  46.37800 29.45700 25.54200
H  44.22300 33.15800 30.23500
H  45.75600 31.80800 33.96600
H  44.07200 31.11400 33.69800
H  44.17900 32.58500 34.42100

