158

Mg -2.46500 17.08100 27.19900
C  -2.75400 14.90600 29.92900
C  -2.97000 19.74300 29.25800
C  -2.28100 19.09300 24.41200
C  -2.14200 14.44400 25.11500
N  -2.88100 17.31400 29.37000
C  -2.97400 16.26300 30.30800
C  -3.03600 16.85600 31.72200
C  -3.31400 18.39400 31.38000
C  -3.14900 18.52600 29.86300
C  -4.69400 18.95200 31.97500
C  -1.74800 16.60900 32.55200
C  -1.50200 17.41800 33.87100
H  -1.25800 16.66100 35.26200
N  -2.51800 19.16800 26.85600
C  -2.71900 20.11700 27.89300
C  -2.72600 21.45500 27.30800
C  -2.48500 21.26100 25.86500
C  -2.37700 19.78500 25.64500
C  -3.04200 22.74300 27.97700
C  -2.19600 22.30500 24.78500
O  -2.02500 21.99800 23.60400
C  -2.24900 23.79200 25.12100
N  -2.34200 16.73900 25.09900
C  -2.26000 17.74400 24.18000
C  -2.23300 17.15700 22.70700
C  -1.91800 15.72100 22.97000
C  -2.18400 15.59500 24.47800
C  -3.60000 17.36100 21.96000
C  -0.47200 15.33200 22.65600
C  0.65700 15.92000 23.52500
N  -2.52800 15.12800 27.40700
C  -2.33700 14.14000 26.47200
C  -2.44700 12.82600 27.07300
C  -2.59800 13.07000 28.44700
C  -2.61100 14.51800 28.61000
C  -2.47500 11.45300 26.36500
C  -2.70800 12.43600 29.72100
O  -2.84200 11.28200 30.06900
C  -2.83300 13.58200 30.71800
C  -1.64300 13.36000 31.57400
O  -0.48500 13.58600 31.22100
O  -1.97100 12.87500 32.84900
C  -0.86700 12.58700 33.72300
H  -2.93100 20.61900 29.90900
H  -2.24600 19.63100 23.46300
H  -1.91400 13.58100 24.48600
H  -3.79700 16.23800 32.19900
H  -2.50500 19.04000 31.71900
H  -5.09000 18.08400 32.50200
H  -5.47800 19.34200 31.32600
H  -4.48200 19.70300 32.73600
H  -0.84000 16.48300 31.96200
H  -1.64100 15.60500 32.96500
H  -2.31000 18.14000 33.97900
H  -0.55100 17.94900 33.82900
H  -2.09000 23.25400 27.83200
H  -3.23900 22.67000 29.04600
H  -3.80500 23.28800 27.42200
H  -3.17400 24.23400 25.49300
H  -1.97700 24.28400 24.18800
H  -1.49000 24.05600 25.85800
H  -1.37500 17.53900 22.15500
H  -2.65400 15.07000 22.49700
H  -4.30000 17.99000 22.51100
H  -4.13100 16.42800 21.77200
H  -3.45800 17.77900 20.96400
H  -0.14200 15.59600 21.65200
H  -0.44600 14.24300 22.61600
H  1.07700 16.64500 22.82700
H  1.35500 15.15000 23.85500
H  0.41000 16.49400 24.41800
H  -1.75000 11.50700 25.55300
H  -3.48500 11.33500 25.97400
H  -2.18700 10.67500 27.07200
H  -3.78800 13.41100 31.21400
H  -1.17700 11.74400 34.33900
H  -0.57000 13.44600 34.32500
H  -0.01000 12.24700 33.14100
Mg 24.64400 -4.89700 45.68500
C  26.70100 -2.34400 44.62600
C  22.05900 -3.70900 43.92100
C  23.10700 -7.95700 46.11500
C  27.46600 -6.24200 47.53300
N  24.44700 -3.29500 44.22000
C  25.38200 -2.28400 44.13700
C  24.89800 -1.36600 43.00300
C  23.32200 -1.58500 43.08000
C  23.25200 -2.94900 43.73700
C  22.51200 -0.59000 43.94100
C  25.66000 -1.79500 41.71400
C  26.25000 -0.75300 40.73900
H  25.95800 -0.80700 39.23000
N  22.76400 -5.64600 45.21600
C  21.86000 -4.99500 44.48600
C  20.67900 -5.81500 44.32800
C  20.99700 -7.06400 44.92800
C  22.35100 -6.94700 45.47900
C  19.42500 -5.46000 43.58100
C  20.07200 -8.27800 45.00600
O  18.86300 -8.22300 44.61800
C  20.51900 -9.67600 45.47600
N  25.32700 -6.92400 46.39300
C  24.37300 -7.91900 46.62200
C  25.01500 -9.07400 47.49400
C  26.29400 -8.43300 48.00900
C  26.43900 -7.15700 47.26100
C  23.94500 -9.55100 48.52300
C  27.59100 -9.27300 47.74600
C  28.63400 -9.29800 48.89100
N  26.77300 -4.47800 45.97700
C  27.73200 -5.05900 46.85000
C  28.90100 -4.18500 46.85600
C  28.56400 -3.10200 45.94000
C  27.25500 -3.35800 45.40900
C  30.14700 -4.32400 47.60200
C  29.04300 -1.98200 45.33000
O  30.09800 -1.40000 45.45500
C  27.83400 -1.40500 44.35800
C  27.56000 0.01900 44.59100
O  26.93000 0.47400 45.52300
O  28.19600 0.74100 43.64900
C  27.99800 2.18000 43.83000
H  21.19100 -3.34500 43.36700
H  22.67700 -8.92500 46.38000
H  28.30500 -6.57800 48.14600
H  25.16400 -0.32500 43.18400
H  22.80900 -1.62900 42.11900
H  21.82100 -0.02000 43.32100
H  23.16000 0.08400 44.50200
H  21.92000 -1.08100 44.71300
H  24.83900 -2.13300 41.08100
H  26.37300 -2.59000 41.93200
H  27.33600 -0.84700 40.72600
H  25.93700 0.25100 41.02600
H  19.05900 -6.15500 42.82500
H  19.59600 -4.50900 43.07700
H  18.51000 -5.25000 44.13500
H  20.76800 -9.72800 46.53600
H  21.43500 -10.00000 44.98300
H  19.71800 -10.40000 45.32400
H  25.19100 -9.97000 46.89900
H  26.17100 -8.10200 49.04100
H  24.36300 -9.58200 49.53000
H  23.47300 -10.51700 48.34800
H  23.17700 -8.78000 48.57400
H  28.07700 -8.88900 46.84900
H  27.13400 -10.25400 47.62000
H  28.47900 -10.26000 49.37900
H  28.38700 -8.56200 49.65800
H  29.64200 -9.13000 48.51400
H  30.27400 -3.51600 48.32200
H  31.01100 -4.36900 46.93900
H  30.15400 -5.23600 48.19800
H  28.11300 -1.50600 43.30900
H  28.68500 2.93500 43.44600
H  28.04700 2.38800 44.89900
H  26.99600 2.47900 43.52500

