158

Mg 35.81700 1.10000 29.63000
C  33.91700 3.04600 31.96900
C  38.38500 1.25400 31.83600
C  37.71500 -0.20800 27.20000
C  33.23600 1.54800 27.31700
N  36.09400 2.07300 31.65100
C  35.11000 2.64100 32.50100
C  35.61200 2.71800 33.92600
C  37.10600 2.33100 33.79400
C  37.16800 1.72300 32.37400
C  38.09900 3.46900 33.91100
C  34.64300 1.76800 34.74600
C  34.22800 2.12200 36.17900
H  34.68300 3.45300 36.91500
N  37.79600 0.51000 29.54900
C  38.67800 0.80800 30.55100
C  39.97600 0.33600 30.17400
C  39.86700 -0.07500 28.80000
C  38.43200 0.03700 28.42400
C  41.28100 0.49200 30.97400
C  41.00400 -0.45700 27.80500
O  40.66700 -0.72400 26.67700
C  42.48400 -0.58400 28.20600
N  35.55000 0.77800 27.58900
C  36.45900 0.13300 26.78200
C  35.98100 -0.00700 25.30800
C  34.47800 0.24400 25.56100
C  34.42100 0.91900 26.89900
C  36.60900 1.08300 24.38300
C  33.57700 -1.02100 25.46900
C  32.65800 -1.03000 24.23500
N  33.92400 2.04600 29.59600
C  32.99200 2.16100 28.59200
C  31.77200 2.75900 29.13500
C  32.12000 3.16200 30.40800
C  33.42100 2.70000 30.68700
C  30.43700 3.03000 28.41400
C  31.65000 3.94700 31.52500
O  30.53500 4.46200 31.65500
C  32.71900 3.76100 32.64800
C  33.13300 5.05400 33.18800
O  33.78000 5.88700 32.58900
O  32.51300 5.19400 34.34200
C  32.77100 6.52500 34.95000
H  39.14800 1.16300 32.61100
H  38.31900 -0.44200 26.32000
H  32.40800 1.49800 26.60700
H  35.52300 3.71900 34.34700
H  37.35300 1.54800 34.51100
H  37.69000 4.30100 34.48400
H  38.55400 3.65800 32.93900
H  38.91400 3.09100 34.52800
H  35.19000 0.83100 34.85300
H  33.75800 1.50600 34.16500
H  34.51800 1.29200 36.82500
H  33.13900 2.08200 36.15900
H  41.04900 0.82700 31.98500
H  41.71000 1.35300 30.46100
H  41.97300 -0.35000 30.97800
H  42.98400 -1.14300 27.41500
H  42.55800 -1.12600 29.14900
H  42.94300 0.40000 28.29400
H  36.25100 -0.98600 24.91300
H  34.24800 1.01700 24.82800
H  37.65800 0.83700 24.21800
H  36.58900 1.96900 25.01800
H  36.14000 1.24600 23.41300
H  32.85500 -1.09200 26.28300
H  34.15600 -1.93800 25.57200
H  32.52600 0.02100 23.97900
H  31.67900 -1.45000 24.46500
H  33.12700 -1.56200 23.40700
H  30.57100 3.80900 27.66300
H  29.68100 3.25500 29.16600
H  30.19500 2.03400 28.04400
H  32.25200 3.19100 33.45200
H  31.95200 7.20800 34.72300
H  33.69700 7.09500 34.87700
H  32.65200 6.40000 36.02700
Mg 7.30200 54.80900 42.17000
C  6.51300 51.47100 41.48700
C  10.47500 54.21300 40.95700
C  7.71700 58.21000 41.87000
C  3.87000 55.28500 42.62100
N  8.28600 53.08700 41.22400
C  7.82700 51.78400 41.14500
C  9.00900 50.85200 40.67300
C  10.26600 51.71400 41.00100
C  9.62700 53.10300 40.99000
C  11.04400 51.29300 42.31500
C  8.97300 50.40000 39.20100
C  8.79700 51.45500 38.07900
H  7.53900 51.24000 37.23400
N  8.95900 55.99800 41.61500
C  10.17100 55.53400 41.21500
C  11.03600 56.63400 41.00700
C  10.28300 57.81900 41.34400
C  8.91400 57.38600 41.68400
C  12.48400 56.60400 40.44100
C  10.75700 59.25900 41.45000
O  11.90500 59.53600 41.08900
C  9.96300 60.51600 41.88000
N  5.95800 56.52700 42.17200
C  6.38400 57.81800 42.03300
C  5.26200 58.85300 42.29700
C  4.02200 57.85100 42.49700
C  4.66400 56.45700 42.46300
C  5.54200 59.76800 43.52600
C  2.83000 58.06800 41.47900
C  1.58000 58.83600 41.93200
N  5.54600 53.65800 42.23900
C  4.24900 53.98900 42.52800
C  3.47800 52.83100 42.72100
C  4.33800 51.82100 42.30400
C  5.57200 52.38300 42.00400
C  2.04000 52.70000 43.18300
C  4.37400 50.36100 42.08200
O  3.51500 49.45800 42.31400
C  5.83100 50.13500 41.52100
C  5.88700 49.22300 40.40700
O  5.42100 49.49300 39.28400
O  6.61700 48.07500 40.71200
C  6.94400 47.10800 39.70000
H  11.53600 53.99600 40.82000
H  7.99100 59.26700 41.84400
H  2.82500 55.45200 42.89100
H  8.85600 49.99400 41.32700
H  10.96800 51.41100 40.22500
H  10.43200 50.66400 42.96100
H  11.24900 52.21000 42.86800
H  11.97100 50.74500 42.14200
H  8.20200 49.63400 39.12100
H  9.93600 49.95100 38.95900
H  9.70000 51.29100 37.49200
H  8.76700 52.43000 38.56500
H  12.79600 55.60500 40.13700
H  13.03700 56.97200 41.30500
H  12.73200 57.23300 39.58600
H  9.32000 60.93300 41.10400
H  10.64700 61.33500 42.09900
H  9.56500 60.25200 42.85900
H  5.14600 59.46000 41.39900
H  3.56600 57.99400 43.47600
H  5.11100 59.29000 44.40600
H  5.19100 60.77500 43.30100
H  6.60300 59.81500 43.77100
H  2.52700 57.09200 41.10100
H  3.14900 58.66700 40.62600
H  0.85600 58.08700 42.25500
H  1.03000 59.43100 41.20300
H  1.91000 59.39700 42.80600
H  1.69300 51.73600 43.55600
H  1.44100 52.87400 42.29000
H  1.95600 53.52600 43.89000
H  6.45600 49.59000 42.22800
H  7.96100 47.03000 39.31700
H  6.34800 47.17800 38.79000
H  6.79000 46.15100 40.19800

