158

Mg 42.76600 41.98100 26.34300
C  41.84000 43.99000 28.81600
C  44.10700 39.74000 28.52800
C  43.95600 40.16500 23.63700
C  41.66200 44.43300 23.93500
N  42.87500 41.85700 28.44900
C  42.26000 42.74600 29.30800
C  42.38600 42.21600 30.78900
C  43.19300 40.91700 30.65800
C  43.34700 40.76800 29.11200
C  44.51500 40.84200 31.42700
C  40.91900 42.22200 31.48800
C  40.76900 41.43600 32.77100
H  39.84300 41.99300 33.86500
N  43.81600 40.23100 26.09600
C  44.35700 39.50800 27.14600
C  44.95400 38.33900 26.56600
C  44.89300 38.34200 25.19100
C  44.21500 39.64400 24.94200
C  45.60000 37.34500 27.44300
C  45.40500 37.39200 24.15800
O  45.18600 37.56600 22.99900
C  46.11000 36.20900 24.62800
N  42.76200 42.23100 24.08600
C  43.32600 41.29600 23.20200
C  42.98100 41.60000 21.72500
C  42.01600 42.86500 21.88500
C  42.08700 43.20200 23.39000
C  44.24000 41.93000 20.88000
C  40.55900 42.68500 21.38400
C  39.51200 42.22700 22.45100
N  41.85700 43.81300 26.36000
C  41.65400 44.76400 25.38200
C  41.19600 45.97800 26.05300
C  41.22400 45.69200 27.44200
C  41.66100 44.37300 27.51800
C  40.70100 47.29400 25.45200
C  40.88800 46.22800 28.74600
O  40.39600 47.30300 29.08900
C  41.44500 45.13300 29.67500
C  42.67800 45.55900 30.48800
O  43.87200 45.51900 30.11300
O  42.29700 45.90000 31.73400
C  43.43100 46.28300 32.59800
H  44.58700 39.07900 29.25300
H  44.37200 39.70700 22.73700
H  41.26800 45.28800 23.38300
H  42.93200 42.95500 31.37600
H  42.53100 40.10200 30.95100
H  44.81000 41.79600 31.86500
H  45.29000 40.56300 30.71200
H  44.64000 40.06300 32.17900
H  40.13100 42.02000 30.76300
H  40.67500 43.22600 31.83500
H  41.74300 41.14700 33.16600
H  40.24400 40.52700 32.47800
H  46.61500 37.11900 27.11500
H  45.08200 36.40400 27.25900
H  45.75900 37.61400 28.48700
H  46.23500 35.55000 23.76900
H  45.46600 35.72300 25.36000
H  47.04600 36.48700 25.11200
H  42.39400 40.73800 21.40900
H  42.55800 43.62100 21.31800
H  45.17700 42.01400 21.43200
H  44.15600 42.77700 20.20000
H  44.23400 41.01400 20.28800
H  40.50700 42.06500 20.48900
H  40.18900 43.64100 21.01500
H  39.04000 43.03800 23.00600
H  39.97900 41.49900 23.11500
H  38.80800 41.50200 22.04400
H  40.65600 47.26300 24.36400
H  41.36300 48.10300 25.76200
H  39.69400 47.53100 25.79500
H  40.61500 44.94300 30.35500
H  43.64200 47.35200 32.61000
H  44.36600 45.74700 32.43300
H  43.23300 46.17900 33.66500
Mg 26.90600 50.93300 26.43000
C  24.93500 51.63900 29.10900
C  29.46900 49.89400 28.64300
C  29.00200 50.25300 23.86900
C  24.58400 52.32200 24.36600
N  27.11500 50.68200 28.49200
C  26.06700 50.89800 29.39700
C  26.49600 50.57800 30.82800
C  28.04600 50.46400 30.71100
C  28.28300 50.38200 29.18400
C  28.80900 51.55700 31.41100
C  25.70400 49.44300 31.40800
C  25.18800 49.46600 32.87800
H  26.18300 49.93500 33.94000
N  28.94100 50.27200 26.24600
C  29.79200 49.88300 27.27600
C  31.04000 49.38800 26.73900
C  30.89300 49.39000 25.27200
C  29.56000 49.95900 25.01600
C  32.12500 48.82600 27.64500
C  31.93700 48.82000 24.28400
O  31.79200 49.00800 23.05100
C  33.13200 48.21300 24.78900
N  26.84000 51.29700 24.44200
C  27.76600 50.90700 23.51700
C  27.18400 50.88100 22.07400
C  25.72500 51.48500 22.29900
C  25.69100 51.67100 23.85100
C  28.04400 51.30800 20.84100
C  24.50100 50.66000 21.79900
C  23.56900 51.24200 20.69600
N  25.03900 51.72400 26.56800
C  24.27400 52.36900 25.70400
C  23.07100 52.79600 26.40900
C  23.26500 52.62500 27.76100
C  24.52700 51.99000 27.81100
C  21.73000 53.38200 25.83300
C  22.79300 52.73700 29.11900
O  21.71000 53.17200 29.48500
C  23.85100 52.08600 30.09900
C  24.31000 53.15100 31.02100
O  24.87800 54.21800 30.76700
O  23.85500 52.75200 32.29400
C  23.91300 53.82000 33.31800
H  30.13700 49.53100 29.42700
H  29.53200 49.89000 22.98600
H  23.72800 52.37200 23.68900
H  26.22300 51.50300 31.33600
H  28.41500 49.56100 31.19700
H  29.35300 50.94000 32.12700
H  28.24200 52.33900 31.91700
H  29.47700 52.11300 30.75300
H  26.14900 48.44800 31.37400
H  24.80400 49.43900 30.79300
H  24.82400 48.45100 33.03800
H  24.31600 50.12100 32.87100
H  32.11700 47.73900 27.72800
H  32.16100 49.28000 28.63500
H  33.13200 49.00600 27.26900
H  32.88700 47.39800 25.47000
H  33.75300 48.99600 25.22500
H  33.56900 47.66500 23.95400
H  26.95700 49.81800 21.99800
H  25.76700 52.50600 21.91900
H  28.42700 50.36100 20.46100
H  28.87900 51.91100 21.19500
H  27.51800 51.99000 20.17300
H  23.86000 50.45100 22.65600
H  24.87900 49.73100 21.37500
H  23.71700 50.71800 19.75200
H  23.71300 52.32100 20.64100
H  22.60200 50.99600 21.13600
H  22.00800 54.41500 25.62300
H  21.00100 53.23000 26.62900
H  21.43900 52.81400 24.95000
H  23.43000 51.22300 30.61400
H  23.83800 54.85700 32.99100
H  24.79600 53.70300 33.94500
H  22.97900 53.73300 33.87400

