158

Mg 17.50800 -1.33300 28.70400
C  16.51600 0.62500 31.38400
C  19.21300 -3.23800 30.92200
C  19.41000 -2.63400 26.10900
C  16.26200 0.96200 26.48900
N  17.80700 -1.25700 30.84200
C  17.32200 -0.35800 31.77000
C  17.61200 -0.79200 33.24900
C  18.77400 -1.79400 32.95900
C  18.60500 -2.07800 31.51000
C  20.22900 -1.28900 33.21700
C  16.32100 -1.39200 33.92200
C  15.94200 -0.75900 35.22500
H  16.89400 -0.16900 36.22000
N  18.78700 -3.00000 28.54300
C  19.43200 -3.62100 29.59400
C  20.21700 -4.78600 29.04000
C  20.22200 -4.64700 27.61600
C  19.46400 -3.39500 27.34800
C  20.83700 -5.87000 29.94100
C  20.91800 -5.48600 26.55400
O  20.82300 -5.23900 25.36500
C  21.70600 -6.62200 26.99700
N  17.80400 -0.85900 26.62700
C  18.63300 -1.51000 25.82100
C  18.68700 -0.96100 24.39100
C  17.57400 0.16600 24.46900
C  17.23400 0.10800 25.98000
C  20.10700 -0.56000 23.79200
C  16.35500 -0.13600 23.54500
C  16.07900 1.02400 22.53100
N  16.44600 0.38300 28.89000
C  15.94200 1.17900 27.86500
C  14.98200 2.08900 28.40500
C  15.17700 1.94900 29.85000
C  16.14900 0.89500 30.02300
C  14.12500 3.20000 27.66700
C  14.81900 2.43500 31.23400
O  14.14500 3.33500 31.54000
C  15.72200 1.58100 32.18400
C  16.50500 2.50400 33.02900
O  17.59300 2.97600 32.80100
O  15.83200 2.87500 34.17000
C  16.35100 3.79700 35.18100
H  19.74900 -3.79600 31.69200
H  20.20000 -2.86400 25.39100
H  15.87100 1.78200 25.88500
H  17.93400 0.04500 33.86900
H  18.61100 -2.73600 33.48200
H  20.69500 -1.00600 32.27300
H  20.85600 -2.05600 33.67000
H  20.26000 -0.44200 33.90200
H  16.64100 -2.36700 34.28900
H  15.39700 -1.47800 33.35100
H  15.47000 -1.51200 35.85800
H  15.05800 -0.13400 35.10100
H  20.54500 -6.87500 29.63700
H  20.53300 -5.84900 30.98800
H  21.92200 -5.82900 29.84600
H  21.13900 -7.29400 27.64000
H  22.50700 -6.14900 27.56500
H  22.24700 -7.22000 26.26300
H  18.48800 -1.79500 23.71800
H  18.00700 1.15100 24.29800
H  20.33600 -1.04300 22.84200
H  20.78100 -0.79700 24.61500
H  19.99900 0.51200 23.62800
H  15.45600 -0.43200 24.08500
H  16.64400 -0.97500 22.91200
H  15.23900 0.88300 21.85100
H  16.89900 1.06600 21.81500
H  15.93700 1.95600 23.07900
H  14.40600 3.47800 26.65200
H  14.33500 4.07800 28.27900
H  13.07000 2.99600 27.85200
H  15.13600 1.03200 32.92100
H  16.13300 4.82800 34.90200
H  17.44000 3.84200 35.18500
H  15.96400 3.58400 36.17700
Mg 9.70500 47.24000 27.68400
C  8.05400 46.77600 30.73100
C  12.71800 47.57500 29.48700
C  11.12200 48.32500 24.88800
C  6.52600 47.79400 26.19200
N  10.27700 46.97000 29.76300
C  9.43500 46.80500 30.86700
C  10.25600 46.88800 32.20100
C  11.63300 47.37300 31.68300
C  11.52800 47.38700 30.22400
C  12.19700 48.76000 32.21800
C  10.29000 45.62100 33.16900
C  9.98900 45.89700 34.65200
H  10.64600 44.86100 35.64200
N  11.67100 47.68800 27.19200
C  12.72500 47.71400 28.02300
C  13.92100 47.96600 27.22600
C  13.49900 48.20000 25.85300
C  12.07000 48.09400 25.90700
C  15.24800 48.13700 27.83300
C  14.25600 48.54300 24.59900
O  13.66200 48.57500 23.50400
C  15.75800 48.52900 24.64400
N  8.88700 47.77000 25.75500
C  9.73300 48.20900 24.75500
C  8.94500 48.60000 23.46800
C  7.51000 48.31500 23.90400
C  7.61500 47.87500 25.31100
C  9.22300 49.99600 22.86800
C  6.61300 47.44900 23.00300
C  6.75800 47.51600 21.42800
N  7.74600 47.22900 28.29700
C  6.58900 47.52300 27.60700
C  5.44700 47.42400 28.50300
C  5.97900 47.12400 29.77000
C  7.35700 47.02600 29.55200
C  3.97100 47.52500 28.18300
C  5.68100 46.95600 31.13400
O  4.60500 47.00300 31.72100
C  7.02500 46.70400 31.81600
C  6.84300 45.28500 32.37000
O  6.70500 44.30100 31.66900
O  6.81700 45.19100 33.73000
C  6.86400 43.84400 34.26200
H  13.66100 47.66700 30.03000
H  11.48800 48.58600 23.89300
H  5.57600 48.07700 25.73400
H  9.90700 47.69900 32.84000
H  12.35100 46.56700 31.83600
H  12.31500 49.38700 31.33400
H  13.17400 48.68600 32.69600
H  11.44000 49.25400 32.82700
H  11.14100 44.93900 33.15100
H  9.50700 44.92300 32.87300
H  8.93700 46.09900 34.85300
H  10.42800 46.88900 34.76100
H  16.01400 47.55500 27.31900
H  15.26200 47.83900 28.88200
H  15.51600 49.19300 27.82400
H  15.98000 47.52700 25.01000
H  16.19900 49.25300 25.32800
H  16.13500 48.74300 23.64300
H  9.28600 47.78600 22.82800
H  6.95100 49.24600 24.00000
H  9.92400 50.59500 23.45000
H  8.26300 50.51200 22.91500
H  9.67700 50.00600 21.87800
H  5.58500 47.78000 23.15100
H  6.65500 46.41600 23.34700
H  7.49000 48.23900 21.06600
H  5.74700 47.77000 21.10900
H  7.13200 46.59200 20.98500
H  3.53600 46.53300 28.30600
H  3.75800 47.89100 27.17800
H  3.42700 48.08400 28.94400
H  7.07300 47.38900 32.66300
H  6.26400 43.19400 33.62600
H  6.60700 43.69500 35.31100
H  7.89300 43.52000 34.10700

