158

Mg 9.38000 47.35100 25.05500
C  7.11400 47.83900 27.58500
C  11.85300 48.51100 27.13700
C  11.59800 47.20800 22.37900
C  6.80900 46.67700 22.80500
N  9.45900 48.06100 27.16900
C  8.41800 48.13100 28.07100
C  8.93700 48.45300 29.46300
C  10.34200 49.06100 29.20000
C  10.59100 48.43900 27.80100
C  10.51000 50.56300 29.28000
C  9.04400 47.21000 30.38700
C  8.59300 47.57600 31.80800
H  8.91200 46.59900 32.96500
N  11.46400 47.61800 24.84000
C  12.27100 48.02900 25.83800
C  13.66900 48.05400 25.34600
C  13.62600 47.69400 23.98100
C  12.14100 47.53900 23.67600
C  14.88500 48.30400 26.22500
C  14.81500 47.37800 23.01800
O  14.66300 46.82700 21.94200
C  16.23600 47.79100 23.44200
N  9.24100 46.95300 22.96700
C  10.25500 46.94000 22.10500
C  9.87500 46.64500 20.59100
C  8.37700 46.36000 20.80600
C  8.06800 46.56000 22.31100
C  10.32800 47.63000 19.49800
C  8.05100 44.90000 20.43700
C  8.56700 43.78800 21.34700
N  7.35000 47.29700 25.12900
C  6.40400 46.96400 24.12500
C  5.07200 47.02900 24.70100
C  5.30700 47.35400 26.04500
C  6.70400 47.49700 26.26100
C  3.84200 46.80700 24.00000
C  4.68400 47.58700 27.26700
O  3.48500 47.48400 27.54400
C  5.83800 47.96500 28.29600
C  5.70500 46.87700 29.31300
O  5.98200 45.69800 29.17700
O  5.14100 47.43600 30.43800
C  4.64000 46.45600 31.36000
H  12.65400 48.94600 27.73800
H  12.17900 47.08400 21.46300
H  6.10300 46.47600 21.99700
H  8.37100 49.32300 29.79500
H  11.18300 48.60900 29.72600
H  10.24900 50.92600 28.28600
H  11.56100 50.71300 29.52900
H  9.76000 50.94900 29.97100
H  10.02400 46.74900 30.50600
H  8.45600 46.35000 30.06800
H  7.51000 47.61700 31.69200
H  8.84600 48.62700 31.94200
H  14.51300 48.43400 27.24100
H  15.42200 49.21200 25.95200
H  15.60200 47.50400 26.03700
H  16.79100 47.08700 24.06100
H  16.22700 48.78800 23.88400
H  16.84700 47.88100 22.54400
H  10.39800 45.70200 20.42900
H  7.78400 47.02800 20.18200
H  10.95800 48.31300 20.06800
H  9.47300 48.16800 19.08900
H  10.77500 47.01900 18.71400
H  8.34800 44.72500 19.40300
H  6.97400 44.74000 20.38500
H  9.32700 44.06300 22.07800
H  8.91300 43.01100 20.66500
H  7.75000 43.29400 21.87300
H  4.03600 45.96600 23.33500
H  3.43100 47.72700 23.58500
H  3.02500 46.37200 24.57700
H  5.59300 48.95600 28.67700
H  4.56600 46.88900 32.35800
H  5.23900 45.54600 31.38700
H  3.61200 46.22900 31.07800
Mg -6.25800 25.66800 26.08000
C  -5.08400 27.15000 29.04000
C  -8.22800 23.61900 28.08900
C  -6.89000 23.90400 23.43400
C  -3.91900 27.55000 24.37600
N  -6.54000 25.46100 28.36200
C  -5.96300 26.11500 29.36800
C  -6.53800 25.66400 30.62500
C  -7.33000 24.40600 30.28100
C  -7.42900 24.53500 28.79700
C  -6.63200 23.06900 30.72900
C  -7.45000 26.77400 31.31000
C  -7.40300 26.82500 32.90700
H  -6.64300 25.69700 33.73100
N  -7.45900 24.03600 25.72900
C  -8.27600 23.44600 26.64200
C  -9.05200 22.39900 26.01800
C  -8.62300 22.31400 24.66800
C  -7.59700 23.36500 24.54100
C  -10.10000 21.54600 26.70300
C  -9.18700 21.47400 23.62600
O  -8.75800 21.57200 22.46500
C  -10.25600 20.42100 23.88700
N  -5.39000 25.64900 24.18000
C  -6.00500 24.92100 23.24100
C  -5.42600 25.22300 21.84900
C  -4.56300 26.52900 22.05200
C  -4.68400 26.64700 23.60000
C  -4.70800 23.99000 21.15900
C  -5.08600 27.69800 21.24100
C  -6.41700 28.33800 21.63700
N  -4.79400 27.12000 26.48400
C  -3.83300 27.72900 25.74100
C  -3.15700 28.73900 26.48500
C  -3.59000 28.54200 27.78200
C  -4.51400 27.47900 27.74800
C  -2.21300 29.66300 25.94200
C  -3.45300 29.00500 29.14900
O  -2.90200 30.01600 29.65200
C  -4.31700 28.03600 30.01300
C  -3.44800 27.40200 30.99900
O  -2.89700 26.30900 30.92600
O  -3.31900 28.28700 32.06100
C  -2.65600 27.69400 33.27200
H  -8.83500 22.98400 28.73800
H  -6.91700 23.24000 22.56700
H  -3.19600 28.15700 23.82800
H  -5.67700 25.43000 31.25200
H  -8.34700 24.48400 30.66600
H  -6.41200 22.51400 29.81700
H  -7.24100 22.42700 31.36600
H  -5.70800 23.23700 31.28300
H  -8.50700 26.67200 31.06500
H  -7.09800 27.74600 30.96300
H  -8.44800 26.82100 33.22000
H  -6.98600 27.78500 33.21300
H  -9.65100 20.55300 26.74000
H  -11.01600 21.45400 26.12000
H  -10.22600 21.69500 27.77500
H  -9.88900 19.82600 24.72400
H  -10.39400 19.83700 22.97700
H  -11.21100 20.85000 24.19200
H  -6.34200 25.27100 21.26000
H  -3.53100 26.22100 21.87900
H  -5.27100 23.55200 20.33500
H  -4.50100 23.18800 21.86800
H  -3.73600 24.29500 20.77300
H  -5.19900 27.29000 20.23700
H  -4.30000 28.44700 21.33500
H  -7.04800 27.52100 21.98600
H  -6.97800 28.76300 20.80500
H  -6.34800 29.17400 22.33300
H  -2.36000 30.58800 26.49800
H  -2.37800 29.74500 24.86700
H  -1.17400 29.43000 26.17700
H  -4.97400 28.68400 30.59300
H  -3.44900 27.63200 34.01700
H  -1.84600 28.29800 33.68200
H  -2.35500 26.64800 33.22100

