158

Mg -0.90000 17.81500 27.49300
C  -1.65300 15.23400 30.02200
C  -1.55200 20.05300 30.05100
C  -0.94400 20.08400 25.17200
C  -0.84000 15.20300 25.21200
N  -1.47800 17.61300 29.79200
C  -1.67600 16.54700 30.52600
C  -1.76500 16.92200 32.06800
C  -1.93400 18.50900 32.03900
C  -1.46900 18.77300 30.57600
C  -3.39300 19.02500 32.41900
C  -0.59400 16.34200 32.86900
C  -0.01300 17.07200 34.13600
H  0.63300 16.27900 35.26300
N  -1.22600 19.73500 27.57400
C  -1.56800 20.47700 28.66800
C  -1.73100 21.87600 28.29100
C  -1.57000 21.96400 26.90200
C  -1.15200 20.57100 26.51300
C  -2.04800 22.94800 29.24000
C  -1.72700 23.15300 25.93000
O  -1.55100 23.12800 24.71100
C  -1.96500 24.46300 26.48100
N  -0.86000 17.60500 25.51400
C  -0.78500 18.78800 24.74800
C  -0.66500 18.36600 23.23300
C  -0.39600 16.78300 23.30400
C  -0.67100 16.49500 24.77300
C  -1.89200 18.80100 22.37300
C  0.98700 16.20100 22.88200
C  2.11700 16.40300 23.96600
N  -1.11000 15.61800 27.60400
C  -1.14100 14.74000 26.49500
C  -1.31100 13.35800 27.00300
C  -1.57200 13.51500 28.39200
C  -1.41400 14.91700 28.65100
C  -1.32500 12.11400 26.25800
C  -1.94700 12.84500 29.59600
O  -2.16600 11.62800 29.78400
C  -1.97300 13.92100 30.73900
C  -0.85800 13.48000 31.60000
O  0.35800 13.72200 31.42500
O  -1.35500 12.83900 32.68400
C  -0.32500 12.28500 33.65100
H  -1.78500 20.81200 30.80100
H  -0.84800 20.88200 24.43300
H  -0.68700 14.49500 24.39500
H  -2.74000 16.55700 32.38900
H  -1.17100 18.97300 32.66500
H  -3.92700 18.40800 33.14200
H  -3.98700 19.18800 31.51900
H  -3.36100 19.99000 32.92500
H  0.30600 16.23300 32.26400
H  -0.89000 15.41100 33.35200
H  -0.85900 17.61300 34.56000
H  0.77800 17.76600 33.85400
H  -3.12300 22.93100 29.41900
H  -1.84600 23.96500 28.90700
H  -1.67600 22.82500 30.25700
H  -2.87000 24.31300 27.07000
H  -2.14500 25.06000 25.58700
H  -1.06800 24.78700 27.00800
H  0.11000 18.97600 22.76900
H  -1.19300 16.32500 22.71900
H  -2.47600 17.98700 21.94500
H  -1.60600 19.40700 21.51300
H  -2.59100 19.33300 23.01900
H  1.25600 16.62600 21.91500
H  0.96600 15.11400 22.80300
H  2.19600 15.49500 24.56400
H  2.09300 17.23400 24.67000
H  3.07200 16.56400 23.46600
H  -0.64300 12.13900 25.40800
H  -2.32600 11.96500 25.85300
H  -1.05400 11.24300 26.85500
H  -2.92800 13.85900 31.26100
H  0.68400 12.25300 33.23900
H  -0.64100 11.29700 33.98700
H  -0.38900 12.92500 34.53100
Mg -1.15200 35.28900 26.66700
C  -3.01700 33.60600 29.14700
C  -0.01900 37.43600 28.96600
C  0.36700 36.92900 24.06400
C  -2.59900 33.11100 24.17800
N  -1.45500 35.44800 28.82700
C  -2.23000 34.62200 29.61200
C  -2.15900 35.17200 31.07500
C  -1.33900 36.46900 30.98400
C  -0.85300 36.38500 29.47600
C  -2.21100 37.67600 31.42000
C  -1.44400 33.96500 31.87600
C  -2.18600 33.47700 33.13200
H  -1.34800 33.21600 34.41600
N  -0.01700 37.00800 26.48000
C  0.42800 37.71000 27.59800
C  1.24200 38.85000 27.13600
C  1.27600 38.74200 25.69600
C  0.51700 37.52600 25.33100
C  1.86400 39.80500 28.10900
C  1.78400 39.70700 24.64700
O  1.66600 39.51400 23.46400
C  2.55000 40.97300 25.12100
N  -1.01900 34.98400 24.43000
C  -0.32800 35.83600 23.62200
C  -0.32000 35.37800 22.16700
C  -1.29300 34.13000 22.16500
C  -1.64300 34.02400 23.67200
C  -0.66600 36.50300 21.17400
C  -0.73600 32.78100 21.65800
C  0.35400 32.18200 22.48800
N  -2.46200 33.72400 26.62400
C  -3.00600 32.97800 25.57200
C  -3.94400 31.97900 26.13000
C  -3.91600 32.17700 27.47800
C  -3.04000 33.24700 27.77600
C  -4.69600 30.85500 25.40900
C  -4.42900 31.69400 28.78200
O  -5.29100 30.81900 28.99300
C  -3.83200 32.52900 29.86300
C  -4.84200 33.24300 30.65000
O  -5.32000 34.33800 30.36600
O  -5.14500 32.51500 31.79200
C  -6.40200 32.88300 32.57500
H  0.33700 38.00200 29.83000
H  1.01900 37.33400 23.28600
H  -3.06300 32.54500 23.36800
H  -3.13500 35.37200 31.51700
H  -0.44900 36.32500 31.59700
H  -3.20200 37.47800 31.82900
H  -2.35900 38.25300 30.50800
H  -1.62700 38.29100 32.10400
H  -0.44700 34.22300 32.23400
H  -1.15500 33.16200 31.19900
H  -2.45800 32.43400 32.97000
H  -3.07000 34.08100 33.33900
H  2.94100 39.73600 27.96200
H  1.65600 39.63500 29.16500
H  1.58700 40.82900 27.86100
H  1.97600 41.70300 25.69100
H  2.85100 41.52300 24.22900
H  3.41200 40.67300 25.71500
H  0.68600 35.06800 21.88600
H  -2.23800 34.31500 21.65500
H  -1.13800 37.33500 21.69700
H  -1.26700 36.14100 20.33900
H  0.23000 36.86500 20.67100
H  -0.31100 32.94300 20.66800
H  -1.57900 32.09100 21.62500
H  -0.17600 31.38200 23.00500
H  0.85500 32.84300 23.19600
H  1.11900 31.75700 21.83800
H  -5.00800 30.02300 26.04100
H  -4.09500 30.42900 24.60500
H  -5.62700 31.30900 25.07000
H  -3.24600 31.91900 30.55100
H  -6.20400 33.20900 33.59600
H  -6.91900 31.92500 32.64700
H  -7.01200 33.56300 31.98100

