158

Mg 8.11600 4.22400 27.31900
C  9.52200 2.36600 29.94800
C  6.44500 6.14600 29.51100
C  6.60500 5.43000 24.59900
C  9.82700 1.78500 25.15200
N  7.94800 4.19600 29.49800
C  8.69900 3.43300 30.36200
C  8.46700 3.99900 31.81800
C  7.39900 5.16500 31.65600
C  7.25000 5.18700 30.12300
C  5.97600 5.08300 32.38300
C  9.85200 4.50500 32.38000
C  10.10300 4.01200 33.81200
H  10.65800 5.10900 34.83500
N  6.72100 5.64000 27.11200
C  6.11200 6.36000 28.13800
C  5.43600 7.48700 27.54900
C  5.43900 7.20300 26.14300
C  6.26900 6.02200 25.87100
C  4.51400 8.40500 28.39100
C  4.73400 7.98200 25.08900
O  4.70900 7.69500 23.90000
C  4.07800 9.30800 25.38000
N  8.09700 3.59000 25.19200
C  7.40500 4.32400 24.28000
C  7.73800 3.88400 22.82500
C  8.89100 2.86400 23.00700
C  8.94000 2.73400 24.53800
C  6.54600 3.40800 21.95700
C  10.24400 3.25900 22.37000
C  11.05600 2.21600 21.66900
N  9.47800 2.48700 27.49400
C  10.00300 1.60000 26.56600
C  10.94100 0.68000 27.28700
C  10.76600 0.97300 28.66100
C  9.87700 1.98200 28.64000
C  11.60400 -0.44900 26.60800
C  11.17600 0.63000 30.02300
O  12.11600 -0.04500 30.41200
C  10.32800 1.55600 30.88200
C  9.55100 0.75800 31.90900
O  8.57000 0.01400 31.70800
O  9.95200 1.09700 33.17400
C  9.06000 0.59500 34.24100
H  6.13100 6.90800 30.22700
H  6.09700 5.74900 23.68700
H  10.56600 1.20500 24.59400
H  7.98600 3.20400 32.38800
H  7.71800 6.16000 31.96600
H  5.17900 5.30900 31.67500
H  6.02600 5.92000 33.07900
H  5.93400 4.18200 32.99500
H  9.83300 5.59300 32.45700
H  10.67800 4.28600 31.70300
H  10.87700 3.24700 33.75400
H  9.19300 3.56400 34.21000
H  3.56500 8.51600 27.86700
H  4.87600 9.43300 28.42900
H  4.36300 7.95700 29.37300
H  4.16000 9.95300 24.50500
H  4.65200 9.77200 26.18200
H  3.02000 9.06900 25.48800
H  8.09500 4.72900 22.23600
H  8.60900 1.86600 22.66900
H  5.65000 3.18400 22.53500
H  6.86000 2.53900 21.37900
H  6.24000 4.19100 21.26300
H  10.86400 3.43200 23.25000
H  10.22700 4.23800 21.89100
H  11.28800 2.60300 20.67700
H  10.59400 1.24200 21.50400
H  11.99900 2.12800 22.20900
H  12.33200 0.04900 25.96700
H  10.93800 -1.18700 26.16100
H  12.19100 -0.97900 27.35800
H  11.04500 2.18500 31.41000
H  8.01900 0.76400 33.96300
H  9.23500 1.01000 35.23400
H  9.20100 -0.48300 34.31600
Mg 36.12600 49.25000 25.48300
C  35.96700 47.41500 28.53900
C  35.38300 52.08100 27.33500
C  35.98600 50.93200 22.59300
C  36.33000 46.22600 23.73000
N  35.77400 49.70700 27.71900
C  35.73600 48.78600 28.75300
C  35.64300 49.56600 30.15300
C  35.20400 50.99400 29.60600
C  35.46900 50.95900 28.14500
C  33.72000 51.35500 29.83900
C  36.89900 49.42500 31.05200
C  36.64300 48.95500 32.50900
H  35.24300 49.29200 33.14400
N  35.83500 51.25600 25.06600
C  35.56600 52.26200 25.93700
C  35.54200 53.54000 25.16600
C  35.79700 53.23100 23.80000
C  35.92300 51.78400 23.76700
C  35.41700 54.85700 25.83400
C  36.00400 54.17200 22.61700
O  36.33700 53.83300 21.49300
C  35.64500 55.55400 22.72700
N  35.85600 48.65100 23.48900
C  35.84800 49.58900 22.53600
C  35.92500 48.86400 21.16100
C  36.38000 47.38200 21.53100
C  36.09900 47.40700 23.00900
C  34.59900 48.98900 20.43000
C  37.97800 47.16400 21.33700
C  38.26300 46.29800 20.11900
N  36.08100 47.28900 25.97200
C  36.22500 46.16300 25.14300
C  36.27600 44.97700 25.94500
C  36.12000 45.42100 27.28800
C  36.13300 46.82400 27.27300
C  36.31000 43.54200 25.43600
C  36.08000 45.04200 28.68600
O  36.15100 43.91400 29.21800
C  35.99900 46.30700 29.56000
C  34.69100 46.14200 30.33200
O  33.56500 46.25400 29.84200
O  34.89600 45.80500 31.63300
C  33.56600 45.54100 32.30200
H  35.15200 52.96200 27.93700
H  36.00100 51.38900 21.60200
H  36.45200 45.31400 23.14200
H  34.79900 49.12300 30.68200
H  35.82800 51.74400 30.09200
H  33.28200 50.68300 30.57800
H  33.00900 51.30900 29.01500
H  33.67900 52.38100 30.20500
H  37.45700 50.36100 31.08700
H  37.51400 48.68700 30.53800
H  37.39700 49.50200 33.07500
H  36.79800 47.89600 32.71600
H  36.31500 55.45400 25.67200
H  35.54300 54.77800 26.91300
H  34.50500 55.35000 25.49900
H  34.56300 55.61300 22.84000
H  35.86900 56.08900 21.80300
H  36.13500 56.04200 23.56900
H  36.68000 49.31500 20.51800
H  35.71000 46.76000 20.93700
H  34.24900 48.00900 20.10500
H  34.63400 49.74200 19.64300
H  33.82600 49.21700 21.16500
H  38.50800 46.73400 22.18700
H  38.47000 48.11600 21.13900
H  38.81200 45.38100 20.33400
H  38.82700 46.89800 19.40400
H  37.35000 45.98500 19.61300
H  37.17400 43.51800 24.77100
H  35.44100 43.33400 24.81200
H  36.37300 42.82600 26.25500
H  36.88800 46.35200 30.18900
H  32.80300 46.29000 32.09300
H  33.80200 45.47800 33.36500
H  33.27700 44.51800 32.06000

