158

Mg 16.33600 52.44600 26.42800
C  18.09200 51.04600 29.20600
C  14.08200 53.68200 28.70200
C  14.36100 52.93300 23.90100
C  18.77100 50.95300 24.33500
N  15.98600 52.19800 28.66700
C  16.93200 51.75000 29.62400
C  16.46800 52.11000 31.06200
C  15.01500 52.53900 30.83900
C  14.98900 52.86800 29.31500
C  13.93300 51.48100 31.18600
C  17.32600 53.28100 31.69900
C  17.85100 53.04000 33.07100
H  17.01300 52.02100 33.92800
N  14.60300 53.33800 26.30100
C  13.82200 53.86600 27.31200
C  12.70600 54.66600 26.67000
C  12.64900 54.27300 25.30700
C  13.88700 53.45100 25.11500
C  11.73700 55.59700 27.43400
C  11.56800 54.65800 24.22800
O  11.61600 54.40200 22.99900
C  10.48100 55.60300 24.65800
N  16.64300 52.01400 24.39400
C  15.62000 52.27100 23.51200
C  15.98800 51.83500 22.10700
C  17.51300 51.47900 22.23000
C  17.65900 51.48200 23.73000
C  15.17800 50.65100 21.56200
C  18.38800 52.49700 21.44000
C  18.97700 53.77900 21.96300
N  18.11300 51.33600 26.70800
C  18.96300 50.78900 25.74600
C  20.05000 49.98800 26.35800
C  19.71100 50.11700 27.69000
C  18.53600 50.88800 27.82800
C  21.24100 49.35900 25.77000
C  20.22400 49.91300 29.03000
O  21.29500 49.44700 29.31700
C  19.20700 50.50900 30.06000
C  18.75600 49.34300 30.93000
O  17.79200 48.63800 30.64200
O  19.59200 49.22700 32.02200
C  19.39100 48.11300 32.87900
H  13.36500 54.19600 29.34500
H  13.85000 53.16100 22.96300
H  19.57500 50.56800 23.70300
H  16.60200 51.15300 31.56600
H  14.74400 53.49300 31.29200
H  13.55700 51.65200 32.19500
H  14.25600 50.45100 31.03600
H  13.10400 51.54400 30.48100
H  16.78000 54.22200 31.63700
H  18.19600 53.35100 31.04600
H  17.96200 53.94500 33.66900
H  18.82700 52.59900 32.87200
H  11.85900 56.60900 27.04900
H  12.05100 55.79500 28.45800
H  10.68800 55.30100 27.42900
H  9.66600 55.47100 23.94600
H  10.87600 56.60900 24.79600
H  10.05000 55.27000 25.60200
H  15.72000 52.62700 21.40800
H  17.80600 50.50800 21.83100
H  15.78800 49.74800 21.54600
H  14.95100 50.78800 20.50400
H  14.22000 50.46800 22.04900
H  17.96000 52.96100 20.55200
H  19.13400 51.90800 20.90600
H  18.47400 54.67000 21.58800
H  20.01600 53.75800 21.63300
H  18.98800 53.89600 23.04700
H  22.06400 49.26500 26.47800
H  21.53500 49.76200 24.80100
H  21.03200 48.29000 25.75100
H  19.73000 51.21700 30.70300
H  19.28900 47.21600 32.26700
H  18.40200 48.16100 33.33500
H  20.09500 48.06700 33.70900
Mg -5.45900 25.46800 25.44600
C  -3.70000 26.95200 27.95700
C  -6.68400 23.13100 27.53500
C  -7.17800 24.24300 22.81100
C  -3.92800 27.72400 23.20400
N  -5.18000 25.14700 27.50800
C  -4.48800 25.89100 28.40500
C  -4.76900 25.44200 29.81500
C  -5.55600 24.11000 29.62300
C  -5.86000 24.15700 28.12200
C  -4.74500 22.82000 30.08900
C  -5.53600 26.58600 30.57400
C  -4.85400 26.91200 31.89100
H  -4.50000 25.83400 32.91400
N  -6.86600 23.87000 25.25500
C  -7.28700 23.09500 26.25100
C  -8.31100 22.19200 25.74600
C  -8.38100 22.39700 24.34500
C  -7.46400 23.54500 24.06300
C  -9.12900 21.31900 26.74700
C  -9.20400 21.69900 23.38300
O  -9.34100 22.09400 22.23500
C  -10.07300 20.60000 23.81500
N  -5.32300 25.74200 23.24000
C  -6.25500 25.21800 22.44400
C  -6.19000 25.80000 21.01500
C  -5.16100 26.98300 21.18900
C  -4.76600 26.83800 22.63200
C  -5.81000 24.79000 19.87800
C  -5.73200 28.40000 20.95600
C  -4.96100 29.44600 20.22100
N  -4.00000 26.92500 25.50000
C  -3.50200 27.77400 24.48100
C  -2.48300 28.66500 25.06700
C  -2.55900 28.40800 26.44400
C  -3.46100 27.34400 26.65900
C  -1.70200 29.81100 24.45300
C  -2.00700 28.67800 27.77000
O  -1.12700 29.46400 28.11200
C  -2.81000 27.80200 28.80400
C  -1.86400 27.01700 29.64300
O  -1.15100 26.09400 29.25600
O  -1.89600 27.58200 30.92200
C  -1.03000 26.93200 31.91000
H  -7.06200 22.33100 28.17500
H  -7.80900 23.86800 22.00300
H  -3.51700 28.33400 22.39800
H  -3.78300 25.28100 30.25100
H  -6.44100 24.08900 30.25900
H  -4.57200 22.09500 29.29400
H  -5.27100 22.28700 30.88200
H  -3.75600 23.11900 30.43600
H  -6.54800 26.28000 30.83900
H  -5.78100 27.43700 29.93800
H  -5.67400 27.50300 32.29800
H  -3.96500 27.50500 31.67700
H  -10.17500 21.60700 26.85000
H  -8.69700 21.31400 27.74800
H  -9.11700 20.28200 26.41300
H  -9.53500 19.81900 24.35200
H  -10.44300 20.21000 22.86700
H  -10.99800 20.90000 24.30800
H  -7.17700 26.20500 20.78900
H  -4.25600 26.78300 20.61600
H  -6.46200 23.93500 20.06000
H  -4.77800 24.44100 19.90700
H  -5.97500 25.32100 18.94100
H  -6.09000 28.93200 21.83800
H  -6.65900 28.25700 20.40100
H  -4.04900 29.06600 19.76000
H  -4.73100 30.34000 20.80100
H  -5.58900 29.82000 19.41200
H  -1.98900 30.19000 23.47200
H  -0.72500 29.42500 24.16200
H  -1.61200 30.67600 25.10900
H  -3.37700 28.47200 29.45000
H  -1.06900 27.47200 32.85600
H  -0.06200 27.19100 31.48000
H  -1.22000 25.86100 31.83700

