158

Mg 9.06400 4.03000 27.70900
C  10.19400 2.52500 30.66800
C  6.80800 5.80800 29.55600
C  7.81400 5.27700 24.80400
C  10.81800 1.55900 25.89000
N  8.45800 3.99200 29.82900
C  9.10500 3.31500 30.87100
C  8.62800 3.83600 32.26200
C  7.29100 4.60300 31.82700
C  7.44400 4.79800 30.29700
C  5.94000 3.96200 32.24900
C  9.73800 4.70400 32.98900
C  9.91600 4.51400 34.52100
H  11.23300 4.82300 35.22300
N  7.60100 5.46300 27.27600
C  6.81100 6.16400 28.16700
C  6.06100 7.17200 27.46300
C  6.36600 7.03800 26.06500
C  7.31200 5.90900 26.02900
C  5.06800 8.04000 28.14000
C  5.74200 7.79100 24.79700
O  6.04700 7.48200 23.65100
C  4.83900 8.97500 25.09800
N  9.12500 3.46000 25.68600
C  8.60000 4.18100 24.66900
C  9.14600 3.73100 23.26000
C  9.90600 2.38300 23.61200
C  10.03100 2.52900 25.18700
C  7.96400 3.41400 22.31000
C  11.21900 2.22400 22.87700
C  11.42500 0.94600 22.04000
N  10.32800 2.44000 28.13000
C  10.96900 1.52000 27.31400
C  11.76800 0.55100 28.18200
C  11.56200 1.01100 29.44500
C  10.68600 2.14500 29.44100
C  12.58700 -0.60200 27.68900
C  11.91800 0.69400 30.75700
O  12.68700 -0.10800 31.22200
C  11.05600 1.69500 31.67400
C  10.42900 1.00400 32.79500
O  9.40700 0.34400 32.71400
O  11.25700 1.09600 33.88600
C  10.79400 0.39900 35.06400
H  6.09500 6.38300 30.15000
H  7.57200 5.63500 23.80100
H  11.36200 0.85000 25.26300
H  8.42500 2.92000 32.81700
H  7.25700 5.61800 32.22100
H  5.49500 4.61700 32.99700
H  6.15300 3.03500 32.78200
H  5.25600 3.86200 31.40600
H  9.47000 5.72800 32.73000
H  10.69600 4.49200 32.51500
H  9.52000 3.55300 34.84900
H  9.18900 5.27200 34.81200
H  4.07000 7.78000 27.78900
H  5.08900 9.10300 27.89600
H  5.07300 7.99500 29.22900
H  4.53300 9.53000 24.21100
H  5.40600 9.66600 25.72300
H  4.02900 8.65600 25.75300
H  9.77800 4.56900 22.96500
H  9.18300 1.56800 23.60800
H  6.98600 3.64600 22.73100
H  7.86100 2.43800 21.83500
H  8.06000 4.02100 21.41000
H  12.06800 2.20500 23.56000
H  11.24100 3.06200 22.18100
H  11.86200 1.23100 21.08300
H  10.42900 0.51200 21.95500
H  12.17900 0.30500 22.49700
H  13.59300 -0.20700 27.54600
H  12.18600 -0.86500 26.71000
H  12.71100 -1.36000 28.46200
H  11.86300 2.24800 32.15400
H  11.58500 -0.25900 35.42600
H  9.92800 -0.26100 35.01600
H  10.55200 1.10100 35.86100
Mg 41.01600 9.19200 29.61900
C  43.00600 10.27800 32.26200
C  38.59100 8.10300 32.00500
C  39.11600 7.89700 27.12000
C  43.45300 9.92100 27.48800
N  40.84900 9.19800 31.90700
C  41.76000 9.78700 32.72400
C  41.16900 9.70400 34.17800
C  39.87300 8.79100 34.07500
C  39.71200 8.78900 32.52900
C  39.75900 7.48500 34.80700
C  40.88800 11.14100 34.67000
C  40.03100 11.34500 35.96600
H  40.63700 12.09800 37.19800
N  39.07700 8.13700 29.51300
C  38.24500 7.77900 30.62000
C  37.15000 6.96200 30.11200
C  37.16400 7.15100 28.67600
C  38.52100 7.71600 28.38500
C  36.24900 6.20400 31.01700
C  36.15800 6.77500 27.71000
O  36.29100 7.01400 26.52400
C  34.84800 6.14900 28.17600
N  41.26900 8.81300 27.62700
C  40.39500 8.34300 26.77200
C  40.82900 8.51100 25.31700
C  42.14500 9.26900 25.42200
C  42.31700 9.35100 26.98400
C  40.78500 7.16900 24.45400
C  42.39400 10.58000 24.62200
C  41.56700 11.78700 24.96500
N  42.90800 9.89300 29.86000
C  43.84300 10.19700 28.85200
C  45.03500 10.86500 29.43600
C  44.69600 10.86600 30.83700
C  43.49700 10.26600 31.04500
C  46.25200 11.44500 28.66300
C  45.18900 11.30400 32.07000
O  46.31300 11.79100 32.39900
C  44.01500 11.08500 33.05600
C  44.52900 10.41800 34.31100
O  45.07700 9.34800 34.31100
O  44.42400 11.25300 35.40300
C  44.94300 10.64900 36.63100
H  37.79900 7.84600 32.71200
H  38.61300 7.48300 26.24300
H  44.24700 10.28500 26.83200
H  41.87000 9.14100 34.79400
H  39.00400 9.36000 34.40600
H  40.64600 7.35600 35.42800
H  39.45300 6.74900 34.06300
H  38.92600 7.51700 35.50900
H  40.45800 11.75600 33.88000
H  41.90600 11.51900 34.76200
H  39.64200 10.41600 36.38300
H  39.15000 11.87200 35.60000
H  35.28300 6.69900 31.12400
H  36.59700 6.08900 32.04400
H  36.07500 5.20800 30.60900
H  34.45400 6.67500 29.04500
H  34.92800 5.07600 28.34800
H  34.02700 6.31300 27.47800
H  40.11900 9.22200 24.89300
H  42.95900 8.69100 24.98300
H  40.54300 6.33900 25.11800
H  41.75100 7.09900 23.95300
H  40.07100 7.28100 23.63800
H  42.05700 10.28900 23.62700
H  43.46800 10.74200 24.53000
H  42.36300 12.47100 25.26200
H  40.86400 11.48900 25.74300
H  41.01500 12.00500 24.05100
H  46.21400 11.16600 27.61000
H  47.07000 11.01600 29.24100
H  46.27700 12.53500 28.68500
H  43.60900 12.05600 33.33700
H  44.87700 9.56500 36.54200
H  44.37300 11.02700 37.47900
H  45.98100 10.85300 36.89500

