158

Mg 48.33700 35.36700 28.27900
C  46.79200 33.51600 30.79700
C  48.58300 38.00900 30.50200
C  49.95400 37.18200 25.79500
C  47.73300 32.80400 26.12900
N  47.93000 35.63700 30.50000
C  47.33300 34.73000 31.29100
C  47.52100 35.15400 32.70600
C  47.51800 36.70900 32.50000
C  47.99000 36.82200 31.04700
C  46.13000 37.33900 32.65200
C  48.80400 34.67900 33.34700
C  48.76000 34.59800 34.81100
H  47.70300 35.47100 35.57500
N  49.07700 37.32600 28.14200
C  49.09900 38.22400 29.18800
C  49.72900 39.46700 28.73600
C  50.18300 39.28700 27.35300
C  49.79800 37.82700 27.04400
C  49.65100 40.64500 29.68000
C  50.91400 40.25900 26.40100
O  51.30800 39.93100 25.26500
C  51.38200 41.60000 26.90700
N  48.71500 35.05200 26.28000
C  49.37600 35.90700 25.47100
C  49.49200 35.39500 24.02200
C  48.98300 33.91700 24.26100
C  48.52100 33.85200 25.68400
C  48.64000 36.15200 22.94800
C  50.00400 32.85500 23.99200
C  49.87500 32.19100 22.55800
N  47.36300 33.52600 28.37900
C  47.14500 32.63100 27.39000
C  46.41700 31.46600 27.86100
C  46.25400 31.79500 29.25100
C  46.78000 33.02100 29.47900
C  46.02000 30.29500 27.09800
C  45.68800 31.33700 30.56800
O  45.15000 30.23800 30.89500
C  45.87800 32.51700 31.57700
C  46.43700 31.94000 32.77200
O  47.54500 31.45600 32.85900
O  45.51900 32.11900 33.76500
C  45.95800 31.83700 35.17800
H  48.60500 38.80300 31.25100
H  50.41700 37.63800 24.91700
H  47.57400 31.97700 25.43300
H  46.60400 34.79000 33.16800
H  48.21000 37.15400 33.21600
H  45.47000 36.82600 33.35100
H  45.71400 37.47800 31.65400
H  46.24200 38.35100 33.04100
H  49.58200 35.39300 33.07600
H  49.16200 33.79900 32.81100
H  49.80500 34.72200 35.09600
H  48.57500 33.53500 34.96600
H  50.59400 40.68500 30.22500
H  48.75200 40.75700 30.28700
H  49.67700 41.52700 29.04000
H  52.27300 41.89000 26.35100
H  51.64200 41.65000 27.96400
H  50.56800 42.30500 26.74000
H  50.54700 35.40700 23.74800
H  48.09200 33.85600 23.63500
H  48.72000 37.23300 23.05400
H  47.60200 35.83200 23.04200
H  49.04600 35.83000 21.98900
H  50.03000 32.09800 24.77700
H  50.96900 33.35500 23.91400
H  49.36400 32.92200 21.93200
H  49.24700 31.30400 22.64000
H  50.85100 31.96000 22.13100
H  45.44700 29.61500 27.72700
H  46.93700 29.83800 26.72600
H  45.42000 30.70400 26.28500
H  44.87300 32.92300 31.69500
H  46.43800 32.75800 35.51000
H  46.60500 30.96800 35.29900
H  45.08700 31.68800 35.81500
Mg 26.77000 49.47600 25.70300
C  24.80000 50.58700 28.25400
C  29.08900 48.59900 27.99900
C  28.88300 48.80300 23.17300
C  24.46400 50.75500 23.43000
N  26.87700 49.65500 27.88900
C  25.97400 50.09300 28.76200
C  26.33200 49.72000 30.19100
C  27.83600 49.48400 30.03600
C  27.95100 49.16400 28.52400
C  28.79100 50.58600 30.46100
C  25.45400 48.59400 30.92300
C  24.85900 48.84100 32.34700
H  25.76600 49.52700 33.39600
N  28.71500 48.72200 25.62300
C  29.54100 48.38900 26.71900
C  30.79600 47.75600 26.25000
C  30.81700 47.83300 24.80000
C  29.47000 48.42000 24.42800
C  31.95200 47.26200 27.10500
C  31.90900 47.54700 23.76900
O  31.67900 47.79100 22.60200
C  33.21500 46.96900 24.28500
N  26.69700 49.74600 23.59400
C  27.69300 49.43200 22.76500
C  27.30500 49.63400 21.28800
C  25.84700 50.17800 21.37500
C  25.59800 50.18100 22.89700
C  28.29300 50.49200 20.43900
C  24.65800 49.41500 20.62400
C  24.00100 50.01500 19.40400
N  25.03700 50.53500 25.81000
C  24.17700 50.97300 24.76500
C  23.07500 51.70000 25.33300
C  23.27500 51.53400 26.74400
C  24.45700 50.78100 26.92800
C  21.92200 52.23000 24.59500
C  22.61900 51.80300 28.02400
O  21.57800 52.39000 28.33100
C  23.62900 51.15800 29.01800
C  23.97400 52.14400 30.11900
O  24.37300 53.27900 29.81300
O  23.89200 51.54700 31.40000
C  24.27400 52.35400 32.55800
H  29.83000 48.31200 28.74700
H  29.47700 48.64100 22.27100
H  23.78500 51.30600 22.77600
H  26.31000 50.68200 30.70300
H  28.07200 48.58500 30.60700
H  29.31900 51.01200 29.60900
H  29.61600 50.06700 30.95000
H  28.23900 51.37600 30.97100
H  26.01400 47.65900 30.89700
H  24.59300 48.36900 30.29500
H  24.79900 47.78200 32.59900
H  23.88400 49.31900 32.25800
H  31.85100 46.18400 26.97700
H  31.75600 47.62700 28.11200
H  32.95100 47.62000 26.85300
H  33.05300 46.03000 24.81500
H  33.76900 47.70600 24.86700
H  33.95200 46.65400 23.54600
H  27.28900 48.62100 20.88500
H  25.77800 51.20900 21.02700
H  29.17400 50.85700 20.96900
H  27.75100 51.40300 20.18600
H  28.57300 49.92800 19.54900
H  23.89000 49.28100 21.38500
H  25.00800 48.41200 20.38000
H  24.12000 49.25900 18.62700
H  24.50800 50.94100 19.13300
H  22.97000 50.17200 19.72000
H  21.63600 51.69600 23.68900
H  22.15800 53.26300 24.34100
H  21.00700 52.25800 25.18600
H  23.07900 50.36900 29.53100
H  24.16200 51.65400 33.38500
H  23.51500 53.13600 32.52600
H  25.29400 52.73800 32.55400

