158

Mg 2.08400 -2.00200 44.93300
C  5.30900 -1.22300 44.10200
C  0.96200 0.47900 42.72900
C  -1.00800 -3.22700 45.08700
C  3.38300 -5.17100 46.06000
N  3.02800 -0.62200 43.51100
C  4.36900 -0.43500 43.41200
C  4.77500 0.74700 42.56600
C  3.42400 1.40200 42.16800
C  2.38500 0.45100 42.85700
C  3.25700 2.84700 42.57800
C  5.70400 0.35800 41.27700
C  6.97700 1.15200 41.13200
H  7.54400 1.22500 39.65100
N  0.24700 -1.38300 44.16700
C  0.02300 -0.36800 43.30900
C  -1.34400 -0.20300 43.11600
C  -2.06400 -1.22100 43.82900
C  -0.94000 -1.97800 44.39600
C  -1.84300 0.82600 42.18200
C  -3.54600 -1.56100 43.87500
O  -4.27600 -0.89400 43.21800
C  -4.19300 -2.68400 44.69600
N  1.32100 -3.96600 45.26900
C  0.00600 -4.11400 45.45400
C  -0.34100 -5.50000 46.13700
C  1.03900 -6.13000 46.28700
C  2.04300 -5.00800 45.86700
C  -1.25400 -5.33900 47.36500
C  1.20200 -7.48100 45.54000
C  1.58000 -8.73900 46.25100
N  3.98200 -2.98000 45.38000
C  4.36700 -4.22400 45.84400
C  5.79700 -4.32400 45.90000
C  6.14400 -3.06700 45.35200
C  5.05800 -2.34700 45.00000
C  6.63400 -5.46600 46.49100
C  7.34700 -2.26000 44.98300
O  8.51900 -2.55600 45.23100
C  6.82700 -1.01600 44.22500
C  7.32500 0.22600 44.95200
O  6.97600 0.64000 46.04200
O  8.23900 0.87400 44.14800
C  8.59800 2.15600 44.63100
H  0.70200 1.39000 42.18400
H  -1.97500 -3.71300 45.23100
H  3.63300 -6.13600 46.50400
H  5.37700 1.33600 43.25900
H  3.32000 1.41800 41.08300
H  2.72500 2.92400 43.52600
H  2.78000 3.36700 41.74700
H  4.20700 3.37500 42.65700
H  5.25900 0.32100 40.28200
H  6.13800 -0.62600 41.45300
H  7.70600 0.66200 41.77800
H  6.77500 2.09400 41.64100
H  -1.80800 0.41600 41.17200
H  -1.28700 1.76000 42.25600
H  -2.87200 1.11400 42.39600
H  -3.80800 -3.64300 44.34800
H  -5.27600 -2.73800 44.58900
H  -3.93300 -2.55000 45.74500
H  -0.87500 -6.18800 45.48300
H  1.32600 -6.23400 47.33400
H  -0.64400 -5.70800 48.18900
H  -2.21200 -5.85700 47.31300
H  -1.39400 -4.28000 47.58200
H  2.12300 -7.39300 44.96400
H  0.43600 -7.52200 44.76600
H  1.84800 -8.65200 47.30400
H  2.48200 -9.16000 45.80800
H  0.88400 -9.54100 46.00300
H  7.52100 -5.29400 45.88200
H  6.20800 -6.42600 46.20000
H  6.69100 -5.36800 47.57500
H  7.22300 -1.04400 43.21000
H  9.17300 2.68600 43.87100
H  9.19000 2.07300 45.54200
H  7.67400 2.67700 44.87900
Mg 29.09300 57.67300 41.06900
C  26.23600 56.01300 39.91700
C  31.13500 55.49400 39.30800
C  31.85700 59.62200 41.72300
C  26.96100 60.35700 42.01800
N  28.68900 55.97600 39.75900
C  27.47300 55.44500 39.43100
C  27.74000 54.02600 38.72500
C  29.31700 53.79800 38.75400
C  29.75500 55.20800 39.30100
C  29.76100 52.57600 39.58600
C  26.91300 53.75900 37.34400
C  26.77700 54.96700 36.39700
H  27.41700 54.79900 34.98700
N  31.19900 57.52800 40.69900
C  31.85300 56.48400 39.98900
C  33.27500 56.77200 39.88600
C  33.54400 58.05200 40.62200
C  32.19400 58.46000 41.07100
C  34.20500 55.73200 39.25600
C  34.85900 58.68800 40.79000
O  35.89100 58.09800 40.45000
C  35.10900 59.99800 41.56500
N  29.39300 59.77700 41.50000
C  30.60200 60.26400 41.85200
C  30.50000 61.72000 42.48100
C  28.99300 61.90600 42.66300
C  28.35000 60.63300 42.00400
C  31.32800 62.06500 43.75700
C  28.48300 63.27000 42.02400
C  27.23300 63.89300 42.76200
N  27.07100 58.03400 41.24400
C  26.32800 59.15300 41.59500
C  24.89200 58.84200 41.55700
C  24.86100 57.62700 40.87600
C  26.16800 57.22300 40.65600
C  23.83000 59.71700 42.00500
C  23.91400 56.66600 40.37400
O  22.66300 56.56100 40.44800
C  24.81800 55.56000 39.78200
C  24.56500 54.20900 40.35800
O  25.04500 53.66800 41.34900
O  23.60800 53.67200 39.48400
C  23.37800 52.26400 39.78200
H  31.72000 54.72900 38.79300
H  32.75300 60.06300 42.16300
H  26.32500 61.16400 42.38800
H  27.27800 53.30500 39.40000
H  29.69000 53.88500 37.73400
H  30.68800 52.77900 40.12200
H  29.95600 51.78000 38.86600
H  29.07300 52.25300 40.36700
H  25.91700 53.36500 37.54300
H  27.49200 52.92500 36.94500
H  27.12600 55.88800 36.86500
H  25.71700 55.19600 36.28800
H  35.08000 56.23300 38.84200
H  33.76100 55.28600 38.36600
H  34.51300 54.95100 39.95100
H  34.50900 60.86100 41.27800
H  36.10000 60.40800 41.37100
H  35.05600 59.73300 42.62100
H  30.77300 62.47300 41.74200
H  28.64700 61.96500 43.69500
H  32.08000 61.32500 44.03100
H  30.68800 62.08400 44.63900
H  31.73800 63.06500 43.61500
H  28.07500 63.02300 41.04400
H  29.23300 64.05500 41.93400
H  27.51500 64.92400 42.97700
H  26.99700 63.41900 43.71500
H  26.31500 63.82600 42.17700
H  22.82700 59.29300 41.96000
H  23.93900 60.70000 41.54700
H  23.92300 59.87900 43.07900
H  24.58500 55.50100 38.71900
H  23.82200 51.64600 39.00100
H  22.31600 52.11800 39.58500
H  23.61700 51.87200 40.77000

