158

Mg 42.71900 4.22200 47.32400
C  40.99100 7.18400 46.97100
C  39.71500 2.47400 47.06100
C  44.38600 1.15300 47.22900
C  45.74800 5.85500 46.86200
N  40.67000 4.74100 46.91600
C  40.17700 6.04900 46.82200
C  38.69100 6.03700 46.53100
C  38.22200 4.60300 46.92700
C  39.64900 3.86100 46.99900
C  37.44300 4.63400 48.36400
C  38.28900 6.41400 45.05300
C  39.36100 6.13400 43.92500
H  38.91100 6.35800 42.48500
N  42.12300 2.14300 47.18400
C  40.86600 1.67200 47.12200
C  40.82200 0.23800 47.17600
C  42.13600 -0.19300 47.16200
C  43.00900 1.06500 47.21400
C  39.46400 -0.61800 47.32000
C  42.55400 -1.62100 47.08600
O  41.75000 -2.48900 47.17000
C  43.95500 -2.03800 47.07100
N  44.81700 3.53700 47.10900
C  45.19200 2.25900 47.10700
C  46.72300 2.14900 47.03100
C  47.17900 3.64400 46.95800
C  45.82900 4.41100 46.97700
C  47.38300 1.23600 48.08700
C  48.06400 3.85200 45.71800
C  49.51900 4.14500 46.15700
N  43.31700 6.16800 47.07000
C  44.58600 6.70700 46.91400
C  44.41800 8.18500 46.90000
C  43.02500 8.37200 47.00900
C  42.42100 7.12100 47.01800
C  45.55200 9.18500 46.84100
C  41.94500 9.35500 46.96700
O  42.04400 10.58600 46.91200
C  40.60500 8.60200 46.99300
C  39.86800 8.82600 48.25900
O  39.78800 8.05800 49.21300
O  39.20900 10.01800 48.13900
C  38.58000 10.52100 49.36400
H  38.77200 1.92900 47.14000
H  44.93200 0.20800 47.26700
H  46.70200 6.38500 46.83700
H  38.12600 6.72300 47.16200
H  37.70600 4.00700 46.17500
H  37.02100 3.67600 48.66500
H  36.70200 5.42900 48.28400
H  38.18900 4.79600 49.14200
H  37.97300 7.45000 44.93200
H  37.40500 5.84400 44.76500
H  39.75500 5.11700 43.91300
H  40.20100 6.82700 43.95600
H  38.65400 -0.38900 46.62700
H  39.17000 -0.35100 48.33500
H  39.58900 -1.70000 47.31500
H  44.47800 -1.55100 46.24900
H  43.96300 -3.10400 46.84500
H  44.44100 -1.72100 47.99400
H  46.86900 1.76200 46.02300
H  47.68300 3.84100 47.90400
H  46.68800 0.84500 48.83000
H  48.29300 1.62900 48.54100
H  47.79700 0.40500 47.51600
H  47.68300 4.74600 45.22500
H  48.17700 3.03900 45.00100
H  49.59900 5.23200 46.13400
H  50.18900 3.65200 45.45300
H  49.73500 3.93300 47.20400
H  46.06800 9.22500 47.80100
H  45.04400 10.11800 46.59700
H  46.30000 9.03800 46.06200
H  39.99800 9.01400 46.18700
H  37.51800 10.32900 49.20900
H  38.82900 11.56500 49.55500
H  38.87700 9.93200 50.23100
Mg -10.09900 39.34100 42.59800
C  -8.72000 36.38600 41.52600
C  -7.33100 41.03100 41.28600
C  -11.68700 42.43300 43.14700
C  -13.08000 37.75600 43.42400
N  -8.22400 38.70400 41.36500
C  -7.82800 37.41800 41.24100
C  -6.38200 37.36200 40.68600
C  -5.96800 38.87700 40.85600
C  -7.20600 39.63100 41.21600
C  -4.86600 39.19800 41.93800
C  -6.45400 36.87200 39.15900
C  -5.60400 35.71000 38.89900
H  -4.86500 35.61100 37.57300
N  -9.68600 41.35100 42.23000
C  -8.46700 41.78700 41.72600
C  -8.46700 43.25300 41.64500
C  -9.70700 43.68100 42.20700
C  -10.43600 42.47900 42.56600
C  -7.40400 44.24100 41.03000
C  -10.13100 45.14000 42.22200
O  -9.28700 46.06400 42.06000
C  -11.54200 45.61700 42.34400
N  -12.01900 39.98200 43.30500
C  -12.41700 41.29400 43.45100
C  -13.99100 41.48200 43.77600
C  -14.36400 39.90900 43.98200
C  -13.13400 39.15200 43.46700
C  -14.27000 42.48800 44.95500
C  -15.67600 39.51400 43.35500
C  -16.82800 39.18600 44.33800
N  -10.76600 37.49900 42.60000
C  -11.96100 36.97900 43.06900
C  -11.94600 35.51000 42.85700
C  -10.69700 35.27000 42.23300
C  -10.02400 36.49100 42.13000
C  -13.07600 34.65200 43.13800
C  -9.88000 34.18300 41.77500
O  -10.12000 32.96500 41.73800
C  -8.45700 34.91400 41.36900
C  -7.41600 34.45500 42.31700
O  -7.43000 34.56800 43.54200
O  -6.48800 33.77400 41.60700
C  -5.62100 32.83500 42.36900
H  -6.40600 41.57400 41.07900
H  -12.16300 43.38400 43.39500
H  -13.98000 37.19100 43.67600
H  -5.68000 36.72300 41.22300
H  -5.68900 39.16800 39.84300
H  -4.07800 39.81300 41.50100
H  -4.48100 38.28600 42.39300
H  -5.28400 39.74700 42.78200
H  -5.98200 37.71100 38.64700
H  -7.47700 36.80800 38.78800
H  -6.14900 34.81000 39.18500
H  -4.73500 35.79500 39.55200
H  -6.91200 44.92400 41.72300
H  -7.88900 44.92900 40.33800
H  -6.65200 43.63600 40.52300
H  -11.75400 46.13200 43.28100
H  -12.39900 44.95700 42.20500
H  -11.64700 46.57800 41.84100
H  -14.34000 41.87600 42.82100
H  -14.33200 39.75800 45.06100
H  -13.30900 42.62600 45.44900
H  -15.00800 42.00000 45.59200
H  -14.54300 43.43500 44.49000
H  -15.61900 38.59500 42.77100
H  -15.95400 40.29300 42.64500
H  -17.74800 39.69600 44.05100
H  -16.62300 39.53500 45.35000
H  -17.05700 38.12100 44.28900
H  -13.82100 34.81000 42.35800
H  -13.58000 34.88300 44.07600
H  -12.84400 33.59600 43.00000
H  -8.12700 34.76700 40.34100
H  -5.26100 33.24000 43.31400
H  -4.69500 32.74200 41.80100
H  -6.14100 31.89000 42.52600

