158

Mg 54.84000 24.70500 43.54400
C  52.25100 27.08600 43.11800
C  52.71700 22.33400 42.44700
C  57.45000 22.55100 43.41000
C  57.02200 27.32800 44.25000
N  52.75700 24.71100 42.82200
C  51.88500 25.81300 42.73200
C  50.57600 25.34700 42.18600
C  50.64200 23.73600 42.23500
C  52.11100 23.58900 42.55600
C  49.76900 22.88200 43.13300
C  50.25400 25.89700 40.78500
C  51.41100 26.02400 39.79200
H  51.00800 25.84700 38.28100
N  55.04900 22.65700 43.05100
C  54.04400 21.89300 42.65100
C  54.54800 20.63000 42.52700
C  55.89800 20.58400 42.88100
C  56.21000 21.98400 43.18400
C  53.77000 19.43700 42.18000
C  56.77700 19.27800 43.03200
O  56.36800 18.12800 42.81900
C  58.22400 19.42100 43.44500
N  56.95500 24.94700 43.70400
C  57.76800 23.87600 43.78200
C  59.19700 24.26000 44.04400
C  59.12400 25.78200 44.25800
C  57.59700 26.09400 44.03200
C  59.68000 23.46400 45.29100
C  59.98300 26.78900 43.39400
C  59.53500 26.87800 41.90600
N  54.71700 26.79800 43.49800
C  55.61600 27.70900 44.04100
C  54.93400 28.94700 44.33600
C  53.63500 28.72200 44.00600
C  53.54600 27.46500 43.45300
C  55.58900 30.15200 44.94300
C  52.30700 29.33600 43.98000
O  51.97300 30.38200 44.39700
C  51.38500 28.38700 43.22200
C  50.90200 29.08500 41.96300
O  51.63100 29.34400 41.03400
O  49.53300 29.28900 41.99500
C  48.91600 29.53900 40.72800
H  52.03100 21.53700 42.15400
H  58.31000 21.89800 43.25000
H  57.72600 28.01100 44.73000
H  49.83400 25.77700 42.85800
H  50.46900 23.31100 41.24600
H  50.39300 22.51100 43.94600
H  49.31400 21.98400 42.71700
H  48.87500 23.31300 43.58400
H  49.72600 26.83500 40.95800
H  49.55800 25.19300 40.32900
H  52.28700 25.40700 39.99100
H  51.60700 27.09400 39.72900
H  54.24700 19.10800 41.25700
H  52.69500 19.59400 42.09600
H  53.93300 18.59000 42.84700
H  58.76400 18.49500 43.64100
H  58.38300 20.11300 44.27200
H  58.83000 19.77100 42.61000
H  59.71200 23.90700 43.15000
H  59.47000 26.06400 45.25300
H  60.30600 24.11600 45.89900
H  60.28300 22.66400 44.86000
H  58.96400 23.14200 46.04700
H  61.04500 26.74500 43.63800
H  59.91200 27.79900 43.79700
H  58.64300 27.45800 41.67100
H  59.33700 25.87900 41.51900
H  60.41800 27.12700 41.31600
H  56.58200 30.34800 44.54000
H  55.69300 30.01200 46.01900
H  55.08000 31.09700 44.75500
H  50.59800 28.24500 43.96300
H  48.81500 30.62000 40.63500
H  47.88500 29.20800 40.85400
H  49.37600 29.06200 39.86200
Mg 0.56000 41.73600 25.74400
C  1.55500 41.96800 29.10300
C  -2.54500 40.64300 26.88700
C  -0.42900 41.51300 22.64300
C  3.86400 42.50700 24.77400
N  -0.39200 41.40100 27.75000
C  0.19400 41.70400 28.97200
C  -0.82400 41.51000 30.18800
C  -1.98900 40.67600 29.41200
C  -1.63600 40.83300 27.88300
C  -2.17100 39.18700 29.89800
C  -1.18300 42.80400 31.00300
C  -0.72800 42.74900 32.43300
H  -1.27200 41.55900 33.31600
N  -1.23000 41.27000 24.92600
C  -2.40900 40.77700 25.49000
C  -3.39100 40.32100 24.47900
C  -2.77600 40.74200 23.22000
C  -1.40200 41.22700 23.54500
C  -4.64100 39.49500 24.82700
C  -3.49200 40.81400 21.83100
O  -2.94400 41.21300 20.75900
C  -4.87500 40.34700 21.74900
N  1.54200 41.89800 23.98700
C  0.92000 41.85200 22.76600
C  1.88200 41.87500 21.63900
C  3.20700 42.47300 22.33100
C  2.87600 42.20800 23.78500
C  2.11800 40.53500 20.88900
C  3.53000 43.91100 22.06600
C  3.93600 44.24700 20.63200
N  2.44800 41.99900 26.69200
C  3.68100 42.36400 26.15200
C  4.61900 42.50700 27.27800
C  3.78800 42.45400 28.40900
C  2.52600 42.10400 28.05200
C  6.03700 42.94100 27.10600
C  3.73600 42.58000 29.88100
O  4.61400 42.91600 30.65900
C  2.34200 42.20600 30.39000
C  2.44800 41.01400 31.17800
O  2.64200 39.86800 30.76500
O  2.28700 41.33000 32.51700
C  2.34800 40.20200 33.50800
H  -3.51000 40.38500 27.32900
H  -0.80400 41.29500 21.64100
H  4.85200 42.89700 24.52300
H  -0.26700 40.82500 30.82800
H  -2.91300 41.21100 29.63600
H  -1.89000 38.53500 29.07100
H  -3.13300 38.91600 30.33400
H  -1.38000 38.98400 30.62000
H  -2.24900 43.01800 31.08000
H  -0.73300 43.63000 30.45300
H  -1.00800 43.72000 32.84100
H  0.36100 42.76700 32.45500
H  -5.41600 40.05800 24.30600
H  -4.72300 39.53400 25.91300
H  -4.61600 38.53600 24.31000
H  -4.95900 39.31600 22.09300
H  -5.07700 40.36000 20.67800
H  -5.45400 41.15700 22.19200
H  1.60600 42.50800 20.79500
H  4.08600 41.87600 22.08600
H  1.86100 39.68100 21.51400
H  3.17000 40.40600 20.63500
H  1.56400 40.44100 19.95500
H  4.30300 44.40800 22.65200
H  2.67500 44.54400 22.30600
H  3.10300 44.69500 20.09000
H  4.16100 43.32500 20.09600
H  4.75500 44.96500 20.66600
H  6.12400 43.64000 26.27400
H  6.73100 42.11300 26.95900
H  6.45200 43.42600 27.98900
H  2.14400 43.12400 30.94400
H  2.13700 40.78200 34.40700
H  3.27900 39.67900 33.72400
H  1.63900 39.40800 33.27400

