158

Mg 39.76200 8.76300 29.20900
C  41.66100 10.01200 31.89900
C  37.76200 7.17100 31.36400
C  38.03800 7.48600 26.53800
C  42.23100 9.87900 27.05100
N  39.65300 8.58600 31.40500
C  40.53500 9.28900 32.28100
C  39.97700 9.09700 33.73800
C  38.67500 8.19800 33.52900
C  38.72000 7.89300 32.07000
C  38.53500 6.94800 34.42300
C  39.75400 10.43400 34.44500
C  38.82700 10.59300 35.62600
H  39.27100 11.37300 36.91800
N  38.06000 7.57000 28.98200
C  37.40100 6.96200 30.02300
C  36.23600 6.24600 29.48400
C  36.23500 6.42100 28.10500
C  37.48000 7.22100 27.83000
C  35.26300 5.53700 30.50700
C  35.19900 5.77400 27.18900
O  35.40900 5.76900 26.01600
C  34.05100 5.01000 27.58900
N  40.18600 8.55100 27.14600
C  39.25700 8.13500 26.23700
C  39.78000 8.37800 24.77000
C  40.81400 9.40300 24.97400
C  41.10900 9.33000 26.47400
C  40.40300 7.13700 24.09200
C  40.38800 10.87000 24.59000
C  38.91500 11.26100 24.66600
N  41.67800 9.63400 29.35100
C  42.54700 9.96300 28.43300
C  43.74500 10.47800 29.06600
C  43.49400 10.58200 30.42200
C  42.15300 10.03500 30.56400
C  44.87800 11.05600 28.22000
C  43.88100 11.07100 31.66800
O  44.84000 11.71800 31.97300
C  42.75300 10.70700 32.72900
C  43.40100 9.95500 33.80800
O  43.72700 8.77900 33.65700
O  43.62100 10.83500 34.81700
C  44.38200 10.29300 35.93700
H  37.03100 6.64100 31.97900
H  37.53500 7.16300 25.62400
H  42.94100 10.46100 26.46000
H  40.61900 8.50500 34.39000
H  37.83000 8.86400 33.70400
H  37.52200 6.85400 34.81200
H  39.25100 7.05600 35.23900
H  38.83600 6.12400 33.77600
H  39.20200 10.96000 33.66600
H  40.76300 10.84200 34.50800
H  38.64300 9.63200 36.10500
H  37.89100 11.03200 35.28100
H  34.64600 4.77600 30.03000
H  34.65000 6.32900 30.93700
H  35.91800 5.12800 31.27700
H  33.54200 5.65400 28.30600
H  34.48900 4.07000 27.92500
H  33.37100 4.92400 26.74200
H  38.88900 8.69600 24.22900
H  41.67400 9.24400 24.32300
H  39.89900 7.02900 23.13100
H  40.15500 6.28600 24.72600
H  41.49200 7.19200 24.10800
H  40.58700 10.91100 23.51900
H  40.90700 11.72500 25.02400
H  38.50600 11.36000 23.66000
H  38.91400 12.23500 25.15500
H  38.26800 10.57300 25.21000
H  45.82600 10.98100 28.75300
H  44.72000 12.10200 27.95600
H  45.03500 10.45700 27.32300
H  42.46800 11.69300 33.09700
H  43.71700 9.73100 36.59300
H  44.85900 11.14500 36.42200
H  45.14000 9.55000 35.68900
Mg 46.33000 24.89600 28.41500
C  46.85900 26.91900 31.30800
C  44.71200 22.78400 30.58900
C  46.12300 22.71700 25.91400
C  48.07100 27.20200 26.49700
N  45.79400 24.83800 30.74800
C  46.18300 25.70400 31.77100
C  45.67100 25.30500 33.14500
C  45.12800 23.88300 32.77800
C  45.22600 23.82100 31.24400
C  45.98600 22.78000 33.51000
C  44.59600 26.27600 33.69300
C  44.83600 26.77700 35.10900
H  43.69000 26.85400 36.09500
N  45.48400 23.08400 28.28500
C  44.81800 22.37000 29.28200
C  44.42100 21.10400 28.73300
C  44.90900 21.06900 27.37500
C  45.47300 22.39100 27.11100
C  43.63500 20.11200 29.54600
C  44.85600 19.86300 26.44700
O  45.20000 19.89900 25.27200
C  44.40200 18.40700 27.00600
N  46.89900 24.97300 26.46800
C  46.83400 23.89100 25.63600
C  47.69400 24.18000 24.38300
C  48.27600 25.58600 24.58300
C  47.70100 25.99800 25.94400
C  48.78800 23.14800 24.15300
C  47.99200 26.55700 23.44000
C  46.86400 27.54000 23.54700
N  47.21100 26.63800 28.78600
C  47.89700 27.49800 27.95800
C  48.27200 28.73400 28.60400
C  47.82600 28.51800 29.91400
C  47.25600 27.21000 30.00000
C  48.88500 29.97500 28.00400
C  47.84100 29.14900 31.23900
O  48.22400 30.20400 31.65900
C  47.26700 28.14300 32.22100
C  48.25500 27.65600 33.22200
O  49.45600 27.53000 32.91900
O  47.73700 27.57000 34.50300
C  48.56400 27.22700 35.71700
H  44.14400 22.14800 31.27100
H  46.09700 22.01300 25.07900
H  48.57300 27.96100 25.89300
H  46.51100 25.14000 33.82000
H  44.10700 23.72100 33.12200
H  46.69500 22.18300 32.93600
H  45.27700 22.07000 33.93500
H  46.62000 23.19000 34.29600
H  43.61700 25.79800 33.73000
H  44.49300 27.17500 33.08600
H  45.33700 27.74000 35.00900
H  45.67000 26.17300 35.46600
H  42.87400 19.65700 28.91100
H  43.22300 20.57200 30.44400
H  44.29700 19.25200 29.64500
H  44.94400 17.95400 27.83700
H  44.68700 17.73000 26.20100
H  43.33000 18.22800 27.09100
H  47.08400 24.11000 23.48300
H  49.36300 25.60300 24.66200
H  48.43800 22.57200 23.29600
H  48.93200 22.54700 25.05100
H  49.72800 23.60100 23.83900
H  48.01800 26.06700 22.46700
H  48.87900 27.18800 23.49400
H  47.37100 28.47300 23.79500
H  46.19900 27.34600 24.38900
H  46.28300 27.68000 22.63500
H  48.09400 30.46400 27.43500
H  49.64200 29.67300 27.28000
H  49.22200 30.55400 28.86400
H  46.43600 28.60900 32.75100
H  48.11500 26.39200 36.25600
H  48.90200 28.08600 36.29500
H  49.49400 26.89400 35.25600

