158

Mg 25.81500 0.15000 29.41200
C  27.57800 0.14300 32.34600
C  22.88800 0.43000 31.16400
C  24.17600 0.03600 26.51500
C  28.85300 -0.47800 27.75000
N  25.37100 0.33100 31.46800
C  26.27400 0.43300 32.55700
C  25.57700 0.91700 33.89300
C  24.04300 0.98700 33.41200
C  24.08500 0.48000 31.96500
C  22.94000 0.29400 34.34700
C  26.14100 2.26100 34.43900
C  25.32800 2.81500 35.63800
H  26.03600 2.79300 36.98200
N  23.77100 0.23500 28.94800
C  22.68200 0.33500 29.74200
C  21.45600 0.40200 29.01600
C  21.88100 0.49600 27.68800
C  23.35500 0.21900 27.67200
C  20.07600 0.54800 29.53800
C  21.03800 0.80600 26.44700
O  21.45500 0.87100 25.25900
C  19.60300 1.06200 26.62100
N  26.44200 -0.30200 27.37000
C  25.51400 -0.20300 26.36300
C  26.28600 -0.34700 25.07100
C  27.75300 -0.25400 25.42900
C  27.69600 -0.44500 26.93600
C  25.83600 -1.66700 24.47200
C  28.33500 1.22000 24.95500
C  29.88700 1.28100 24.75700
N  27.74900 -0.32900 29.93300
C  28.85100 -0.54600 29.12600
C  30.03400 -0.75600 29.95200
C  29.57700 -0.48000 31.25300
C  28.22000 -0.13200 31.17000
C  31.36300 -1.16300 29.47600
C  29.91900 -0.33000 32.67100
O  30.93400 -0.60100 33.29600
C  28.66500 0.09200 33.38300
C  28.39700 -0.99300 34.33100
O  27.63300 -1.92400 34.11600
O  29.09700 -0.76800 35.46000
C  28.91200 -1.66700 36.60100
H  21.96400 0.60900 31.71800
H  23.68200 -0.05600 25.54500
H  29.81400 -0.51100 27.23300
H  25.51500 0.16700 34.68100
H  23.81900 2.05100 33.33200
H  22.30300 1.08500 34.74200
H  23.34400 -0.30000 35.16700
H  22.37200 -0.43400 33.76800
H  26.31400 2.91100 33.58100
H  27.13100 2.00300 34.81600
H  24.35900 2.32300 35.72500
H  25.09200 3.86100 35.44200
H  19.37900 -0.22600 29.22000
H  19.59500 1.50900 29.35400
H  20.16800 0.47000 30.62200
H  18.98800 1.13200 25.72500
H  19.55600 2.06300 27.05000
H  19.14400 0.27100 27.21500
H  25.93900 0.55500 24.56600
H  28.39100 -1.05300 25.05100
H  26.60500 -2.41900 24.30000
H  25.26400 -1.47400 23.56400
H  25.09600 -2.13200 25.12300
H  27.98400 2.06700 25.54400
H  27.85500 1.49000 24.01500
H  30.13300 1.32900 23.69700
H  30.39300 0.42400 25.20200
H  30.35700 2.13700 25.24200
H  31.65400 -2.20900 29.57700
H  32.07100 -0.69600 30.16100
H  31.62800 -0.81000 28.48000
H  28.74500 1.07800 33.84000
H  29.16400 -1.13700 37.52000
H  29.62500 -2.49200 36.60400
H  27.90600 -2.07800 36.67800
Mg 0.27900 43.28900 26.55600
C  2.76100 42.85300 28.89000
C  -1.94000 41.99100 28.73400
C  -1.97700 43.34600 24.08400
C  2.88900 43.62100 24.07700
N  0.38800 42.58300 28.61600
C  1.50100 42.70900 29.37700
C  1.12900 42.45600 30.87900
C  -0.35900 42.01600 30.80100
C  -0.67700 42.11000 29.26300
C  -0.69000 40.53300 31.17500
C  1.28400 43.74300 31.74300
C  0.57400 43.82400 33.15100
H  0.12500 42.49900 33.77000
N  -1.70800 42.73600 26.43900
C  -2.50200 42.28000 27.44600
C  -3.80000 42.16300 26.95700
C  -3.86100 42.58600 25.64800
C  -2.46600 42.93300 25.35300
C  -4.92200 41.66400 27.96000
C  -5.03100 42.60300 24.74100
O  -4.91600 42.86800 23.53000
C  -6.43400 42.38300 25.18500
N  0.39200 43.61500 24.36000
C  -0.66300 43.56000 23.60000
C  -0.33000 43.68700 22.12400
C  1.22100 43.93100 22.15100
C  1.53700 43.73600 23.62900
C  -0.78800 42.48200 21.29800
C  1.78300 45.26900 21.66300
C  1.49300 46.55200 22.57700
N  2.38600 43.30700 26.44300
C  3.23600 43.44800 25.39800
C  4.60100 43.25500 25.93900
C  4.44000 42.96100 27.29500
C  3.09500 43.04200 27.55800
C  5.91500 43.19600 25.17600
C  5.15100 42.76600 28.56700
O  6.36100 42.72200 28.84700
C  4.08400 42.70900 29.64100
C  4.13300 41.41700 30.42900
O  3.84800 40.29500 29.97200
O  4.71000 41.65400 31.66000
C  4.55300 40.43800 32.50600
H  -2.70300 41.58500 29.40200
H  -2.67800 43.45000 23.25300
H  3.65200 43.56300 23.29900
H  1.72100 41.57900 31.14000
H  -1.00500 42.71200 31.33700
H  -1.60900 40.53200 31.76100
H  0.14200 40.17700 31.78300
H  -0.72700 39.84800 30.32800
H  0.99200 44.63100 31.18100
H  2.36300 43.86900 31.83400
H  -0.27900 44.48000 32.98100
H  1.24900 44.30700 33.85700
H  -5.88900 42.09400 27.69700
H  -4.77100 42.11600 28.94000
H  -4.99500 40.58500 28.10100
H  -6.50300 41.33800 25.48400
H  -7.11800 42.67300 24.38700
H  -6.69500 43.04700 26.00900
H  -0.73900 44.61400 21.72200
H  1.75900 43.07700 21.73900
H  -1.49500 41.78800 21.75400
H  -0.01200 41.72000 21.23200
H  -1.17400 42.87300 20.35600
H  1.33200 45.40000 20.67900
H  2.86900 45.25700 21.56500
H  1.04400 47.26200 21.88200
H  2.46700 46.90600 22.91300
H  0.93500 46.31400 23.48300
H  6.72200 42.67200 25.68700
H  6.27000 44.22700 25.16300
H  5.82100 42.90300 24.13000
H  4.26800 43.53600 30.32700
H  3.51000 40.39800 32.82100
H  5.20600 40.45700 33.37900
H  4.87400 39.46600 32.13100

