158

Mg 8.27700 2.88900 27.45000
C  9.58400 1.35400 30.43500
C  6.19200 4.68100 29.47000
C  6.62100 3.80700 24.66500
C  9.97200 0.35000 25.67200
N  8.02900 3.12200 29.72400
C  8.69300 2.42800 30.69800
C  8.36900 3.04300 32.11600
C  7.21900 4.00700 31.75900
C  7.10300 3.91400 30.26500
C  5.85200 3.92300 32.56100
C  9.61700 3.61700 32.91200
C  9.26600 4.56000 33.97600
H  10.12700 4.41600 35.25500
N  6.63300 4.04800 27.10100
C  5.95800 4.74900 28.08900
C  5.03900 5.68100 27.41800
C  5.13500 5.42900 25.97100
C  6.20500 4.46000 25.81100
C  4.16200 6.67600 28.22900
C  4.35800 6.08300 24.84900
O  4.42100 5.80900 23.68600
C  3.30500 7.12800 25.24200
N  8.25500 2.19000 25.45500
C  7.52000 2.77400 24.45200
C  7.98800 2.24500 23.04900
C  9.18100 1.24900 23.47700
C  9.10200 1.17500 24.97200
C  6.90700 1.68500 22.18500
C  10.61400 1.59000 23.02200
C  11.42500 2.53900 23.82600
N  9.59900 1.30400 27.89000
C  10.13500 0.35800 27.03400
C  10.95900 -0.56200 27.79800
C  10.77700 -0.15400 29.12500
C  9.94000 0.90400 29.13500
C  11.65500 -1.74500 27.22200
C  11.16700 -0.56800 30.46500
O  11.85800 -1.54700 30.84100
C  10.40100 0.40400 31.33500
C  9.61800 -0.28300 32.33600
O  8.70600 -1.01300 32.14300
O  10.07800 0.10200 33.60000
C  9.29800 -0.53100 34.65100
H  5.69600 5.32100 30.20200
H  6.19700 4.09500 23.70100
H  10.63800 -0.31900 25.12300
H  8.02300 2.20100 32.71500
H  7.53400 5.00700 32.05800
H  5.01000 3.74900 31.89000
H  5.75400 4.84800 33.12900
H  5.99400 3.06400 33.21600
H  10.33500 4.06000 32.22200
H  10.09800 2.81900 33.47800
H  8.24200 4.31900 34.25900
H  9.31500 5.57900 33.59200
H  4.27600 7.68300 27.83000
H  4.33800 6.48600 29.28800
H  3.19000 6.21500 28.04800
H  2.58300 6.62200 25.88200
H  2.80900 7.38700 24.30600
H  3.81000 8.03600 25.57400
H  8.49200 3.12100 22.63900
H  9.08100 0.29000 22.96800
H  5.96300 1.46400 22.68300
H  7.06000 0.65600 21.86000
H  6.63000 2.30200 21.32900
H  10.50900 2.11700 22.07400
H  11.15600 0.66500 22.82900
H  10.94400 2.80300 24.76800
H  11.59800 3.51100 23.36400
H  12.40800 2.13700 24.07400
H  10.98300 -2.32300 26.58800
H  11.82200 -2.48100 28.00800
H  12.61600 -1.43600 26.81100
H  11.14600 1.04800 31.80100
H  9.08000 -1.57900 34.44700
H  8.32200 -0.06200 34.77300
H  9.89700 -0.43300 35.55700
Mg 53.23900 24.37600 45.27400
C  50.83600 26.68600 44.20700
C  51.22800 21.90100 44.05200
C  55.85800 22.24300 45.34500
C  55.39600 27.03700 45.91000
N  51.20500 24.38100 44.32900
C  50.40800 25.45400 43.95000
C  49.29000 24.89700 43.04500
C  49.30900 23.40700 43.32900
C  50.71300 23.18700 43.89300
C  48.20900 22.99800 44.38400
C  49.42800 25.09800 41.49900
C  48.23300 25.65200 40.66200
H  48.02000 25.06700 39.30300
N  53.51000 22.25900 44.79200
C  52.55900 21.40700 44.33700
C  52.99600 20.04000 44.35100
C  54.34200 20.09600 44.74700
C  54.66100 21.55800 44.93100
C  52.20500 18.84400 43.90900
C  55.33900 18.87400 44.91200
O  55.05500 17.72600 44.54100
C  56.63800 18.94600 45.48900
N  55.35000 24.65200 45.39000
C  56.15800 23.53500 45.60600
C  57.48900 23.89800 46.18400
C  57.39400 25.43100 46.45900
C  56.03800 25.77900 45.81900
C  58.08400 23.03500 47.35100
C  58.46700 26.36300 45.97900
C  59.49400 26.67400 47.09600
N  53.19400 26.39200 45.33100
C  54.05100 27.35600 45.66500
C  53.46000 28.63200 45.64200
C  52.20000 28.42400 45.07300
C  52.10300 27.03400 44.87100
C  54.07500 29.89200 46.16300
C  51.01700 29.09400 44.66000
O  50.68700 30.25700 44.78300
C  50.16900 27.99900 43.86400
C  50.17000 28.41700 42.42700
O  51.07400 28.22600 41.58900
O  48.91000 28.93200 42.08600
C  48.81500 29.53900 40.75500
H  50.60600 21.04200 43.79300
H  56.64800 21.51500 45.54300
H  55.92100 27.91400 46.29400
H  48.36500 25.38600 43.35100
H  49.17500 22.73600 42.48000
H  48.22300 23.77500 45.14900
H  48.59500 22.11300 44.88900
H  47.23600 22.82800 43.92400
H  49.76900 24.11800 41.16500
H  50.19600 25.80000 41.17400
H  48.37400 26.70900 40.43900
H  47.25100 25.56000 41.12500
H  51.40700 19.22100 43.26900
H  51.71700 18.30000 44.71700
H  52.87200 18.20500 43.33000
H  57.28800 19.64000 44.95600
H  57.06000 17.94100 45.48800
H  56.54300 19.37600 46.48700
H  58.18800 23.79300 45.35400
H  57.13500 25.39400 47.51700
H  57.36700 22.26600 47.63900
H  58.44100 23.54300 48.24700
H  58.93000 22.45900 46.97700
H  58.08400 27.27600 45.52400
H  58.99800 25.85200 45.17600
H  59.73700 27.73300 47.18800
H  60.45400 26.23100 46.83000
H  59.33900 26.50500 48.16100
H  53.48600 30.75200 45.84600
H  55.11800 29.78700 45.86600
H  53.97100 29.89700 47.24800
H  49.12800 27.98800 44.18700
H  48.73100 30.59300 41.01800
H  47.82900 29.33400 40.33700
H  49.58400 29.34200 40.00800

