158

Mg 5.16500 53.64600 41.89400
C  4.66800 50.24400 41.12300
C  7.99500 53.64500 40.16300
C  5.38900 57.09100 42.51000
C  1.94300 53.64300 43.30900
N  6.12900 52.11300 40.59500
C  5.77800 50.88000 40.49300
C  6.71800 50.18100 39.50400
C  7.98200 51.04700 39.69500
C  7.35900 52.39900 40.11000
C  9.07200 50.60000 40.67800
C  6.16100 50.05600 38.03200
C  6.74700 48.95700 37.16100
H  5.97000 48.34900 36.04700
N  6.51600 55.12900 41.46700
C  7.60900 54.90100 40.68200
C  8.46000 56.06000 40.61600
C  7.74300 57.08100 41.38500
C  6.46800 56.44200 41.83100
C  9.79200 56.18300 39.88200
C  8.27300 58.43000 41.74500
O  9.43500 58.76100 41.45300
C  7.45400 59.50200 42.56300
N  3.73800 55.33100 42.55700
C  4.12900 56.55000 42.86800
C  2.98100 57.26400 43.60600
C  1.93200 56.18000 43.80300
C  2.52000 54.96000 43.20600
C  3.56400 57.83400 44.89700
C  0.50600 56.62500 43.25700
C  -0.69500 56.64500 44.27100
N  3.55000 52.32800 42.03400
C  2.43400 52.41300 42.77600
C  1.79600 51.16700 42.81900
C  2.68200 50.26300 42.28900
C  3.69500 51.03500 41.74200
C  0.37400 50.82600 43.12100
C  2.95000 48.84900 42.02800
O  2.43100 47.80900 42.22600
C  4.33500 48.79600 41.24800
C  4.20400 48.09600 39.96900
O  3.43000 48.42800 39.08300
O  4.90100 46.98300 39.94300
C  4.47400 45.94000 38.98400
H  9.02000 53.66100 39.78400
H  5.50000 58.14200 42.78500
H  0.96000 53.77900 43.76400
H  6.91800 49.15700 39.82100
H  8.50000 51.16400 38.74300
H  8.88500 49.59100 41.04300
H  9.15700 51.29900 41.51000
H  10.00200 50.48500 40.12100
H  6.60600 50.97500 37.64900
H  5.08600 50.23200 37.99100
H  6.88900 48.10700 37.82800
H  7.67000 49.34500 36.73100
H  9.83800 57.15500 39.39300
H  9.90100 55.37200 39.16200
H  10.54600 56.16100 40.66900
H  8.13700 60.33700 42.71500
H  7.26200 59.22300 43.59900
H  6.55700 59.82900 42.03600
H  2.52300 58.11500 43.10100
H  1.79200 55.83800 44.82900
H  4.46700 57.25200 45.08200
H  2.98400 57.61000 45.79200
H  3.79800 58.89300 44.79000
H  0.20800 55.80900 42.59900
H  0.61700 57.47800 42.58700
H  -0.30700 56.29400 45.22700
H  -1.39400 55.87000 43.95500
H  -1.06100 57.63600 44.53700
H  -0.14400 51.28600 43.96300
H  0.12600 49.77800 43.28900
H  -0.17500 51.22500 42.26700
H  4.97600 48.25600 41.94500
H  5.34700 45.43100 38.57600
H  3.96100 46.32900 38.10500
H  3.95600 45.26100 39.66200
Mg 9.88000 47.68800 25.51700
C  7.84700 47.93000 28.49700
C  12.44300 48.77300 27.23600
C  11.63400 47.35900 22.71100
C  6.83400 47.28300 23.73800
N  9.99600 48.31500 27.60200
C  9.22200 48.27000 28.68600
C  9.83500 48.69100 30.05400
C  11.20800 49.21000 29.49900
C  11.23500 48.72600 28.02400
C  11.57900 50.70200 29.67600
C  9.96900 47.49200 31.08600
C  9.53300 47.81100 32.46900
H  9.62600 46.60500 33.45600
N  11.85800 47.98300 25.02600
C  12.77500 48.35900 25.95000
C  14.07600 48.20500 25.34700
C  13.88000 47.87800 23.95100
C  12.39700 47.74800 23.81800
C  15.32600 48.51500 26.07300
C  14.89500 47.59600 22.83600
O  14.59000 47.34600 21.69500
C  16.37000 47.52600 23.10900
N  9.28300 47.42900 23.56200
C  10.24000 47.18000 22.54100
C  9.64000 46.49500 21.24700
C  8.15500 46.51600 21.73500
C  8.09800 47.15700 23.11600
C  9.82700 47.37900 19.90100
C  7.41600 45.11100 21.67300
C  7.79200 44.20500 22.80400
N  7.74400 47.41400 26.03000
C  6.64400 47.37400 25.16400
C  5.40400 47.35600 25.94800
C  5.86200 47.52000 27.32400
C  7.26800 47.62600 27.26600
C  4.07500 47.18300 25.30000
C  5.45500 47.59500 28.74100
O  4.33800 47.40700 29.22400
C  6.73600 47.85300 29.49800
C  6.77200 46.62700 30.24900
O  7.29700 45.55900 29.95400
O  6.25100 46.90500 31.49200
C  6.18700 45.85600 32.54600
H  13.18800 49.17000 27.92900
H  12.22100 47.23700 21.79800
H  5.96100 47.13200 23.09900
H  9.16100 49.49100 30.35800
H  12.03600 48.62200 29.89500
H  12.40800 50.74700 30.38300
H  10.75600 51.33600 30.00500
H  12.02400 50.99600 28.72600
H  11.03500 47.27100 31.13800
H  9.45100 46.62300 30.68200
H  8.45100 47.94500 32.49700
H  10.04200 48.71700 32.79800
H  15.20400 48.35400 27.14400
H  15.68200 49.53600 25.93600
H  16.12000 47.84600 25.74100
H  16.46100 46.70900 23.82400
H  16.66400 48.50200 23.49500
H  16.86000 47.28800 22.16500
H  10.11700 45.53600 21.04400
H  7.53200 47.15800 21.11200
H  8.93000 47.84300 19.49000
H  10.29300 46.89600 19.04200
H  10.42600 48.25400 20.14800
H  7.84500 44.57000 20.83000
H  6.36200 45.20400 21.41400
H  8.50100 44.59700 23.53400
H  8.32800 43.35000 22.39200
H  6.89800 43.87400 23.33200
H  3.91000 46.32900 24.64300
H  3.82100 48.08200 24.73800
H  3.30900 46.97100 26.04600
H  6.62900 48.82300 29.98300
H  5.48700 45.12400 32.14200
H  5.69400 46.31900 33.40100
H  7.14300 45.41400 32.82700

