158

Mg 0.81200 7.59700 25.18600
C  1.45700 9.70500 27.97200
C  1.22200 4.86600 27.19500
C  0.60500 5.56300 22.45300
C  0.88500 10.30100 23.18400
N  1.57700 7.36500 27.38900
C  1.54300 8.35200 28.32800
C  1.71700 7.62700 29.68600
C  1.81100 6.14000 29.40800
C  1.51800 6.08800 27.89400
C  3.15000 5.45600 29.81200
C  0.54200 7.98100 30.70800
C  0.84100 8.06400 32.18600
H  2.17100 7.60700 32.78300
N  0.76600 5.49500 24.93200
C  0.97000 4.57800 25.89600
C  0.82400 3.20400 25.30100
C  0.59300 3.42300 23.92400
C  0.65700 4.90500 23.65600
C  0.97000 1.89300 26.08100
C  0.48400 2.37000 22.82800
O  0.57900 2.60800 21.62200
C  0.13500 1.01400 23.25100
N  0.85700 7.87800 23.04100
C  0.64000 6.87800 22.11700
C  0.69200 7.49500 20.72700
C  0.72500 9.03400 20.97100
C  0.86400 9.10300 22.48400
C  1.89700 6.94300 19.89800
C  -0.50300 9.81100 20.30700
C  -1.84100 9.52900 21.01600
N  0.98700 9.62700 25.50100
C  1.00000 10.64700 24.52600
C  1.04600 11.93700 25.18900
C  1.33600 11.57400 26.57200
C  1.25500 10.20300 26.66700
C  1.16000 13.35100 24.70100
C  1.65800 12.05000 27.86800
O  1.83500 13.20400 28.28500
C  1.67000 10.96300 28.85200
C  3.00200 11.02400 29.57700
O  4.03900 10.59000 29.15600
O  2.80900 11.54600 30.84600
C  3.96200 11.46300 31.67000
H  1.45200 3.99000 27.80400
H  0.24600 4.95200 21.62100
H  0.81000 11.18400 22.54500
H  2.63600 7.98800 30.14800
H  1.05300 5.46100 29.79900
H  3.88100 6.21300 30.09800
H  3.56700 4.73500 29.10800
H  2.91300 4.95600 30.75100
H  -0.23200 7.22900 30.55200
H  0.03900 8.89900 30.40500
H  0.07400 7.45900 32.66800
H  0.73000 9.06200 32.60900
H  1.91100 1.44000 25.76900
H  0.14800 1.17900 26.02400
H  0.95900 2.04500 27.16000
H  0.97700 0.60900 23.81200
H  -0.09900 0.43900 22.35500
H  -0.79500 0.94900 23.81500
H  -0.22400 7.14500 20.25100
H  1.62000 9.49600 20.55500
H  2.57700 7.73600 19.58700
H  1.45500 6.40200 19.06200
H  2.41600 6.28500 20.59500
H  -0.48800 9.45900 19.27600
H  -0.37900 10.89000 20.40600
H  -2.39700 8.78100 20.45100
H  -2.50800 10.37500 21.17900
H  -1.50100 9.11400 21.96500
H  0.58800 13.93400 25.42400
H  0.73900 13.47600 23.70400
H  2.08700 13.92400 24.74000
H  0.81600 11.08900 29.51700
H  4.98100 11.50600 31.28500
H  3.99800 10.54500 32.25700
H  3.86800 12.31500 32.34300
Mg 15.91800 52.06100 25.02800
C  17.86400 51.20300 27.78300
C  13.36400 52.95200 27.13500
C  14.10000 52.76100 22.26200
C  18.52400 50.90300 22.89700
N  15.57500 51.86800 27.25100
C  16.59900 51.67500 28.18000
C  16.01700 51.98800 29.57400
C  14.51900 52.26000 29.37100
C  14.47400 52.36900 27.82500
C  13.51500 51.14600 29.92000
C  16.71200 53.17300 30.26300
C  16.56900 53.30100 31.83600
H  15.76300 52.18700 32.49300
N  14.00800 52.89200 24.75100
C  13.14100 53.18400 25.73100
C  11.95100 53.72900 25.09200
C  12.03800 53.56000 23.70000
C  13.41300 53.00300 23.52700
C  10.92200 54.43100 25.85600
C  11.08600 53.79900 22.58100
O  11.38500 53.71100 21.37500
C  9.72000 54.19000 22.87700
N  16.27400 51.89300 22.90100
C  15.33700 52.17300 21.98800
C  15.86700 52.02900 20.60400
C  17.30400 51.58600 20.78500
C  17.43600 51.49600 22.28800
C  15.01200 51.01800 19.84800
C  18.43900 52.52700 20.21100
C  19.72800 51.86900 19.62100
N  17.77700 51.14800 25.23300
C  18.76200 50.78800 24.28500
C  19.86300 50.25500 25.03500
C  19.53500 50.35400 26.41700
C  18.25500 50.92600 26.43200
C  21.02900 49.57900 24.46700
C  20.05000 50.11600 27.72200
O  21.14800 49.63800 28.08700
C  18.96900 50.61500 28.72900
C  18.38700 49.46500 29.44400
O  17.85800 48.46800 28.96900
O  18.76700 49.57200 30.76700
C  18.43600 48.36500 31.61600
H  12.53900 53.25000 27.78600
H  13.53500 52.85600 21.33200
H  19.25100 50.50500 22.18700
H  16.25200 51.05000 30.07900
H  14.28200 53.25700 29.74200
H  14.00800 50.21800 30.21100
H  12.88400 50.82500 29.09100
H  12.87000 51.53900 30.70500
H  16.12400 54.05500 30.01200
H  17.71800 53.41100 29.91700
H  16.21200 54.31300 32.02900
H  17.60800 53.15800 32.13300
H  10.89700 55.45700 25.48800
H  11.11900 54.47700 26.92700
H  9.90700 54.03400 25.84900
H  9.01900 54.07200 22.05100
H  9.75600 55.26700 23.04400
H  9.34400 53.53000 23.65900
H  15.88200 52.99700 20.10400
H  17.43000 50.61000 20.31700
H  15.45600 50.04500 19.63700
H  14.65400 51.36900 18.87900
H  14.04800 50.76100 20.28600
H  18.78400 53.15200 21.03600
H  18.14800 53.23100 19.43100
H  19.47600 50.92900 19.13100
H  20.30500 51.70500 20.53100
H  20.40900 52.55600 19.11800
H  21.58900 49.19700 25.32000
H  21.61400 50.33400 23.94200
H  20.68500 48.80500 23.78100
H  19.38300 51.32400 29.44700
H  18.80500 47.40700 31.25000
H  17.35300 48.32300 31.73800
H  18.84100 48.43800 32.62600

