158

Mg 35.79200 2.39500 30.64400
C  33.20400 3.17400 33.00600
C  38.00300 2.50900 33.34700
C  38.30900 2.08800 28.46800
C  33.47100 2.98700 28.07900
N  35.57100 2.82900 32.87200
C  34.39200 3.02200 33.61100
C  34.63200 3.12000 35.13600
C  36.16400 3.10200 35.27100
C  36.67900 2.84900 33.76600
C  36.68000 4.48100 35.81300
C  33.92300 2.01200 36.08900
C  33.47900 2.45500 37.50300
H  34.24700 3.50900 38.28400
N  37.83800 2.20900 30.83700
C  38.51200 2.31800 32.02100
C  39.85000 1.85200 31.72700
C  40.03400 1.73000 30.35400
C  38.72400 2.10600 29.82200
C  40.82600 1.46900 32.74700
C  41.25600 1.37800 29.52000
O  41.25600 1.10100 28.33500
C  42.55900 1.39900 30.19700
N  35.87200 2.62200 28.55500
C  36.99500 2.26000 27.88300
C  36.73700 2.25000 26.46200
C  35.16200 2.38000 26.33400
C  34.77700 2.68500 27.75800
C  37.45700 3.34700 25.62100
C  34.61300 0.98800 25.87200
C  34.90000 0.47800 24.42300
N  33.79200 2.90900 30.47900
C  32.97800 3.10700 29.38800
C  31.66000 3.33400 29.78400
C  31.69100 3.29100 31.16400
C  33.00800 3.14700 31.54800
C  30.43600 3.46400 28.87600
C  30.89100 3.52000 32.38900
O  29.68400 3.83100 32.45800
C  31.81200 3.36500 33.66200
C  31.69100 4.62700 34.53200
O  31.86800 5.75900 34.13900
O  31.06100 4.36100 35.74400
C  30.85500 5.51100 36.70900
H  38.70700 2.42700 34.17700
H  38.96700 1.73200 27.67300
H  32.79600 3.11000 27.22900
H  34.27700 4.13000 35.34200
H  36.54400 2.30800 35.91300
H  36.80500 5.12500 34.94200
H  37.57600 4.26000 36.39300
H  35.98400 4.97200 36.49400
H  34.61400 1.18300 36.24200
H  33.00700 1.67200 35.60600
H  33.39500 1.59000 38.16100
H  32.47900 2.86900 37.37400
H  41.10900 0.41800 32.68900
H  40.43000 1.62100 33.75100
H  41.70100 2.10500 32.61200
H  42.65400 0.57600 30.90500
H  42.54800 2.36500 30.70000
H  43.28600 1.40600 29.38400
H  37.12500 1.33200 26.02100
H  34.68200 3.09400 25.66600
H  38.20100 3.90100 26.19400
H  36.79800 4.08400 25.16200
H  37.98000 2.89300 24.78000
H  33.53200 1.00000 26.01000
H  35.03200 0.28200 26.58900
H  33.96200 0.48100 23.86800
H  35.25400 -0.55100 24.48100
H  35.72600 0.98800 23.92700
H  29.60000 2.96400 29.36400
H  30.54600 3.00000 27.89600
H  30.17600 4.50900 28.71100
H  31.54600 2.46700 34.22000
H  30.35000 6.37400 36.27500
H  31.79500 5.81100 37.17100
H  30.13900 5.15900 37.45200
Mg -1.80700 34.83000 27.16000
C  -3.82100 33.12300 29.27300
C  -0.77200 36.97900 29.47600
C  -0.03100 36.57000 24.77800
C  -2.84100 32.64600 24.45200
N  -2.37200 35.00600 29.07200
C  -3.01200 34.08800 29.86100
C  -2.78400 34.38300 31.36200
C  -2.02500 35.75400 31.37300
C  -1.69400 35.97600 29.87300
C  -3.13000 36.83200 31.94600
C  -1.96900 33.25700 31.95900
C  -2.11900 32.98700 33.47800
H  -2.51400 34.12000 34.46000
N  -0.44600 36.43300 27.15100
C  -0.24400 37.20800 28.24100
C  0.62300 38.31000 27.86800
C  0.97800 38.19400 26.49200
C  0.22300 36.98600 26.07400
C  0.90100 39.45700 28.79200
C  1.76900 39.03300 25.52600
O  2.11200 38.62200 24.38400
C  2.46500 40.31200 26.07300
N  -1.38300 34.60900 24.92500
C  -0.62500 35.47700 24.23600
C  -0.48500 35.02900 22.74200
C  -1.44100 33.87700 22.67200
C  -1.90300 33.67600 24.08000
C  -0.73000 36.11700 21.63000
C  -0.84200 32.58000 22.08400
C  0.32400 32.04000 22.93100
N  -3.13500 33.25900 26.83300
C  -3.45600 32.48800 25.70200
C  -4.35100 31.44000 26.11000
C  -4.56500 31.67400 27.50000
C  -3.82000 32.79600 27.91800
C  -5.02200 30.32900 25.23300
C  -5.30700 31.19900 28.65500
O  -6.15100 30.32300 28.80100
C  -4.62700 32.05700 29.85800
C  -5.70400 32.60500 30.64900
O  -6.51500 33.44900 30.29600
O  -5.55700 32.32700 31.97100
C  -6.69000 32.74000 32.85100
H  -0.39000 37.63200 30.26400
H  0.49200 37.11500 23.99000
H  -3.08300 31.88600 23.70600
H  -3.80400 34.48200 31.73300
H  -1.10100 35.79000 31.94900
H  -2.79000 37.20100 32.91400
H  -4.12500 36.41100 32.08600
H  -3.05800 37.74400 31.35300
H  -0.93900 33.17200 31.61300
H  -2.37900 32.34900 31.51700
H  -1.09900 32.69600 33.73100
H  -2.86900 32.23800 33.73200
H  1.70900 40.13300 28.51600
H  1.06900 39.16900 29.83000
H  -0.02800 40.02700 28.77100
H  1.65500 40.93200 26.45600
H  2.99700 40.80100 25.25600
H  3.17900 39.95100 26.81300
H  0.54500 34.68600 22.64600
H  -2.32200 34.18400 22.10700
H  -1.38200 35.78700 20.82100
H  0.20600 36.03600 21.07700
H  -0.95200 37.15800 21.86400
H  -0.40400 32.72200 21.09500
H  -1.56100 31.80100 21.83100
H  0.46800 32.52000 23.89900
H  1.22000 32.15600 22.32200
H  0.31000 30.99600 23.24300
H  -5.19500 30.60600 24.19300
H  -5.99400 30.13400 25.68600
H  -4.43500 29.41100 25.27900
H  -3.98200 31.46700 30.50800
H  -6.32900 33.63500 33.35700
H  -6.85400 31.87100 33.48900
H  -7.65200 32.99100 32.40400

