158

Mg 17.27900 -1.21300 27.75300
C  16.40300 0.92000 30.40700
C  19.09400 -3.07700 29.98500
C  18.67200 -2.78900 25.09800
C  15.87400 1.15600 25.50000
N  17.67500 -1.00800 29.98000
C  17.15800 -0.07900 30.86600
C  17.48300 -0.46300 32.27900
C  18.53400 -1.64300 32.08900
C  18.46900 -1.95100 30.58000
C  19.96900 -1.24200 32.55500
C  16.27200 -0.77900 33.13000
C  16.35000 -0.13000 34.54900
H  17.81500 0.07800 35.12200
N  18.57700 -2.72100 27.61200
C  19.14700 -3.40400 28.61200
C  19.70800 -4.56100 28.10000
C  19.59600 -4.46000 26.69700
C  18.93400 -3.30000 26.39800
C  20.26300 -5.64800 28.94600
C  20.07400 -5.55200 25.69600
O  19.95300 -5.42300 24.51500
C  20.92800 -6.70900 26.08900
N  17.09300 -0.90300 25.51900
C  17.94600 -1.60800 24.76600
C  17.88600 -1.07100 23.33900
C  16.67700 -0.07400 23.40300
C  16.64200 0.18900 24.91000
C  19.19500 -0.34000 23.03600
C  15.27000 -0.68700 22.84100
C  14.88700 -0.43400 21.32700
N  16.14400 0.55700 27.89000
C  15.61300 1.36000 26.88900
C  14.84800 2.38500 27.46100
C  15.16300 2.33600 28.87200
C  15.95000 1.20300 29.04900
C  13.89700 3.36400 26.87100
C  14.99300 2.99100 30.17800
O  14.32300 3.95800 30.53300
C  15.77400 2.04000 31.20900
C  16.87500 2.86900 31.87400
O  18.03800 2.96200 31.50900
O  16.30900 3.58000 32.87300
C  17.01500 4.45600 33.71800
H  19.61600 -3.64500 30.75800
H  19.32700 -3.17200 24.31200
H  15.46900 1.94900 24.86800
H  18.01500 0.44900 32.55100
H  18.34500 -2.53000 32.69400
H  19.90800 -0.23600 32.97000
H  20.64800 -1.17000 31.70500
H  20.36700 -1.91100 33.31700
H  15.92000 -1.81100 33.12700
H  15.45000 -0.23200 32.66900
H  15.86700 -0.75700 35.29900
H  15.80800 0.81600 34.54400
H  19.89300 -5.63900 29.97100
H  21.32300 -5.39400 28.94600
H  20.08400 -6.68300 28.65500
H  20.43500 -7.53000 26.60900
H  21.78200 -6.44300 26.71100
H  21.29900 -7.20400 25.19100
H  17.79300 -1.96400 22.72000
H  16.97300 0.80000 22.82300
H  19.20200 0.73000 23.24300
H  19.38400 -0.34300 21.96200
H  20.01600 -0.70800 23.65100
H  14.48100 -0.25000 23.45300
H  15.05900 -1.73500 23.05400
H  15.37600 0.49000 21.01900
H  13.82900 -0.30700 21.09700
H  15.26800 -1.26300 20.73000
H  13.32600 3.91200 27.61900
H  13.24300 2.86100 26.15800
H  14.58400 4.07000 26.40500
H  15.07200 1.69300 31.96700
H  16.63100 5.47500 33.67300
H  18.08600 4.29600 33.59400
H  16.79200 4.24400 34.76300
Mg -9.03600 40.38200 39.20200
C  -9.01900 37.05100 38.23600
C  -5.76400 40.74100 38.11100
C  -9.49400 43.78300 39.23700
C  -12.47800 40.00200 39.89300
N  -7.63100 39.11400 38.21900
C  -7.81000 37.74800 38.07600
C  -6.44300 37.12000 37.58500
C  -5.38600 38.21100 38.01100
C  -6.28500 39.44300 38.14100
C  -4.50000 37.86300 39.27600
C  -6.36600 36.63400 36.11300
C  -6.87300 37.59500 35.01600
H  -7.85500 37.13900 33.97400
N  -7.85900 42.02800 38.74600
C  -6.53800 41.95100 38.40500
C  -6.07700 43.29500 38.25300
C  -7.09100 44.23600 38.40800
C  -8.18600 43.34400 38.83400
C  -4.70100 43.60900 37.96300
C  -7.04300 45.76500 38.31000
O  -6.06600 46.34400 37.88100
C  -8.21400 46.73000 38.58900
N  -10.76600 41.73700 39.44600
C  -10.63900 43.03500 39.52300
C  -11.92100 43.78000 39.96500
C  -12.84600 42.56800 40.25400
C  -12.04700 41.32400 39.73300
C  -11.77800 44.75400 41.19600
C  -14.35700 42.64300 39.82800
C  -15.46700 42.94300 40.95800
N  -10.44800 38.87900 39.12200
C  -11.85200 38.87500 39.48400
C  -12.34100 37.54300 39.35700
C  -11.26400 36.80100 38.85700
C  -10.17800 37.64800 38.71600
C  -13.66200 36.93500 39.73800
C  -10.80900 35.46200 38.53600
O  -11.38400 34.34600 38.51100
C  -9.27800 35.53100 38.22800
C  -8.42600 34.76600 39.24500
O  -8.42200 34.78300 40.47000
O  -7.60200 34.05800 38.48600
C  -6.49700 33.48000 39.23300
H  -4.70700 40.99100 38.00100
H  -9.62100 44.86800 39.26300
H  -13.47600 39.90200 40.32500
H  -6.47800 36.23600 38.22100
H  -4.71200 38.37800 37.17000
H  -4.70300 38.50500 40.13300
H  -3.43600 37.86300 39.03700
H  -4.74500 36.86200 39.63300
H  -6.96500 35.74300 35.92600
H  -5.32500 36.39000 35.89800
H  -5.98100 38.05000 34.58400
H  -7.40400 38.44000 35.45400
H  -4.49900 43.70900 36.89700
H  -3.98000 42.86100 38.29500
H  -4.34300 44.45200 38.55500
H  -8.66600 46.69900 39.58100
H  -8.86300 46.43900 37.76300
H  -7.94700 47.78100 38.47900
H  -12.29900 44.38300 39.14000
H  -12.86600 42.34100 41.32000
H  -12.33200 44.50100 42.10000
H  -12.11900 45.78000 41.05400
H  -10.74300 44.80600 41.53300
H  -14.59200 41.68900 39.35600
H  -14.47700 43.47200 39.13100
H  -16.22100 42.16100 41.05200
H  -15.92700 43.89800 40.70600
H  -14.88400 42.93000 41.87900
H  -14.18300 37.54300 40.47800
H  -13.50900 35.98200 40.24500
H  -14.22100 36.78200 38.81400
H  -9.03600 35.07800 37.26700
H  -5.91800 34.33000 39.59500
H  -5.86300 32.87900 38.58200
H  -6.88700 32.81600 40.00400

