158

Mg 53.94300 24.12000 44.26100
C  51.26700 26.35200 43.42900
C  52.02600 21.60500 43.24100
C  56.73900 22.39000 43.71000
C  55.80800 26.82100 45.19600
N  52.00900 24.04900 43.21100
C  51.05700 25.04600 43.02300
C  49.79700 24.46400 42.38700
C  49.84800 22.98300 42.85800
C  51.41000 22.88000 43.16500
C  48.90000 22.58300 43.94600
C  49.74400 24.42400 40.80800
C  51.09300 24.68800 40.06900
H  52.03300 23.53400 39.88500
N  54.32400 22.19800 43.68100
C  53.36000 21.29800 43.43000
C  53.96300 20.04600 43.16600
C  55.40800 20.18400 43.19000
C  55.54500 21.59000 43.46000
C  53.17400 18.81300 42.96000
C  56.39800 19.05800 43.07600
O  56.13600 17.90800 42.77100
C  57.89700 19.37200 43.48200
N  56.04900 24.59000 44.33700
C  56.97200 23.64500 44.23500
C  58.34300 24.22800 44.47700
C  58.05900 25.60800 45.12700
C  56.56400 25.78700 44.77200
C  59.19900 23.34300 45.43600
C  58.96200 26.83800 44.68200
C  58.65700 27.37700 43.30300
N  53.55800 26.15800 44.47000
C  54.41700 27.12200 44.99900
C  53.67400 28.38600 45.18600
C  52.42000 28.12400 44.57300
C  52.46900 26.77700 44.11600
C  54.22500 29.74800 45.70400
C  51.09000 28.72200 44.14800
O  50.61700 29.76300 44.34800
C  50.40100 27.62100 43.33500
C  50.22900 28.19100 41.95500
O  51.11100 28.39500 41.22000
O  48.88400 28.33600 41.65500
C  48.74400 28.65500 40.21800
H  51.40500 20.71500 43.12400
H  57.66300 21.88700 43.41400
H  56.24500 27.69100 45.69000
H  48.98100 25.04600 42.81600
H  49.54600 22.27900 42.08200
H  48.49800 21.58200 43.78600
H  48.13300 23.34700 44.07200
H  49.44700 22.43600 44.87700
H  49.02500 25.14000 40.40900
H  49.32000 23.47800 40.47200
H  51.51400 25.64300 40.38500
H  50.86200 24.95200 39.03700
H  53.87200 17.97700 42.90200
H  52.60100 18.75200 42.03500
H  52.52500 18.65200 43.82000
H  58.34600 19.77600 42.57500
H  58.47800 18.50900 43.80700
H  57.89800 20.02000 44.35900
H  58.85800 24.39100 43.53000
H  58.06600 25.49900 46.21100
H  58.63500 22.41000 45.44100
H  59.31200 23.74200 46.44400
H  60.11700 23.18100 44.87100
H  60.03700 26.66500 44.71600
H  58.74300 27.65800 45.36700
H  58.56400 28.46100 43.35400
H  57.81700 26.82500 42.88000
H  59.44500 27.14400 42.58700
H  54.16000 29.80400 46.79100
H  53.65600 30.41900 45.06000
H  55.28000 29.81200 45.43700
H  49.57800 27.35500 43.99700
H  48.69100 29.74200 40.27700
H  47.70200 28.53200 39.92400
H  49.46700 28.19200 39.54500
Mg -11.67200 15.64400 42.11500
C  -8.79500 13.78100 41.68700
C  -10.35500 18.19700 40.51800
C  -14.79100 17.11100 41.95400
C  -13.29900 12.61100 43.26400
N  -9.69500 15.87800 41.10400
C  -8.70500 15.09200 41.18000
C  -7.47600 15.80100 40.48000
C  -7.96300 17.29100 40.35600
C  -9.46100 17.12600 40.66000
C  -7.24800 18.33700 41.28600
C  -6.97400 15.15100 39.15100
C  -5.46400 14.96500 38.91600
H  -4.97500 15.62200 37.65500
N  -12.42200 17.46200 41.44700
C  -11.70600 18.34800 40.70800
C  -12.51900 19.44600 40.29600
C  -13.82600 19.19600 40.74900
C  -13.74600 17.88600 41.45900
C  -11.96700 20.63600 39.54700
C  -14.98300 20.12800 40.57400
O  -14.86800 21.18500 39.91500
C  -16.30400 19.88700 41.19700
N  -13.76700 15.02400 42.58800
C  -14.80900 15.79600 42.35100
C  -16.17800 15.07500 42.65600
C  -15.67500 13.66400 43.13200
C  -14.18200 13.69400 42.97800
C  -17.21700 15.66700 43.61500
C  -16.31900 12.47600 42.27900
C  -16.41700 11.10000 42.93400
N  -11.18300 13.54900 42.53400
C  -11.90900 12.48500 42.96200
C  -10.93400 11.39600 43.16600
C  -9.71700 11.80000 42.61700
C  -9.91500 13.15000 42.27400
C  -11.22600 10.02300 43.69000
C  -8.34100 11.45200 42.25800
O  -7.72300 10.40600 42.32700
C  -7.64700 12.70500 41.72900
C  -6.62300 13.10100 42.72100
O  -6.71500 13.42900 43.90000
O  -5.41600 12.86500 42.11700
C  -4.23300 13.43200 42.73900
H  -9.83500 19.03300 40.04500
H  -15.83500 17.33400 41.72600
H  -13.79200 11.69100 43.58500
H  -6.72500 15.69200 41.26200
H  -7.85900 17.68200 39.34400
H  -6.18700 18.08900 41.25900
H  -7.64700 18.24500 42.29600
H  -7.41600 19.34500 40.90700
H  -7.45500 15.57600 38.27000
H  -7.49200 14.19200 39.14000
H  -5.27500 13.89200 38.90000
H  -4.92900 15.38300 39.76900
H  -12.56600 20.83900 38.65900
H  -11.03000 20.31900 39.09000
H  -11.72500 21.51500 40.14400
H  -17.00600 20.70200 41.02400
H  -16.07500 19.74600 42.25300
H  -16.75700 18.99700 40.76000
H  -16.59000 14.97500 41.65200
H  -15.92200 13.47600 44.17700
H  -17.57000 15.00900 44.40900
H  -18.07900 15.94800 43.00900
H  -16.80200 16.57500 44.05100
H  -15.75900 12.29700 41.36100
H  -17.37300 12.66700 42.07700
H  -17.23100 10.57400 42.43600
H  -16.60500 11.29400 43.99000
H  -15.51200 10.52300 42.74400
H  -11.89500 10.01100 44.55000
H  -10.37100 9.49200 44.10900
H  -11.73200 9.47700 42.89400
H  -7.17200 12.51500 40.76700
H  -3.46300 13.43700 41.96800
H  -3.86500 12.81200 43.55700
H  -4.41700 14.43300 43.13000

