158

Mg 25.97100 0.41300 29.80000
C  27.70300 0.18800 32.74900
C  23.04500 0.68700 31.43400
C  24.48900 0.48800 26.78800
C  29.08100 -0.30000 28.04500
N  25.49300 0.43500 31.83000
C  26.29500 0.39800 32.87200
C  25.51600 0.71000 34.22800
C  24.06300 0.54600 33.76400
C  24.17900 0.54300 32.25200
C  23.42100 -0.83500 34.22100
C  25.98500 2.12200 34.73500
C  26.68900 2.15700 36.05300
H  26.22000 3.28500 37.09200
N  24.07400 0.44200 29.18800
C  22.92600 0.57600 29.98700
C  21.70900 0.58700 29.22600
C  22.19200 0.41000 27.85500
C  23.66500 0.50500 27.87100
C  20.32800 0.65000 29.87400
C  21.30800 0.31800 26.55900
O  21.76700 0.21800 25.42100
C  19.79000 0.37400 26.77700
N  26.75900 0.17000 27.67200
C  25.82400 0.18800 26.65000
C  26.58300 0.19900 25.34000
C  28.08100 -0.06000 25.70500
C  28.04700 -0.01100 27.22300
C  26.04700 -0.99100 24.52800
C  29.16200 0.88300 25.21100
C  28.90600 1.57100 23.90800
N  27.93900 -0.01100 30.28000
C  29.05200 -0.34400 29.50200
C  30.24500 -0.40300 30.37100
C  29.76600 -0.10400 31.66500
C  28.36900 0.04100 31.55900
C  31.57800 -0.70000 29.86300
C  30.15300 0.11500 33.04400
O  31.27200 0.21800 33.53300
C  28.85800 0.29200 33.80400
C  28.91900 -0.67900 34.90200
O  28.57100 -1.82400 34.74000
O  29.29400 -0.16800 36.11800
C  29.18200 -0.91400 37.37400
H  22.15500 0.76300 32.06100
H  24.12000 0.64400 25.77200
H  30.01400 -0.52200 27.52300
H  25.80900 -0.04300 34.96000
H  23.45300 1.33600 34.20200
H  22.94300 -0.63000 35.17900
H  24.24000 -1.51900 34.44500
H  22.73600 -1.40100 33.59000
H  25.06700 2.69700 34.85600
H  26.64200 2.52400 33.96400
H  27.77200 2.23600 35.95100
H  26.47700 1.21300 36.55600
H  20.28500 0.10500 30.81700
H  19.55400 0.09300 29.34700
H  19.97800 1.67300 30.00700
H  19.40900 -0.41000 27.43100
H  19.33300 0.28400 25.79100
H  19.50800 1.35500 27.15800
H  26.26900 1.06200 24.75300
H  28.38900 -1.09500 25.55700
H  25.32800 -1.56100 25.11600
H  26.85600 -1.62400 24.16200
H  25.44700 -0.64800 23.68500
H  30.10900 0.34500 25.17000
H  29.33300 1.61300 26.00300
H  29.69800 1.18300 23.26600
H  29.10900 2.63800 24.00300
H  27.95000 1.47300 23.39400
H  31.67600 -1.63600 29.31300
H  32.23200 -0.83300 30.72500
H  31.76200 0.08300 29.12800
H  28.83800 1.28600 34.25200
H  28.83600 -1.92800 37.17600
H  28.58400 -0.31900 38.06400
H  30.11800 -1.07300 37.91100
Mg 40.40800 9.19800 29.26800
C  42.33700 10.60400 31.93100
C  38.28500 7.92100 31.62200
C  38.92900 7.54600 26.86300
C  42.94900 10.19400 27.06700
N  40.34700 9.33700 31.49900
C  41.12400 10.01800 32.37900
C  40.61800 9.90400 33.87800
C  39.36600 8.99000 33.63500
C  39.27800 8.73900 32.17300
C  39.32300 7.63500 34.53600
C  40.32000 11.26800 34.46500
C  39.36100 11.38200 35.69200
H  39.62700 12.30100 36.83600
N  38.82700 7.87300 29.22600
C  37.99500 7.54200 30.25500
C  36.87200 6.85700 29.73100
C  36.91700 6.80600 28.31300
C  38.27200 7.42700 28.10900
C  35.80600 6.29800 30.57600
C  35.93100 6.22400 27.20200
O  36.28300 6.24000 25.97100
C  34.55700 5.58700 27.57800
N  40.97100 8.76900 27.27800
C  40.20900 8.05100 26.49100
C  40.68200 8.01400 25.02900
C  42.02800 8.85800 25.05200
C  41.97300 9.31500 26.51800
C  40.81300 6.59400 24.55600
C  42.21600 9.94700 23.93400
C  41.62700 11.31700 24.24200
N  42.23200 10.24100 29.45900
C  43.17400 10.54100 28.43900
C  44.27400 11.25700 28.99500
C  43.89200 11.38000 30.41900
C  42.68700 10.68400 30.61200
C  45.51300 11.79600 28.20200
C  44.30400 11.90600 31.69700
O  45.26700 12.58100 31.99900
C  43.30400 11.37900 32.77800
C  43.98000 10.57200 33.81400
O  44.72500 9.66200 33.65200
O  43.58500 11.01900 35.03600
C  44.13500 10.43000 36.22500
H  37.54800 7.61500 32.36700
H  38.38300 7.11400 26.02100
H  43.61800 10.59900 26.30400
H  41.27600 9.36200 34.55800
H  38.41100 9.41500 33.94400
H  38.94600 6.75700 34.01200
H  38.88400 7.68300 35.53300
H  40.38400 7.39500 34.60000
H  39.99700 12.03400 33.76000
H  41.21300 11.66500 34.94700
H  39.30400 10.35300 36.04800
H  38.38700 11.66300 35.29400
H  35.67600 6.46000 31.64600
H  35.62400 5.23200 30.44400
H  34.98900 6.90200 30.18100
H  34.64700 4.51300 27.41300
H  33.73900 6.04900 27.02600
H  34.28800 5.69200 28.62900
H  39.97300 8.48900 24.35200
H  42.93500 8.25400 25.01800
H  40.11100 5.88500 24.99600
H  41.76900 6.13800 24.81600
H  40.76900 6.58100 23.46700
H  41.66400 9.71800 23.02300
H  43.26500 9.96300 23.63800
H  40.80800 11.60400 23.58300
H  42.43800 12.02900 24.09000
H  41.15200 11.38700 25.22000
H  45.21400 12.28900 27.27700
H  46.34500 11.15300 27.91500
H  46.00300 12.60300 28.74700
H  42.90300 12.28000 33.24000
H  45.15200 10.77900 36.40400
H  43.93700 9.35800 36.23400
H  43.55600 10.83500 37.05400

