158

Mg 48.82200 45.14000 43.00900
C  45.48300 45.51300 41.89000
C  48.48500 41.70500 42.79200
C  52.18500 44.84200 43.44300
C  49.17900 48.73400 42.88300
N  47.17900 43.84800 42.29600
C  45.89500 44.12200 41.92000
C  45.01200 42.85400 41.66200
C  46.02400 41.74400 42.12500
C  47.31700 42.50000 42.44500
C  45.44000 40.91700 43.32900
C  44.58000 42.60100 40.15500
C  45.54500 43.04800 39.08100
H  45.48000 42.18300 37.84500
N  50.17400 43.50400 43.01800
C  49.84100 42.18700 43.00200
C  51.03400 41.45700 42.89100
C  52.16200 42.25400 43.17100
C  51.53900 43.59000 43.25200
C  51.02600 39.99600 42.48900
C  53.54600 41.82000 43.23600
O  53.87200 40.62900 43.23300
C  54.78700 42.75700 43.23000
N  50.44400 46.55700 42.95900
C  51.66800 46.19200 43.39200
C  52.62600 47.40600 43.59500
C  51.71800 48.61000 43.39100
C  50.37700 47.88100 43.02800
C  53.49400 47.49900 44.89300
C  52.14700 49.58300 42.21300
C  52.07000 50.99200 42.58500
N  47.54800 46.89200 42.64000
C  47.84200 48.26500 42.65600
C  46.53600 48.97600 42.35700
C  45.68700 47.92000 42.10700
C  46.26200 46.69400 42.26000
C  46.33500 50.51200 42.24600
C  44.31700 47.66600 41.67200
O  43.41600 48.47100 41.49300
C  44.13100 46.05800 41.43500
C  42.96700 45.48700 42.25100
O  42.29400 44.51100 41.92700
O  42.67400 46.17900 43.38600
C  41.68000 45.57700 44.28600
H  48.39700 40.62200 42.90000
H  53.20700 44.79000 43.82600
H  49.19100 49.82200 42.97200
H  44.08800 42.90700 42.23800
H  46.11300 41.01500 41.32000
H  45.63500 39.92000 42.93400
H  44.40000 41.18300 43.51900
H  46.05900 41.04300 44.21700
H  43.62600 43.12800 40.17900
H  44.36000 41.54700 39.98300
H  46.56600 43.13000 39.45500
H  45.27700 44.08100 38.86000
H  51.27600 39.97000 41.42800
H  50.07100 39.50300 42.67200
H  51.62000 39.31700 43.10100
H  54.49200 43.62000 42.63400
H  55.72600 42.32900 42.87900
H  54.90600 43.03300 44.27800
H  53.38200 47.37700 42.81000
H  51.62800 49.15100 44.33300
H  53.13200 48.23500 45.61000
H  54.49900 47.73200 44.54000
H  53.53600 46.49800 45.32200
H  51.61500 49.38600 41.28200
H  53.19000 49.36300 41.98600
H  51.46300 51.18200 43.47000
H  51.70200 51.55500 41.72800
H  53.10100 51.30800 42.74200
H  46.47500 50.83400 41.21400
H  46.95100 51.16900 42.86100
H  45.31200 50.72100 42.55900
H  44.00200 45.78700 40.38700
H  40.69200 45.74300 43.85600
H  41.74400 46.02000 45.28000
H  41.78200 44.49200 44.30000
Mg -11.65100 38.36400 42.46800
C  -9.03500 35.91300 41.90100
C  -9.32600 40.63800 41.56800
C  -14.14500 40.53900 42.32200
C  -13.89000 35.71600 43.02300
N  -9.46600 38.18100 41.73000
C  -8.56600 37.21800 41.56300
C  -7.22300 37.65500 41.06500
C  -7.33400 39.20700 41.44600
C  -8.83800 39.36100 41.56400
C  -6.52300 39.66300 42.71800
C  -6.97400 37.30600 39.52000
C  -5.87500 36.29800 39.28300
H  -5.92400 35.30900 38.06900
N  -11.76200 40.34800 41.97400
C  -10.61100 41.13600 41.74400
C  -11.12400 42.51300 41.70000
C  -12.53800 42.52500 42.05500
C  -12.87100 41.12100 42.08800
C  -10.14800 43.65400 41.67400
C  -13.39200 43.82700 42.20900
O  -12.81500 44.95000 42.09200
C  -14.93400 43.87000 42.47300
N  -13.77300 38.10000 42.40900
C  -14.58500 39.22300 42.45400
C  -16.01100 38.76900 42.72000
C  -15.93800 37.24500 43.02600
C  -14.45700 36.96000 42.73200
C  -16.69300 39.57500 43.91300
C  -16.94100 36.40500 42.30700
C  -16.67300 35.98800 40.82900
N  -11.50000 36.30100 42.51000
C  -12.54800 35.38900 42.85700
C  -12.06600 34.04300 42.80700
C  -10.63300 34.23700 42.52600
C  -10.39200 35.60300 42.25600
C  -12.89000 32.76200 43.05900
C  -9.36100 33.56400 42.35200
O  -9.14000 32.33700 42.39500
C  -8.25600 34.64100 41.95700
C  -7.21700 34.71100 43.05200
O  -7.30500 35.26000 44.12700
O  -6.09800 34.07600 42.60600
C  -5.10700 33.93300 43.67900
H  -8.46300 41.30400 41.50300
H  -14.95700 41.26900 42.33300
H  -14.59100 34.89100 43.16500
H  -6.39400 37.25500 41.64800
H  -7.05000 39.87000 40.62900
H  -5.77000 38.92300 42.98800
H  -7.21400 39.86100 43.53800
H  -5.96500 40.59000 42.58700
H  -6.64900 38.25600 39.09700
H  -7.90400 37.00700 39.03500
H  -5.80600 35.58900 40.10900
H  -4.91000 36.78800 39.15300
H  -10.12800 43.94100 40.62300
H  -9.14800 43.41800 42.03900
H  -10.50000 44.49200 42.27500
H  -15.46400 43.45900 41.61400
H  -15.23900 44.90600 42.62300
H  -15.23100 43.34900 43.38400
H  -16.61300 38.84300 41.81500
H  -16.17000 37.10200 44.08100
H  -16.16000 40.45500 44.27100
H  -16.92500 38.92200 44.75400
H  -17.59200 39.85400 43.36200
H  -17.93000 36.83000 42.47500
H  -16.99500 35.44700 42.82500
H  -17.56000 36.11300 40.20800
H  -16.40400 34.93300 40.87800
H  -15.97000 36.59800 40.26200
H  -12.19700 31.95800 43.30700
H  -13.44800 32.47800 42.16700
H  -13.59600 32.90900 43.87700
H  -7.72100 34.42400 41.03300
H  -5.53900 33.54900 44.60300
H  -4.76200 34.95300 43.84300
H  -4.39800 33.15700 43.38800

