158

Mg 25.77300 -7.33300 47.38800
C  28.08300 -4.94900 46.34300
C  23.47500 -6.03400 45.04300
C  23.82000 -10.16100 47.79800
C  28.27900 -8.78100 49.38900
N  25.85700 -5.74200 45.90700
C  26.91200 -4.88000 45.66100
C  26.51600 -3.75300 44.60700
C  24.99900 -4.10200 44.38700
C  24.69400 -5.33600 45.25500
C  24.02800 -2.89500 44.57000
C  27.35700 -3.90400 43.30400
C  27.86900 -2.51600 42.70700
H  27.66400 -2.23600 41.19700
N  23.90400 -8.00800 46.60600
C  23.13900 -7.30100 45.66200
C  21.98400 -8.06400 45.33600
C  22.02100 -9.31500 46.06600
C  23.28400 -9.19900 46.92400
C  20.99200 -7.68000 44.24000
C  21.01900 -10.41300 45.94700
O  20.15600 -10.41100 45.08300
C  21.10300 -11.48400 46.87400
N  26.03800 -9.16000 48.46400
C  25.01900 -10.09400 48.55100
C  25.49100 -11.28900 49.56800
C  26.65400 -10.50900 50.31200
C  27.11100 -9.47900 49.29900
C  24.35400 -11.79600 50.51100
C  27.74600 -11.55900 50.61300
C  28.55600 -12.20000 49.56600
N  27.84600 -6.97200 47.78700
C  28.74300 -7.62000 48.63200
C  30.01100 -6.84800 48.59800
C  29.78900 -5.72400 47.74400
C  28.42900 -5.92500 47.26200
C  31.24300 -7.10700 49.39500
C  30.31600 -4.52900 47.16300
O  31.36600 -3.94800 47.23500
C  29.27000 -4.03200 46.18300
C  28.84700 -2.70400 46.58900
O  28.18000 -2.38200 47.54100
O  29.51200 -1.84300 45.84700
C  29.06000 -0.46100 45.69500
H  22.83300 -5.52100 44.32500
H  23.28500 -11.10500 47.92100
H  28.97000 -9.18600 50.13100
H  26.68000 -2.74700 44.99400
H  24.75900 -4.44300 43.38000
H  24.57900 -1.95600 44.51200
H  23.61100 -3.00800 45.57100
H  23.25300 -2.89100 43.80400
H  26.74800 -4.44500 42.58000
H  28.23400 -4.54800 43.37700
H  28.92900 -2.57300 42.95500
H  27.53400 -1.69200 43.33700
H  21.30300 -7.95800 43.23400
H  20.94800 -6.59200 44.29000
H  19.97500 -8.03800 44.40000
H  21.25900 -11.18900 47.91100
H  21.85400 -12.16700 46.47700
H  20.17100 -12.04300 46.78700
H  25.88900 -12.04200 48.88700
H  26.25700 -9.93600 51.15100
H  24.38900 -11.34300 51.50200
H  24.34500 -12.88300 50.58500
H  23.37000 -11.57100 50.09900
H  27.39000 -12.37100 51.24800
H  28.33400 -11.00000 51.34100
H  28.49200 -11.60500 48.65500
H  28.36600 -13.24200 49.30900
H  29.58100 -12.25800 49.93400
H  31.72800 -6.14300 49.55100
H  31.84900 -7.71600 48.72400
H  31.06900 -7.46300 50.41000
H  29.63600 -3.98300 45.15800
H  27.98200 -0.42600 45.85700
H  29.37000 -0.06600 44.72700
H  29.57300 0.12500 46.45800
Mg 36.14100 1.81000 29.15600
C  33.96000 2.94500 31.71300
C  38.66500 1.81400 31.43900
C  38.37700 0.98600 26.65400
C  33.55600 1.99600 26.91600
N  36.23300 2.25700 31.33400
C  35.26800 2.67800 32.15900
C  35.83500 2.83700 33.53100
C  37.33100 2.86400 33.33800
C  37.45200 2.35300 31.90900
C  38.05100 4.18100 33.65900
C  35.25700 1.73600 34.51800
C  34.72900 2.32200 35.87400
H  35.48000 3.49800 36.58700
N  38.10000 1.30700 29.10100
C  38.96000 1.29600 30.19600
C  40.19300 0.65800 29.83100
C  40.18600 0.63200 28.44700
C  38.85200 0.97700 27.98200
C  41.26800 0.35300 30.86600
C  41.33800 0.28700 27.54700
O  41.23900 0.27900 26.31200
C  42.70400 -0.01300 28.05500
N  35.98800 1.55100 27.11300
C  37.03300 1.28300 26.25300
C  36.54700 1.32100 24.74900
C  34.94900 1.27600 24.87700
C  34.77000 1.60200 26.33900
C  36.94200 2.70300 24.19600
C  34.40800 -0.16300 24.48300
C  34.00500 -1.14000 25.53800
N  34.13800 2.37600 29.19600
C  33.18000 2.41100 28.19700
C  31.96400 2.86300 28.79300
C  32.20800 3.08400 30.13500
C  33.58100 2.83200 30.32600
C  30.56900 2.88100 28.21200
C  31.59800 3.56700 31.41100
O  30.45000 4.06000 31.59900
C  32.74800 3.45000 32.41400
C  32.95900 4.72300 33.08700
O  33.68600 5.63200 32.65700
O  32.14300 4.74200 34.22000
C  32.15600 6.01200 34.94500
H  39.50600 1.76400 32.13400
H  39.04900 0.70200 25.84200
H  32.83100 2.04100 26.10100
H  35.40400 3.73800 33.96900
H  37.72700 2.05900 33.95700
H  38.93000 3.98300 34.27200
H  37.37300 4.96200 34.00200
H  38.49300 4.58400 32.74800
H  35.99200 0.94900 34.68400
H  34.48100 1.18500 33.98600
H  34.68000 1.45800 36.53700
H  33.66600 2.53900 35.77100
H  41.63700 -0.65600 30.68200
H  40.94600 0.25800 31.90300
H  41.95300 1.20000 30.83700
H  43.36400 -0.09800 27.19100
H  42.76000 -0.99400 28.52600
H  43.02300 0.85200 28.63600
H  36.93400 0.56800 24.06100
H  34.45300 2.04700 24.28900
H  36.11900 3.34300 23.87700
H  37.60400 2.63400 23.33300
H  37.50800 3.16100 25.00800
H  34.96800 -0.66700 23.69600
H  33.49100 0.16400 23.99300
H  34.48400 -2.08500 25.28300
H  32.91800 -1.16400 25.46700
H  34.24700 -0.76800 26.53400
H  30.67900 2.57100 27.17300
H  30.10900 3.86400 28.10900
H  29.89000 2.22100 28.75200
H  32.40900 2.65300 33.07600
H  32.12800 6.72200 34.11800
H  33.06600 6.09100 35.54000
H  31.35500 6.26300 35.64000

