158

Mg 48.66200 35.04500 26.29200
C  46.85400 33.42400 28.83900
C  48.81600 37.80000 28.34700
C  50.51700 36.47400 24.04800
C  48.23500 32.29200 24.29900
N  47.88000 35.59900 28.31400
C  47.37400 34.71300 29.24300
C  47.33800 35.30100 30.68900
C  47.63400 36.83300 30.42400
C  48.16600 36.71100 28.94700
C  46.50100 37.87400 30.71900
C  48.49400 34.77000 31.58400
C  47.95200 34.37400 32.96500
H  46.77800 35.20100 33.59800
N  49.46000 36.95600 26.13800
C  49.41400 37.96200 27.03300
C  50.09800 39.12400 26.47300
C  50.63600 38.68300 25.22400
C  50.20500 37.33200 25.05200
C  50.22100 40.41500 27.24300
C  51.56200 39.45900 24.24700
O  52.04900 39.06800 23.17200
C  52.15100 40.66600 24.74300
N  49.13900 34.55400 24.35300
C  50.04300 35.25600 23.64100
C  50.29600 34.55900 22.32500
C  49.63900 33.15100 22.48700
C  49.00400 33.32500 23.81300
C  49.72100 35.44800 21.11700
C  50.55600 31.90900 22.28800
C  50.10300 30.77000 21.36400
N  47.61800 33.18900 26.44900
C  47.53900 32.19200 25.51600
C  46.79600 31.08300 26.12100
C  46.49600 31.52000 27.41500
C  47.04700 32.78700 27.54900
C  46.34900 29.78900 25.34500
C  45.81200 31.13200 28.64600
O  45.23000 30.06300 28.98100
C  45.97200 32.41900 29.61300
C  46.55700 31.82900 30.90000
O  47.73300 31.52700 31.03700
O  45.60100 31.57400 31.89100
C  46.09600 30.88800 33.09700
H  48.90600 38.67500 28.99400
H  51.31900 36.71500 23.34700
H  48.31100 31.40400 23.66800
H  46.33700 35.12700 31.08300
H  48.50800 37.26700 30.91200
H  46.35300 38.27900 29.71800
H  46.93400 38.58200 31.42600
H  45.62700 37.40000 31.16500
H  49.32100 35.47300 31.68900
H  48.97800 33.98300 31.00500
H  48.74100 34.31400 33.71400
H  47.52500 33.37700 33.07700
H  51.26200 40.71400 27.36100
H  49.75400 40.36000 28.22700
H  49.71500 41.25400 26.76400
H  51.34800 41.33600 25.04800
H  52.68100 41.25500 23.99400
H  52.75800 40.37200 25.59900
H  51.38300 34.58100 22.40300
H  48.83900 33.08400 21.74900
H  49.16400 36.30600 21.49300
H  48.94900 35.03400 20.46800
H  50.55600 35.96700 20.64600
H  50.62000 31.38100 23.23900
H  51.57300 32.10600 21.94800
H  50.85500 30.15000 20.87600
H  49.53000 31.26800 20.58200
H  49.33900 30.18600 21.87800
H  46.37400 29.82300 24.25600
H  45.33400 29.51100 25.62600
H  46.99300 28.96700 25.65700
H  44.95700 32.74300 29.84200
H  45.73200 29.86200 33.06100
H  45.51200 31.29400 33.92300
H  47.17600 30.89000 33.24900
Mg 36.01000 49.06100 26.43200
C  36.28700 46.73800 29.04300
C  35.04600 51.45600 28.75500
C  35.11100 51.10900 23.96100
C  36.76500 46.53200 24.15900
N  35.46800 49.02700 28.62500
C  35.81800 47.99700 29.49500
C  35.81800 48.48900 30.89000
C  35.06200 49.84200 30.78600
C  35.24900 50.17200 29.33600
C  33.60100 49.74000 31.06700
C  37.35100 48.68200 31.45800
C  37.63800 47.96300 32.82400
H  37.22800 48.80800 34.06700
N  35.27100 50.99600 26.36200
C  35.02800 51.84400 27.46800
C  34.54700 53.20600 27.02000
C  34.68800 53.16200 25.59000
C  35.04200 51.74900 25.24500
C  34.22700 54.33800 28.06200
C  34.59800 54.25000 24.50700
O  35.00400 54.11900 23.32900
C  34.14300 55.61200 24.92200
N  35.96800 48.86400 24.31100
C  35.56100 49.87400 23.53600
C  35.67500 49.50200 22.05100
C  36.32200 47.99700 22.12500
C  36.50400 47.78800 23.59300
C  34.33800 49.59100 21.32800
C  37.54900 47.72900 21.24400
C  38.96400 47.55600 21.90100
N  36.28500 46.98000 26.52300
C  36.71000 46.12700 25.50400
C  36.88900 44.78100 26.05400
C  36.82100 45.01400 27.46400
C  36.39400 46.35200 27.65000
C  37.36400 43.53400 25.39100
C  36.93800 44.38000 28.70100
O  37.16700 43.25100 29.01300
C  36.72500 45.52300 29.78600
C  35.71800 45.12900 30.83600
O  34.51400 45.11600 30.65300
O  36.29200 44.68400 31.97900
C  35.31600 44.64400 33.09000
H  34.89000 52.31800 29.40700
H  34.85200 51.69500 23.07700
H  36.92400 45.66400 23.51500
H  35.35500 47.72700 31.51600
H  35.54000 50.54800 31.46400
H  33.12300 50.66800 31.38000
H  33.35700 48.95000 31.77700
H  33.05700 49.34000 30.21100
H  37.56200 49.74700 31.55500
H  38.01100 48.27200 30.69400
H  38.69500 47.69800 32.84600
H  37.05600 47.04100 32.84800
H  35.17800 54.39800 28.59100
H  33.48600 53.98200 28.77800
H  34.04100 55.36100 27.73400
H  34.91500 55.90500 25.63300
H  33.17800 55.50000 25.41700
H  34.11300 56.26800 24.05100
H  36.44200 50.14400 21.61900
H  35.56100 47.28600 21.80100
H  33.86900 48.61700 21.18900
H  34.40500 50.05100 20.34200
H  33.62700 50.23100 21.85100
H  37.68000 48.54300 20.53100
H  37.38000 46.78700 20.72200
H  39.65300 48.23900 21.40400
H  39.22400 46.51000 21.74400
H  39.07200 47.85100 22.94500
H  36.98700 42.67200 25.94100
H  38.42900 43.67400 25.20600
H  36.83000 43.45200 24.44500
H  37.64500 45.62900 30.35900
H  35.67500 43.95900 33.85700
H  34.33100 44.27900 32.79800
H  35.08100 45.59900 33.56000

