158

Mg 34.63700 2.79900 29.96800
C  32.18200 3.77600 32.29800
C  37.11800 3.24200 32.36400
C  36.88500 1.77500 27.70700
C  32.23500 3.19400 27.43700
N  34.65700 3.69500 32.12000
C  33.53500 3.95100 32.85100
C  33.88100 3.97700 34.30800
C  35.48300 4.09700 34.26800
C  35.81500 3.60500 32.81400
C  36.21900 5.46800 34.48900
C  33.36400 2.59800 34.95500
C  33.38200 2.59100 36.47900
H  33.90900 3.80300 37.28000
N  36.71400 2.52900 30.00000
C  37.57200 2.76100 31.11400
C  38.92400 2.33700 30.80300
C  38.90500 1.86000 29.45300
C  37.46100 2.06600 28.97900
C  40.09800 2.46900 31.74200
C  40.07800 1.28700 28.67600
O  40.02100 0.92300 27.51100
C  41.45500 1.15900 29.29700
N  34.58000 2.49900 27.92100
C  35.62700 2.01900 27.15800
C  35.33800 2.22000 25.70900
C  33.72900 2.31000 25.74000
C  33.47900 2.73100 27.10000
C  36.01700 3.57400 25.35200
C  33.05800 0.96900 25.36000
C  33.15900 0.65500 23.86900
N  32.59200 3.25300 29.88200
C  31.80300 3.48000 28.78000
C  30.44900 3.75000 29.20300
C  30.56900 3.86600 30.57600
C  31.90200 3.60800 30.93300
C  29.20500 3.83900 28.30100
C  29.80200 4.10900 31.78300
O  28.58200 4.31400 31.97800
C  30.83800 4.00300 32.94200
C  30.81600 5.25200 33.66400
O  31.23500 6.36200 33.24900
O  30.15200 5.06200 34.79700
C  30.23400 6.09100 35.81200
H  37.78000 3.25500 33.23200
H  37.65500 1.49000 26.98700
H  31.50100 3.20500 26.62800
H  33.36400 4.86600 34.66900
H  35.82700 3.52300 35.12800
H  35.55400 6.17900 34.98100
H  36.37000 5.89500 33.49800
H  37.14700 5.33400 35.04500
H  34.06600 1.84400 34.59900
H  32.38800 2.27400 34.59400
H  34.07600 1.78000 36.70200
H  32.35800 2.42000 36.81000
H  40.83600 3.08000 31.22300
H  40.53500 1.52400 32.06500
H  39.75700 2.95500 32.65600
H  41.69300 2.13400 29.72200
H  42.16000 0.85500 28.52400
H  41.49200 0.34200 30.01800
H  35.79400 1.41500 25.13300
H  33.43600 3.13600 25.09200
H  36.71500 3.96900 26.09000
H  35.25900 4.31800 25.10600
H  36.60800 3.36600 24.46000
H  32.01000 0.89200 25.64900
H  33.53000 0.22900 26.00700
H  32.39300 1.14600 23.26900
H  33.13300 -0.41400 23.65800
H  34.16300 0.95200 23.56600
H  28.80700 2.83500 28.14900
H  29.45900 4.52400 27.49200
H  28.37300 4.34900 28.78700
H  30.58000 3.18300 33.61200
H  31.23500 6.32400 36.17500
H  29.69000 5.85700 36.72700
H  29.65000 6.96600 35.52700
Mg 39.73100 9.47100 28.68100
C  41.86600 10.24000 31.37300
C  37.76300 7.68300 30.95400
C  37.87400 8.59200 26.02400
C  42.16300 10.55600 26.54600
N  39.84900 8.91600 30.96700
C  40.76300 9.49500 31.82000
C  40.25500 9.20700 33.20900
C  39.28400 7.98800 32.96300
C  38.85400 8.24700 31.56300
C  40.02500 6.64700 33.13400
C  39.57400 10.50500 33.79600
C  39.47400 10.72800 35.25200
H  40.03900 11.99300 35.83900
N  38.03700 8.40800 28.48800
C  37.41800 7.69500 29.50600
C  36.35600 6.94800 28.91800
C  36.28900 7.26000 27.56900
C  37.44000 8.07000 27.30400
C  35.43700 6.04400 29.76600
C  35.29800 6.87600 26.50700
O  35.48000 7.10100 25.28100
C  34.00800 6.06000 26.87400
N  39.89900 9.62200 26.60700
C  39.02500 9.19800 25.67700
C  39.44800 9.36500 24.21400
C  40.75700 10.29300 24.48000
C  40.98800 10.11300 25.95800
C  39.68200 8.13600 23.36300
C  40.55700 11.72000 24.05000
C  39.15000 12.42400 24.22500
N  41.63300 10.23000 28.88500
C  42.54400 10.65000 27.92800
C  43.67600 11.38900 28.52500
C  43.34400 11.28400 29.90100
C  42.20300 10.44700 30.03400
C  44.87500 12.00100 27.87700
C  43.82800 11.71500 31.19700
O  44.77800 12.48800 31.43800
C  42.90800 11.01000 32.19100
C  43.63400 10.23000 33.28900
O  44.70900 9.67600 33.20500
O  42.92300 10.28300 34.46400
C  43.46800 9.67000 35.73500
H  37.10200 7.11400 31.61100
H  37.23800 8.34800 25.17000
H  42.89000 11.05200 25.90000
H  41.04400 8.98300 33.92700
H  38.41600 7.99200 33.62200
H  40.91600 6.69300 33.76000
H  40.29700 6.27000 32.14800
H  39.35100 5.89100 33.53700
H  38.57400 10.59200 33.37200
H  40.09900 11.24000 33.18700
H  39.86500 9.93900 35.89400
H  38.39200 10.82200 35.34700
H  35.89800 5.65400 30.67400
H  35.10700 5.09300 29.34600
H  34.54400 6.60300 30.04600
H  34.31100 5.11600 27.32700
H  33.36200 5.92600 26.00700
H  33.55900 6.70700 27.62700
H  38.72300 9.93700 23.63500
H  41.59000 9.92700 23.88000
H  39.35100 7.22200 23.85500
H  40.69100 8.03700 22.96200
H  38.96100 8.26700 22.55500
H  40.62100 11.77300 22.96400
H  41.29500 12.34500 24.55100
H  38.76700 12.51800 23.20900
H  39.20000 13.45800 24.56500
H  38.38300 11.89100 24.78800
H  44.76400 12.25900 26.82400
H  45.66100 11.25500 27.99600
H  45.19700 12.88200 28.43300
H  42.37100 11.72200 32.81800
H  44.19300 8.88000 35.54100
H  42.64700 9.14100 36.21700
H  43.77500 10.51200 36.35500

