158

Mg 48.84500 44.97100 44.10700
C  45.42700 45.33800 43.17900
C  48.67200 41.67100 43.17500
C  52.06900 44.97800 44.09900
C  48.74400 48.54800 44.84400
N  47.21700 43.65200 43.29400
C  45.94500 43.99000 42.91900
C  45.30900 42.85400 42.15100
C  46.10300 41.61200 42.77600
C  47.42900 42.28600 43.24200
C  45.40000 40.72800 43.88000
C  45.45600 43.02500 40.60700
C  44.27800 42.53300 39.81500
H  43.75200 43.45300 38.76000
N  50.22300 43.57100 43.56800
C  49.96800 42.24600 43.31200
C  51.22600 41.56000 42.96900
C  52.24500 42.55900 43.11500
C  51.54100 43.81000 43.53100
C  51.24700 40.12200 42.53100
C  53.73300 42.44400 42.79200
O  54.24100 41.37600 42.59800
C  54.67600 43.59700 42.65000
N  50.26500 46.53600 44.46100
C  51.56800 46.17400 44.56900
C  52.42200 47.34600 45.06300
C  51.39200 48.54900 45.19700
C  50.05200 47.80200 44.85800
C  53.09800 46.96700 46.32100
C  51.69500 49.79000 44.39000
C  52.47300 50.85700 45.21400
N  47.46400 46.64700 44.02000
C  47.57600 47.99900 44.33800
C  46.32100 48.61500 44.11100
C  45.42100 47.61200 43.73600
C  46.19700 46.44900 43.61900
C  45.96200 50.06700 44.32500
C  44.08300 47.29800 43.31900
O  43.03400 47.92100 43.39300
C  44.02800 45.82500 42.90300
C  42.90900 45.11000 43.49400
O  41.91000 44.70000 42.90200
O  43.21100 44.78400 44.78600
C  42.19900 43.88200 45.44100
H  48.76500 40.58400 43.15200
H  53.15500 44.97000 44.21500
H  48.69400 49.55800 45.25700
H  44.26800 42.78600 42.46700
H  46.27600 40.86200 42.00400
H  45.02600 39.79500 43.46000
H  44.60000 41.38200 44.22500
H  46.06800 40.52200 44.71700
H  46.31300 42.43700 40.27700
H  45.54900 44.08500 40.37200
H  43.44100 42.28700 40.46900
H  44.53000 41.63100 39.25700
H  50.93400 40.04000 41.49100
H  50.65500 39.47300 43.17600
H  52.24600 39.68900 42.59400
H  54.05900 44.45100 42.37100
H  55.38800 43.41000 41.84700
H  55.35400 43.86000 43.46200
H  53.12200 47.62200 44.27500
H  51.28900 48.73800 46.26500
H  53.19400 45.89300 46.48400
H  52.65900 47.39400 47.22200
H  54.08900 47.39600 46.17200
H  50.73200 50.10000 43.98300
H  52.28500 49.53900 43.50800
H  52.07800 51.84300 44.96900
H  53.51100 50.79800 44.88800
H  52.37700 50.69900 46.28800
H  45.00900 50.42600 43.93800
H  46.71800 50.59000 43.74000
H  46.08900 50.36100 45.36700
H  43.82300 45.80700 41.83300
H  42.49400 43.82000 46.48900
H  42.12300 42.83200 45.15900
H  41.26300 44.41800 45.59500
Mg -12.65700 39.02900 41.64800
C  -11.02900 36.09700 40.77500
C  -10.13700 40.80500 40.02000
C  -14.54300 41.73600 42.02300
C  -15.25800 37.06200 43.06200
N  -10.87700 38.52200 40.48500
C  -10.40700 37.22900 40.25500
C  -9.11800 37.22800 39.46000
C  -8.74200 38.77000 39.33600
C  -9.96200 39.43600 39.99200
C  -7.44000 39.19800 39.93900
C  -9.30600 36.59400 38.05700
C  -8.37400 35.45900 37.58400
H  -7.12400 35.76700 36.57500
N  -12.32200 41.05200 41.24300
C  -11.27700 41.55600 40.48100
C  -11.45400 43.00600 40.45400
C  -12.70100 43.34400 41.14700
C  -13.28200 42.04800 41.48100
C  -10.38400 43.87600 39.74900
C  -13.16800 44.70800 41.44000
O  -12.42600 45.67000 41.38500
C  -14.55300 44.96400 42.08000
N  -14.67700 39.36500 42.42600
C  -15.11200 40.58500 42.51200
C  -16.53400 40.59100 43.32600
C  -16.61700 39.11000 43.82300
C  -15.45000 38.46300 43.10900
C  -16.62400 41.63200 44.50300
C  -17.99800 38.48300 43.52000
C  -18.61000 37.85300 44.81600
N  -13.07800 37.09500 41.90300
C  -14.08400 36.37900 42.48300
C  -13.91600 34.91400 42.50400
C  -12.69600 34.81400 41.82500
C  -12.18000 36.12100 41.52300
C  -14.87100 33.94800 43.08200
C  -11.72100 33.84200 41.43700
O  -11.67400 32.63100 41.62000
C  -10.60500 34.59400 40.70400
C  -9.26500 34.31200 41.35300
O  -8.79600 34.53000 42.48900
O  -8.61000 33.61200 40.36100
C  -7.28500 33.15900 40.77500
H  -9.33300 41.36400 39.53700
H  -15.27800 42.53900 42.10800
H  -15.97700 36.55500 43.70900
H  -8.25000 36.70200 39.85900
H  -8.73500 39.03900 38.28000
H  -6.82200 38.40300 40.35700
H  -7.58400 39.96000 40.70600
H  -6.80900 39.53700 39.11800
H  -9.25500 37.33600 37.26000
H  -10.32800 36.21500 38.05000
H  -9.02800 34.78200 37.03600
H  -8.03500 35.04200 38.53200
H  -10.43300 44.91000 40.09300
H  -10.72200 43.88800 38.71200
H  -9.37000 43.47800 39.75900
H  -15.26700 44.53900 41.37500
H  -14.75200 46.02900 42.19300
H  -14.57500 44.46400 43.04900
H  -17.28700 40.84900 42.58100
H  -16.31500 38.98900 44.86400
H  -17.62900 42.04500 44.42200
H  -15.83000 42.37600 44.45300
H  -16.51200 41.14400 45.47100
H  -17.77300 37.64100 42.86600
H  -18.72500 39.09600 42.98700
H  -18.29100 36.81100 44.83600
H  -19.68000 38.01400 44.94500
H  -18.17100 38.26300 45.72600
H  -15.50400 34.23700 43.92200
H  -14.36700 33.08500 43.51700
H  -15.51500 33.69600 42.24000
H  -10.61000 34.26000 39.66600
H  -7.48400 32.58300 41.67900
H  -6.58100 33.97000 40.96500
H  -6.98800 32.53400 39.93300

