158

Mg 24.53200 -5.53000 45.08900
C  26.55100 -3.05500 43.71500
C  22.09300 -4.64000 42.76600
C  22.88700 -8.45000 45.64100
C  27.32300 -6.85500 46.71800
N  24.37800 -3.97800 43.48700
C  25.29200 -3.07500 43.05700
C  24.77900 -2.20100 41.99300
C  23.27300 -2.54000 42.01100
C  23.25600 -3.84400 42.75800
C  22.34400 -1.41600 42.57100
C  25.42800 -2.52100 40.61900
C  25.85300 -1.29300 39.82800
H  26.10600 -1.47600 38.28800
N  22.72400 -6.34000 44.38000
C  21.84400 -5.79100 43.50000
C  20.65600 -6.61100 43.44000
C  20.92100 -7.82600 44.20400
C  22.23400 -7.57900 44.77500
C  19.48700 -6.24900 42.47100
C  20.06200 -8.97100 44.26800
O  18.92300 -8.88000 43.77600
C  20.38800 -10.24100 45.01400
N  25.04200 -7.37900 46.06500
C  24.12400 -8.39500 46.19200
C  24.74700 -9.57800 46.89400
C  26.18300 -9.17900 47.20900
C  26.21600 -7.72900 46.60900
C  23.88100 -10.26100 47.93200
C  27.29400 -10.06000 46.76000
C  28.09600 -10.77400 47.84500
N  26.58400 -4.99100 45.28500
C  27.55200 -5.62100 46.05800
C  28.74800 -4.75900 45.95300
C  28.40600 -3.78500 44.99700
C  27.04800 -3.96700 44.64400
C  30.04900 -5.06100 46.52900
C  28.95700 -2.70900 44.15000
O  30.09200 -2.28000 44.13900
C  27.75900 -2.12700 43.33200
C  27.49100 -0.70500 43.79100
O  27.46900 -0.24300 44.95600
O  27.47300 0.17400 42.69300
C  27.25000 1.56200 42.92900
H  21.28700 -4.22600 42.15600
H  22.41100 -9.38300 45.95100
H  28.05900 -7.26900 47.41000
H  25.01600 -1.15600 42.19200
H  22.95500 -2.83700 41.01200
H  22.90900 -0.56000 42.94000
H  21.70200 -1.68900 43.40900
H  21.67500 -0.94700 41.85000
H  24.83600 -3.19000 39.99500
H  26.33800 -3.02200 40.95000
H  26.74300 -0.89800 40.31800
H  25.02100 -0.58800 39.83100
H  19.66200 -6.55800 41.44100
H  19.46500 -5.16100 42.40800
H  18.56100 -6.72500 42.79300
H  21.32500 -10.69500 44.69100
H  19.59200 -10.95400 44.79800
H  20.35900 -10.08900 46.09300
H  24.85400 -10.33600 46.11900
H  26.23200 -9.13200 48.29700
H  23.44800 -11.19500 47.57300
H  23.24100 -9.48300 48.34800
H  24.51900 -10.56700 48.76100
H  27.99000 -9.57500 46.07600
H  26.91500 -10.83500 46.09400
H  27.61900 -11.74000 48.01100
H  28.21800 -10.32300 48.82900
H  29.07000 -10.95700 47.39000
H  30.63600 -5.75500 45.92800
H  29.87300 -5.46300 47.52700
H  30.61800 -4.13300 46.47300
H  28.08800 -2.25600 42.30100
H  27.99700 1.95700 43.61800
H  26.23200 1.59500 43.31700
H  27.38200 2.16600 42.03200
Mg 9.83700 47.81600 25.98300
C  7.97600 47.77800 28.90000
C  12.40700 49.17900 27.67300
C  11.59300 47.47800 23.18100
C  6.86500 46.75000 24.27900
N  10.06000 48.55700 27.94200
C  9.23200 48.33900 29.04100
C  9.94500 48.85400 30.38300
C  11.07100 49.75200 29.75700
C  11.23700 49.08700 28.37300
C  10.82800 51.28000 29.54500
C  10.47100 47.76000 31.32600
C  10.13400 47.96000 32.85300
H  10.47300 46.79100 33.79800
N  11.74900 48.20900 25.51600
C  12.65300 48.75500 26.35700
C  13.87000 49.00600 25.60700
C  13.74000 48.36200 24.33200
C  12.27900 48.02500 24.24700
C  15.10900 49.73800 26.16900
C  14.75500 48.18200 23.24100
O  14.45700 47.63300 22.18100
C  16.16600 48.70100 23.40800
N  9.22900 47.29600 23.98100
C  10.23700 47.18200 23.02100
C  9.68500 46.65700 21.68700
C  8.24200 46.24300 22.08400
C  8.07000 46.71600 23.54200
C  9.84400 47.73900 20.52800
C  7.90100 44.75500 21.90400
C  8.74900 43.76400 22.72300
N  7.68500 47.60000 26.37900
C  6.64200 47.14400 25.59300
C  5.45800 47.08500 26.44600
C  5.95800 47.17600 27.76100
C  7.30800 47.48200 27.66600
C  4.10000 46.77600 25.99100
C  5.55300 47.13500 29.14700
O  4.47300 46.88100 29.66700
C  6.88000 47.37700 29.89100
C  7.14500 46.25500 30.80500
O  7.92800 45.37800 30.57300
O  6.46200 46.37900 31.96100
C  6.42400 45.19000 32.84000
H  13.20400 49.64300 28.25800
H  12.17800 47.17000 22.31200
H  6.10400 46.16100 23.76300
H  9.25200 49.44700 30.98000
H  11.98000 49.54900 30.32300
H  9.84000 51.63100 29.84300
H  10.91300 51.44600 28.47100
H  11.60000 51.81000 30.10200
H  11.55500 47.65600 31.35600
H  9.96700 46.88300 30.92100
H  9.05000 48.06500 32.86000
H  10.59100 48.92000 33.09500
H  15.93700 49.02900 26.12800
H  14.90600 50.02400 27.20100
H  15.34700 50.60500 25.55300
H  15.97500 49.77100 23.49100
H  16.74900 48.46000 22.51900
H  16.67900 48.34400 24.30100
H  10.33400 45.91500 21.22200
H  7.54500 46.80800 21.46500
H  10.16200 48.64600 21.04200
H  8.83900 47.91300 20.14400
H  10.59100 47.41100 19.80500
H  8.02700 44.71900 20.82200
H  6.84800 44.52600 22.06200
H  9.39600 44.41400 23.31200
H  9.31000 43.15700 22.01100
H  8.15600 43.03900 23.28100
H  4.12500 46.29300 25.01500
H  3.59000 47.73800 26.04400
H  3.81400 46.14200 26.83000
H  6.63000 48.22200 30.53200
H  6.59300 45.56900 33.84700
H  7.34900 44.61500 32.79000
H  5.49600 44.63300 32.70700

