158

Mg 54.95900 24.44400 44.41400
C  52.33200 26.58800 43.44800
C  53.00000 21.89100 43.30900
C  57.68100 22.62600 44.31700
C  56.77700 27.30800 45.31900
N  52.97200 24.31400 43.52700
C  51.98700 25.27300 43.22900
C  50.61000 24.69000 42.81600
C  50.84500 23.16900 43.26600
C  52.32700 23.10800 43.45500
C  50.24200 22.74700 44.61200
C  50.39900 24.81900 41.24700
C  48.95900 24.52900 40.82400
H  48.83000 24.47700 39.25600
N  55.27000 22.45800 44.06300
C  54.35500 21.54400 43.57100
C  54.96200 20.28300 43.49400
C  56.33300 20.48300 43.90500
C  56.48400 21.88100 44.09900
C  54.19800 19.08700 43.07700
C  57.27800 19.33800 44.03300
O  56.90700 18.17600 43.71500
C  58.70600 19.47400 44.42600
N  57.02400 24.98200 44.60100
C  57.91700 23.94300 44.60500
C  59.28800 24.59500 44.78300
C  58.98100 26.00600 45.39400
C  57.48300 26.11900 45.10200
C  60.28500 23.71200 45.63200
C  59.91800 27.20600 45.01700
C  60.84100 27.60500 46.29600
N  54.65100 26.53900 44.46900
C  55.42200 27.52300 45.07600
C  54.73000 28.71100 45.07800
C  53.47900 28.42200 44.48100
C  53.55000 27.12100 44.08800
C  55.23800 30.03100 45.63300
C  52.18700 28.94300 44.10900
O  51.65600 30.02300 44.22900
C  51.45000 27.73400 43.37300
C  51.09200 28.19000 41.92100
O  51.89500 28.16400 41.03000
O  49.71200 28.23700 41.82400
C  49.27300 28.61400 40.47500
H  52.32800 21.03500 43.21900
H  58.58300 22.03900 44.13800
H  57.35100 28.08600 45.82700
H  49.71900 25.11100 43.28200
H  50.46500 22.50700 42.48800
H  51.00400 22.46200 45.33700
H  49.66800 21.83800 44.42800
H  49.65000 23.54700 45.05700
H  51.09300 24.11800 40.78300
H  50.83500 25.76000 40.90900
H  48.32100 25.31700 41.22500
H  48.71100 23.60900 41.35300
H  54.77100 18.57300 42.30500
H  53.25300 19.38600 42.62500
H  54.00400 18.46100 43.94900
H  59.21900 19.98400 43.61100
H  59.19000 18.51600 44.61700
H  58.75400 20.13800 45.29000
H  59.75900 24.71800 43.80800
H  58.97000 25.91500 46.48000
H  59.89200 22.69900 45.71800
H  60.35400 24.19400 46.60700
H  61.28200 23.60200 45.20600
H  59.28600 28.04700 44.73000
H  60.48100 26.95000 44.11900
H  61.75300 27.93500 45.79800
H  60.95400 26.79100 47.01200
H  60.40100 28.46400 46.80200
H  55.56000 30.75400 44.88400
H  56.21100 29.86200 46.09400
H  54.59900 30.49900 46.38100
H  50.56600 27.52400 43.97600
H  49.58400 29.63100 40.23700
H  48.21200 28.39500 40.35400
H  49.81400 27.87200 39.89000
Mg 35.42900 49.18300 25.91400
C  35.95300 47.50800 28.93800
C  34.38000 51.86900 27.60000
C  34.93000 50.57800 22.94500
C  36.50900 46.24300 24.19300
N  35.16700 49.62900 28.11500
C  35.40600 48.80900 29.09500
C  35.14100 49.55200 30.43400
C  34.38500 50.83100 29.93700
C  34.69900 50.80600 28.49000
C  32.91000 50.73000 30.19000
C  36.45900 49.82600 31.26000
C  36.54200 49.15700 32.64100
H  36.31200 50.05500 33.86400
N  34.79600 51.02600 25.30900
C  34.53000 52.01400 26.14700
C  34.21900 53.23500 25.41000
C  34.25100 52.81300 24.04000
C  34.66200 51.39600 24.06500
C  33.87300 54.62400 26.08700
C  33.96200 53.65400 22.83900
O  34.10600 53.22300 21.70200
C  33.51700 55.11500 22.93800
N  35.80300 48.54800 23.92100
C  35.41000 49.26500 22.83800
C  35.49000 48.59200 21.46300
C  36.29300 47.32300 21.94600
C  36.29100 47.35600 23.47400
C  34.09100 48.25700 20.95100
C  37.73500 47.32800 21.43900
C  37.87400 47.02900 19.91800
N  35.98500 47.23900 26.42600
C  36.38700 46.16800 25.60600
C  36.66200 45.03500 26.39700
C  36.51800 45.47100 27.71200
C  36.12500 46.83700 27.66600
C  37.22800 43.60800 26.00700
C  36.63900 45.18500 29.14400
O  37.00700 44.12100 29.64200
C  36.44300 46.51600 29.95200
C  35.46300 46.13600 30.88300
O  34.32200 45.93200 30.56900
O  36.00500 45.96600 32.14300
C  35.00200 45.36500 33.03100
H  33.90600 52.73700 28.06300
H  34.68700 50.90700 21.93200
H  36.81000 45.33500 23.66600
H  34.50100 48.99400 31.11700
H  34.80900 51.74300 30.35700
H  32.53500 49.80500 30.62700
H  32.41500 50.87500 29.23000
H  32.62800 51.58400 30.80500
H  36.53000 50.90700 31.37300
H  37.32500 49.51500 30.67600
H  37.55200 48.75300 32.69900
H  35.80100 48.35800 32.60400
H  34.76800 55.15200 25.75800
H  33.79700 54.50500 27.16700
H  33.02600 55.04300 25.54300
H  34.27900 55.73900 23.40500
H  32.62200 55.10100 23.56100
H  33.15900 55.55100 22.00500
H  35.97200 49.23400 20.72500
H  35.75700 46.42000 21.65500
H  33.33500 48.52000 21.69000
H  33.85900 47.24900 20.60800
H  33.93500 48.99400 20.16300
H  38.33400 46.69200 22.09100
H  38.06300 48.35200 21.61600
H  38.25700 47.84800 19.30900
H  36.86300 46.87900 19.53700
H  38.38200 46.07500 19.78100
H  36.45200 42.98000 25.56900
H  37.64600 43.03700 26.83600
H  38.07700 43.58400 25.32400
H  37.34700 46.92300 30.40500
H  35.00900 44.27900 32.94600
H  33.98000 45.65900 32.79200
H  35.30800 45.59000 34.05300

