158

Mg 25.99100 -0.55500 28.74300
C  27.63000 -0.91900 31.79100
C  23.01400 -0.05800 30.61400
C  24.28400 -0.22400 25.98000
C  28.85300 -1.60800 27.14300
N  25.43900 -0.24700 31.04100
C  26.35600 -0.39700 32.02600
C  25.65300 -0.25800 33.37000
C  24.13900 -0.06600 33.02300
C  24.19700 -0.10600 31.47500
C  23.15000 -1.21700 33.54400
C  26.24500 0.84800 34.25600
C  26.74600 0.40100 35.69500
H  26.42300 1.37200 36.77500
N  23.89200 -0.21700 28.35800
C  22.87000 -0.03000 29.25300
C  21.63700 0.22500 28.48600
C  22.02600 0.40600 27.10500
C  23.43200 -0.05100 27.10000
C  20.21400 0.46500 29.08500
C  21.24300 0.89400 25.91500
O  21.73900 0.76900 24.82900
C  19.88000 1.57300 26.11600
N  26.54900 -0.87400 26.79200
C  25.64700 -0.70200 25.78500
C  26.32900 -0.83100 24.38600
C  27.68600 -1.55500 24.76900
C  27.73400 -1.33200 26.33900
C  25.40800 -1.53200 23.34100
C  28.92500 -1.01200 23.97800
C  28.80300 -0.61500 22.50800
N  27.84500 -1.14300 29.33500
C  28.92700 -1.44500 28.57700
C  30.08100 -1.67600 29.37600
C  29.62800 -1.44900 30.68300
C  28.25500 -1.18500 30.60800
C  31.43100 -2.13900 28.83800
C  30.03400 -1.49500 32.04000
O  31.07400 -1.71500 32.52400
C  28.76000 -1.17800 32.80100
C  28.40300 -2.31900 33.74800
O  27.56200 -3.17200 33.48100
O  29.11900 -2.29900 34.93700
C  28.68000 -3.29300 35.92300
H  22.17400 0.22200 31.25300
H  23.90200 -0.01100 24.97900
H  29.76300 -1.97300 26.66300
H  25.52400 -1.14000 33.99800
H  23.70500 0.89100 33.31200
H  23.53500 -2.16000 33.93200
H  22.26700 -1.44200 32.94600
H  22.81200 -0.74500 34.46600
H  25.44900 1.55000 34.50300
H  27.06600 1.26600 33.67300
H  27.80200 0.27800 35.45500
H  26.29100 -0.57500 35.86300
H  19.97900 -0.14300 29.95800
H  19.46900 0.15300 28.35300
H  19.94800 1.51200 29.22900
H  19.92700 2.29500 26.93100
H  19.15500 0.81700 26.42100
H  19.50200 2.12200 25.25400
H  26.57700 0.20800 24.17100
H  27.52300 -2.62700 24.65800
H  25.77100 -2.45900 22.89900
H  25.26000 -0.76700 22.57800
H  24.49400 -1.77000 23.88400
H  29.63800 -1.83400 24.03100
H  29.35500 -0.21200 24.58200
H  27.94100 -1.00500 21.96700
H  29.65000 -0.97500 21.92500
H  28.75900 0.46000 22.33400
H  31.51400 -1.84300 27.79300
H  31.68100 -3.17200 29.08300
H  32.13100 -1.51500 29.39400
H  29.02300 -0.31200 33.40800
H  27.72900 -2.92300 36.30500
H  29.34500 -3.26000 36.78700
H  28.73600 -4.36700 35.74900
Mg -4.65500 25.28700 26.34600
C  -3.07200 26.73800 28.85900
C  -6.32700 23.19700 28.40300
C  -6.07600 23.64000 23.48700
C  -2.91400 27.27200 23.97600
N  -4.67100 25.08000 28.41500
C  -3.98500 25.82400 29.32400
C  -4.50100 25.62800 30.76600
C  -5.32700 24.29100 30.56600
C  -5.55800 24.17100 29.05300
C  -4.64400 23.07300 31.21800
C  -5.38900 26.81900 31.06900
C  -5.45900 27.21100 32.56900
H  -4.98700 26.20200 33.65000
N  -6.10300 23.65300 26.00800
C  -6.66100 22.97200 27.06500
C  -7.58200 21.96600 26.47900
C  -7.37500 21.97400 25.05500
C  -6.51000 23.15400 24.78500
C  -8.32000 20.93800 27.24100
C  -8.03500 21.14300 23.96800
O  -7.76700 21.23000 22.77300
C  -8.91100 20.00400 24.32300
N  -4.42200 25.38900 24.03000
C  -5.16200 24.65600 23.16700
C  -4.74200 24.92700 21.72000
C  -3.83300 26.13300 21.85900
C  -3.63100 26.26600 23.33000
C  -4.10800 23.73200 21.02100
C  -4.34300 27.47200 21.23300
C  -5.12800 27.30000 19.88000
N  -3.15300 26.66500 26.33100
C  -2.55900 27.46000 25.37400
C  -1.61600 28.41600 26.01500
C  -1.84400 28.23100 27.37800
C  -2.70900 27.08100 27.53400
C  -0.78600 29.45800 25.25000
C  -1.43000 28.60900 28.66400
O  -0.68200 29.53800 29.06100
C  -2.26900 27.71200 29.69000
C  -1.31000 26.95900 30.42100
O  -0.35700 26.37100 29.86600
O  -1.59800 26.86600 31.77100
C  -0.70500 25.87400 32.52800
H  -6.94900 22.54200 29.01700
H  -6.43000 23.06200 22.63100
H  -2.38800 27.82000 23.19100
H  -3.64200 25.50700 31.42600
H  -6.21100 24.42300 31.19000
H  -4.48200 22.34300 30.42500
H  -5.31500 22.63300 31.95600
H  -3.69700 23.27000 31.72000
H  -6.41300 26.58300 30.77700
H  -4.98300 27.68900 30.55300
H  -6.43300 27.58800 32.88200
H  -4.70500 27.99500 32.64100
H  -9.36600 21.03800 26.94900
H  -8.28900 21.09500 28.31900
H  -7.96300 19.92700 27.04300
H  -8.37600 19.27000 24.92400
H  -9.06400 19.52400 23.35600
H  -9.91300 20.28800 24.64500
H  -5.70300 25.06400 21.22400
H  -2.84000 25.92000 21.46200
H  -4.32200 22.73100 21.39600
H  -3.02500 23.83000 20.94200
H  -4.57300 23.80300 20.03800
H  -3.46600 28.08700 21.03300
H  -5.01400 27.90500 21.97500
H  -5.17200 26.31100 19.42300
H  -4.64600 27.95200 19.15200
H  -6.10400 27.76900 20.00400
H  0.01800 28.94200 24.72600
H  -0.48800 30.28700 25.89300
H  -1.37800 29.83800 24.41800
H  -2.96100 28.28500 30.30700
H  -1.24200 25.47100 33.38600
H  0.26800 26.29600 32.77800
H  -0.63100 24.96400 31.93200

