158

Mg 16.78800 -2.21600 27.87900
C  15.47100 -0.10800 30.41800
C  18.88500 -3.60100 30.25300
C  18.53500 -3.64600 25.36800
C  15.27900 -0.03800 25.58600
N  17.21200 -1.75500 30.05900
C  16.42200 -1.04200 30.88400
C  16.84700 -1.23700 32.39600
C  18.04400 -2.20400 32.23500
C  18.04300 -2.55700 30.72300
C  19.40900 -1.63600 32.58600
C  15.71300 -1.75700 33.35100
C  15.99400 -1.61600 34.80300
H  17.20400 -0.90300 35.32500
N  18.20500 -3.72100 27.79200
C  18.96600 -4.13100 28.87800
C  19.81500 -5.20600 28.41000
C  19.78500 -5.31900 26.97200
C  18.83000 -4.14800 26.63700
C  20.74900 -5.98100 29.43600
C  20.46900 -6.18600 25.92800
O  20.39800 -5.98500 24.72400
C  21.42200 -7.39300 26.48000
N  17.00700 -1.74600 25.78700
C  17.69400 -2.61200 24.94900
C  17.35800 -2.42500 23.43900
C  16.13800 -1.46000 23.55400
C  16.10300 -1.11200 25.05700
C  18.52400 -1.71100 22.74700
C  14.75600 -1.93600 22.94800
C  13.71700 -2.47500 23.88800
N  15.55100 -0.40000 27.88100
C  15.01100 0.32100 26.86600
C  14.14300 1.26900 27.37900
C  14.30700 1.22400 28.81800
C  15.21100 0.13300 29.05500
C  13.20800 2.13800 26.55800
C  13.86900 1.79700 30.07700
O  13.05100 2.65600 30.30800
C  14.62900 0.98600 31.15300
C  15.39800 1.93000 31.89300
O  16.27500 2.63600 31.47400
O  15.04600 1.92100 33.21100
C  15.87800 2.76500 34.09600
H  19.61700 -3.99500 30.96000
H  19.17100 -4.19700 24.67200
H  14.82100 0.54800 24.78600
H  17.19000 -0.23800 32.66700
H  17.90600 -3.09500 32.84800
H  19.29300 -0.75900 33.22400
H  20.01900 -1.38400 31.71900
H  19.92300 -2.42800 33.13000
H  15.62000 -2.81700 33.11400
H  14.79500 -1.26900 33.02500
H  15.86800 -2.61300 35.22400
H  15.15800 -1.09700 35.27300
H  20.25600 -6.93900 29.59800
H  20.95200 -5.57200 30.42600
H  21.78100 -6.13700 29.12200
H  20.89800 -8.09500 27.12800
H  22.22000 -7.05400 27.14100
H  21.87400 -7.88900 25.62100
H  17.09000 -3.37200 22.97000
H  16.22800 -0.51600 23.01700
H  19.49600 -1.92700 23.19000
H  18.47300 -0.62300 22.70900
H  18.49400 -2.04200 21.70900
H  14.98500 -2.64200 22.14900
H  14.31100 -1.05600 22.48300
H  14.15700 -2.69200 24.86200
H  13.14900 -3.27500 23.41400
H  12.97000 -1.69400 24.02800
H  13.63700 2.77300 25.78200
H  12.75200 2.87200 27.22300
H  12.48900 1.41400 26.17400
H  13.91200 0.62500 31.89000
H  15.74200 2.48400 35.14000
H  15.72400 3.84400 34.06300
H  16.93700 2.76500 33.83700
Mg 24.87800 1.32600 30.17500
C  27.07400 0.95900 32.89100
C  22.30500 1.72600 32.32500
C  22.82800 1.43500 27.54700
C  27.57800 0.30700 28.07700
N  24.69400 1.26800 32.36200
C  25.76400 1.30400 33.27500
C  25.19100 1.59000 34.66000
C  23.65100 1.65600 34.45200
C  23.50400 1.47900 32.96400
C  22.71700 0.63400 35.18300
C  25.83900 2.78800 35.45000
C  26.40600 2.50600 36.78800
H  26.20400 3.71300 37.78300
N  22.80400 1.53500 29.97800
C  21.91200 1.64900 30.95500
C  20.54800 1.71700 30.40600
C  20.73000 1.69300 29.03700
C  22.18400 1.58700 28.79100
C  19.29800 1.90800 31.20600
C  19.71500 1.70400 27.89700
O  19.97500 1.82200 26.71500
C  18.32600 1.62600 28.24600
N  25.15100 0.88000 28.11500
C  24.15000 1.08300 27.19900
C  24.74200 0.96800 25.73000
C  26.15900 0.57100 25.97700
C  26.30800 0.48900 27.47700
C  23.87200 0.07300 24.66200
C  27.22500 1.56800 25.43600
C  27.25200 3.07500 25.86200
N  26.95800 0.78600 30.38000
C  27.89100 0.33700 29.44500
C  29.15200 0.09200 30.11400
C  28.91600 0.44000 31.44500
C  27.56500 0.75700 31.56000
C  30.44700 -0.32100 29.49200
C  29.43500 0.50300 32.75100
O  30.54200 0.17600 33.11900
C  28.29300 0.83400 33.73100
C  28.10900 -0.24300 34.71300
O  27.49000 -1.27400 34.63100
O  28.76500 0.19900 35.78500
C  28.47000 -0.26300 37.12400
H  21.45400 1.90900 32.98400
H  22.13800 1.26700 26.71800
H  28.34900 -0.02500 27.37800
H  25.40900 0.67200 35.20600
H  23.17600 2.60600 34.69600
H  22.25900 -0.00900 34.43200
H  21.93000 1.27600 35.57700
H  23.20600 0.03000 35.94800
H  25.17500 3.65300 35.43400
H  26.61800 3.09600 34.75300
H  27.46700 2.33600 36.60200
H  25.94400 1.58600 37.14600
H  18.92700 2.76400 30.64300
H  19.41500 2.17800 32.25600
H  18.62500 1.05100 31.15800
H  17.93100 2.45800 28.83000
H  18.30400 0.79300 28.94900
H  17.68300 1.41300 27.39200
H  24.83000 1.98800 25.35700
H  26.28700 -0.41000 25.51800
H  23.09300 -0.40800 25.25400
H  24.46400 -0.67500 24.13400
H  23.31400 0.62700 23.90700
H  27.15800 1.64400 24.35100
H  28.20900 1.13800 25.62400
H  26.52200 3.30000 26.64000
H  27.02900 3.75800 25.04200
H  28.22200 3.30800 26.29900
H  30.82500 0.34200 28.71400
H  30.31500 -1.28000 28.99100
H  31.22100 -0.21500 30.25200
H  28.40300 1.82500 34.17200
H  28.59600 -1.34100 37.22400
H  27.39400 -0.10700 37.20500
H  29.01600 0.22400 37.93200

