158

Mg 52.88700 24.05700 45.57600
C  50.19100 26.12900 44.55600
C  51.17100 21.38500 44.24800
C  55.81600 22.31000 45.47900
C  54.45500 26.75100 46.91300
N  50.89700 23.83800 44.46300
C  49.91900 24.76100 44.21600
C  48.78200 24.20500 43.39600
C  48.94800 22.63100 43.65600
C  50.40600 22.61100 44.18700
C  48.12700 21.95400 44.81400
C  48.66300 24.67900 41.95500
C  49.85900 25.11000 41.14300
H  51.18500 24.40400 41.47200
N  53.47200 22.18300 44.86300
C  52.59700 21.20600 44.39400
C  53.35100 20.01400 44.09200
C  54.68500 20.28000 44.34500
C  54.74600 21.63800 44.94800
C  52.71500 18.83500 43.47600
C  55.74800 19.22300 44.17500
O  55.51000 18.11200 43.60100
C  57.11000 19.38700 44.68200
N  55.02100 24.64800 45.81600
C  55.87100 23.58800 46.08400
C  57.04400 24.01800 46.83400
C  56.67700 25.51700 47.25000
C  55.28700 25.65400 46.70200
C  57.56700 23.08700 47.89500
C  57.74500 26.54600 46.61600
C  58.49300 27.40600 47.72500
N  52.44800 26.04600 45.75700
C  53.17400 27.02600 46.36800
C  52.36600 28.18300 46.58600
C  51.20000 27.90700 45.80300
C  51.32700 26.56600 45.35100
C  52.75700 29.40200 47.45900
C  49.98700 28.43900 45.32700
O  49.51700 29.58100 45.39000
C  49.36800 27.35500 44.32900
C  49.29500 27.91000 42.95300
O  50.30800 28.32100 42.34000
O  48.01300 28.00700 42.51000
C  47.88300 28.60100 41.20400
H  50.65200 20.54900 43.77400
H  56.68300 21.66600 45.63600
H  54.95200 27.42100 47.61800
H  47.90100 24.57000 43.92300
H  48.70700 22.09600 42.73700
H  48.66500 21.37000 45.56200
H  47.25300 21.43500 44.41900
H  47.81700 22.79500 45.43400
H  47.83000 25.37800 41.88700
H  48.35800 23.78700 41.40800
H  49.89900 26.17600 41.36800
H  49.75800 25.01900 40.06200
H  53.31000 17.92600 43.38600
H  52.18300 19.10100 42.56300
H  51.92700 18.59900 44.19100
H  57.68200 18.51700 44.36000
H  56.96500 19.30900 45.76000
H  57.58300 20.34300 44.46100
H  57.92800 24.05500 46.19800
H  56.60900 25.65700 48.32900
H  57.13800 22.08500 47.88900
H  57.27700 23.52300 48.85100
H  58.64700 22.96700 47.81300
H  57.23400 27.24500 45.95500
H  58.55900 26.09200 46.05200
H  58.62100 28.45200 47.44400
H  59.46700 26.97900 47.96400
H  57.90500 27.36700 48.64200
H  51.87100 29.76200 47.98100
H  53.20200 30.17400 46.83200
H  53.55400 29.25600 48.18800
H  48.38200 27.27700 44.78800
H  47.06900 28.07500 40.70400
H  48.67700 28.42200 40.47900
H  47.45900 29.60600 41.20100
Mg 49.94600 44.42500 43.45800
C  46.81100 45.21300 41.96900
C  49.55100 41.21300 42.59700
C  53.09900 43.88000 44.44500
C  50.37200 47.87800 43.94100
N  48.30700 43.32400 42.47000
C  47.23000 43.83800 41.74000
C  46.35000 42.66200 41.19000
C  47.24600 41.42300 41.42200
C  48.44200 41.97000 42.20200
C  46.59000 40.07300 42.06800
C  45.77300 42.71700 39.69900
C  46.30400 43.64300 38.57700
H  46.64100 42.96500 37.23800
N  51.14600 42.82300 43.52900
C  50.81700 41.54800 43.16400
C  51.91100 40.62600 43.28000
C  52.98700 41.37900 43.78300
C  52.39900 42.74900 44.02400
C  51.88200 39.23200 42.85500
C  54.45800 40.89000 43.87300
O  54.73000 39.75600 43.52800
C  55.65400 41.72600 44.33200
N  51.49500 45.70300 44.24100
C  52.75200 45.21000 44.49200
C  53.79300 46.35900 44.77400
C  52.90400 47.65500 44.60600
C  51.49100 47.08700 44.23000
C  54.53600 46.19700 46.10500
C  53.38500 48.69200 43.55400
C  53.95200 50.06100 44.12900
N  48.81100 46.18400 43.24100
C  49.11800 47.46700 43.50500
C  48.00900 48.39100 43.11300
C  47.06800 47.51400 42.61400
C  47.59400 46.21100 42.61700
C  48.05500 49.83700 43.21600
C  45.76400 47.47200 42.01700
O  44.96800 48.39200 41.80400
C  45.58300 45.99600 41.48500
C  44.33600 45.32200 41.84900
O  43.44900 45.07000 40.98000
O  44.33800 45.19600 43.21300
C  42.99900 44.69500 43.71600
H  49.50800 40.20500 42.18000
H  54.11700 43.64000 44.75800
H  50.54300 48.95200 44.04300
H  45.56600 42.59300 41.94400
H  47.75700 41.32200 40.46500
H  46.47300 39.29400 41.31500
H  45.63700 40.33700 42.52700
H  47.25900 39.73100 42.85700
H  44.71600 42.90300 39.88900
H  45.90700 41.71100 39.30000
H  47.17600 44.17100 38.96100
H  45.56100 44.42600 38.42900
H  51.81200 39.04600 41.78300
H  50.95400 38.76200 43.18000
H  52.70500 38.59200 43.17500
H  55.76600 42.54100 43.61800
H  56.55700 41.13100 44.19900
H  55.41300 42.14100 45.31100
H  54.62700 46.30500 44.07400
H  52.75900 47.98100 45.63600
H  54.81000 45.18400 46.40000
H  53.73400 46.48000 46.78700
H  55.36400 46.90000 46.19800
H  52.63800 48.83700 42.77400
H  54.16600 48.30800 42.89700
H  54.93800 50.21000 43.68900
H  54.14400 50.03600 45.20100
H  53.30000 50.91600 43.95300
H  48.19900 50.09100 44.26600
H  47.09300 50.22500 42.88300
H  48.93800 50.21600 42.70000
H  45.58600 46.08400 40.39900
H  42.39800 45.38900 44.30300
H  43.28300 43.96800 44.47700
H  42.35200 44.28900 42.93900

