158

Mg 35.01900 3.44100 29.28700
C  33.05700 4.11200 31.99500
C  37.82700 3.48600 31.48200
C  36.94500 2.71200 26.74000
C  32.21900 3.75100 27.10000
N  35.38900 3.68700 31.43200
C  34.40500 3.94900 32.36500
C  34.91400 3.85800 33.78800
C  36.48300 3.90500 33.54400
C  36.62700 3.73000 32.11600
C  37.22700 5.26600 34.03000
C  34.50900 2.55500 34.52000
C  34.35600 2.71100 36.06600
H  35.06200 3.83100 36.85700
N  37.01100 3.03800 29.15400
C  37.97900 3.03500 30.16000
C  39.26300 2.51200 29.65000
C  38.99600 2.27300 28.28000
C  37.59500 2.67900 27.96200
C  40.40900 2.29500 30.57000
C  39.90600 1.61800 27.23600
O  39.64900 1.47100 26.04400
C  41.21600 1.12800 27.68800
N  34.63500 3.15700 27.20800
C  35.66800 2.98100 26.34900
C  35.11900 2.76000 24.89600
C  33.59400 2.99000 25.13200
C  33.42900 3.34700 26.56200
C  35.84000 3.53000 23.72800
C  32.57300 1.87400 24.62000
C  32.56300 0.57600 25.42900
N  32.98500 3.80100 29.44100
C  32.03100 3.98000 28.47400
C  30.76800 4.23000 29.16100
C  31.17600 4.34100 30.58200
C  32.49900 4.03100 30.69200
C  29.40100 4.34100 28.53500
C  30.61400 4.58400 31.89500
O  29.48800 4.89800 32.23300
C  31.86600 4.36200 32.93700
C  31.92300 5.52900 33.78600
O  32.32000 6.60200 33.46700
O  31.35500 5.22600 35.02000
C  31.09900 6.32400 36.00400
H  38.69600 3.42400 32.14000
H  37.65800 2.53800 25.93000
H  31.28900 3.86400 26.53900
H  34.57700 4.77300 34.27600
H  36.97600 3.13700 34.14100
H  37.88000 5.10200 34.88800
H  36.54100 6.08500 34.24600
H  37.66500 5.72600 33.14400
H  35.26000 1.78200 34.35200
H  33.56800 2.13600 34.16400
H  34.58500 1.76800 36.56200
H  33.33100 2.83500 36.41300
H  40.06900 1.60400 31.34100
H  40.57400 3.27800 31.01300
H  41.37500 2.03100 30.13900
H  42.05800 1.81600 27.76800
H  41.57200 0.34100 27.02400
H  41.08100 0.60700 28.63600
H  35.29800 1.71100 24.66000
H  33.28200 3.87900 24.58600
H  35.92000 2.78100 22.94000
H  36.77900 3.91600 24.12400
H  35.15000 4.34300 23.50100
H  32.90400 1.72800 23.59200
H  31.62700 2.40700 24.52800
H  32.66800 -0.11900 24.59500
H  31.57000 0.37800 25.83200
H  33.28500 0.43200 26.23300
H  29.32700 3.75600 27.61900
H  28.96200 5.31500 28.32100
H  28.69500 3.98500 29.28600
H  31.58100 3.47200 33.50000
H  30.70500 5.86200 36.90900
H  30.42300 7.08500 35.61400
H  31.93400 6.91800 36.37700
Mg 47.80500 25.74500 29.39500
C  48.66800 28.17000 31.75200
C  46.61400 23.82600 31.85800
C  47.12800 23.47700 27.03400
C  49.34900 27.75300 26.99400
N  47.54500 26.07700 31.53500
C  47.96300 27.07400 32.26900
C  47.59300 26.92100 33.72500
C  47.00300 25.51400 33.75200
C  47.11100 25.06500 32.26300
C  47.61900 24.47000 34.75000
C  46.55100 27.96400 34.15400
C  46.38400 28.14200 35.67500
H  47.34100 27.51200 36.65200
N  46.88400 23.91200 29.39800
C  46.49800 23.29500 30.56500
C  45.64700 22.10900 30.23600
C  45.73600 22.07000 28.76900
C  46.63000 23.16700 28.30100
C  44.97300 21.22600 31.29400
C  45.25900 21.01800 27.79900
O  45.34700 21.11400 26.57700
C  44.30200 19.95600 28.30000
N  48.42800 25.50800 27.40800
C  48.01000 24.52000 26.66500
C  48.58900 24.52100 25.22800
C  49.22000 25.88000 25.17400
C  48.92100 26.50300 26.57100
C  49.54100 23.32800 25.02900
C  48.53800 26.67400 24.04400
C  49.51700 27.36900 23.00300
N  48.73500 27.67300 29.33400
C  49.26500 28.31400 28.27600
C  49.94600 29.48300 28.73100
C  49.69500 29.51000 30.10800
C  48.94400 28.39900 30.43300
C  50.56800 30.56400 27.92300
C  49.87300 30.31100 31.32300
O  50.38700 31.41500 31.54900
C  49.34500 29.32900 32.49900
C  50.54900 28.90500 33.27400
O  51.08800 27.78000 33.24100
O  50.89400 29.83000 34.19100
C  52.04100 29.44600 35.04200
H  46.12000 23.22300 32.62300
H  47.03200 22.72900 26.24400
H  49.94400 28.19400 26.19100
H  48.48500 26.91700 34.35100
H  45.92600 25.53900 33.91500
H  48.49500 24.83600 35.28500
H  47.88500 23.53900 34.24800
H  46.83500 24.15800 35.44000
H  45.59800 27.68000 33.70900
H  46.82600 28.94300 33.76300
H  45.38700 27.96100 36.07600
H  46.49400 29.22600 35.69200
H  45.25300 20.17600 31.20900
H  43.89900 21.32800 31.13500
H  45.11300 21.47400 32.34600
H  43.46200 20.54000 28.67600
H  44.63500 19.26700 29.07700
H  43.85400 19.38800 27.48500
H  47.68800 24.40100 24.62800
H  50.30800 25.82500 25.19500
H  48.98800 22.38900 25.05700
H  50.15800 23.35300 25.92700
H  50.05700 23.46500 24.07900
H  47.84000 27.38200 24.49200
H  47.84200 26.11600 23.41800
H  49.18100 27.15600 21.98800
H  50.54500 27.05100 23.17600
H  49.51300 28.43200 23.24600
H  49.82100 30.71700 27.14400
H  51.50100 30.27800 27.43800
H  50.78800 31.38700 28.60300
H  48.59900 29.88800 33.06400
H  51.79300 28.50700 35.53600
H  52.07600 30.20800 35.82000
H  53.01000 29.41500 34.54400

