158

Mg 47.47500 17.04100 28.83200
C  45.61200 15.64900 31.68800
C  49.33400 18.70000 30.93600
C  49.10600 17.95200 26.07900
C  45.03600 15.47500 26.82100
N  47.38400 17.21900 31.12100
C  46.68400 16.55300 32.09600
C  47.14100 16.97200 33.52300
C  48.16300 18.13600 33.18100
C  48.26500 18.03000 31.65000
C  47.99400 19.57500 33.77100
C  47.87200 15.84600 34.39200
C  48.45300 16.21800 35.71500
H  48.04200 17.40500 36.50300
N  49.09100 18.10200 28.53400
C  49.71900 18.73400 29.55800
C  50.96200 19.26500 29.03500
C  50.96000 18.93200 27.62900
C  49.68800 18.37700 27.31300
C  52.01400 19.97900 29.93000
C  52.05500 19.06400 26.61000
O  51.88200 18.90300 25.35800
C  53.27500 19.56200 27.17400
N  47.02000 16.87900 26.76800
C  47.91200 17.37500 25.83200
C  47.37400 17.09600 24.34500
C  46.08300 16.29200 24.60000
C  45.98500 16.23100 26.13500
C  47.15400 18.38400 23.46100
C  46.13900 14.79600 24.09600
C  45.12700 14.42400 23.01100
N  45.73800 15.82500 29.16900
C  44.96900 15.20000 28.21400
C  43.91700 14.45000 28.82500
C  44.16200 14.61500 30.25000
C  45.30400 15.42600 30.33100
C  42.76100 13.71200 28.19400
C  43.59100 14.29900 31.47400
O  42.59500 13.69100 31.73200
C  44.47500 15.06300 32.50600
C  43.64100 16.05700 33.15300
O  42.83300 16.75500 32.64900
O  43.93500 15.99000 34.45900
C  43.34200 16.90800 35.47500
H  49.94000 19.24300 31.66500
H  49.65200 18.23600 25.17700
H  44.31200 15.06800 26.11200
H  46.29800 17.32000 34.12000
H  49.18200 17.86100 33.45300
H  47.90600 20.42800 33.09900
H  48.71500 19.74100 34.57200
H  46.98700 19.35200 34.12300
H  48.52500 15.24300 33.76100
H  47.06800 15.14200 34.60600
H  49.52100 16.28600 35.51000
H  48.16300 15.30900 36.24300
H  51.74600 20.08800 30.98100
H  52.31200 20.89800 29.42500
H  52.88200 19.33100 30.05700
H  53.16100 20.61800 27.41700
H  54.01200 19.52400 26.37200
H  53.52600 18.78700 27.89900
H  48.17600 16.56000 23.83700
H  45.18200 16.82900 24.30400
H  47.66400 18.22700 22.51000
H  47.71800 19.23900 23.83500
H  46.12900 18.75000 23.40700
H  46.07700 14.06400 24.90200
H  47.06500 14.55700 23.57300
H  45.66100 13.63100 22.48700
H  44.77400 15.27500 22.42800
H  44.20800 14.07400 23.48000
H  42.75000 13.82600 27.11000
H  41.81300 14.14800 28.51100
H  42.83700 12.66200 28.47900
H  44.74800 14.30500 33.24000
H  42.85800 16.22900 36.17800
H  42.62800 17.58600 35.00800
H  44.21900 17.36700 35.93200
Mg -10.61300 16.71000 41.09500
C  -7.14900 16.33500 41.35700
C  -10.12300 20.04800 40.49600
C  -13.77500 16.93100 40.11900
C  -10.86400 13.15200 40.89900
N  -8.81800 18.04700 40.91000
C  -7.49700 17.64100 41.01100
C  -6.58200 18.87600 40.83000
C  -7.57800 20.07900 40.92500
C  -8.94400 19.36000 40.76100
C  -7.51200 20.94400 42.17600
C  -5.75700 18.79300 39.51700
C  -4.28600 18.34500 39.57700
H  -3.84100 17.01400 38.78800
N  -11.83800 18.36200 40.55400
C  -11.46200 19.63700 40.35700
C  -12.65000 20.40400 40.07300
C  -13.80400 19.57200 40.17400
C  -13.24400 18.21900 40.31100
C  -12.66100 21.80100 39.89300
C  -15.31900 20.00700 40.05900
O  -15.65900 21.18100 39.85400
C  -16.38100 18.93800 40.34300
N  -12.05800 15.18800 40.39200
C  -13.31100 15.57200 40.13200
C  -14.26300 14.38600 39.92500
C  -13.40100 13.21400 40.35500
C  -11.99600 13.86400 40.52100
C  -15.65800 14.42800 40.69600
C  -13.47900 11.94600 39.44700
C  -13.56100 10.48100 40.07000
N  -9.33500 14.99700 41.29400
C  -9.55400 13.67000 41.17100
C  -8.29800 12.95000 41.46400
C  -7.37800 14.03000 41.54400
C  -8.01700 15.22100 41.33000
C  -8.14100 11.44900 41.54900
C  -5.96800 14.22600 41.74600
O  -5.01400 13.41200 41.92600
C  -5.77600 15.70500 41.63000
C  -5.03600 16.11400 42.88100
O  -3.81900 16.12900 42.89500
O  -5.92200 16.55700 43.83100
C  -5.29200 17.24400 44.92800
H  -10.00600 21.13400 40.51800
H  -14.84000 17.01700 39.89500
H  -10.86600 12.06000 40.89000
H  -5.91300 19.02800 41.67600
H  -7.43000 20.68200 40.02900
H  -6.69200 21.66000 42.21000
H  -7.46000 20.40700 43.12400
H  -8.45800 21.48600 42.16200
H  -5.72600 19.77700 39.04900
H  -6.22000 18.09900 38.81600
H  -3.99700 18.22000 40.62100
H  -3.62000 19.08200 39.12900
H  -13.21600 21.99000 38.97400
H  -11.65200 22.21200 39.89100
H  -13.10600 22.36300 40.71400
H  -17.35800 19.34300 40.60500
H  -16.05800 18.24300 41.11800
H  -16.45800 18.38000 39.40900
H  -14.41100 14.44300 38.84700
H  -13.71200 12.87700 41.34400
H  -15.70400 13.65600 41.46400
H  -16.46800 14.25900 39.98600
H  -15.84000 15.43300 41.07600
H  -12.48400 11.86900 39.00900
H  -14.13000 12.05300 38.57800
H  -13.53700 10.62700 41.15000
H  -12.72500 9.89500 39.69000
H  -14.53600 10.03300 39.87600
H  -7.15200 11.27600 41.12500
H  -8.94000 11.08600 40.90200
H  -8.24700 11.18000 42.60000
H  -5.11300 15.97500 40.80800
H  -4.94100 16.44900 45.58600
H  -5.96700 17.95900 45.39900
H  -4.43500 17.82100 44.58200

