158

Mg -2.00700 16.79800 26.91000
C  -2.55600 14.53200 29.61400
C  -2.60300 19.31600 29.00100
C  -1.79100 18.79600 24.26200
C  -2.24100 14.02000 24.73700
N  -2.55900 16.85600 29.09000
C  -2.53500 15.89500 30.01600
C  -2.59500 16.44200 31.43300
C  -2.58800 18.01700 31.20800
C  -2.61000 18.05200 29.64000
C  -3.61800 18.81600 32.06200
C  -1.53100 15.92300 32.35900
C  -0.92600 16.69400 33.51700
H  -0.66000 15.91900 34.92400
N  -2.21700 18.79800 26.69300
C  -2.39300 19.69900 27.72000
C  -2.36100 20.98800 27.12700
C  -2.09400 20.88100 25.74400
C  -1.99300 19.39300 25.49900
C  -2.77700 22.16900 27.99100
C  -1.90000 21.90100 24.64600
O  -1.75900 21.73100 23.40800
C  -1.70500 23.42500 25.03500
N  -1.82000 16.44500 24.78000
C  -1.81600 17.44600 23.90300
C  -1.91700 16.89500 22.49500
C  -1.73900 15.42600 22.64300
C  -1.99300 15.28900 24.11800
C  -3.29800 17.34900 21.92600
C  -0.33100 14.84900 22.26200
C  -0.31100 13.39300 21.73900
N  -2.24400 14.73900 27.04900
C  -2.32900 13.76000 26.07400
C  -2.59400 12.48100 26.68400
C  -2.64900 12.73400 28.03300
C  -2.42600 14.10700 28.21400
C  -2.76700 11.17300 25.95200
C  -2.85100 12.07900 29.29800
O  -3.21200 10.96600 29.54600
C  -2.82800 13.22000 30.44100
C  -1.80700 12.72100 31.31500
O  -0.58300 12.85600 31.18700
O  -2.40000 12.03300 32.33500
C  -1.42800 11.60000 33.31600
H  -2.76500 20.15600 29.68000
H  -1.90200 19.49400 23.43000
H  -2.50600 13.24300 24.01700
H  -3.50000 16.06800 31.91100
H  -1.65100 18.48700 31.50800
H  -3.14400 19.65500 32.57200
H  -4.03300 18.26300 32.90500
H  -4.47400 19.11300 31.45600
H  -0.71000 15.70800 31.67500
H  -1.79700 14.96900 32.81400
H  -1.50400 17.60800 33.65200
H  0.08200 16.93400 33.18000
H  -3.16800 22.91300 27.29600
H  -1.88100 22.51200 28.50800
H  -3.50700 21.94200 28.76800
H  -2.66200 23.91300 25.21600
H  -1.34400 23.96500 24.16000
H  -1.01500 23.44600 25.87900
H  -1.08900 17.20000 21.85500
H  -2.47800 14.97300 21.98200
H  -4.09800 17.12300 22.63100
H  -3.40700 16.80800 20.98600
H  -3.19700 18.41500 21.72500
H  0.28300 14.92200 23.16100
H  0.06300 15.53200 21.51000
H  0.19900 13.30500 20.77900
H  -1.31300 13.02100 21.52600
H  0.25100 12.73100 22.39800
H  -2.19300 11.07900 25.03000
H  -3.80200 11.12200 25.61500
H  -2.64500 10.30200 26.59700
H  -3.73800 13.52400 30.95800
H  -0.74300 10.90200 32.83400
H  -1.98600 11.09400 34.10300
H  -0.88400 12.39900 33.82000
Mg 49.15500 35.46700 27.69900
C  46.73000 34.00100 29.88900
C  49.42400 38.01000 29.86300
C  50.89800 37.06600 25.38800
C  48.52400 32.87400 25.41300
N  48.20000 35.86900 29.72700
C  47.26100 35.22400 30.42000
C  46.99900 35.90600 31.74800
C  47.57000 37.27800 31.55500
C  48.41300 37.12400 30.24000
C  46.56900 38.51300 31.31100
C  47.55700 35.15200 33.04800
C  49.08100 34.64500 32.92100
H  50.12000 35.44100 33.84400
N  50.20400 37.21900 27.73000
C  50.22100 38.08900 28.71400
C  51.14300 39.18300 28.43800
C  51.47100 39.04700 27.05500
C  50.82800 37.71500 26.66400
C  51.47900 40.20300 29.52300
C  52.26700 39.90400 26.18200
O  52.45100 39.62000 25.01900
C  52.84900 41.12500 26.76400
N  49.69000 35.03100 25.61500
C  50.37400 35.87300 24.84000
C  50.52900 35.34100 23.41200
C  49.96200 33.87700 23.55400
C  49.40100 33.88000 24.94500
C  49.82200 36.24500 22.40200
C  51.03100 32.71400 23.51700
C  51.39900 32.59500 22.03600
N  48.00700 33.77300 27.62100
C  47.88500 32.80000 26.68500
C  47.02900 31.79900 27.15000
C  46.51000 32.24100 28.36800
C  47.12500 33.47300 28.63200
C  46.73000 30.51200 26.44700
C  45.57400 31.85000 29.45200
O  44.79800 30.90800 29.65300
C  45.76900 33.02800 30.49400
C  46.23400 32.38800 31.68700
O  47.26800 31.76300 31.74000
O  45.33000 32.43100 32.76400
C  45.85500 31.88100 34.03500
H  49.35700 38.85900 30.54700
H  51.43100 37.46800 24.52400
H  48.39200 31.98400 24.79600
H  45.91600 35.89700 31.87000
H  48.20700 37.49600 32.41200
H  46.74900 39.21500 32.12400
H  45.56200 38.16000 31.53600
H  46.61300 39.05300 30.36500
H  46.89300 34.34800 33.36500
H  47.43800 35.87000 33.86000
H  49.56500 34.61900 31.94500
H  49.09100 33.66500 33.39800
H  52.55200 40.39000 29.54900
H  51.12100 40.03300 30.53900
H  51.11700 41.20000 29.27200
H  52.05200 41.63000 27.31100
H  53.24600 41.76500 25.97600
H  53.67600 40.85400 27.42000
H  51.58000 35.44100 23.14300
H  49.24100 33.63100 22.77400
H  49.22100 37.00600 22.89900
H  49.18600 35.74100 21.67300
H  50.51400 36.78700 21.75800
H  50.65200 31.83500 24.03800
H  51.90600 33.11400 24.03000
H  52.29400 33.17500 21.80900
H  50.64500 33.03000 21.38000
H  51.46400 31.52700 21.82800
H  46.17800 30.74400 25.53600
H  46.07000 29.88800 27.04900
H  47.56800 29.88800 26.13600
H  44.77800 33.44400 30.67500
H  46.90600 32.12600 34.18800
H  45.62900 30.82600 34.18800
H  45.28300 32.37400 34.82000

