158

Mg 44.96600 3.09200 47.20900
C  42.99900 5.97000 46.77200
C  42.07800 1.14500 46.74300
C  46.99400 0.36900 46.61200
C  47.85000 5.18400 46.72500
N  42.80700 3.53800 46.80000
C  42.27400 4.76900 46.78900
C  40.74500 4.64000 46.39800
C  40.38500 3.09000 46.62400
C  41.83300 2.52200 46.79800
C  39.54000 2.97000 47.94500
C  40.40500 5.17400 44.94400
C  39.21200 6.20800 44.81400
H  38.29500 6.04200 43.68700
N  44.57500 1.08400 46.96500
C  43.34500 0.47200 46.89100
C  43.55300 -0.99600 46.83800
C  44.94800 -1.25200 46.81700
C  45.59700 0.09900 46.87400
C  42.34700 -1.93100 46.76500
C  45.59800 -2.63500 46.65900
O  44.92100 -3.65700 46.86100
C  46.90200 -2.81700 46.24100
N  47.10100 2.81900 46.72400
C  47.67000 1.59400 46.62100
C  49.22000 1.73600 46.38600
C  49.51200 3.25000 46.40200
C  48.06600 3.78800 46.63500
C  50.00000 0.90800 47.38900
C  50.13600 3.80500 45.08000
C  51.04100 4.94800 45.19200
N  45.45900 5.14500 47.04200
C  46.63600 5.86900 46.93500
C  46.35300 7.33700 46.82900
C  44.92000 7.40800 46.77700
C  44.42600 6.05400 46.88000
C  47.29800 8.41400 46.52400
C  43.70900 8.28100 46.60600
O  43.61500 9.49200 46.54500
C  42.46800 7.40500 46.52400
C  41.64300 7.90600 47.68700
O  41.75900 7.49600 48.79500
O  40.84500 8.99600 47.22500
C  40.15600 9.74400 48.33100
H  41.19000 0.52200 46.61700
H  47.74800 -0.39100 46.40000
H  48.77100 5.71100 46.46700
H  40.08700 5.25800 47.00900
H  39.93900 2.66500 45.72600
H  40.15700 2.53200 48.73100
H  38.69200 2.36900 47.61800
H  39.24300 3.95400 48.30900
H  40.10500 4.32600 44.32900
H  41.31900 5.66700 44.61100
H  39.54300 7.24200 44.71800
H  38.63500 6.19200 45.73900
H  42.63100 -2.70600 46.05300
H  41.39300 -1.54700 46.40300
H  42.24400 -2.41700 47.73500
H  47.11600 -2.24500 45.33900
H  47.12500 -3.84400 45.95200
H  47.60500 -2.55700 47.03200
H  49.25400 1.35400 45.36600
H  50.14600 3.47100 47.26100
H  49.35500 0.25500 47.97700
H  50.61800 1.49500 48.06800
H  50.59400 0.15400 46.87200
H  49.36600 4.00200 44.33400
H  50.61200 2.92300 44.65100
H  50.92200 5.37900 46.18600
H  50.62100 5.79600 44.65000
H  52.04500 4.66700 44.87300
H  48.10900 8.48800 47.24900
H  46.73700 9.34800 46.54900
H  47.69100 8.32500 45.51200
H  41.97200 7.45900 45.55400
H  39.24700 9.22500 48.63500
H  39.86500 10.74000 47.99700
H  40.74400 9.84600 49.24300
Mg -4.17000 24.71700 26.84600
C  -2.83000 26.66300 29.28100
C  -5.72400 22.75300 29.23600
C  -5.43600 22.76100 24.37800
C  -2.40200 26.61200 24.37500
N  -4.27600 24.72200 28.99500
C  -3.74300 25.70300 29.74900
C  -4.39000 25.68900 31.11300
C  -5.05300 24.22500 31.15700
C  -5.00800 23.82000 29.72400
C  -4.30100 23.21000 32.13300
C  -5.31900 26.85500 31.50800
C  -5.15300 27.40000 32.85600
H  -4.96900 26.30000 33.93300
N  -5.42600 23.07300 26.81800
C  -6.00300 22.42600 27.92500
C  -6.72100 21.23200 27.45500
C  -6.67900 21.28100 26.02000
C  -5.83600 22.41000 25.68700
C  -7.26100 20.18200 28.44100
C  -7.31700 20.33000 24.98200
O  -7.18000 20.41600 23.75000
C  -8.20200 19.12000 25.41200
N  -4.07100 24.70600 24.60900
C  -4.65300 23.81500 23.78800
C  -4.49000 24.17100 22.31600
C  -3.63200 25.53900 22.44500
C  -3.33400 25.67100 23.94100
C  -3.86100 23.02000 21.53200
C  -4.42100 26.77700 21.87900
C  -3.54400 27.53600 20.77800
N  -2.90400 26.23500 26.74900
C  -2.27300 27.00700 25.72400
C  -1.43600 28.08200 26.26600
C  -1.71500 28.02600 27.61800
C  -2.50500 26.86100 27.87900
C  -0.56900 29.00300 25.50500
C  -1.48800 28.72500 28.87900
O  -0.85700 29.74900 29.14400
C  -2.20400 27.82300 29.99100
C  -1.33100 27.35800 31.14000
O  -0.27500 26.85700 30.99500
O  -1.78500 27.65900 32.41200
C  -0.99100 27.27600 33.53200
H  -6.17500 22.11500 29.99800
H  -5.61200 22.00700 23.60900
H  -1.97000 27.31600 23.66200
H  -3.63300 25.64000 31.89600
H  -6.10000 24.21400 31.46100
H  -3.61400 23.68200 32.83500
H  -3.83300 22.37400 31.61300
H  -5.13900 22.79500 32.69300
H  -6.37000 26.64400 31.31000
H  -5.16900 27.63900 30.76600
H  -6.04700 27.97800 33.09200
H  -4.25600 28.01600 32.78600
H  -7.16800 19.15800 28.07900
H  -8.32700 20.28100 28.64700
H  -6.65000 20.08400 29.33800
H  -9.11100 19.60100 25.77200
H  -7.77400 18.49600 26.19700
H  -8.46300 18.45700 24.58700
H  -5.49100 24.39000 21.94500
H  -2.61900 25.47200 22.04800
H  -3.86400 22.07100 22.06800
H  -2.86100 23.23000 21.15200
H  -4.52000 22.98200 20.66500
H  -4.54700 27.52000 22.66700
H  -5.38800 26.56900 21.42100
H  -2.73600 26.92000 20.38500
H  -3.26400 28.53000 21.12700
H  -4.08000 27.78100 19.86100
H  0.15500 29.36300 26.23700
H  -1.23500 29.77500 25.11800
H  -0.12500 28.37900 24.73000
H  -2.95900 28.39500 30.52900
H  -1.39500 27.97700 34.26300
H  0.09000 27.26600 33.39500
H  -1.33600 26.29000 33.84000

