158

Mg 26.23300 50.83900 26.52100
C  23.81100 51.97400 28.92000
C  28.34500 50.19600 29.13300
C  28.57900 50.01400 24.30900
C  24.15300 52.01700 24.00300
N  26.02300 51.01500 28.72500
C  24.92700 51.41600 29.48300
C  25.29000 51.40400 30.99000
C  26.74000 50.83200 31.00400
C  27.08600 50.71200 29.52700
C  27.78500 51.52700 31.83900
C  24.29300 50.68800 31.88400
C  24.21800 51.21700 33.24800
H  23.90100 50.25700 34.39300
N  28.17900 50.15000 26.70300
C  28.94700 50.00800 27.84200
C  30.23200 49.52200 27.51900
C  30.32900 49.47100 26.07500
C  29.03000 49.91100 25.62300
C  31.21300 48.89700 28.53100
C  31.49800 48.90200 25.07600
O  31.43100 48.80100 23.86100
C  32.78100 48.68400 25.66000
N  26.29200 50.92400 24.40000
C  27.33800 50.38700 23.71100
C  27.10500 50.71300 22.22600
C  25.68600 51.38600 22.07700
C  25.32500 51.48100 23.56500
C  28.27600 51.45500 21.59000
C  24.58600 50.72300 21.20000
C  24.10100 51.49900 19.99400
N  24.44200 51.83200 26.38000
C  23.71300 52.19200 25.29700
C  22.51300 52.88300 25.78200
C  22.53700 52.87400 27.18500
C  23.71200 52.16200 27.51100
C  21.44400 53.46400 24.93900
C  21.79200 53.06300 28.45500
O  20.68600 53.62800 28.64600
C  22.66700 52.68400 29.58500
C  22.98000 53.93600 30.39700
O  23.67200 54.86500 30.02400
O  22.38500 53.84300 31.67700
C  22.60500 54.86000 32.65000
H  28.98500 49.84200 29.94400
H  29.25200 49.61700 23.54700
H  23.47900 52.44200 23.25600
H  25.36200 52.43900 31.32500
H  26.71300 49.82700 31.42500
H  27.99700 52.53000 31.46900
H  28.66500 50.90300 31.99400
H  27.24000 51.61900 32.77800
H  24.50600 49.62100 31.94700
H  23.26200 50.75300 31.53500
H  23.37200 51.89800 33.33800
H  25.02500 51.88300 33.55600
H  30.93100 49.22300 29.53200
H  32.28100 49.11100 28.48300
H  31.21500 47.80900 28.59800
H  32.83600 49.55800 26.30800
H  33.59600 48.57600 24.94400
H  32.77700 47.74700 26.21700
H  27.03900 49.70600 21.81400
H  25.83400 52.40000 21.70500
H  28.88700 50.87600 20.89800
H  28.85500 51.85700 22.42200
H  27.91600 52.32800 21.04500
H  23.75800 50.44500 21.85300
H  24.95700 49.80100 20.75200
H  24.40200 51.09000 19.03000
H  24.45100 52.52900 20.06000
H  23.01400 51.50900 20.07200
H  21.87200 53.97700 24.07800
H  20.90200 54.11200 25.62700
H  20.83700 52.69500 24.46000
H  22.01900 51.97500 30.10000
H  22.77800 55.80500 32.13500
H  23.36400 54.56000 33.37300
H  21.65800 55.06400 33.15100
Mg -11.05800 17.17500 43.02100
C  -7.67000 17.88900 43.35900
C  -11.58000 20.45000 42.44600
C  -14.07300 16.26000 41.85100
C  -10.15800 13.67700 42.87300
N  -9.73200 18.89300 42.87900
C  -8.39900 19.02400 43.18900
C  -7.89900 20.43400 42.98800
C  -9.27000 21.24000 43.21800
C  -10.28600 20.15300 42.89800
C  -9.46200 21.76100 44.64600
C  -7.18100 20.69100 41.65700
C  -5.63200 20.98300 41.75100
H  -5.15900 21.57100 40.44900
N  -12.69500 18.21800 42.35500
C  -12.68100 19.55100 42.17200
C  -13.97500 19.92800 41.69700
C  -14.77300 18.72800 41.63700
C  -13.82900 17.67600 41.92000
C  -14.45500 21.37700 41.49600
C  -16.30900 18.60600 41.14400
O  -16.92100 19.61800 40.76400
C  -16.85700 17.27500 40.81600
N  -11.95800 15.22400 42.34400
C  -13.29000 15.17600 42.14300
C  -13.74900 13.68200 42.09200
C  -12.42000 12.96000 41.95500
C  -11.40700 14.03500 42.44300
C  -14.60700 13.28300 43.37700
C  -12.03600 12.50500 40.45400
C  -12.30500 11.05800 39.94200
N  -9.36500 15.99400 43.28100
C  -9.14700 14.60700 43.28200
C  -7.73000 14.30200 43.65900
C  -7.13100 15.56300 43.63600
C  -8.14600 16.59300 43.47100
C  -7.04200 12.99100 43.83000
C  -5.83400 16.18400 43.72900
O  -4.66500 15.80500 43.82800
C  -6.21000 17.77000 43.76900
C  -5.90800 18.40900 45.06900
O  -6.50900 18.24500 46.15400
O  -4.92800 19.27600 44.87000
C  -4.56200 19.96700 46.05100
H  -11.71100 21.51800 42.26100
H  -15.10200 15.89600 41.80700
H  -9.94100 12.60800 42.84000
H  -7.23700 20.67200 43.82000
H  -9.28700 22.08400 42.52900
H  -9.94200 22.74000 44.63400
H  -8.54000 21.99200 45.18000
H  -10.02200 21.16100 45.36200
H  -7.64700 21.55300 41.18000
H  -7.31900 19.79600 41.05000
H  -5.05900 20.06000 41.84200
H  -5.27900 21.61900 42.56200
H  -13.62500 22.02900 41.76600
H  -15.36500 21.62800 42.04100
H  -14.67900 21.46600 40.43300
H  -16.31500 16.69300 40.07000
H  -17.88300 17.37900 40.46100
H  -16.95900 16.61300 41.67600
H  -14.29900 13.47200 41.17500
H  -12.27100 12.10900 42.62000
H  -13.99100 12.62500 43.99000
H  -15.47600 12.66800 43.14300
H  -14.84100 14.22800 43.86800
H  -11.03500 12.84000 40.18500
H  -12.73700 13.03200 39.80700
H  -11.44000 10.67400 39.40300
H  -13.16900 11.06400 39.27700
H  -12.50300 10.43400 40.81400
H  -7.61000 12.14600 43.43900
H  -6.96000 12.84200 44.90600
H  -6.06100 12.89000 43.36500
H  -5.62900 18.21500 42.96100
H  -3.51500 20.24200 45.92500
H  -4.60600 19.43900 47.00400
H  -5.27100 20.79200 46.12500

