158

Mg 43.19900 41.55100 26.74500
C  42.36300 43.66800 29.46400
C  44.40000 39.29900 28.84700
C  44.21700 39.77800 24.05700
C  42.76800 44.30400 24.64500
N  43.32400 41.58800 28.90500
C  42.86900 42.43400 29.81000
C  42.98500 41.87000 31.19500
C  43.71100 40.49000 31.04100
C  43.81500 40.40200 29.47700
C  45.13900 40.28400 31.68200
C  41.52600 41.84500 31.95200
C  41.43400 42.64000 33.24000
H  40.90200 42.03900 34.61400
N  44.10000 39.76300 26.46400
C  44.40700 38.91300 27.49900
C  44.87400 37.63600 26.96000
C  44.79700 37.75600 25.58800
C  44.37300 39.11400 25.27900
C  45.45300 36.53700 27.83100
C  45.18300 36.74600 24.53900
O  45.32800 37.02500 23.34200
C  45.66200 35.28300 24.87700
N  43.80600 42.06800 24.60900
C  43.94900 41.09400 23.72000
C  43.89100 41.66300 22.23400
C  43.28200 43.06300 22.47600
C  43.30600 43.17300 23.99300
C  45.28800 41.83700 21.36200
C  41.92200 43.40200 21.81400
C  41.67300 44.89400 21.55800
N  42.55500 43.53100 26.90000
C  42.38200 44.52700 25.95200
C  41.71800 45.74400 26.53800
C  41.71500 45.41400 27.93100
C  42.28900 44.10300 28.10300
C  41.45400 47.07000 25.89200
C  41.51400 45.88200 29.26900
O  41.14800 46.98900 29.60100
C  41.91000 44.81500 30.26700
C  43.00000 45.42900 31.11100
O  44.16300 45.57600 30.74300
O  42.43400 45.77700 32.31300
C  43.43300 46.07200 33.32300
H  44.70600 38.58300 29.61300
H  44.24000 39.14300 23.17000
H  42.52900 45.15400 24.00300
H  43.67300 42.47000 31.79100
H  43.08500 39.68400 31.42200
H  45.89300 40.13300 30.90900
H  44.94800 39.33700 32.18600
H  45.46400 41.02000 32.41700
H  41.25400 40.79400 32.05200
H  40.78100 42.19200 31.23600
H  40.85800 43.52700 32.97600
H  42.43100 42.99400 33.50100
H  45.35400 36.66900 28.90800
H  46.52700 36.41500 27.68600
H  44.93300 35.61500 27.57100
H  46.13800 35.32700 25.85600
H  46.37400 34.93200 24.12900
H  44.82000 34.59400 24.93100
H  43.18900 41.05500 21.66300
H  43.94300 43.84500 22.10200
H  46.05900 41.42200 22.01200
H  45.52200 42.90100 21.32800
H  45.47300 41.30400 20.42900
H  41.18100 43.04500 22.53000
H  41.74400 42.81000 20.91600
H  41.31300 44.98500 20.53300
H  42.55800 45.49200 21.77600
H  40.84600 45.25400 22.17000
H  42.07100 47.13800 24.99700
H  41.59600 47.87900 26.60900
H  40.42500 47.01700 25.53600
H  41.02800 44.52800 30.83900
H  44.12900 45.24800 33.16600
H  43.00000 46.10900 34.32300
H  43.84800 47.07900 33.38400
Mg 1.07700 42.02300 24.99000
C  2.13500 42.13000 28.42400
C  -2.01800 41.12400 26.24700
C  0.08900 41.57700 21.87100
C  4.39700 42.74600 24.02000
N  0.23100 41.53000 27.11400
C  0.80400 41.84600 28.29100
C  -0.17700 41.66500 29.44700
C  -1.55500 41.27600 28.76800
C  -1.13700 41.32300 27.29200
C  -1.89400 39.82700 29.10100
C  -0.24300 42.98300 30.31800
C  -0.31500 42.88100 31.85600
H  -0.47600 41.47100 32.45900
N  -0.80700 41.49700 24.16700
C  -1.88100 41.07300 24.85600
C  -2.95200 40.85000 23.85100
C  -2.41600 40.96400 22.55400
C  -0.99600 41.35700 22.79300
C  -4.36100 40.44600 24.17700
C  -2.98500 40.74800 21.16900
O  -2.33600 41.04200 20.18000
C  -4.38000 40.23600 20.97300
N  2.05000 42.31400 23.26500
C  1.36000 42.05300 22.10300
C  2.28000 42.15800 20.79500
C  3.64700 42.60700 21.51400
C  3.35700 42.53300 23.02500
C  2.26100 40.87400 19.91300
C  4.10700 44.09000 21.11300
C  2.95900 45.12700 21.09800
N  2.92600 42.39400 25.95300
C  4.14200 42.73300 25.45000
C  5.12800 42.74500 26.54100
C  4.28600 42.64900 27.70600
C  3.04500 42.32700 27.30400
C  6.56300 43.04900 26.43100
C  4.30600 42.69100 29.21300
O  5.16200 42.97500 30.07400
C  2.98100 42.36600 29.71500
C  3.34000 41.08200 30.47900
O  3.76300 40.08200 29.95200
O  3.01000 41.20200 31.75500
C  3.41600 40.29700 32.80300
H  -3.04600 41.01900 26.60100
H  -0.16200 41.51300 20.81000
H  5.39200 43.09600 23.73900
H  0.18300 40.90200 30.13600
H  -2.36300 41.98400 28.95500
H  -1.47300 39.48200 30.04600
H  -1.53400 39.22700 28.26600
H  -2.98100 39.87500 29.16800
H  -1.10200 43.53500 29.93400
H  0.68100 43.54700 30.19100
H  -1.16100 43.44800 32.24500
H  0.52100 43.35300 32.37300
H  -5.03000 41.02800 23.54400
H  -4.62100 40.66100 25.21300
H  -4.53500 39.37500 24.06700
H  -4.44100 39.28600 21.50400
H  -4.46900 40.12500 19.89300
H  -5.12000 40.95700 21.32100
H  1.78000 42.98500 20.28900
H  4.38100 41.86400 21.20300
H  1.53300 40.15000 20.27700
H  3.23800 40.38900 19.90100
H  2.12100 41.15200 18.86800
H  4.35600 43.91300 20.06600
H  4.91800 44.44800 21.74700
H  2.07100 44.97100 21.71100
H  2.63000 45.25300 20.06600
H  3.35200 46.09200 21.41700
H  6.62500 43.88700 25.73700
H  7.06100 42.18500 25.99100
H  7.08000 43.27800 27.36300
H  2.63100 43.04000 30.49700
H  4.40000 40.57500 33.18100
H  3.37500 39.21700 32.66400
H  2.75400 40.46500 33.65300

