158

Mg 1.76700 -0.89000 43.85000
C  5.08700 -0.47300 43.22700
C  1.14100 2.07400 42.22900
C  -1.48100 -1.64500 43.79300
C  2.43900 -4.07700 45.14200
N  2.98200 0.55400 42.82700
C  4.35300 0.61300 42.80300
C  4.83200 1.90600 42.13100
C  3.57600 2.72900 42.03700
C  2.46400 1.72400 42.39400
C  3.58800 3.91300 43.04300
C  5.43600 1.61400 40.72100
C  6.50900 2.62800 40.19600
H  6.29500 3.17000 38.87300
N  0.02600 0.17300 43.10900
C  0.02300 1.38000 42.51800
C  -1.33900 1.72300 42.12600
C  -2.15300 0.67600 42.55600
C  -1.21500 -0.36000 43.20300
C  -1.72900 2.90600 41.26200
C  -3.66100 0.60200 42.28800
O  -4.29100 1.48800 41.75800
C  -4.45300 -0.53200 42.89600
N  0.64600 -2.57300 44.35200
C  -0.67500 -2.63700 44.34500
C  -1.19900 -3.90600 44.94700
C  0.08000 -4.71000 45.42700
C  1.14800 -3.71600 44.93400
C  -2.28400 -3.75000 46.04000
C  0.29900 -6.16100 44.99600
C  -0.94400 -7.02100 44.80200
N  3.47200 -2.03100 44.27900
C  3.63500 -3.26700 44.73500
C  5.01500 -3.58600 44.89000
C  5.68200 -2.49200 44.26800
C  4.64400 -1.59700 43.93900
C  5.67300 -4.80500 45.46300
C  6.94500 -2.01700 43.82700
O  8.04400 -2.47400 43.95500
C  6.60500 -0.61200 43.20900
C  7.29300 0.36600 44.00100
O  7.00700 0.64800 45.17900
O  8.18900 1.06700 43.25200
C  8.71300 2.37300 43.76700
H  1.02600 3.05900 41.77300
H  -2.51700 -1.95700 43.93900
H  2.62100 -5.04700 45.60800
H  5.56800 2.35700 42.79700
H  3.44800 3.09300 41.01700
H  2.84500 3.70500 43.81400
H  3.23600 4.78300 42.48800
H  4.55900 4.12000 43.49100
H  4.63400 1.66700 39.98400
H  5.80900 0.59100 40.76600
H  7.40100 2.00100 40.20000
H  6.60500 3.31500 41.03600
H  -2.44400 3.59100 41.71700
H  -2.17100 2.52600 40.34100
H  -0.80200 3.41600 41.00200
H  -5.52500 -0.36200 42.79000
H  -4.20700 -0.53800 43.95800
H  -4.21800 -1.46200 42.37800
H  -1.59100 -4.31800 44.01700
H  0.09700 -4.80600 46.51300
H  -2.05500 -4.17400 47.01700
H  -3.21500 -4.23600 45.74800
H  -2.50600 -2.68900 46.15200
H  0.91000 -6.55500 45.80900
H  0.88900 -6.22100 44.08100
H  -0.81000 -8.04100 45.16300
H  -1.34000 -7.02200 43.78700
H  -1.66700 -6.49400 45.42500
H  5.54500 -5.52400 44.65400
H  5.21000 -5.09900 46.40500
H  6.73600 -4.65000 45.64600
H  7.04900 -0.59000 42.21300
H  7.87600 2.98400 44.10300
H  9.12500 2.89400 42.90300
H  9.48800 2.16800 44.50600
Mg 52.94400 23.53300 45.47400
C  50.47800 25.67400 44.10500
C  51.16900 20.89100 44.26100
C  55.81000 21.87100 45.45000
C  54.63000 26.47300 46.42500
N  51.04300 23.35000 44.41900
C  50.26100 24.31700 43.79600
C  48.98000 23.74600 43.15800
C  49.14700 22.22700 43.46100
C  50.57100 22.10400 44.06900
C  48.14400 21.68500 44.48000
C  48.93200 24.08300 41.67400
C  47.49500 24.15600 41.05200
H  47.22300 23.24400 39.81100
N  53.41300 21.53100 45.13100
C  52.56800 20.60500 44.71500
C  53.25000 19.36700 44.70000
C  54.59100 19.57800 45.04500
C  54.67900 21.05100 45.20200
C  52.55400 18.03100 44.37400
C  55.64600 18.55200 45.09400
O  55.41100 17.36100 44.93900
C  57.06600 18.95400 45.44700
N  55.04100 24.25200 45.76100
C  56.02200 23.31400 45.79700
C  57.34500 23.90900 46.21400
C  56.90100 25.40600 46.62000
C  55.47700 25.38600 46.16600
C  58.19600 23.02100 47.18300
C  57.82900 26.54600 45.93800
C  58.40600 27.47800 47.01900
N  52.54800 25.61700 45.50500
C  53.32300 26.67400 45.95500
C  52.52400 27.83400 45.96100
C  51.43400 27.52800 45.11600
C  51.50700 26.13600 44.90300
C  52.80800 29.28800 46.38900
C  50.34900 28.08800 44.40500
O  49.88200 29.22400 44.41200
C  49.72100 26.92300 43.59500
C  49.92400 27.27500 42.21500
O  50.99700 27.44000 41.64200
O  48.64900 27.40600 41.61500
C  48.66200 27.89300 40.19500
H  50.51800 20.09100 43.90100
H  56.77400 21.36300 45.39000
H  55.06400 27.41400 46.77000
H  48.06900 24.14400 43.60500
H  49.06300 21.75900 42.47900
H  48.17300 20.61100 44.66300
H  47.21100 21.91800 43.96700
H  48.12800 22.29000 45.38700
H  49.53600 23.41600 41.05800
H  49.30500 25.09900 41.54700
H  47.26800 25.19200 40.80200
H  46.77600 23.73900 41.75700
H  53.12700 17.30400 44.95000
H  52.64600 17.88200 43.29800
H  51.54400 18.11700 44.77600
H  57.54400 19.43200 44.59200
H  57.63500 18.03500 45.59100
H  57.19500 19.46100 46.40300
H  57.99500 24.03900 45.34900
H  56.92000 25.38200 47.71000
H  57.54500 22.18200 47.42900
H  58.45300 23.63400 48.04700
H  59.04900 22.65000 46.61500
H  57.25300 27.09100 45.19000
H  58.75100 26.12400 45.53800
H  59.48900 27.59900 47.00000
H  58.20000 27.21900 48.05700
H  57.97500 28.46300 46.83800
H  52.01500 30.02400 46.25700
H  53.60600 29.68600 45.76300
H  53.15700 29.28100 47.42200
H  48.67200 26.81900 43.87400
H  47.66100 27.75400 39.78600
H  49.47700 27.36500 39.70200
H  48.83900 28.96700 40.13100

