158

Mg 6.16300 55.68500 40.37000
C  3.36600 53.50400 40.44500
C  8.03300 53.13800 39.17200
C  8.59900 57.95300 39.71800
C  3.83300 58.28300 40.91600
N  5.66200 53.62300 39.71300
C  4.55000 52.94000 39.84800
C  4.67400 51.58400 39.15400
C  6.19700 51.36500 39.15700
C  6.69100 52.79100 39.37900
C  6.72800 50.31900 40.21300
C  4.11400 51.42500 37.70800
C  3.46800 50.01300 37.47300
H  4.12700 49.33600 36.33500
N  8.13200 55.61400 39.75800
C  8.71900 54.46700 39.26600
C  10.02500 54.74700 38.95200
C  10.20900 56.12100 38.99100
C  8.96600 56.63300 39.49400
C  11.08000 53.67800 38.48600
C  11.50900 56.78800 38.57500
O  12.54000 56.18700 38.22700
C  11.56800 58.28300 38.47500
N  6.11200 57.77400 40.18100
C  7.29400 58.40800 40.03700
C  7.11300 59.93500 40.20100
C  5.63500 60.02400 40.71100
C  5.16300 58.62700 40.58700
C  8.26300 60.61300 41.05400
C  4.80000 61.23300 40.18200
C  4.02700 62.09000 41.20200
N  4.04200 55.87600 40.80400
C  3.26600 57.00500 41.04900
C  2.03100 56.62400 41.53600
C  1.94900 55.17400 41.31700
C  3.21100 54.80900 40.79700
C  0.80500 57.53800 41.94400
C  1.16200 53.95600 41.47000
O  0.03200 53.79200 41.82500
C  2.08300 52.80400 40.93700
C  1.27600 52.09300 39.91000
O  1.05300 52.54800 38.84000
O  0.77200 50.92800 40.40800
C  -0.21200 50.22300 39.53700
H  8.73800 52.38600 38.81100
H  9.42200 58.66800 39.65900
H  3.16000 59.08200 41.23200
H  4.19300 50.81500 39.75900
H  6.57900 51.03900 38.19000
H  7.42400 50.76900 40.92000
H  7.28900 49.60400 39.61000
H  5.89500 49.93800 40.80300
H  4.84700 51.65400 36.93500
H  3.36600 52.17800 37.45700
H  2.39800 50.16900 37.33100
H  3.78000 49.36900 38.29500
H  10.66500 52.70000 38.24200
H  11.85300 53.52000 39.23800
H  11.60400 53.99200 37.58300
H  10.75000 58.66300 37.86300
H  12.53400 58.48500 38.01300
H  11.62500 58.55000 39.53000
H  7.07000 60.40800 39.22000
H  5.55000 60.16600 41.78900
H  7.81900 61.41200 41.64800
H  9.00800 60.94500 40.33200
H  8.77200 59.89800 41.70100
H  3.99900 60.92600 39.51000
H  5.46600 61.89100 39.62400
H  3.00000 61.74000 41.30300
H  3.86300 63.12100 40.88600
H  4.46300 62.03500 42.19900
H  -0.02100 57.09400 42.49900
H  0.50200 57.78600 40.92600
H  1.17700 58.46500 42.38000
H  2.21100 52.02700 41.69000
H  -0.61300 50.80900 38.71000
H  -1.06000 50.04600 40.19800
H  0.29000 49.27500 39.34200
Mg -6.03800 25.69800 25.95400
C  -4.67600 26.84700 28.90600
C  -7.65100 23.14900 27.86700
C  -7.07300 24.20100 23.11900
C  -3.57000 27.49300 24.16800
N  -5.92700 24.96600 28.05200
C  -5.53400 25.78000 29.08900
C  -6.10000 25.24100 30.39600
C  -6.82800 23.89500 30.06700
C  -6.78000 23.98400 28.56300
C  -6.07100 22.60200 30.55000
C  -6.99400 26.22700 31.09100
C  -6.79400 26.41300 32.62500
H  -6.18000 25.18800 33.40700
N  -7.35300 24.01100 25.57600
C  -8.00200 23.21000 26.45600
C  -8.94600 22.40500 25.74600
C  -8.81700 22.63300 24.36200
C  -7.69500 23.64000 24.28300
C  -10.13200 21.64500 26.46200
C  -9.57300 22.05300 23.24700
O  -9.20700 22.23300 22.07000
C  -10.71700 21.09200 23.37800
N  -5.54700 26.05500 23.92300
C  -6.10700 25.22800 22.95600
C  -5.37900 25.49800 21.59500
C  -4.34800 26.64300 21.90300
C  -4.46600 26.76600 23.42700
C  -4.67700 24.27100 20.95700
C  -4.74200 28.02800 21.22000
C  -3.69200 28.62000 20.33600
N  -4.55400 27.06700 26.36800
C  -3.63400 27.73600 25.56900
C  -2.95600 28.65100 26.35500
C  -3.28400 28.38600 27.69400
C  -4.27600 27.40700 27.66300
C  -1.90200 29.65200 25.86500
C  -2.96100 28.67800 29.09500
O  -2.17800 29.45100 29.60200
C  -3.97100 27.69600 29.92000
C  -3.20700 26.92500 30.94700
O  -2.74600 25.84800 30.85600
O  -3.14300 27.63900 32.08600
C  -2.36900 26.98200 33.18700
H  -8.16800 22.41400 28.48800
H  -7.24500 23.80400 22.11600
H  -2.76500 27.88100 23.54000
H  -5.32200 24.94000 31.09800
H  -7.84300 23.75800 30.43900
H  -5.73100 22.09800 29.64500
H  -6.87300 22.03500 31.02400
H  -5.15100 22.64900 31.13300
H  -8.01100 25.84600 31.00300
H  -6.96600 27.18500 30.57100
H  -7.73900 26.54800 33.15100
H  -6.16300 27.25200 32.91700
H  -11.03700 22.24000 26.33800
H  -10.00800 21.45200 27.52700
H  -10.24700 20.63500 26.07000
H  -11.34300 20.90300 22.50600
H  -11.39200 21.23300 24.22200
H  -10.16500 20.17900 23.60000
H  -6.09800 25.95100 20.91300
H  -3.33900 26.31200 21.65800
H  -5.34300 23.93800 20.16100
H  -4.52900 23.37300 21.55600
H  -3.70800 24.55200 20.54500
H  -4.90000 28.77900 21.99400
H  -5.67400 27.99300 20.65500
H  -3.24700 29.54300 20.70700
H  -4.23600 28.94100 19.44800
H  -2.98000 27.83200 20.08800
H  -1.09400 29.94900 26.53400
H  -2.53300 30.50100 25.59900
H  -1.46400 29.19300 24.97900
H  -4.67100 28.36100 30.42600
H  -1.35000 26.77700 32.86100
H  -2.67800 25.95100 33.36200
H  -2.42000 27.49900 34.14600

