158

Mg 54.72100 22.84500 44.76100
C  52.24400 25.15500 43.78800
C  52.54300 20.36300 43.79500
C  57.22100 20.74300 45.20600
C  56.88900 25.56000 45.39100
N  52.70300 22.74900 43.64500
C  51.86800 23.84400 43.43700
C  50.53500 23.33500 42.80900
C  50.50200 21.88100 43.35000
C  51.97700 21.61000 43.66400
C  49.56600 21.64400 44.53900
C  50.24400 23.45800 41.26400
C  48.95800 24.20300 40.81500
H  48.46300 23.96900 39.39600
N  54.85000 20.78800 44.63900
C  53.91800 19.97700 44.08000
C  54.46900 18.66500 43.93500
C  55.79800 18.71200 44.41900
C  56.00600 20.09900 44.85400
C  53.70900 17.47200 43.40800
C  56.67000 17.55700 44.63400
O  56.27600 16.44700 44.36500
C  58.06900 17.66600 45.26600
N  56.75300 23.13000 45.43500
C  57.62200 22.04000 45.48400
C  59.05200 22.52100 45.56500
C  58.96600 24.11000 45.59200
C  57.44500 24.28800 45.50900
C  59.66500 22.00700 46.86200
C  59.86500 24.85600 44.54900
C  60.98000 25.84100 45.06700
N  54.59600 24.93900 44.74800
C  55.58200 25.91600 45.07600
C  54.97400 27.20000 45.01500
C  53.65400 26.99300 44.54600
C  53.46700 25.54900 44.39400
C  55.60000 28.53700 45.40700
C  52.39500 27.63100 44.25000
O  52.08200 28.81800 44.13200
C  51.48500 26.50000 43.58500
C  51.32600 26.74800 42.12800
O  52.13700 26.40100 41.24700
O  50.23100 27.53700 41.89900
C  49.90500 27.95800 40.49800
H  52.01400 19.48500 43.41900
H  58.08100 20.13500 44.91900
H  57.49500 26.46700 45.45300
H  49.73100 23.85000 43.33600
H  50.28900 21.18400 42.54000
H  50.05500 21.08700 45.33800
H  48.74600 21.06400 44.11600
H  49.12900 22.50900 45.03700
H  50.23900 22.53600 40.68300
H  51.17300 23.96400 40.99900
H  49.08700 25.27300 40.97800
H  48.15500 23.91700 41.49400
H  54.24500 16.63900 42.95300
H  52.89400 17.82900 42.78000
H  53.21000 17.09000 44.29900
H  58.01900 18.28900 46.15900
H  58.83800 17.97800 44.56000
H  58.33800 16.65400 45.57100
H  59.47400 22.03200 44.68600
H  59.11800 24.54400 46.58000
H  59.56300 22.70000 47.69600
H  60.73300 21.79900 46.78800
H  59.24100 21.01700 47.03100
H  59.24300 25.35300 43.80500
H  60.45800 24.07600 44.07100
H  61.97400 25.39400 45.04800
H  60.77800 26.08300 46.11100
H  61.01000 26.67600 44.36800
H  54.86300 29.34100 45.43000
H  56.17600 28.90800 44.56000
H  56.11000 28.49900 46.37000
H  50.53300 26.49900 44.11500
H  49.82700 27.17600 39.74300
H  50.65300 28.64400 40.10000
H  48.92600 28.43700 40.48900
Mg 35.72900 49.53600 24.99000
C  35.60600 47.87400 28.08200
C  34.45600 52.38500 26.60300
C  35.09800 50.82600 22.00300
C  37.01500 46.58900 23.60600
N  35.15900 50.03900 27.17100
C  35.25800 49.20900 28.26600
C  34.85900 49.89300 29.54500
C  34.62600 51.40200 29.06100
C  34.85000 51.34900 27.51500
C  33.38500 52.19400 29.56300
C  35.89200 49.76200 30.68300
C  35.43900 49.32400 32.14900
H  34.01000 49.54400 32.63900
N  34.77800 51.34900 24.40400
C  34.34900 52.36200 25.22500
C  33.69400 53.34600 24.46600
C  33.96500 53.05400 23.06900
C  34.65200 51.72200 23.07500
C  33.18600 54.63600 25.07400
C  33.69000 53.79700 21.78600
O  34.13700 53.45300 20.71900
C  32.85100 55.07700 21.88700
N  35.92300 48.76900 23.07100
C  35.60000 49.51500 21.96800
C  36.05300 48.75300 20.74100
C  36.93400 47.56300 21.28700
C  36.59200 47.60700 22.77200
C  34.97600 48.39400 19.69300
C  38.48500 47.61900 21.04300
C  39.17100 46.27600 20.80300
N  36.28700 47.61200 25.60300
C  36.74000 46.47600 24.94000
C  36.73100 45.32700 25.77500
C  36.29500 45.88000 27.03800
C  35.99300 47.21700 26.87200
C  36.98200 43.90900 25.45900
C  36.02300 45.48800 28.46600
O  36.07900 44.43200 29.01700
C  35.66600 46.78600 29.14100
C  34.46600 46.42900 29.90300
O  33.31400 46.41000 29.51800
O  34.86600 46.03600 31.17700
C  33.85800 45.33100 31.94800
H  34.02100 53.29200 27.02600
H  35.10800 51.35600 21.04900
H  37.46700 45.68800 23.18600
H  33.89100 49.54800 29.91000
H  35.49900 51.97400 29.37600
H  33.68300 52.94900 30.29100
H  32.73700 51.46000 30.04100
H  32.84500 52.69000 28.75700
H  36.31600 50.74100 30.90400
H  36.75500 49.11800 30.51300
H  36.13400 49.73300 32.88300
H  35.66500 48.25900 32.09900
H  33.06900 54.68100 26.15700
H  32.20200 54.74200 24.61600
H  33.69400 55.58600 24.91000
H  32.93100 55.67600 20.98000
H  33.42500 55.63400 22.62800
H  31.80700 54.88400 22.13200
H  36.81700 49.40500 20.31700
H  36.47100 46.61100 21.02900
H  34.34600 49.27300 19.55400
H  34.26000 47.66500 20.07200
H  35.44300 48.02200 18.78200
H  38.88200 48.17000 21.89600
H  38.51400 48.16800 20.10200
H  39.54200 46.18800 19.78200
H  38.53700 45.39900 20.93300
H  40.06600 46.21200 21.42200
H  36.34900 43.63800 24.61400
H  36.56800 43.40300 26.33100
H  38.02600 43.74300 25.19500
H  36.39100 47.03800 29.91500
H  32.98300 45.91600 32.23200
H  34.24500 45.09400 32.93900
H  33.54100 44.42000 31.44100

