158

Mg 34.90700 47.97600 24.88300
C  35.51300 46.17900 27.81000
C  33.46600 50.40500 26.83600
C  34.06700 49.52600 22.10100
C  35.95600 45.07700 23.11100
N  34.38000 48.12100 27.07200
C  34.88500 47.34100 28.14600
C  34.57700 48.05500 29.51700
C  33.86000 49.34900 29.09400
C  33.87400 49.27600 27.54200
C  32.41600 49.48100 29.72600
C  35.89400 48.24800 30.34500
C  35.77100 48.14400 31.89800
H  34.33900 48.08600 32.43500
N  34.09800 49.79000 24.49600
C  33.58600 50.65800 25.42000
C  33.18500 51.93800 24.75300
C  33.34200 51.65100 23.34000
C  33.90400 50.26900 23.23200
C  32.56800 53.19500 25.49200
C  33.02000 52.59800 22.14700
O  33.17000 52.26400 20.98700
C  32.41900 53.98500 22.36900
N  35.03300 47.37700 22.88900
C  34.53500 48.18300 21.95500
C  34.73900 47.57900 20.55700
C  35.65600 46.39400 20.82400
C  35.60600 46.24400 22.36900
C  33.36900 47.12200 19.89800
C  37.13400 46.69500 20.48700
C  37.92500 47.72600 21.29900
N  35.53700 46.04400 25.35800
C  35.95600 45.00400 24.50800
C  36.53500 43.92500 25.24000
C  36.34000 44.28900 26.62200
C  35.72200 45.59200 26.62700
C  36.99300 42.64400 24.75700
C  36.50400 43.95600 28.04000
O  37.09200 43.01800 28.52200
C  35.92900 45.10900 28.83600
C  34.72500 44.61100 29.67400
O  33.57400 44.60600 29.31700
O  35.14500 44.32800 30.91400
C  34.12800 44.14600 31.93900
H  33.04700 51.16300 27.50100
H  33.80300 49.96600 21.13700
H  36.40100 44.21200 22.61600
H  33.88200 47.43700 30.08400
H  34.46700 50.22100 29.33700
H  32.44800 50.37500 30.34900
H  32.13700 48.65500 30.38100
H  31.63700 49.48100 28.96400
H  36.27500 49.24900 30.14000
H  36.60800 47.50100 30.00100
H  36.33300 48.93800 32.39100
H  36.35300 47.25900 32.15400
H  33.28200 53.99900 25.66600
H  32.27400 52.88700 26.49600
H  31.66400 53.60400 25.04000
H  31.37300 53.83900 22.63800
H  32.59100 54.67200 21.54100
H  32.95500 54.49200 23.17100
H  35.26700 48.25100 19.88100
H  35.39100 45.52600 20.22100
H  33.28200 46.08000 20.20700
H  33.42700 47.19900 18.81300
H  32.48600 47.66100 20.24200
H  37.29400 46.72900 19.40900
H  37.58900 45.73500 20.73000
H  37.17900 48.35000 21.79100
H  38.63900 48.25400 20.66700
H  38.54800 47.28300 22.07600
H  37.76800 42.75200 23.99800
H  36.10200 42.24100 24.27600
H  37.30600 42.02700 25.59900
H  36.75500 45.40200 29.48500
H  33.70400 43.14200 31.97500
H  33.36700 44.90800 31.77400
H  34.68600 44.33200 32.85700
Mg -5.24700 26.09200 25.78100
C  -4.11300 27.51300 28.74400
C  -7.33500 24.03000 27.69800
C  -6.51900 24.84900 22.97800
C  -3.03700 28.18500 24.01800
N  -5.49500 25.66500 27.93400
C  -4.98200 26.42700 28.98900
C  -5.37400 25.90600 30.38100
C  -6.09000 24.50300 29.98900
C  -6.35700 24.71600 28.46900
C  -5.32900 23.22000 30.23900
C  -6.43700 26.80800 31.05700
C  -6.55400 26.76600 32.61800
H  -5.78700 25.66000 33.38500
N  -6.60400 24.50500 25.39000
C  -7.40600 23.95700 26.27300
C  -8.36800 23.18200 25.52700
C  -8.19400 23.43200 24.19200
C  -7.05600 24.28600 24.12200
C  -9.50400 22.48200 26.27300
C  -9.07100 22.89000 23.02000
O  -8.75600 23.04900 21.80600
C  -10.22400 22.02300 23.21800
N  -4.83500 26.50700 23.77400
C  -5.46200 25.76200 22.81100
C  -4.78000 26.01500 21.44100
C  -3.89200 27.24500 21.76200
C  -3.89700 27.31600 23.27100
C  -4.10400 24.80300 20.85300
C  -4.40900 28.53000 21.09200
C  -3.38600 29.36100 20.30800
N  -3.81600 27.53100 26.26700
C  -3.05000 28.32400 25.41800
C  -2.28200 29.30400 26.25700
C  -2.68700 28.97500 27.58000
C  -3.63200 27.92600 27.53500
C  -1.27200 30.31200 25.85300
C  -2.46900 29.29500 28.96900
O  -1.68000 29.97000 29.59800
C  -3.50700 28.50600 29.71100
C  -2.91800 27.84400 30.96900
O  -2.13000 26.91100 31.01900
O  -3.08000 28.67100 32.07300
C  -2.25900 28.41700 33.27400
H  -8.02400 23.43800 28.30400
H  -7.01100 24.51400 22.06300
H  -2.30500 28.84400 23.54600
H  -4.47400 25.59300 30.91100
H  -7.02100 24.36800 30.54000
H  -6.00400 22.48000 30.67000
H  -4.46900 23.47100 30.85900
H  -4.94100 22.91800 29.26600
H  -7.40400 26.56700 30.61600
H  -6.23500 27.85700 30.84400
H  -7.60900 26.71500 32.88700
H  -6.19000 27.70100 33.04600
H  -9.38500 22.49800 27.35600
H  -9.64400 21.48200 25.86200
H  -10.42500 23.05000 26.14500
H  -10.94600 21.95800 22.40400
H  -10.84100 22.21800 24.09500
H  -9.74400 21.05500 23.36600
H  -5.65000 26.31000 20.85400
H  -2.88900 27.05100 21.38200
H  -4.29900 23.88300 21.40400
H  -3.01800 24.86900 20.91700
H  -4.30900 24.76900 19.78300
H  -4.93800 29.10300 21.85200
H  -5.23600 28.31700 20.41500
H  -3.43200 29.22400 19.22700
H  -2.38500 29.09100 20.64500
H  -3.59600 30.42200 20.43900
H  -1.70400 31.18900 25.37000
H  -0.46800 29.91000 25.23700
H  -0.76400 30.81000 26.67800
H  -4.31100 29.17300 30.02200
H  -1.22700 28.06600 33.25600
H  -2.84500 27.67600 33.81800
H  -2.43900 29.26800 33.93000

