158

Mg 53.35900 24.45700 45.11000
C  50.52400 26.41700 44.17300
C  51.76700 21.72400 43.72100
C  56.24600 22.67400 45.43200
C  54.87300 27.31700 46.15800
N  51.48700 24.15600 43.98900
C  50.44100 25.04800 43.83200
C  49.20700 24.44100 43.16500
C  49.47000 22.94700 43.48700
C  51.00200 22.90000 43.78300
C  48.50400 22.29100 44.52300
C  49.18500 24.77400 41.69200
C  47.68000 24.88400 41.10900
H  46.98000 23.56400 40.70000
N  53.97600 22.48200 44.52400
C  53.09100 21.51400 44.08800
C  53.74200 20.23300 44.05000
C  55.07800 20.43500 44.50000
C  55.20900 21.89100 44.75900
C  53.08100 18.89500 43.85500
C  56.13500 19.33200 44.80800
O  55.99200 18.14600 44.48500
C  57.42600 19.62500 45.39000
N  55.30400 24.94700 45.70500
C  56.26900 24.03000 45.80200
C  57.62800 24.72800 46.17900
C  57.21800 26.23200 46.38900
C  55.68000 26.14700 46.07100
C  58.14500 24.12300 47.47900
C  57.98000 27.32200 45.57300
C  58.52700 28.48500 46.47100
N  52.78100 26.43500 45.32900
C  53.56300 27.47600 45.74600
C  52.76800 28.66300 45.85800
C  51.54300 28.32000 45.18100
C  51.65800 26.91900 44.88100
C  53.13500 29.95500 46.42500
C  50.20400 28.76800 44.81600
O  49.67200 29.88700 45.01900
C  49.51000 27.62200 44.06800
C  49.17500 28.08700 42.67800
O  49.95100 28.13200 41.71400
O  47.87900 28.38200 42.63000
C  47.24500 28.48300 41.35600
H  51.26800 20.76700 43.55400
H  57.05700 22.02700 45.77400
H  55.26800 28.25500 46.55500
H  48.25800 24.72800 43.61700
H  49.27800 22.34800 42.59700
H  48.55900 21.22500 44.74400
H  47.54200 22.71000 44.22900
H  48.78300 22.69900 45.49500
H  49.64200 23.91900 41.19400
H  49.73700 25.65700 41.37100
H  47.68500 25.55200 40.24700
H  46.98100 25.18100 41.89100
H  53.67700 18.40900 43.08400
H  52.05500 18.94500 43.48900
H  53.03100 18.20500 44.69800
H  58.10300 18.77400 45.46600
H  57.37700 19.99500 46.41400
H  57.90900 20.35000 44.73500
H  58.41600 24.62900 45.43300
H  57.28500 26.56300 47.42500
H  59.12200 23.70900 47.23100
H  57.42500 23.40100 47.86100
H  58.19300 24.87700 48.26500
H  57.32900 27.77700 44.82600
H  58.80900 26.87400 45.02400
H  58.54400 29.40400 45.88400
H  59.56000 28.24500 46.72200
H  57.96300 28.54700 47.40100
H  54.01300 29.95200 47.07200
H  52.27200 30.40500 46.91600
H  53.48500 30.44100 45.51400
H  48.57100 27.25400 44.48000
H  46.59200 27.62000 41.22900
H  47.98000 28.55100 40.55300
H  46.60500 29.36500 41.35300
Mg -10.37500 17.95900 43.35600
C  -7.15200 16.61700 42.67200
C  -9.00700 21.05300 42.35700
C  -13.52700 19.05700 42.99200
C  -11.57100 14.68500 43.55000
N  -8.27700 18.73100 42.63700
C  -7.15300 18.00800 42.50100
C  -6.00400 18.94300 42.12500
C  -6.61300 20.34300 42.24200
C  -8.03300 20.02900 42.52500
C  -5.91600 21.29600 43.19500
C  -5.20600 18.69400 40.78900
C  -5.92200 17.96500 39.52100
H  -5.45200 18.38100 38.12100
N  -11.15500 19.78000 42.80900
C  -10.43800 20.94100 42.48200
C  -11.39300 21.96900 42.25100
C  -12.68900 21.40600 42.38600
C  -12.52800 20.00100 42.79100
C  -11.00100 23.41300 41.98300
C  -14.12700 22.15900 42.26300
O  -14.15400 23.34700 41.90300
C  -15.47500 21.50300 42.67200
N  -12.35400 16.97400 43.21200
C  -13.48900 17.63900 43.24100
C  -14.69200 16.68700 43.49100
C  -14.04500 15.31600 43.70500
C  -12.61100 15.64600 43.54100
C  -15.57500 17.10200 44.69200
C  -14.61000 14.30500 42.56300
C  -15.07000 12.94500 43.04100
N  -9.54000 16.11300 43.32200
C  -10.18700 14.84300 43.36300
C  -9.15800 13.84000 43.34800
C  -7.94400 14.45400 43.12500
C  -8.27300 15.84300 43.02800
C  -9.44800 12.36000 43.54900
C  -6.42500 14.25500 42.91400
O  -5.86100 13.19000 42.95900
C  -5.96900 15.64700 42.58200
C  -4.91700 16.03800 43.52400
O  -3.76100 15.92900 43.27600
O  -5.36400 16.60000 44.71900
C  -4.36400 17.00800 45.75500
H  -8.58600 22.00800 42.03800
H  -14.58000 19.33900 42.93100
H  -11.83800 13.63600 43.68800
H  -5.33900 18.76600 42.97100
H  -6.65800 20.87600 41.29200
H  -5.18300 20.64300 43.67000
H  -6.73700 21.75200 43.74700
H  -5.49800 22.16300 42.68400
H  -4.26700 18.21400 41.06500
H  -4.95800 19.68300 40.40500
H  -7.00500 17.85500 39.57900
H  -5.38600 17.01700 39.57200
H  -11.14300 23.75200 40.95700
H  -9.96900 23.53300 42.31100
H  -11.53900 24.04300 42.69100
H  -15.30600 21.12300 43.68000
H  -15.83000 20.68700 42.04300
H  -16.24400 22.27300 42.60800
H  -15.30100 16.83200 42.59900
H  -14.32000 14.97900 44.70400
H  -15.21100 17.89300 45.34800
H  -15.81700 16.20900 45.26800
H  -16.44300 17.69000 44.39200
H  -13.83900 14.16600 41.80500
H  -15.39000 14.86800 42.05000
H  -14.47900 12.13400 42.61600
H  -16.12200 12.71100 42.87900
H  -14.78900 12.85800 44.09100
H  -10.19800 12.15400 44.31300
H  -8.50600 11.90700 43.85700
H  -9.62600 12.01500 42.53000
H  -5.50300 15.51600 41.60600
H  -4.55200 16.33400 46.59100
H  -4.48800 18.06100 46.00600
H  -3.28600 16.93500 45.61100

