158

Mg 47.45400 34.80000 25.96700
C  45.54400 33.47300 28.66400
C  48.01700 37.60200 28.03300
C  48.88600 36.25300 23.36700
C  46.46000 32.07000 24.03500
N  46.87200 35.37100 28.14200
C  46.18400 34.63400 29.03700
C  46.40100 35.27100 30.46900
C  46.74500 36.71500 30.15300
C  47.23100 36.58900 28.64400
C  45.71500 37.87100 30.31300
C  47.55500 34.47400 31.10400
C  47.71300 34.60900 32.65100
H  46.60200 35.36300 33.34700
N  48.25000 36.67800 25.74100
C  48.49800 37.62700 26.69500
C  49.46100 38.61600 26.20300
C  49.77600 38.17400 24.88700
C  48.92700 36.98900 24.61500
C  50.04700 39.78400 27.06300
C  50.79000 38.81500 23.83100
O  51.06200 38.17800 22.78000
C  51.30100 40.13300 24.13100
N  47.52500 34.23800 23.94000
C  48.24900 35.05800 23.07900
C  48.24700 34.38900 21.72000
C  47.52900 32.97300 21.91700
C  47.09500 33.08600 23.41700
C  47.64600 35.23600 20.61000
C  48.23100 31.68000 21.51900
C  47.59800 30.87400 20.35300
N  46.24400 33.03400 26.22000
C  45.99900 31.99500 25.35300
C  45.19600 31.07800 26.09800
C  44.93200 31.61600 27.30000
C  45.70500 32.82000 27.40900
C  44.65000 29.74900 25.61000
C  44.26100 31.36000 28.56700
O  43.54700 30.44700 28.96600
C  44.62500 32.60200 29.48500
C  45.25200 31.97000 30.66000
O  46.22500 31.28900 30.69100
O  44.36500 32.05300 31.77200
C  44.87900 31.31800 32.90600
H  48.25400 38.43000 28.70500
H  49.43400 36.76300 22.57200
H  46.08400 31.29700 23.36200
H  45.56900 35.09400 31.15000
H  47.66000 36.87800 30.72100
H  45.65000 38.37800 29.35000
H  46.06600 38.63900 31.00200
H  44.69600 37.66800 30.64500
H  48.49600 34.93900 30.81300
H  47.54100 33.40000 30.91900
H  48.73700 34.91000 32.87300
H  47.52300 33.66500 33.16400
H  49.52200 39.86600 28.01400
H  49.88100 40.71500 26.51900
H  51.12100 39.71200 27.23700
H  51.71500 40.69800 23.29500
H  51.97500 40.05200 24.98400
H  50.60100 40.89600 24.47100
H  49.29600 34.20000 21.49400
H  46.64200 32.95200 21.28300
H  46.83300 34.72200 20.09700
H  48.40200 35.43900 19.85100
H  47.33200 36.15400 21.10600
H  48.29700 30.92200 22.30000
H  49.25400 31.92100 21.22900
H  48.38300 30.54800 19.67100
H  47.03800 31.62100 19.79100
H  46.93700 30.12500 20.78800
H  44.76700 28.90500 26.29000
H  45.04500 29.61100 24.60400
H  43.59400 29.98800 25.48000
H  43.70100 33.14600 29.68000
H  45.74600 31.75700 33.40000
H  45.07000 30.26300 32.71200
H  44.02900 31.34200 33.58900
Mg -10.07700 40.00000 39.48800
C  -8.83100 36.92000 38.38400
C  -7.09500 41.39400 38.82400
C  -11.63800 42.91700 39.52700
C  -13.26800 38.29700 40.02900
N  -8.15000 39.24000 38.67900
C  -7.92600 37.99900 38.22500
C  -6.52200 38.02700 37.62800
C  -5.78500 39.23100 38.34700
C  -7.07800 40.00700 38.67300
C  -4.94500 38.94000 39.56600
C  -6.59800 38.11700 36.07900
C  -5.97900 36.97600 35.22300
H  -6.93200 36.33000 34.21700
N  -9.39700 41.96600 39.27500
C  -8.15600 42.30800 38.99100
C  -8.09400 43.78200 38.88900
C  -9.40400 44.27700 39.15500
C  -10.22600 43.04200 39.39700
C  -6.75800 44.54400 38.84700
C  -9.75400 45.72800 39.28000
O  -8.95500 46.60100 39.03500
C  -11.12400 46.18000 39.67300
N  -12.16900 40.54100 39.93500
C  -12.46200 41.84800 39.75400
C  -13.99600 41.97700 39.80200
C  -14.52400 40.56700 40.19400
C  -13.26900 39.74100 40.07700
C  -14.44100 43.15200 40.65300
C  -15.66700 40.07100 39.26900
C  -17.03100 40.74500 39.34400
N  -10.89800 37.93500 39.43100
C  -12.15800 37.41100 39.64700
C  -12.12000 36.04600 39.45700
C  -10.81200 35.73200 38.98700
C  -10.12700 36.95300 39.02400
C  -13.31300 35.09900 39.69300
C  -9.92900 34.73800 38.39600
O  -10.05200 33.53000 38.13100
C  -8.60800 35.48000 37.97700
C  -7.47100 34.88700 38.60900
O  -7.29900 34.76400 39.83300
O  -6.55100 34.47300 37.66700
C  -5.41700 33.75400 38.25000
H  -6.12700 41.87700 38.67600
H  -12.22400 43.83800 39.50500
H  -14.22400 37.82400 40.26200
H  -6.06500 37.07100 37.88400
H  -5.09400 39.70400 37.64900
H  -4.94000 37.85300 39.63900
H  -5.31600 39.43800 40.46200
H  -3.91300 39.26800 39.44500
H  -6.15900 39.04400 35.71100
H  -7.65200 38.05300 35.81000
H  -5.51400 36.24400 35.88200
H  -5.09900 37.28800 34.66000
H  -6.81500 45.20400 37.98100
H  -5.95800 43.82700 38.66300
H  -6.56800 45.14800 39.73400
H  -11.15700 47.21700 40.00600
H  -11.40700 45.56900 40.53000
H  -11.77000 45.90900 38.83800
H  -14.31800 42.23600 38.79400
H  -14.88300 40.60700 41.22200
H  -15.12100 42.80700 41.43200
H  -14.94500 43.82600 39.96100
H  -13.67600 43.72800 41.17500
H  -15.83100 39.01100 39.46000
H  -15.30800 40.27400 38.26000
H  -17.15300 41.47600 38.54500
H  -17.04900 41.31400 40.27300
H  -17.80000 39.99000 39.17600
H  -14.19400 35.59700 39.28900
H  -13.40100 35.01700 40.77600
H  -13.20100 34.13600 39.19300
H  -8.42300 35.42500 36.90500
H  -4.76700 34.46800 38.75600
H  -4.87100 33.20400 37.48300
H  -5.63800 33.11700 39.10700

