158

Mg 17.28000 -0.87400 28.16900
C  16.28100 1.30100 30.95800
C  19.04200 -2.69700 30.52400
C  18.48100 -2.50800 25.62500
C  15.61000 1.30000 26.12000
N  17.70700 -0.61500 30.45100
C  17.16100 0.24000 31.36100
C  17.36300 -0.28700 32.82000
C  18.39300 -1.40800 32.65400
C  18.39000 -1.55800 31.09400
C  19.78400 -1.15700 33.22600
C  16.00400 -0.74400 33.51000
C  15.64300 -0.06200 34.82900
H  16.74500 0.62500 35.69100
N  18.53200 -2.49600 28.00600
C  19.11600 -3.15400 29.11200
C  19.71700 -4.26500 28.52500
C  19.68300 -4.23100 27.14300
C  18.86500 -3.07400 26.86300
C  20.56500 -5.23700 29.36800
C  20.35000 -5.18200 26.04600
O  20.07300 -4.97100 24.85200
C  21.33000 -6.16800 26.47000
N  16.95000 -0.78600 26.11500
C  17.72200 -1.43300 25.27700
C  17.58600 -0.84200 23.84800
C  16.47000 0.17100 24.00400
C  16.30100 0.24200 25.50200
C  18.84700 -0.28200 23.14600
C  15.20100 -0.19200 23.18500
C  14.03700 -0.92600 23.89400
N  15.99800 0.83300 28.42400
C  15.41400 1.61400 27.44400
C  14.62500 2.66600 28.09300
C  14.97600 2.57600 29.47300
C  15.87200 1.49100 29.62800
C  13.63700 3.49500 27.55000
C  14.73800 3.16500 30.80800
O  14.07400 4.13300 31.20100
C  15.53200 2.26400 31.80400
C  16.46800 3.21100 32.56100
O  17.61500 3.55700 32.21700
O  15.88100 3.64200 33.71100
C  16.59000 4.61500 34.52200
H  19.53400 -3.37600 31.22300
H  18.93300 -3.02900 24.77900
H  15.16900 2.05000 25.46000
H  17.87100 0.45300 33.43900
H  18.05900 -2.35100 33.08600
H  19.92700 -0.26100 33.83100
H  20.53800 -1.13200 32.43900
H  19.94900 -2.02000 33.87100
H  16.12900 -1.82700 33.53400
H  15.14000 -0.60800 32.85900
H  15.23500 -0.84600 35.46800
H  14.87200 0.69600 34.68800
H  20.20600 -6.22000 29.06200
H  20.51100 -5.22000 30.45600
H  21.62400 -5.10900 29.14300
H  22.03300 -5.61300 27.09000
H  21.93000 -6.55800 25.64800
H  20.82300 -6.97700 26.99700
H  17.27300 -1.66700 23.20800
H  16.75900 1.19000 23.74600
H  18.59100 0.70100 22.75000
H  19.00000 -1.00500 22.34500
H  19.73600 -0.29800 23.77700
H  15.45200 -0.85900 22.36100
H  14.71200 0.59700 22.61400
H  13.22900 -0.24500 23.62600
H  14.02500 -0.96300 24.98300
H  13.69600 -1.89900 23.54000
H  12.65200 3.22000 27.92700
H  13.55700 3.32700 26.47600
H  13.76800 4.54500 27.80900
H  14.70500 1.92200 32.42700
H  17.34400 5.17600 33.97100
H  17.04600 4.14000 35.39100
H  15.78600 5.29900 34.79200
Mg 26.46600 0.88800 29.27200
C  28.34700 0.33900 32.06400
C  23.61700 1.04800 31.30900
C  24.70500 1.36900 26.53000
C  29.26000 -0.11300 27.23400
N  25.96000 0.57700 31.44900
C  27.01600 0.53600 32.35300
C  26.43500 0.58700 33.81900
C  24.91300 0.55200 33.56800
C  24.82300 0.77000 32.04800
C  24.07800 -0.59000 34.11300
C  26.96800 1.78900 34.60200
C  27.57600 1.51900 35.97900
H  27.04400 2.46700 37.01600
N  24.48600 1.12600 28.94100
C  23.46700 1.21200 29.85300
C  22.21100 1.47300 29.21800
C  22.46600 1.49800 27.82900
C  23.95900 1.31800 27.70400
C  20.90400 1.60700 30.01200
C  21.55900 1.63700 26.60200
O  21.86900 1.66300 25.40800
C  20.04300 1.57100 26.82300
N  26.88100 0.56200 27.10400
C  26.01100 1.00100 26.22800
C  26.62300 1.07700 24.84200
C  28.09800 0.62000 25.02000
C  28.12800 0.33400 26.51900
C  25.92000 0.31500 23.73800
C  29.12600 1.68400 24.65400
C  30.38200 1.21400 24.08700
N  28.43600 0.31100 29.58300
C  29.44400 -0.12100 28.71000
C  30.60200 -0.50500 29.42000
C  30.35600 -0.19500 30.79400
C  28.92800 0.17700 30.83300
C  31.76800 -1.14600 28.71000
C  30.78600 -0.22100 32.21800
O  31.81400 -0.58100 32.78800
C  29.47000 0.10500 33.03700
C  29.29400 -1.06700 33.95600
O  28.95500 -2.19900 33.57000
O  29.67600 -0.65000 35.18400
C  29.92100 -1.69400 36.16400
H  22.89300 1.31200 32.08200
H  24.31700 1.81900 25.61400
H  30.02500 -0.48200 26.54700
H  26.63100 -0.41300 34.20400
H  24.52800 1.50900 33.92000
H  23.49400 -0.13500 34.91300
H  24.74800 -1.26800 34.64300
H  23.48400 -1.13500 33.37900
H  26.15100 2.50800 34.66400
H  27.70800 2.29500 33.98400
H  28.65000 1.63500 35.83500
H  27.45200 0.49100 36.31800
H  20.50100 2.51200 29.55800
H  20.91200 1.89100 31.06500
H  20.34200 0.67700 29.92900
H  19.87100 0.74300 27.51100
H  19.55700 1.18700 25.92600
H  19.67000 2.47700 27.30000
H  26.55800 2.15200 24.67500
H  28.27200 -0.30400 24.46800
H  24.98800 -0.18100 24.00800
H  26.63200 -0.24300 23.13000
H  25.57000 1.10600 23.07400
H  29.41000 2.19100 25.57600
H  28.63900 2.48400 24.09600
H  30.22500 0.21900 23.67200
H  31.13500 1.03900 24.85600
H  30.75200 1.86600 23.29600
H  32.64900 -1.06000 29.34500
H  31.89900 -0.69900 27.72400
H  31.65900 -2.20000 28.45200
H  29.55000 1.01700 33.62900
H  29.73400 -2.72800 35.87500
H  29.26600 -1.49900 37.01300
H  30.94400 -1.57200 36.51900

