158

Mg 6.00900 54.03200 40.49700
C  5.35700 50.48200 39.80100
C  9.23400 53.40500 39.51000
C  6.46100 57.30500 40.55100
C  2.52900 54.42600 40.82300
N  7.12000 52.12700 39.66200
C  6.66300 50.86700 39.50800
C  7.87300 49.87300 39.27000
C  9.08300 50.83000 39.61600
C  8.43900 52.20900 39.62700
C  9.79000 50.54900 40.92400
C  8.04800 49.13200 37.88600
C  8.01200 50.00400 36.54200
H  6.87600 49.77000 35.57900
N  7.74000 55.21800 40.10300
C  8.91100 54.80500 39.66200
C  9.72900 55.95700 39.49500
C  8.99200 57.08400 40.01600
C  7.67200 56.61500 40.26000
C  11.18600 55.78100 39.07900
C  9.53200 58.47200 40.21100
O  10.71800 58.74100 39.94600
C  8.72300 59.63700 40.67800
N  4.65400 55.61800 40.48100
C  5.12800 56.89100 40.66500
C  3.90800 57.84300 40.86500
C  2.68400 56.90800 40.94600
C  3.30500 55.55800 40.74300
C  4.03200 58.79700 42.13800
C  1.48200 57.22300 40.00900
C  0.28700 57.93000 40.59800
N  4.36100 52.77000 40.50000
C  3.01100 53.07200 40.76100
C  2.18300 51.89100 40.72400
C  3.12400 50.85700 40.45300
C  4.39100 51.39700 40.29800
C  0.70100 51.72400 40.88100
C  3.26600 49.49000 40.29800
O  2.45700 48.62000 40.45300
C  4.71700 49.14200 39.80600
C  4.50300 48.56500 38.42100
O  3.87500 49.09000 37.51300
O  4.87700 47.25100 38.49100
C  4.49900 46.45300 37.29600
H  10.20100 53.05800 39.14100
H  6.59000 58.38300 40.67200
H  1.48900 54.63300 41.08600
H  7.68400 49.17000 40.08100
H  9.73400 50.79300 38.74200
H  9.56100 51.30300 41.67700
H  10.87100 50.54100 40.78200
H  9.60000 49.53500 41.27500
H  7.33200 48.31200 37.93800
H  9.06100 48.73400 37.81300
H  8.95800 49.90700 36.00800
H  7.84600 51.01400 36.91800
H  11.49100 54.79500 39.43100
H  11.82100 56.34400 39.76300
H  11.40600 56.06900 38.05100
H  9.44000 60.45800 40.65800
H  8.40000 59.32700 41.67200
H  8.01000 59.69000 39.85500
H  3.70000 58.41400 39.96000
H  2.31000 56.88000 41.96900
H  3.04900 58.92800 42.59000
H  4.56700 59.65100 41.72100
H  4.65200 58.31600 42.89400
H  1.13600 56.28600 39.57400
H  1.74200 57.78700 39.11400
H  0.28600 58.88700 40.07600
H  0.48100 58.13100 41.65200
H  -0.70400 57.49300 40.48000
H  0.52800 50.94200 41.62000
H  0.24300 51.36600 39.95900
H  0.24600 52.65300 41.22500
H  5.15400 48.37500 40.44600
H  5.14400 45.57400 37.26500
H  4.56500 47.05500 36.38900
H  3.47800 46.09200 37.42200
Mg -5.83400 24.71500 26.32000
C  -4.89900 26.44000 29.23000
C  -7.66400 22.64400 28.30900
C  -6.53800 22.78300 23.59900
C  -3.49300 26.49400 24.43900
N  -6.17900 24.54900 28.49100
C  -5.67400 25.37800 29.47400
C  -6.37200 25.13200 30.82800
C  -7.13200 23.81200 30.52500
C  -6.99600 23.63500 29.03000
C  -6.60600 22.54700 31.31600
C  -7.26200 26.36000 31.27200
C  -7.04500 26.69800 32.83000
H  -6.55100 25.66800 33.80900
N  -7.09000 23.12100 25.98800
C  -7.79300 22.38400 26.96800
C  -8.67500 21.36900 26.34400
C  -8.25600 21.39700 24.92800
C  -7.27200 22.46100 24.74900
C  -9.53800 20.55300 27.14000
C  -8.68200 20.45600 23.83800
O  -8.22900 20.40300 22.72200
C  -9.74400 19.47900 24.12700
N  -5.05700 24.64400 24.32500
C  -5.50700 23.67000 23.43800
C  -4.71200 23.76900 22.10500
C  -3.99500 25.16900 22.27100
C  -4.15600 25.47400 23.73100
C  -3.93700 22.53900 21.84000
C  -4.62800 26.38500 21.39900
C  -3.65100 27.02900 20.40300
N  -4.46700 26.11100 26.73000
C  -3.63200 26.87900 25.81100
C  -3.00700 27.97000 26.49000
C  -3.51700 27.82500 27.79800
C  -4.36800 26.68400 27.94000
C  -2.08000 29.05800 25.90000
C  -3.45300 28.39900 29.13200
O  -2.93200 29.40300 29.50600
C  -4.33200 27.53800 30.10900
C  -3.35900 26.88500 31.07700
O  -2.48000 26.01400 30.85000
O  -3.65000 27.49400 32.32300
C  -2.75300 27.20600 33.42400
H  -8.26300 22.01600 28.97200
H  -6.81500 22.31200 22.65300
H  -2.94100 27.13000 23.74400
H  -5.48900 25.09000 31.46600
H  -8.17900 23.99700 30.76200
H  -6.55400 21.68900 30.64600
H  -7.24300 22.45200 32.19500
H  -5.57900 22.76400 31.61100
H  -8.29700 26.06100 31.10400
H  -7.00200 27.21500 30.64800
H  -7.95600 27.17800 33.18700
H  -6.34700 27.53100 32.91900
H  -10.57800 20.64600 26.82600
H  -9.58800 20.90200 28.17200
H  -9.40700 19.47200 27.07500
H  -10.00500 19.08800 23.14400
H  -10.52600 20.04700 24.63100
H  -9.49900 18.71700 24.86700
H  -5.34800 23.95600 21.24000
H  -2.94700 25.14900 21.97100
H  -2.85800 22.65900 21.93500
H  -4.17400 22.25900 20.81400
H  -4.09600 21.73400 22.55900
H  -4.84900 27.25100 22.02200
H  -5.53800 26.06000 20.89500
H  -4.23000 27.33200 19.53000
H  -2.83800 26.35000 20.14600
H  -3.17500 27.92800 20.79500
H  -2.51800 29.58300 25.05200
H  -1.10200 28.64400 25.65400
H  -1.78900 29.78300 26.66000
H  -5.07500 28.13400 30.63900
H  -3.27400 26.70300 34.23800
H  -2.38900 28.15300 33.82200
H  -1.89500 26.58100 33.17600

