158

Mg 35.82000 2.06900 29.69400
C  33.43700 3.13500 32.19200
C  38.10800 2.23400 32.27100
C  38.19600 1.75400 27.38900
C  33.25700 2.16600 27.30100
N  35.73000 2.40100 31.92100
C  34.60100 2.67700 32.75600
C  35.04000 2.79700 34.22400
C  36.57400 2.86700 34.13000
C  36.83600 2.42700 32.74200
C  37.29100 4.19600 34.52600
C  34.42500 1.61300 34.99700
C  34.29200 1.58200 36.52200
H  34.70700 2.86100 37.30700
N  37.91700 1.88700 29.82200
C  38.67600 2.01600 30.97200
C  40.03900 1.74200 30.69000
C  40.13000 1.70600 29.22700
C  38.71500 1.82900 28.71300
C  41.17400 1.58700 31.69300
C  41.39900 1.52900 28.34700
O  41.35000 1.45700 27.11300
C  42.78200 1.32400 29.04500
N  35.72900 1.89600 27.67100
C  36.85600 1.72800 26.94600
C  36.51800 1.45500 25.45600
C  34.99500 1.28700 25.52100
C  34.55000 1.73300 26.93200
C  37.00700 2.51300 24.32700
C  34.42700 -0.13500 25.19200
C  33.91500 -0.45100 23.79400
N  33.77200 2.59300 29.61500
C  32.85600 2.60400 28.60500
C  31.56500 3.16800 29.12400
C  31.75000 3.40000 30.44900
C  33.10100 2.97100 30.75300
C  30.38600 3.50100 28.31100
C  31.18200 3.82600 31.70800
O  30.00700 4.18700 31.91700
C  32.18400 3.75300 32.86400
C  32.44400 5.08500 33.42300
O  33.16500 5.92400 32.92200
O  31.73100 5.23000 34.64400
C  31.66100 6.49200 35.38600
H  38.91000 2.26400 33.01200
H  38.85000 1.47400 26.56100
H  32.45100 2.10800 26.56600
H  34.63000 3.75100 34.55700
H  36.91000 2.07600 34.80100
H  37.08900 5.01500 33.83600
H  38.34000 3.90900 34.58700
H  37.03200 4.65800 35.47900
H  34.79600 0.69600 34.54000
H  33.35200 1.52700 34.82700
H  34.87800 0.74200 36.89500
H  33.28900 1.24000 36.77700
H  41.75400 2.48500 31.48100
H  41.79600 0.70900 31.51800
H  40.70700 1.52800 32.67600
H  43.62800 1.37500 28.35900
H  42.83700 0.46900 29.71800
H  42.79800 2.20700 29.68400
H  36.92600 0.49800 25.13300
H  34.46200 2.00900 24.90200
H  37.68500 3.23700 24.77900
H  36.14800 3.04400 23.91800
H  37.67100 2.04700 23.59900
H  33.66400 -0.27900 25.95600
H  35.15100 -0.84200 25.59600
H  33.90500 0.49500 23.25400
H  32.91400 -0.87800 23.72500
H  34.57300 -1.09800 23.21400
H  30.68300 3.37400 27.27000
H  30.02100 4.50900 28.50800
H  29.51400 2.87700 28.50800
H  31.79900 3.05300 33.60500
H  30.68500 6.81200 35.75000
H  31.96200 7.30500 34.72600
H  32.26400 6.38400 36.28800
Mg 48.44400 34.58400 27.27800
C  46.19200 33.48800 29.79800
C  49.29100 37.28400 29.22500
C  49.76300 36.03400 24.57600
C  46.93000 32.12200 25.13600
N  47.79200 35.26300 29.30400
C  46.92500 34.67100 30.14500
C  46.97500 35.41000 31.49600
C  47.62900 36.79900 31.11100
C  48.35000 36.45300 29.86600
C  46.61400 37.95400 30.87300
C  47.83700 34.54000 32.52000
C  47.28700 34.37800 33.92600
H  48.22500 34.87900 35.04300
N  49.46100 36.31300 26.97900
C  49.74600 37.28400 27.86800
C  50.55900 38.22700 27.20900
C  50.75300 37.92500 25.85900
C  49.94700 36.71900 25.74500
C  51.07500 39.46600 27.91000
C  51.45400 38.65700 24.77400
O  51.54400 38.14500 23.66200
C  52.17800 40.01800 25.09900
N  48.30000 34.14300 25.24700
C  49.05600 34.87800 24.32900
C  48.76000 34.37700 22.87400
C  48.16300 33.00900 23.18600
C  47.76400 33.08000 24.60300
C  47.84200 35.38400 22.13800
C  49.06900 31.76500 22.86200
C  50.15700 31.35100 23.83500
N  47.08200 32.96000 27.46500
C  46.62200 32.02000 26.50400
C  45.74600 31.00400 27.15900
C  45.50600 31.62100 28.42400
C  46.35500 32.75900 28.51400
C  45.20400 29.75100 26.52100
C  44.70800 31.48200 29.54700
O  43.89300 30.59100 29.80000
C  45.12100 32.67300 30.52400
C  45.55300 32.01600 31.80900
O  46.50200 31.26600 32.06600
O  44.55100 32.21200 32.74600
C  44.75000 31.77400 34.17900
H  49.48500 38.18600 29.80900
H  50.17400 36.40200 23.63400
H  46.66100 31.27100 24.50700
H  45.99900 35.55600 31.95800
H  48.37500 37.21800 31.78700
H  46.76100 38.80600 31.53600
H  45.57300 37.65900 31.00100
H  46.59400 38.31700 29.84500
H  48.87600 34.86600 32.55800
H  48.04200 33.59100 32.02400
H  47.18100 33.33700 34.23300
H  46.28800 34.81200 33.98600
H  50.34500 40.21500 27.59900
H  52.10000 39.60900 27.56800
H  51.12700 39.27900 28.98200
H  51.41300 40.61900 25.58900
H  52.60000 40.45500 24.19400
H  53.01100 39.77400 25.75800
H  49.65300 34.21000 22.27100
H  47.29700 32.90200 22.53300
H  47.74900 36.36400 22.60600
H  46.87900 34.91000 21.95000
H  48.27700 35.51700 21.14700
H  49.50700 32.10600 21.92500
H  48.44800 30.90000 22.62600
H  49.78200 30.42700 24.27600
H  50.40200 32.00900 24.66800
H  51.14200 31.20100 23.39300
H  45.87600 28.94500 26.81600
H  45.19800 29.85900 25.43600
H  44.20200 29.68500 26.94600
H  44.30500 33.36600 30.72700
H  45.35900 30.87000 34.20600
H  43.70100 31.58800 34.40700
H  45.13500 32.60900 34.76400

