158

Mg 48.82400 45.73700 43.34900
C  45.42100 45.94000 42.09500
C  48.99200 42.64400 41.70400
C  52.12400 45.86700 43.61500
C  48.55300 49.07900 44.12900
N  47.34000 44.43600 41.99400
C  46.07700 44.72600 41.64800
C  45.52800 43.67300 40.72100
C  46.50600 42.44100 41.00800
C  47.68600 43.16400 41.64200
C  45.90900 41.25800 41.85200
C  45.50300 44.02600 39.25600
C  44.20400 43.80400 38.49400
H  44.24400 42.72000 37.43600
N  50.29600 44.36500 42.95100
C  50.13400 43.15300 42.31800
C  51.45900 42.51800 42.25800
C  52.40100 43.37600 42.98000
C  51.61000 44.56500 43.30700
C  51.71100 41.09800 41.72100
C  53.79900 43.05500 43.39200
O  54.25000 41.91400 43.15300
C  54.65400 43.98900 44.20100
N  50.09500 47.18900 43.95800
C  51.45100 47.06700 43.94000
C  52.17600 48.41800 44.15400
C  51.00900 49.37900 44.30800
C  49.82700 48.49600 44.05900
C  53.21400 48.46900 45.33000
C  51.06400 50.65600 43.35000
C  50.56200 51.92000 44.09200
N  47.26600 47.24400 43.34000
C  47.31400 48.52700 43.72800
C  46.04800 49.08700 43.68100
C  45.25500 48.11200 42.95300
C  46.03600 46.97700 42.84500
C  45.69200 50.50800 43.97400
C  43.95400 47.87900 42.36200
O  43.02900 48.65100 42.03100
C  44.00800 46.47800 41.76600
C  42.96400 45.60800 42.30600
O  42.27200 44.92100 41.58900
O  42.73900 45.72500 43.68500
C  41.66100 44.77600 44.07700
H  49.12700 41.60900 41.38400
H  53.21000 45.97500 43.64000
H  48.49000 50.13000 44.41600
H  44.52700 43.42300 41.07400
H  46.82600 42.05700 40.04000
H  45.83200 40.31000 41.32100
H  44.90500 41.51600 42.19200
H  46.57100 41.09000 42.70200
H  46.30700 43.58100 38.66800
H  45.63500 45.10800 39.25700
H  43.77900 44.79600 38.34600
H  43.52100 43.33700 39.20400
H  52.63600 41.02200 41.14900
H  50.89200 40.66800 41.14500
H  51.78500 40.36300 42.52300
H  55.04500 44.80200 43.58900
H  55.46700 43.39000 44.61100
H  54.23500 44.34600 45.14100
H  52.71200 48.60000 43.22200
H  50.75300 49.63700 45.33600
H  54.04300 49.08900 44.98900
H  53.64300 47.59200 45.81600
H  52.68200 48.94400 46.15400
H  50.35000 50.52800 42.53700
H  52.00500 50.94400 42.87900
H  51.36900 52.57200 44.42400
H  50.10200 51.75700 45.06700
H  49.88500 52.49600 43.46300
H  46.39400 51.08100 44.58000
H  44.81600 50.50500 44.62200
H  45.53300 50.97500 43.00200
H  43.91700 46.42300 40.68100
H  40.64600 45.11200 43.86800
H  41.68500 44.61000 45.15400
H  41.89700 43.76400 43.74700
Mg 41.95200 41.11500 26.48200
C  41.32400 43.46800 29.12500
C  42.86400 38.82300 28.96400
C  43.41100 39.19200 24.07500
C  41.47000 43.64600 24.25600
N  42.12700 41.17500 28.78600
C  41.77900 42.19800 29.64000
C  41.75500 41.74400 31.10700
C  42.48700 40.38700 30.99900
C  42.42300 40.05700 29.48400
C  43.89500 40.42800 31.62100
C  40.39700 41.76900 31.85600
C  40.57000 41.29300 33.37900
H  40.01200 42.23900 34.46000
N  43.02000 39.27500 26.52600
C  43.12000 38.40900 27.61200
C  43.59800 37.09300 27.04600
C  43.77300 37.16000 25.64000
C  43.39700 38.58400 25.32400
C  43.76600 35.85100 27.82800
C  44.31900 36.10100 24.63600
O  44.57500 36.35900 23.47400
C  44.56500 34.66100 25.12600
N  42.39200 41.39200 24.48300
C  42.93800 40.47100 23.66400
C  42.58700 40.71200 22.17600
C  41.76300 42.05100 22.24200
C  41.88800 42.38400 23.76600
C  43.83200 40.72500 21.22600
C  40.20500 41.75900 21.92600
C  39.39700 40.94900 22.94300
N  41.42000 43.14600 26.58300
C  41.36600 44.07500 25.60300
C  41.08100 45.39800 26.06600
C  40.90400 45.18400 27.52300
C  41.23800 43.81300 27.74300
C  40.79900 46.55300 25.23200
C  40.63200 45.88000 28.77500
O  40.35000 47.04000 29.06500
C  40.78700 44.78000 29.84100
C  41.71800 45.32800 30.79900
O  42.91600 45.62900 30.52700
O  41.15600 45.44900 32.03900
C  42.04600 46.19500 32.93900
H  43.19900 38.07800 29.69000
H  43.72300 38.51500 23.27600
H  41.35800 44.35300 23.43200
H  42.20100 42.54000 31.70400
H  41.86900 39.60800 31.44600
H  44.28700 41.38600 31.96200
H  44.52400 40.00300 30.83800
H  43.90900 39.81500 32.52200
H  39.75300 41.08500 31.30300
H  39.99500 42.78000 31.91200
H  41.58000 41.00400 33.67000
H  39.91800 40.42000 33.43000
H  42.93400 35.18700 27.58900
H  43.52400 35.96800 28.88400
H  44.76900 35.43800 27.71900
H  44.71400 33.92600 24.33400
H  43.72300 34.27800 25.70200
H  45.53200 34.73100 25.62400
H  41.95500 39.88200 21.86000
H  42.23100 42.72600 21.52500
H  44.72800 40.59200 21.83300
H  43.82300 41.63500 20.62700
H  43.75700 39.89300 20.52600
H  40.08900 41.23300 20.97900
H  39.74800 42.73600 21.76900
H  38.89700 41.52800 23.72000
H  39.78600 40.01200 23.34100
H  38.64800 40.46400 22.31700
H  40.01700 46.22700 24.54500
H  41.71500 46.84900 24.72000
H  40.46200 47.35800 25.88300
H  39.80100 44.63500 30.28200
H  41.72000 46.01100 33.96300
H  41.92400 47.27600 32.87500
H  43.09100 45.88400 32.94100

