158

Mg 36.02300 49.37600 25.91800
C  36.03400 47.60700 28.85900
C  34.81200 52.13600 27.69900
C  35.53200 50.96600 22.95700
C  36.81500 46.56500 24.15600
N  35.25400 49.78400 28.11000
C  35.71400 48.94500 29.11000
C  35.64800 49.63000 30.44600
C  35.12300 51.05800 30.03400
C  35.03300 51.00500 28.54500
C  33.85800 51.48300 30.82700
C  37.00200 49.62500 31.18900
C  36.87900 49.27500 32.65700
H  35.62400 49.64300 33.46800
N  35.27000 51.25000 25.40200
C  34.82600 52.20900 26.24300
C  34.33000 53.33600 25.50000
C  34.59100 53.04800 24.11700
C  35.13300 51.68200 24.03800
C  33.78600 54.57100 26.21700
C  34.33100 53.98100 22.80400
O  34.48700 53.64700 21.63800
C  34.00200 55.41300 23.13800
N  35.97600 48.80200 23.82200
C  35.99500 49.70500 22.86100
C  36.34600 49.04400 21.49800
C  37.06200 47.75100 21.97100
C  36.59700 47.67600 23.41000
C  35.21800 48.67700 20.44600
C  38.61500 47.83700 21.90600
C  39.40700 46.46100 21.78100
N  36.32100 47.40500 26.34700
C  36.70900 46.38700 25.55900
C  37.03500 45.26200 26.42800
C  36.73400 45.68400 27.71400
C  36.32200 46.99500 27.56700
C  37.31300 43.92600 25.96400
C  36.60700 45.22000 29.06900
O  36.71600 44.12700 29.59100
C  36.35400 46.51900 29.88200
C  35.24600 46.21000 30.83100
O  34.08400 46.11200 30.54500
O  35.76700 45.99300 32.04900
C  34.80100 45.79600 33.17000
H  34.43900 52.96400 28.30400
H  35.49000 51.47800 21.99400
H  37.15800 45.62900 23.70900
H  34.86500 49.05800 30.94400
H  35.83500 51.84700 30.27800
H  34.03300 52.36700 31.44000
H  33.49800 50.78000 31.57800
H  33.08900 51.65300 30.07300
H  37.53400 50.57200 31.09900
H  37.65200 48.94500 30.63800
H  37.75100 49.74000 33.11700
H  37.18400 48.23100 32.59300
H  33.04800 55.13700 25.64800
H  34.59000 55.19600 26.60600
H  33.22500 54.39100 27.13500
H  33.97600 56.11900 22.30800
H  34.81500 55.69000 23.80900
H  33.03500 55.54100 23.62400
H  37.02700 49.69900 20.95500
H  36.64000 46.87700 21.47500
H  34.21100 48.98200 20.73200
H  35.02500 47.62600 20.22900
H  35.46700 49.13200 19.48700
H  39.07800 48.15400 22.84000
H  38.95200 48.41500 21.04500
H  38.77400 45.57700 21.70100
H  40.09800 46.28200 22.60400
H  40.04800 46.42400 20.90000
H  38.32400 44.01300 25.56600
H  36.56800 43.62100 25.22900
H  37.30800 43.18800 26.76500
H  37.30700 46.81200 30.32200
H  35.16800 46.31200 34.05800
H  34.69500 44.75100 33.45900
H  33.86200 46.32700 33.01600
Mg -5.37200 25.56800 25.27500
C  -3.83900 27.08900 28.02000
C  -6.97100 23.45500 27.40400
C  -6.62200 23.91900 22.50300
C  -3.22300 27.30100 23.16200
N  -5.38100 25.30600 27.56100
C  -4.73800 26.11600 28.45900
C  -5.38100 25.92300 29.85500
C  -6.24600 24.67100 29.63400
C  -6.25400 24.44700 28.11000
C  -5.68700 23.33700 30.32100
C  -6.25600 27.16500 30.25700
C  -6.45100 27.47900 31.72600
H  -6.12100 26.42200 32.92900
N  -6.66100 23.97200 25.02500
C  -7.21200 23.26500 26.05300
C  -8.01000 22.18500 25.45900
C  -7.85600 22.25800 24.03600
C  -6.99500 23.43600 23.80200
C  -8.85000 21.20800 26.27000
C  -8.35700 21.37300 22.95900
O  -8.09800 21.46200 21.76100
C  -9.17500 20.14900 23.37300
N  -4.99200 25.58200 23.09700
C  -5.69500 24.87300 22.15200
C  -5.15400 25.18900 20.69800
C  -4.09600 26.37300 21.02000
C  -4.03300 26.42600 22.52600
C  -4.67800 23.93700 19.96000
C  -4.47500 27.77000 20.36700
C  -3.99100 27.86300 18.96300
N  -3.81700 26.92700 25.56500
C  -3.03800 27.56700 24.59900
C  -2.16400 28.53500 25.21600
C  -2.54200 28.39500 26.56800
C  -3.46000 27.40200 26.71900
C  -1.09200 29.38400 24.66000
C  -2.26200 28.92100 27.86700
O  -1.57500 29.86200 28.26800
C  -3.08400 28.05800 28.91400
C  -2.11500 27.45700 29.88700
O  -1.16400 26.76400 29.52400
O  -2.47700 27.80200 31.20800
C  -1.49000 27.36200 32.21100
H  -7.48900 22.71900 28.02300
H  -6.98000 23.50100 21.56000
H  -2.68900 27.98200 22.49600
H  -4.52300 25.73100 30.49900
H  -7.27800 24.82000 29.95300
H  -4.77900 23.59900 30.86400
H  -5.39500 22.55100 29.62400
H  -6.32400 22.91000 31.09500
H  -7.25500 26.97200 29.86500
H  -5.72500 27.98400 29.77200
H  -7.49400 27.76700 31.85900
H  -5.93900 28.40600 31.98300
H  -8.94000 21.47100 27.32400
H  -8.37500 20.22700 26.26800
H  -9.86300 21.12800 25.87700
H  -9.28000 19.47100 22.52600
H  -10.14900 20.52400 23.69000
H  -8.66000 19.73600 24.24100
H  -5.98400 25.63500 20.15100
H  -3.11100 26.08100 20.65500
H  -5.01400 23.93500 18.92300
H  -5.05800 23.00700 20.38500
H  -3.59200 23.98900 20.03400
H  -4.04700 28.58800 20.94700
H  -5.54900 27.94300 20.42500
H  -3.42400 26.99500 18.62700
H  -3.39900 28.76200 18.79600
H  -4.82600 27.88400 18.26200
H  -1.51700 30.34400 24.36800
H  -0.57100 28.88300 23.84400
H  -0.33200 29.68900 25.37900
H  -3.71400 28.75600 29.46600
H  -0.45500 27.27900 31.87900
H  -1.84900 26.37700 32.51000
H  -1.54600 28.07200 33.03500

