158

Mg 16.78300 -2.13800 27.29900
C  16.09600 -0.38100 30.25400
C  18.79400 -4.28000 29.24800
C  18.04400 -3.60300 24.49500
C  15.21500 0.22100 25.40300
N  17.41600 -2.24000 29.55800
C  16.95200 -1.48000 30.57400
C  17.46000 -1.92900 31.94100
C  18.49800 -3.09700 31.51100
C  18.20700 -3.24700 30.01600
C  20.05200 -2.72800 31.84900
C  16.29800 -2.42200 32.87000
C  16.21600 -1.89100 34.35100
H  17.40300 -1.06400 34.95100
N  18.02600 -3.82300 26.95700
C  18.73500 -4.57700 27.85400
C  19.31700 -5.77100 27.19600
C  19.04400 -5.59900 25.83400
C  18.33000 -4.32400 25.68800
C  20.07700 -6.80600 27.97300
C  19.50300 -6.48800 24.71000
O  19.12600 -6.24900 23.59600
C  20.43400 -7.69700 24.95000
N  16.71700 -1.73300 25.26800
C  17.34500 -2.42000 24.31300
C  17.16400 -1.83700 22.88700
C  16.15700 -0.62600 23.17600
C  15.94100 -0.72200 24.70500
C  18.49800 -1.43200 22.23700
C  14.83300 -0.76700 22.43700
C  14.71300 -0.06400 20.97800
N  15.77500 -0.50300 27.70900
C  15.10400 0.33700 26.82600
C  14.35900 1.27500 27.61800
C  14.68400 1.03700 28.97900
C  15.58900 -0.00900 28.97200
C  13.52100 2.42400 27.12900
C  14.48800 1.52500 30.33000
O  13.72800 2.41400 30.70000
C  15.45500 0.62400 31.30600
C  16.53000 1.57900 31.75600
O  17.66300 1.70200 31.23600
O  16.17400 2.24600 32.89400
C  17.06400 3.28500 33.44400
H  19.48000 -4.93300 29.79200
H  18.24400 -4.13300 23.56100
H  14.66600 1.02800 24.91300
H  17.99400 -1.05500 32.31500
H  18.15900 -4.07300 31.86000
H  20.59600 -2.42300 30.95500
H  20.60300 -3.55000 32.30500
H  20.09500 -1.93200 32.59300
H  16.31700 -3.51200 32.87100
H  15.36300 -2.03000 32.46900
H  16.04000 -2.75800 34.98800
H  15.30200 -1.31200 34.47800
H  19.81900 -7.75500 27.50300
H  19.77700 -6.93000 29.01400
H  21.13800 -6.57500 27.89100
H  21.28800 -7.45600 25.58400
H  20.89200 -8.02000 24.01500
H  19.79300 -8.48400 25.34600
H  16.75900 -2.63600 22.26600
H  16.57700 0.33900 22.88900
H  18.45800 -0.37000 21.99500
H  18.80500 -2.02000 21.37200
H  19.30400 -1.61000 22.94900
H  13.95900 -0.48900 23.02700
H  14.76100 -1.84800 22.32300
H  14.51900 -0.89100 20.29500
H  15.64800 0.32800 20.57900
H  13.99900 0.74600 20.83200
H  12.54000 2.16900 27.53000
H  13.56100 2.26000 26.05300
H  13.95500 3.38800 27.39400
H  14.83600 0.18600 32.08900
H  18.06000 3.13900 33.02600
H  17.03200 3.19200 34.53000
H  16.72800 4.26300 33.09900
Mg 47.77200 16.45900 28.70800
C  45.45500 15.80300 31.19000
C  49.41500 18.60700 30.81200
C  49.89600 17.15500 26.21800
C  45.73900 14.77400 26.42200
N  47.41300 17.21200 30.71500
C  46.44700 16.73300 31.61400
C  46.65700 17.21000 33.02600
C  47.78900 18.30700 32.83300
C  48.24700 18.05400 31.39100
C  47.27500 19.81100 32.99100
C  47.11900 16.00700 33.98900
C  46.75400 16.08000 35.47900
H  47.90000 16.03700 36.52000
N  49.41700 17.75400 28.54900
C  49.98500 18.54600 29.55200
C  51.15500 19.17900 29.07100
C  51.39800 18.62800 27.76000
C  50.21300 17.78600 27.47100
C  52.04800 20.18700 29.85600
C  52.59700 18.75600 26.83900
O  52.68000 18.20100 25.73000
C  53.76200 19.58200 27.29900
N  47.76000 16.09600 26.54700
C  48.83500 16.37400 25.78100
C  48.68500 15.83700 24.34800
C  47.39500 14.92000 24.44600
C  46.94400 15.19900 25.85900
C  48.49800 17.03400 23.35800
C  47.55100 13.48100 24.02900
C  47.47400 12.33900 25.04300
N  46.00500 15.52900 28.74200
C  45.26800 14.88600 27.73100
C  44.01800 14.35500 28.30500
C  44.04800 14.66900 29.67500
C  45.27100 15.31200 29.87700
C  42.90400 13.63100 27.53100
C  43.27600 14.64600 30.85800
O  42.14600 14.37300 31.11400
C  44.27800 15.32700 31.93200
C  43.51300 16.33000 32.70600
O  43.16400 17.36700 32.25400
O  43.40600 15.91900 34.04400
C  42.50900 16.83300 34.83900
H  49.89700 19.18800 31.60200
H  50.70300 17.15900 25.48200
H  45.09400 14.20000 25.75400
H  45.79100 17.79700 33.33300
H  48.62200 18.29600 33.53500
H  46.19400 19.94500 32.98700
H  47.67100 20.36600 32.14000
H  47.78200 20.13500 33.90000
H  48.20600 15.99900 33.92200
H  46.73600 15.04700 33.64100
H  46.15000 15.20700 35.72700
H  46.13500 16.97600 35.51800
H  51.39000 20.59800 30.62100
H  52.24600 20.97000 29.12500
H  52.88300 19.60300 30.24600
H  53.50600 20.64000 27.34000
H  54.55800 19.38700 26.58100
H  54.05900 19.23800 28.29000
H  49.60500 15.33900 24.04200
H  46.54700 15.30400 23.87900
H  49.06200 16.80600 22.45300
H  48.87100 17.96700 23.78000
H  47.46200 17.05700 23.01900
H  48.49700 13.39700 23.49400
H  46.73400 13.20600 23.36300
H  46.93700 12.64700 25.94000
H  48.45000 11.97300 25.36000
H  46.86900 11.47100 24.77700
H  42.82200 12.62800 27.94800
H  43.17400 13.35200 26.51200
H  41.92700 14.11500 27.55200
H  44.65800 14.61600 32.66600
H  42.50900 16.41600 35.84600
H  41.46300 16.82500 34.53100
H  42.97500 17.81500 34.91200

