158

Mg 1.74600 -1.71300 44.02200
C  5.02100 -0.76900 43.70700
C  0.75500 1.11000 42.38400
C  -1.42600 -2.73800 44.36700
C  2.92000 -4.92700 45.08400
N  2.82100 -0.19300 42.90100
C  4.11900 0.16200 43.15500
C  4.41800 1.41000 42.42400
C  3.07400 2.13000 42.03900
C  2.11400 0.92800 42.39100
C  2.72400 3.51300 42.70500
C  5.41200 1.20300 41.24000
C  6.46700 2.32200 41.15500
H  6.36300 3.19600 39.90400
N  -0.07700 -0.79300 43.65800
C  -0.28100 0.30700 42.82300
C  -1.64500 0.50500 42.70200
C  -2.35900 -0.56700 43.34700
C  -1.28200 -1.45200 43.80900
C  -2.20000 1.72600 42.01800
C  -3.83400 -0.69100 43.53600
O  -4.63900 0.14400 43.13100
C  -4.54300 -1.97100 44.07400
N  0.92000 -3.55900 44.73900
C  -0.48100 -3.62800 44.81100
C  -0.85800 -5.07000 45.20300
C  0.46900 -5.81900 45.34400
C  1.52300 -4.72700 45.06600
C  -1.54100 -4.92600 46.60700
C  0.67400 -7.03800 44.43300
C  1.21700 -8.30700 45.03900
N  3.59500 -2.79000 44.18100
C  3.87800 -3.99000 44.80500
C  5.32500 -4.05900 44.92500
C  5.85700 -2.82200 44.48200
C  4.73800 -2.06800 44.12600
C  6.07300 -5.33800 45.40300
C  6.99300 -1.96300 44.41300
O  8.13300 -2.23100 44.75000
C  6.47100 -0.53700 43.87700
C  6.86200 0.59600 44.79700
O  6.19100 1.10100 45.67400
O  8.04000 1.09900 44.28800
C  8.14800 2.58600 44.43600
H  0.43900 2.06400 41.95700
H  -2.41400 -3.20100 44.33800
H  3.24300 -5.91800 45.41200
H  4.97900 1.94400 43.19100
H  3.05300 2.38800 40.98000
H  2.36700 4.16500 41.90800
H  3.58500 3.90300 43.24700
H  1.89200 3.50600 43.40800
H  4.75400 1.29500 40.37500
H  6.01800 0.29800 41.26900
H  7.41700 1.79100 41.09200
H  6.57100 2.95300 42.03800
H  -1.62500 2.07800 41.16200
H  -1.95100 2.57800 42.65100
H  -3.25900 1.88600 41.81600
H  -5.62300 -1.86200 43.97300
H  -4.11000 -2.11200 45.06400
H  -4.27500 -2.88400 43.54100
H  -1.54300 -5.58500 44.52900
H  0.52800 -6.17600 46.37300
H  -1.66500 -5.92700 47.02200
H  -2.54700 -4.50500 46.62700
H  -0.88300 -4.31800 47.22600
H  1.34900 -6.84400 43.59900
H  -0.22800 -7.27200 43.86900
H  0.57900 -9.11400 44.67900
H  1.10600 -8.32700 46.12300
H  2.24800 -8.52000 44.75700
H  5.54900 -5.83200 46.22100
H  7.05300 -5.01600 45.75500
H  6.16500 -6.04900 44.58200
H  6.92400 -0.45300 42.88900
H  7.20900 3.13900 44.47000
H  8.71600 3.06800 43.64100
H  8.69100 2.72500 45.37100
Mg 54.97100 24.13300 45.35300
C  52.20800 26.45000 44.87400
C  52.92900 21.77900 44.08400
C  57.61600 22.43900 45.05000
C  56.76700 26.99500 46.52500
N  52.87900 24.14800 44.64600
C  51.99600 25.18600 44.40400
C  50.66000 24.63500 43.77700
C  50.76700 23.10100 43.99200
C  52.31300 22.97400 44.27400
C  49.97600 22.55800 45.14000
C  50.46300 25.09600 42.27200
C  49.01200 25.34500 41.87400
H  48.49900 24.84100 40.52600
N  55.26000 22.33800 44.58000
C  54.33300 21.48300 44.13700
C  54.98100 20.32500 43.66000
C  56.39300 20.57800 43.70400
C  56.48300 21.81700 44.49100
C  54.32200 19.03300 43.13700
C  57.53600 19.63500 43.17400
O  57.12700 18.62100 42.60500
C  58.97200 19.90900 43.35400
N  56.97000 24.71700 45.77000
C  57.86300 23.68300 45.60200
C  59.29700 24.18200 46.14300
C  58.93700 25.64800 46.63900
C  57.46900 25.80500 46.27300
C  60.14300 23.29200 47.15700
C  59.71200 26.78700 45.87400
C  60.55400 27.70100 46.74400
N  54.51700 26.21400 45.90100
C  55.40700 27.22100 46.33000
C  54.69300 28.47500 46.46400
C  53.44300 28.16600 45.92700
C  53.40100 26.83900 45.55400
C  55.22500 29.80200 46.86300
C  52.20600 28.79900 45.51000
O  51.80400 29.97800 45.60400
C  51.40900 27.68900 44.74500
C  51.39900 28.12400 43.34600
O  52.44600 28.34300 42.66800
O  50.12100 28.41400 42.93500
C  50.04800 28.92300 41.53800
H  52.32500 20.98500 43.63900
H  58.45500 21.75800 44.89700
H  57.31300 27.81700 46.99200
H  49.88300 25.10500 44.37900
H  50.56700 22.60000 43.04500
H  50.60900 22.15400 45.93100
H  49.40100 21.75200 44.68400
H  49.33200 23.29800 45.61400
H  50.92900 24.39300 41.58100
H  50.99400 26.04400 42.18000
H  48.92900 26.42800 41.78800
H  48.36700 24.83100 42.58800
H  54.79600 18.11600 43.48600
H  54.49900 18.92000 42.06800
H  53.24000 19.03700 43.26300
H  59.30500 20.92800 43.15500
H  59.57600 19.28500 42.69600
H  59.28800 19.69700 44.37600
H  59.91500 24.40100 45.27300
H  59.18000 25.68800 47.70000
H  59.96200 22.21700 47.13100
H  60.09400 23.80200 48.11900
H  61.16300 23.54000 46.86500
H  59.09200 27.47300 45.29600
H  60.41200 26.35900 45.15700
H  60.49900 28.73500 46.40400
H  61.62000 27.47600 46.77700
H  60.19000 27.76500 47.76900
H  54.76200 30.21200 47.76000
H  54.87600 30.57400 46.17700
H  56.30900 29.73000 46.76800
H  50.39000 27.57400 45.11600
H  48.99400 29.02200 41.27600
H  50.59200 28.29100 40.83500
H  50.37800 29.96100 41.56500

