158

Mg 0.20600 7.40700 24.71900
C  0.92300 9.29900 27.58800
C  0.70800 4.56800 26.60700
C  0.03600 5.61500 21.84100
C  0.46200 10.42300 22.77700
N  0.80600 7.02700 26.79100
C  0.78000 7.89900 27.83800
C  0.68300 7.20700 29.17900
C  0.91900 5.76400 28.79600
C  0.73100 5.74800 27.29600
C  2.41600 5.18000 29.17600
C  -0.66600 7.51400 29.90900
C  -0.65500 7.58100 31.47200
H  0.63500 7.25500 32.38100
N  0.46200 5.36200 24.32700
C  0.60400 4.32600 25.21700
C  0.53100 3.07900 24.52500
C  0.30100 3.37500 23.12500
C  0.32200 4.82000 23.04100
C  0.59800 1.75500 25.28100
C  0.17100 2.40000 21.98600
O  -0.09000 2.71900 20.84300
C  0.12200 0.94100 22.24200
N  0.22500 7.98300 22.57300
C  0.08100 6.97800 21.61200
C  0.25300 7.73100 20.27400
C  0.05600 9.22400 20.57000
C  0.21400 9.26600 22.06500
C  1.55600 7.28400 19.49200
C  -1.18700 10.04800 20.11200
C  -2.38700 10.38500 21.03600
N  0.67600 9.41600 25.07000
C  0.66500 10.51500 24.22600
C  0.97600 11.72300 24.99900
C  1.01800 11.23600 26.32500
C  0.83200 9.86300 26.33000
C  1.00600 13.16200 24.47200
C  1.28500 11.63600 27.65100
O  1.63500 12.76500 28.03900
C  1.03200 10.34200 28.60700
C  2.19900 10.33200 29.53900
O  3.25200 9.71400 29.39900
O  1.87200 11.16300 30.63600
C  3.00100 11.28800 31.58100
H  0.50500 3.67900 27.20900
H  0.08800 5.04500 20.91100
H  0.41100 11.40400 22.30100
H  1.48900 7.61700 29.78800
H  0.17400 5.09500 29.22600
H  2.98100 5.93900 29.71700
H  3.00300 4.86900 28.31200
H  2.19500 4.35900 29.85700
H  -1.37600 6.71800 29.68400
H  -1.04700 8.44400 29.48500
H  -1.37100 6.79800 31.72100
H  -1.23500 8.45200 31.77700
H  -0.44500 1.54400 25.51400
H  1.09900 1.96900 26.22600
H  1.25600 0.98300 24.88300
H  1.12500 0.71000 22.60100
H  0.04800 0.28500 21.37500
H  -0.75000 0.70800 22.85400
H  -0.58900 7.37700 19.68000
H  0.87600 9.82900 20.18400
H  1.27800 6.81000 18.55000
H  2.18800 6.59500 20.05200
H  2.22500 8.14400 19.52700
H  -1.54200 9.56600 19.20100
H  -0.73700 10.99700 19.81800
H  -2.50000 11.45100 20.84200
H  -2.10900 10.25000 22.08100
H  -3.18000 9.74400 20.65100
H  0.07500 13.38600 23.95100
H  1.87600 13.17600 23.81500
H  1.16600 13.93400 25.22400
H  0.11900 10.60100 29.14500
H  2.84000 10.41200 32.20900
H  2.89800 12.15600 32.23300
H  3.95900 11.17300 31.07400
Mg 47.95300 24.99000 29.76100
C  48.53200 27.47000 32.26000
C  47.04100 22.73900 32.24900
C  47.72600 22.52000 27.50900
C  49.36300 27.19700 27.38100
N  47.67100 25.17200 31.95500
C  47.86100 26.25900 32.75100
C  47.38200 25.99100 34.09800
C  47.00100 24.41200 34.18200
C  47.29500 24.08200 32.72400
C  47.80200 23.59500 35.16500
C  46.33500 26.98700 34.66400
C  46.29200 27.51800 36.10600
H  47.01100 26.97100 37.34300
N  47.37600 22.91500 29.87100
C  47.02400 22.22700 30.94800
C  46.79400 20.82500 30.60600
C  46.93700 20.73400 29.23700
C  47.41200 22.06400 28.80800
C  46.39600 19.71800 31.59400
C  46.73400 19.55700 28.30300
O  46.77200 19.63900 27.08000
C  46.25400 18.30500 28.86000
N  48.61900 24.86200 27.72400
C  48.21700 23.79800 27.00000
C  48.47500 24.08000 25.45800
C  48.91400 25.60200 25.45700
C  49.01000 25.91000 26.87600
C  49.55600 23.23800 24.88100
C  47.88900 26.60800 24.77900
C  46.46300 26.75500 25.36400
N  48.81700 26.94800 29.72500
C  49.43800 27.69400 28.73200
C  49.85300 28.94800 29.25900
C  49.39400 28.90600 30.58400
C  48.87300 27.64200 30.86200
C  50.57800 30.00800 28.50700
C  49.47700 29.71300 31.82700
O  49.89100 30.79100 32.06500
C  48.88000 28.78500 32.99600
C  49.98500 28.55100 33.99200
O  50.87800 27.69900 33.88800
O  49.89900 29.41200 35.03200
C  51.01000 29.29400 36.04700
H  46.69600 22.00500 32.98000
H  47.67300 21.65100 26.85000
H  49.65500 27.95900 26.65600
H  48.31300 26.16400 34.63800
H  45.92900 24.30800 34.35000
H  48.56300 23.05700 34.59900
H  47.11700 22.93800 35.70100
H  48.38900 24.16800 35.88200
H  45.32700 26.58900 34.54300
H  46.30300 27.80400 33.94200
H  45.26200 27.44200 36.45500
H  46.60200 28.55900 36.02000
H  47.23200 19.04200 31.41400
H  45.48300 19.21200 31.28300
H  46.33600 19.99500 32.64700
H  47.02600 17.80800 29.44800
H  46.02500 17.62100 28.04400
H  45.28700 18.49900 29.32400
H  47.52500 23.98400 24.93400
H  49.90400 25.68600 25.00800
H  50.44300 23.79800 24.58500
H  49.22900 22.73400 23.97200
H  49.94700 22.52600 25.60800
H  47.80100 26.31400 23.73300
H  48.31600 27.60500 24.67000
H  46.44400 26.52200 26.42900
H  45.78000 26.03200 24.91600
H  46.07200 27.75600 25.18600
H  50.96600 29.54700 27.59800
H  51.45000 30.42100 29.01400
H  49.93700 30.83300 28.19600
H  47.97800 29.28700 33.34500
H  50.76600 28.47100 36.71900
H  50.89900 30.24300 36.57100
H  52.05500 29.16000 35.76700

