158

Mg 35.49000 0.79400 29.91800
C  33.28100 2.15700 32.18700
C  37.92000 1.15500 32.39100
C  37.78800 -0.36900 27.77100
C  33.16600 0.91300 27.41700
N  35.57800 1.52000 32.03700
C  34.48500 1.92400 32.76500
C  34.82800 2.11800 34.23400
C  36.37000 2.14900 34.14700
C  36.66100 1.65800 32.72100
C  37.04600 3.40000 34.53500
C  34.15700 0.92800 34.89500
C  33.49700 1.30200 36.18500
H  34.24400 2.22100 37.15500
N  37.55400 0.47400 29.97600
C  38.37900 0.67500 31.10000
C  39.67100 0.14700 30.84700
C  39.70000 -0.19600 29.44000
C  38.31600 -0.04500 28.96300
C  40.73100 -0.22200 31.85800
C  40.83100 -0.73800 28.57100
O  40.63500 -1.13400 27.44200
C  42.27800 -0.85900 29.15900
N  35.45200 0.32800 27.89300
C  36.53500 -0.25800 27.22500
C  36.20100 -0.51500 25.76100
C  34.66900 -0.28600 25.71100
C  34.39500 0.30700 27.15200
C  37.06100 0.46800 24.89400
C  33.69500 -1.37300 25.27900
C  33.31300 -2.39900 26.30300
N  33.58200 1.41800 29.70600
C  32.69400 1.34500 28.67200
C  31.50100 1.99500 29.11500
C  31.61400 2.24500 30.53300
C  32.95800 1.93700 30.85200
C  30.31300 2.42800 28.20300
C  30.94800 2.88100 31.66100
O  29.83400 3.47300 31.73500
C  31.99900 2.67300 32.87700
C  32.22600 4.00900 33.54500
O  32.79800 5.00500 33.08200
O  31.50800 4.02600 34.69600
C  31.63800 5.25900 35.46100
H  38.67500 1.29700 33.16700
H  38.49800 -0.64200 26.98700
H  32.43600 0.90800 26.60500
H  34.41300 3.05500 34.60600
H  36.71700 1.32200 34.76700
H  37.75600 3.22200 35.34200
H  36.27400 4.02300 34.98600
H  37.34000 3.90600 33.61500
H  34.86900 0.17100 35.22500
H  33.54200 0.29300 34.25700
H  33.25600 0.33700 36.63200
H  32.50900 1.69700 35.94600
H  40.64700 -1.28800 32.06900
H  40.76800 0.38300 32.76400
H  41.73300 0.01300 31.50000
H  42.53400 0.11100 29.58500
H  42.87200 -1.11100 28.28000
H  42.34300 -1.76900 29.75600
H  36.44300 -1.56900 25.62300
H  34.48600 0.57900 25.07400
H  38.13900 0.45000 25.05500
H  36.67300 1.47900 25.01600
H  36.78000 0.21300 23.87200
H  34.02300 -1.88800 24.37600
H  32.75900 -0.88600 25.00300
H  33.79300 -2.26900 27.27300
H  33.48100 -3.39100 25.88400
H  32.24300 -2.29700 26.48500
H  29.69700 3.12300 28.77400
H  29.86400 1.52100 27.79900
H  30.81900 2.90200 27.36300
H  31.69000 1.93200 33.61500
H  32.68000 5.22700 35.77800
H  30.96200 5.22600 36.31600
H  31.40000 6.11600 34.83100
Mg -11.05800 17.17500 43.02100
C  -7.67000 17.88900 43.35900
C  -11.58000 20.45000 42.44600
C  -14.07300 16.26000 41.85100
C  -10.15800 13.67700 42.87300
N  -9.73200 18.89300 42.87900
C  -8.39900 19.02400 43.18900
C  -7.89900 20.43400 42.98800
C  -9.27000 21.24000 43.21800
C  -10.28600 20.15300 42.89800
C  -9.46200 21.76100 44.64600
C  -7.18100 20.69100 41.65700
C  -5.63200 20.98300 41.75100
H  -5.15900 21.57100 40.44900
N  -12.69500 18.21800 42.35500
C  -12.68100 19.55100 42.17200
C  -13.97500 19.92800 41.69700
C  -14.77300 18.72800 41.63700
C  -13.82900 17.67600 41.92000
C  -14.45500 21.37700 41.49600
C  -16.30900 18.60600 41.14400
O  -16.92100 19.61800 40.76400
C  -16.85700 17.27500 40.81600
N  -11.95800 15.22400 42.34400
C  -13.29000 15.17600 42.14300
C  -13.74900 13.68200 42.09200
C  -12.42000 12.96000 41.95500
C  -11.40700 14.03500 42.44300
C  -14.60700 13.28300 43.37700
C  -12.03600 12.50500 40.45400
C  -12.30500 11.05800 39.94200
N  -9.36500 15.99400 43.28100
C  -9.14700 14.60700 43.28200
C  -7.73000 14.30200 43.65900
C  -7.13100 15.56300 43.63600
C  -8.14600 16.59300 43.47100
C  -7.04200 12.99100 43.83000
C  -5.83400 16.18400 43.72900
O  -4.66500 15.80500 43.82800
C  -6.21000 17.77000 43.76900
C  -5.90800 18.40900 45.06900
O  -6.50900 18.24500 46.15400
O  -4.92800 19.27600 44.87000
C  -4.56200 19.96700 46.05100
H  -11.71100 21.51800 42.26100
H  -15.10200 15.89600 41.80700
H  -9.94100 12.60800 42.84000
H  -7.23700 20.67200 43.82000
H  -9.28700 22.08400 42.52900
H  -9.94200 22.74000 44.63400
H  -8.54000 21.99200 45.18000
H  -10.02200 21.16100 45.36200
H  -7.64700 21.55300 41.18000
H  -7.31900 19.79600 41.05000
H  -5.05900 20.06000 41.84200
H  -5.27900 21.61900 42.56200
H  -13.62500 22.02900 41.76600
H  -15.36500 21.62800 42.04100
H  -14.67900 21.46600 40.43300
H  -16.31500 16.69300 40.07000
H  -17.88300 17.37900 40.46100
H  -16.95900 16.61300 41.67600
H  -14.29900 13.47200 41.17500
H  -12.27100 12.10900 42.62000
H  -13.99100 12.62500 43.99000
H  -15.47600 12.66800 43.14300
H  -14.84100 14.22800 43.86800
H  -11.03500 12.84000 40.18500
H  -12.73700 13.03200 39.80700
H  -11.44000 10.67400 39.40300
H  -13.16900 11.06400 39.27700
H  -12.50300 10.43400 40.81400
H  -7.61000 12.14600 43.43900
H  -6.96000 12.84200 44.90600
H  -6.06100 12.89000 43.36500
H  -5.62900 18.21500 42.96100
H  -3.51500 20.24200 45.92500
H  -4.60600 19.43900 47.00400
H  -5.27100 20.79200 46.12500

