158

Mg 53.61200 23.70000 44.74200
C  51.10500 25.81700 43.75700
C  52.01700 21.10800 43.05800
C  56.48600 21.69000 45.14300
C  55.45700 26.38500 45.79100
N  51.98000 23.56200 43.34600
C  51.02600 24.56200 43.13800
C  50.14100 24.17000 41.98900
C  50.07600 22.61900 42.08500
C  51.39700 22.35900 42.91800
C  48.85500 21.98900 42.81500
C  50.71500 24.60800 40.57400
C  49.71100 24.51500 39.43800
H  50.15600 25.02900 38.04600
N  54.15000 21.65300 44.39400
C  53.31600 20.77100 43.60600
C  54.00800 19.52500 43.52900
C  55.26900 19.63300 44.26400
C  55.32900 21.03100 44.65600
C  53.36700 18.21100 42.84400
C  56.30000 18.46400 44.36000
O  56.07600 17.41300 43.88100
C  57.49400 18.54600 45.25600
N  55.71200 23.98600 45.47100
C  56.69000 23.05700 45.48000
C  58.04700 23.68800 45.88800
C  57.67400 25.23300 46.06400
C  56.19100 25.21500 45.71200
C  58.63800 22.98100 47.09200
C  58.47200 26.14600 45.02700
C  60.02800 25.97700 44.71100
N  53.29200 25.59000 45.02300
C  54.11100 26.57800 45.48600
C  53.30500 27.84400 45.60100
C  52.12500 27.57600 45.03300
C  52.20000 26.21400 44.59600
C  53.78300 29.02800 46.35200
C  50.88800 28.10700 44.58900
O  50.42300 29.21400 44.76300
C  50.15400 26.94500 43.75800
C  49.69300 27.38100 42.39500
O  50.38200 27.89100 41.53900
O  48.34500 27.19600 42.40000
C  47.73800 27.73700 41.18400
H  51.47800 20.28300 42.59000
H  57.40300 21.09800 45.17300
H  56.05500 27.25400 46.07400
H  49.12000 24.53600 42.09200
H  50.15900 22.19200 41.08500
H  48.04400 22.69000 43.01000
H  49.32500 21.61100 43.72300
H  48.42400 21.15900 42.25700
H  51.55800 23.95400 40.35000
H  51.06600 25.64000 40.57600
H  49.02100 25.32700 39.66400
H  49.07000 23.63700 39.51800
H  52.75200 17.65800 43.55400
H  54.07700 17.63800 42.24800
H  52.62900 18.52700 42.10600
H  57.55600 19.20000 46.12600
H  58.28200 18.60300 44.50600
H  57.73900 17.56300 45.65900
H  58.65500 23.66000 44.98400
H  57.85200 25.66200 47.05100
H  58.43100 21.91200 47.13700
H  58.33600 23.41800 48.04400
H  59.71600 23.14200 47.11100
H  58.31500 27.16400 45.38300
H  57.92900 26.11200 44.08300
H  60.72400 26.80800 44.83000
H  60.13300 25.71200 43.65900
H  60.41700 25.08500 45.20200
H  54.83900 29.25400 46.20700
H  53.60100 28.85100 47.41200
H  53.23000 29.90200 46.00700
H  49.32700 26.62600 44.39100
H  47.84800 28.82100 41.17300
H  46.76300 27.30800 41.41500
H  48.13400 27.27800 40.27700
Mg 48.27600 44.60900 43.80500
C  44.79700 44.25300 43.39300
C  48.57000 41.14300 43.34800
C  51.59100 44.95300 43.49600
C  47.81400 48.06400 43.78000
N  46.80600 42.87700 43.36600
C  45.43900 42.98600 43.46500
C  44.74500 41.59400 43.38300
C  45.97000 40.63500 43.77800
C  47.22300 41.58000 43.54800
C  46.02100 40.05900 45.17900
C  44.11400 41.08700 42.14300
C  44.32900 41.81900 40.72300
H  45.07800 41.03900 39.67500
N  49.81500 43.25300 43.37400
C  49.74800 41.86200 43.39000
C  51.07200 41.29100 43.25200
C  51.99400 42.40500 43.24900
C  51.11200 43.61700 43.39100
C  51.43600 39.89100 42.96700
C  53.47900 42.28200 42.99100
O  54.03000 41.24100 42.95100
C  54.42100 43.44700 42.87900
N  49.52100 46.20500 43.76100
C  50.89100 46.11800 43.78000
C  51.49700 47.51400 43.79900
C  50.37200 48.51100 44.02500
C  49.14100 47.57100 43.80000
C  52.72600 47.75700 44.67200
C  50.38400 49.88100 43.20200
C  49.79000 51.06300 43.94200
N  46.68100 45.96500 43.66500
C  46.65300 47.32400 43.74200
C  45.29300 47.82600 43.59600
C  44.56400 46.65100 43.44500
C  45.43300 45.51100 43.49400
C  44.90700 49.29900 43.73700
C  43.20900 46.11200 43.39600
O  42.17000 46.70300 43.35800
C  43.30600 44.58300 43.40900
C  42.62700 44.06400 44.66300
O  41.60800 43.37200 44.69900
O  43.23700 44.50600 45.79600
C  42.88700 43.86200 47.04700
H  48.63400 40.05400 43.30800
H  52.67700 45.05800 43.48000
H  47.81100 49.14000 43.96800
H  44.05200 41.66700 44.22100
H  46.08000 39.76100 43.13500
H  45.29000 40.56200 45.81200
H  46.99200 40.15800 45.66300
H  45.66300 39.03400 45.07900
H  43.04800 41.04300 42.36500
H  44.38900 40.06300 41.89100
H  44.93200 42.69500 40.96200
H  43.40400 42.15900 40.25800
H  52.05300 40.00300 42.07600
H  50.56800 39.28800 42.70200
H  51.85100 39.42600 43.86200
H  53.90600 44.13300 42.20600
H  55.26600 43.21100 42.23200
H  54.58600 43.80100 43.89700
H  51.92400 47.64800 42.80500
H  50.43300 48.69400 45.09800
H  53.63600 47.64700 44.08200
H  52.80900 47.26600 45.64100
H  52.75900 48.83100 44.85500
H  49.67500 49.91300 42.37400
H  51.33400 50.11200 42.72000
H  49.56900 50.82900 44.98400
H  48.83900 51.33200 43.48300
H  50.43500 51.93100 43.80900
H  44.93900 49.74800 42.74500
H  45.63800 49.71600 44.43000
H  43.90800 49.27500 44.17200
H  42.61300 44.20000 42.66000
H  43.75500 43.82400 47.70600
H  42.50700 42.84000 47.03900
H  42.15800 44.47100 47.58200

