158

Mg 1.69500 7.10200 25.23400
C  2.27800 9.23700 27.96900
C  2.02000 4.40300 27.37500
C  1.63600 5.23100 22.65300
C  1.84400 10.05500 23.18700
N  2.25900 6.86900 27.39900
C  2.24400 7.87100 28.34700
C  2.06100 7.32500 29.77200
C  2.17800 5.78100 29.60500
C  2.13800 5.68300 28.03600
C  3.45800 5.15600 30.29800
C  0.77200 7.84300 30.40400
C  0.83900 7.91100 31.96100
H  2.08200 7.35500 32.71700
N  1.59300 5.03100 25.09000
C  1.77400 4.08300 26.05200
C  1.82900 2.82200 25.47600
C  1.69200 3.00500 24.07100
C  1.62000 4.43900 23.82000
C  1.89000 1.51400 26.29800
C  1.48900 2.01700 22.92300
O  1.02400 2.29400 21.85600
C  1.56600 0.51200 23.27800
N  1.73600 7.57500 23.25600
C  1.60800 6.65400 22.36900
C  1.67500 7.16900 20.96700
C  1.49600 8.69400 21.16900
C  1.68000 8.78700 22.64300
C  2.96300 6.65900 20.09200
C  0.09500 9.22700 20.66500
C  -0.03700 9.36500 19.08400
N  1.99600 9.31500 25.44800
C  2.02000 10.31600 24.53100
C  2.17400 11.58400 25.23600
C  2.23000 11.26200 26.62700
C  2.20100 9.83700 26.63700
C  2.29000 12.93900 24.66600
C  2.43700 11.76800 27.95100
O  2.77800 12.86800 28.29300
C  2.24000 10.45800 28.97200
C  3.38400 10.56600 29.94600
O  4.53300 10.09600 29.80600
O  3.06400 11.36300 31.02000
C  4.12200 11.65900 32.01100
H  1.86500 3.52500 28.00500
H  1.76400 4.67400 21.72300
H  1.67900 10.91500 22.53600
H  2.88100 7.79600 30.31400
H  1.38200 5.19100 30.05900
H  3.91500 5.83100 31.02100
H  4.23300 4.88400 29.58100
H  3.12900 4.23400 30.77800
H  -0.15900 7.28800 30.28100
H  0.53000 8.82000 29.98600
H  -0.11900 7.62400 32.39500
H  0.73900 8.98100 32.13900
H  2.72100 0.91300 25.92700
H  0.98100 0.97500 26.03300
H  2.01600 1.63900 27.37400
H  0.69400 0.37300 23.91800
H  2.44000 0.31000 23.89700
H  1.56600 -0.13500 22.40100
H  0.87400 6.75000 20.35800
H  2.23100 9.24000 20.57700
H  3.79500 6.59600 20.79300
H  3.15600 7.44500 19.36100
H  2.92900 5.73000 19.52300
H  -0.00100 10.27700 20.94100
H  -0.69700 8.67200 21.16800
H  -0.53500 8.45900 18.74000
H  0.93000 9.35600 18.58000
H  -0.61200 10.22600 18.74200
H  1.52400 13.50000 25.20100
H  2.04100 12.92600 23.60500
H  3.31400 13.28600 24.80700
H  1.30400 10.69000 29.48000
H  3.62400 11.61500 32.98000
H  4.65800 12.60700 31.96900
H  4.85100 10.86900 32.19500
Mg -1.03600 34.50300 26.59400
C  -2.26600 32.93500 29.44000
C  0.64200 36.66900 28.70900
C  -0.53500 36.58300 24.01300
C  -3.11400 32.49500 24.60400
N  -0.86000 34.71600 28.91200
C  -1.43100 33.99700 29.86900
C  -0.98700 34.44500 31.28300
C  0.01600 35.61100 30.97800
C  -0.03000 35.69400 29.44900
C  -0.36200 36.82000 31.81600
C  -0.37800 33.19300 32.02600
C  0.51600 33.60900 33.18300
H  0.28600 32.94100 34.56300
N  -0.09500 36.32900 26.41900
C  0.63700 37.05900 27.35600
C  1.28900 38.25400 26.73500
C  0.80700 38.32700 25.37300
C  -0.03400 37.09000 25.23200
C  2.34500 39.10400 27.53800
C  1.16000 39.36100 24.31900
O  0.64200 39.41500 23.20600
C  2.28400 40.43300 24.59900
N  -1.82100 34.60100 24.47900
C  -1.19600 35.44000 23.61700
C  -1.66900 35.10100 22.22500
C  -2.35400 33.68800 22.36200
C  -2.50100 33.59300 23.90400
C  -2.36200 36.26100 21.38800
C  -1.57500 32.48100 21.79400
C  -0.05600 32.30200 22.01800
N  -2.34200 32.97300 26.90100
C  -3.09100 32.20400 25.97600
C  -3.84100 31.28200 26.68400
C  -3.59000 31.49600 28.02500
C  -2.58900 32.51200 28.11400
C  -4.79800 30.30100 26.13400
C  -3.84700 31.03300 29.39900
O  -4.58700 30.11100 29.79100
C  -3.01700 31.98500 30.39100
C  -4.00700 32.63200 31.30600
O  -4.67800 33.60100 31.04100
O  -4.09500 31.96200 32.55100
C  -4.77200 32.68900 33.63000
H  1.38100 37.16800 29.33900
H  -0.23100 37.21300 23.17400
H  -3.71100 31.91800 23.89500
H  -1.92700 34.69900 31.77200
H  0.96500 35.23600 31.36100
H  -0.90100 37.55600 31.21900
H  0.49500 37.24200 32.33900
H  -0.92100 36.51300 32.70000
H  0.06800 32.47600 31.33600
H  -1.23400 32.72600 32.51200
H  0.48500 34.68900 33.32100
H  1.54800 33.37200 32.92400
H  3.08000 39.46800 26.82000
H  2.83800 38.47400 28.27800
H  2.04700 40.03200 28.02500
H  2.08900 41.03900 25.48400
H  2.29000 41.14400 23.77200
H  3.26200 39.97400 24.74300
H  -0.72700 34.92000 21.70800
H  -3.32900 33.65900 21.87400
H  -1.69000 36.85200 20.76600
H  -2.79100 36.96400 22.10100
H  -3.15900 35.77900 20.82200
H  -1.81100 32.54400 20.73200
H  -2.08400 31.58000 22.13600
H  0.29400 32.80500 22.92000
H  0.40000 32.74300 21.13200
H  0.16700 31.23600 21.97500
H  -5.20400 30.65700 25.18700
H  -5.54400 30.15700 26.91500
H  -4.34300 29.32000 25.99700
H  -2.34600 31.36500 30.98500
H  -4.02900 33.27800 34.16800
H  -5.36700 31.99600 34.22400
H  -5.59000 33.29800 33.24500

