158

Mg 47.76000 25.33600 29.55700
C  48.76900 27.40200 31.97500
C  46.41600 23.25500 31.98300
C  46.93600 22.95000 27.19100
C  49.38600 27.21600 27.15600
N  47.56400 25.39800 31.69700
C  47.98600 26.39100 32.48700
C  47.78800 26.11600 33.92700
C  47.06000 24.74200 33.90100
C  46.97900 24.42700 32.43500
C  47.84500 23.61300 34.75400
C  46.93500 27.20500 34.79500
C  47.30700 27.25600 36.33300
H  46.16700 26.97700 37.30300
N  46.56200 23.40400 29.52900
C  46.11500 22.75500 30.64600
C  45.49300 21.48600 30.26600
C  45.60600 21.38700 28.83200
C  46.44100 22.56800 28.44500
C  44.79900 20.60600 31.23200
C  45.06400 20.28100 27.90600
O  45.36700 20.18200 26.74500
C  44.24200 19.18600 28.44000
N  48.20400 25.02100 27.46300
C  47.61600 24.11700 26.71800
C  47.61500 24.49200 25.20100
C  48.36400 25.85800 25.20100
C  48.70400 26.04700 26.69500
C  48.12100 23.51000 24.10100
C  47.50200 27.09800 24.73200
C  48.26100 28.03300 23.65100
N  48.84000 26.91500 29.50300
C  49.51700 27.60900 28.49100
C  50.10100 28.79500 28.99800
C  49.88700 28.72300 30.34200
C  49.15400 27.62200 30.60800
C  50.83700 29.79200 28.12300
C  50.14000 29.38500 31.61700
O  50.62000 30.47200 31.90400
C  49.43300 28.48800 32.75700
C  50.53700 27.97300 33.59000
O  51.61500 27.52100 33.21900
O  50.19700 28.24000 34.87500
C  51.24600 27.84300 35.83200
H  46.10800 22.59100 32.79300
H  46.59300 22.38500 26.32200
H  49.72800 27.88200 26.36100
H  48.74500 25.97800 34.43100
H  46.08100 24.58500 34.35300
H  48.13100 22.73800 34.17000
H  47.13500 23.28800 35.51500
H  48.77700 23.98800 35.17800
H  45.87700 27.16800 34.53400
H  47.23800 28.19600 34.45600
H  47.68900 28.25700 36.53400
H  48.03000 26.45200 36.47500
H  43.76200 20.64600 30.90000
H  44.84000 20.87100 32.28900
H  45.14400 19.59400 31.02000
H  43.74400 18.57900 27.68300
H  43.57700 19.60300 29.19600
H  44.98200 18.59200 28.97600
H  46.55900 24.67000 24.99600
H  49.35800 25.81500 24.75600
H  48.67600 22.67600 24.52900
H  48.68900 24.08200 23.36600
H  47.26600 23.13400 23.53900
H  47.28500 27.69300 25.61900
H  46.62300 26.73800 24.19800
H  49.29100 27.67700 23.63000
H  48.06300 29.03300 24.03600
H  47.95100 27.84500 22.62300
H  50.99900 29.58100 27.06600
H  51.81900 29.94500 28.57100
H  50.26500 30.71300 28.23800
H  48.74500 29.10400 33.33500
H  51.34200 26.76000 35.75600
H  50.76700 27.99500 36.79900
H  52.23600 28.25500 35.63600
Mg -13.02500 16.56300 41.26700
C  -10.22700 14.45800 40.75300
C  -11.13200 19.10900 40.03400
C  -15.82200 18.21500 41.12500
C  -14.92600 13.59800 42.00500
N  -10.82000 16.74800 40.40600
C  -9.88700 15.77500 40.38400
C  -8.56900 16.27400 39.81400
C  -8.88800 17.83800 39.58600
C  -10.33900 17.93200 40.05100
C  -8.00300 18.92300 40.38200
C  -8.18600 15.52800 38.56900
C  -6.72300 15.13100 38.45900
H  -6.02900 15.59300 37.16100
N  -13.39600 18.46200 40.71300
C  -12.52900 19.41400 40.31100
C  -13.19200 20.71700 40.29000
C  -14.55800 20.43300 40.35200
C  -14.70800 18.92900 40.69700
C  -12.41600 22.01500 40.14100
C  -15.54200 21.50100 40.25900
O  -15.25200 22.69700 40.19300
C  -16.98300 21.16100 39.96500
N  -15.14000 15.93200 41.40700
C  -16.06700 16.88400 41.44600
C  -17.47000 16.25600 41.60400
C  -17.17500 14.84900 42.01200
C  -15.72300 14.80500 41.82800
C  -18.38500 16.94500 42.60900
C  -17.94300 13.72000 41.20900
C  -19.07900 13.08500 41.96800
N  -12.66000 14.53000 41.51800
C  -13.52200 13.46400 41.80400
C  -12.73700 12.22700 42.06700
C  -11.47900 12.53700 41.55600
C  -11.48400 13.93400 41.25400
C  -13.20600 10.86000 42.51300
C  -10.14000 12.03400 41.25100
O  -9.67200 10.92100 41.31100
C  -9.27300 13.31000 40.78700
C  -8.12300 13.55700 41.65100
O  -8.10400 14.26100 42.63800
O  -6.97600 12.92200 41.15300
C  -5.73100 13.09800 41.88500
H  -10.48900 19.96800 39.83200
H  -16.76800 18.74900 41.00800
H  -15.41700 12.67300 42.31600
H  -7.84800 16.24100 40.63000
H  -8.83100 18.09700 38.52900
H  -7.35500 18.45500 41.12400
H  -8.63600 19.50100 41.05600
H  -7.43600 19.52700 39.67400
H  -8.41300 16.10700 37.67400
H  -8.76800 14.63600 38.33900
H  -6.58400 14.05200 38.53400
H  -6.21000 15.52200 39.33800
H  -12.21200 22.48400 41.10300
H  -12.80500 22.70800 39.39400
H  -11.42700 21.75600 39.76500
H  -17.43400 20.80000 40.88900
H  -17.08600 20.41900 39.17300
H  -17.31300 22.13200 39.59700
H  -17.88300 16.32800 40.59800
H  -17.40200 14.77500 43.07600
H  -19.20500 17.49700 42.15100
H  -17.77400 17.67100 43.14500
H  -18.85700 16.42600 43.44400
H  -17.21200 12.92000 41.09000
H  -18.16000 14.05400 40.19400
H  -19.27700 13.66300 42.87100
H  -18.76400 12.07100 42.21500
H  -19.97200 13.07700 41.34400
H  -12.69400 10.27200 41.75100
H  -14.27400 10.64500 42.47400
H  -12.82000 10.56700 43.48900
H  -8.79400 13.12700 39.82500
H  -5.05200 12.66000 41.15300
H  -5.70600 12.39800 42.72000
H  -5.48300 14.13300 42.12000

