158

Mg 41.75800 41.19800 27.17100
C  40.88700 43.66400 29.45800
C  42.83700 39.24200 29.81600
C  42.46900 38.68300 24.96900
C  41.15200 43.31600 24.54400
N  41.73100 41.36900 29.34400
C  41.32000 42.47600 30.05700
C  41.25500 42.19000 31.57900
C  41.65700 40.67300 31.68000
C  42.14000 40.40000 30.21200
C  42.80400 40.31300 32.77200
C  39.94200 42.58900 32.27800
C  39.33900 41.68400 33.39200
H  39.02700 42.35200 34.75900
N  42.68100 39.34900 27.35000
C  43.04900 38.74300 28.51500
C  43.58400 37.38500 28.25600
C  43.40700 37.14300 26.86400
C  42.83400 38.48200 26.33400
C  44.22400 36.47400 29.25900
C  43.72600 35.90700 26.00900
O  43.49900 35.85800 24.80100
C  44.32100 34.66000 26.58100
N  42.02200 41.07900 25.09500
C  42.26600 39.88600 24.39200
C  41.96900 40.01100 22.85300
C  41.49300 41.47900 22.82600
C  41.51800 42.02300 24.25400
C  43.35800 39.74600 22.01100
C  40.14500 41.66900 22.09200
C  38.93200 41.12700 22.86300
N  41.09200 43.06900 26.97000
C  40.92500 43.84100 25.83900
C  40.52200 45.14600 26.28300
C  40.52600 45.08500 27.69300
C  40.88600 43.82400 28.06400
C  40.37300 46.38100 25.37300
C  40.28900 45.93600 28.86500
O  39.98000 47.10300 28.95900
C  40.48500 44.95100 30.06300
C  41.51100 45.58500 30.89800
O  42.67900 45.63000 30.68300
O  40.92400 45.97800 32.09400
C  41.80000 46.55900 33.04700
H  43.02700 38.60900 30.68600
H  42.61100 37.96200 24.16100
H  41.10800 43.98800 23.68500
H  42.05300 42.64400 32.16600
H  40.86200 39.94000 31.81900
H  43.76300 40.23500 32.26000
H  42.66300 39.32400 33.20700
H  42.83500 41.10300 33.52200
H  39.25000 42.48100 31.44200
H  39.90700 43.61100 32.65500
H  40.06900 40.90200 33.60400
H  38.45800 41.17200 33.00400
H  45.26400 36.50900 28.93300
H  43.86100 35.44800 29.30100
H  44.09100 36.78800 30.29400
H  43.76000 34.46100 27.49500
H  45.37900 34.88600 26.71300
H  44.15600 33.84100 25.88100
H  41.18500 39.37300 22.44500
H  42.27800 42.18400 22.55300
H  44.01800 39.01800 22.48400
H  43.89700 40.69300 21.99800
H  43.20600 39.39800 20.99000
H  40.25200 41.26100 21.08700
H  40.01000 42.74200 21.95200
H  39.22100 40.33600 23.55400
H  38.19300 40.65800 22.21400
H  38.41400 41.86000 23.48200
H  39.38800 46.51200 24.92500
H  40.96600 46.27700 24.46400
H  40.73800 47.26700 25.89200
H  39.56100 44.80900 30.62300
H  42.48400 47.38000 32.83200
H  42.39300 45.76600 33.50300
H  41.16200 46.89600 33.86300
Mg 1.04600 43.68200 25.18900
C  2.39200 43.46100 28.40800
C  -2.09000 42.56300 26.50700
C  -0.24000 42.95200 22.08500
C  4.08300 44.34600 23.81600
N  0.27800 43.13500 27.18300
C  0.95000 43.30500 28.39300
C  0.08600 43.07700 29.59700
C  -1.32600 42.62200 28.96700
C  -1.05300 42.78700 27.47100
C  -1.77900 41.18200 29.40000
C  -0.04500 44.50700 30.26300
C  -0.13500 44.44200 31.80500
H  -0.47900 43.19200 32.62400
N  -0.92900 43.00100 24.42300
C  -2.02300 42.71900 25.14800
C  -3.14500 42.50800 24.22500
C  -2.60200 42.49200 22.91700
C  -1.23400 42.80000 23.07700
C  -4.47700 42.21000 24.80000
C  -3.20300 42.20800 21.58000
O  -2.59300 42.27400 20.54300
C  -4.73600 41.88900 21.46500
N  1.86100 43.34000 23.17100
C  1.13000 43.26600 22.06800
C  1.89900 43.60900 20.85000
C  3.11300 44.43600 21.42500
C  3.03400 44.02700 22.91800
C  2.33200 42.43500 19.94400
C  2.87000 45.99300 21.22900
C  4.02000 46.66100 20.63400
N  2.95300 43.85000 25.96000
C  4.10800 44.14400 25.27700
C  5.14700 44.32000 26.25900
C  4.52300 43.94600 27.46500
C  3.17700 43.71400 27.28000
C  6.53800 44.77700 25.95300
C  4.66400 43.93400 28.93200
O  5.61000 44.23900 29.59300
C  3.32300 43.59900 29.59200
C  3.54500 42.46700 30.57200
O  3.25000 41.31100 30.35900
O  4.07000 42.95300 31.73900
C  4.04600 42.02900 32.90100
H  -3.06800 42.43500 26.97700
H  -0.57600 42.89200 21.04700
H  4.95400 44.84000 23.38000
H  0.60100 42.33800 30.21100
H  -2.03700 43.41400 29.20300
H  -2.76000 41.30500 29.85900
H  -1.08900 40.78000 30.14200
H  -1.90000 40.52100 28.54200
H  -0.91300 45.06600 29.91300
H  0.74200 45.21000 29.99200
H  -0.83700 45.14000 32.26100
H  0.83700 44.73900 32.19800
H  -5.07200 42.09200 23.89500
H  -4.72000 42.86400 25.63800
H  -4.54300 41.20900 25.22600
H  -5.38300 42.74300 21.66900
H  -4.95500 40.94600 21.96700
H  -4.84600 41.84000 20.38200
H  1.28300 44.17000 20.14700
H  4.04300 44.05200 21.00600
H  1.70800 42.40500 19.05100
H  2.22600 41.53500 20.55000
H  3.32100 42.55900 19.50100
H  2.51800 46.48100 22.13800
H  2.08500 46.10800 20.48100
H  3.74800 46.96700 19.62400
H  4.99300 46.17000 20.64600
H  4.12800 47.60400 21.17000
H  7.28200 44.09500 26.36400
H  6.64400 45.78900 26.34400
H  6.69100 44.69200 24.87800
H  3.03200 44.43700 30.22400
H  4.05800 42.76300 33.70700
H  4.88300 41.33200 32.86200
H  3.10600 41.50000 33.05600

