158

Mg 41.73200 41.08600 26.98500
C  41.00400 43.43000 29.53400
C  42.86900 38.92200 29.52400
C  42.98400 38.94800 24.72000
C  41.52500 43.65600 24.73700
N  42.00700 41.21400 29.20300
C  41.48700 42.20700 30.03500
C  41.53900 41.83000 31.52500
C  42.39500 40.47300 31.50100
C  42.47300 40.18100 29.98000
C  43.73600 40.29800 32.37300
C  40.05700 41.62100 32.16000
C  39.73400 42.30900 33.50600
H  39.09800 41.44600 34.57900
N  42.62400 39.07200 27.09500
C  42.93900 38.34100 28.22700
C  43.32100 36.99800 27.80800
C  43.37100 36.98500 26.38500
C  42.92000 38.36000 25.97900
C  43.48900 35.88200 28.90600
C  43.67700 35.85500 25.45000
O  43.54900 35.85000 24.20500
C  44.22400 34.60000 26.03200
N  42.15300 41.30000 25.05300
C  42.64000 40.28600 24.23300
C  42.71100 40.72600 22.75900
C  42.10900 42.18100 22.75300
C  41.92300 42.43200 24.25600
C  44.20100 40.64100 22.23200
C  40.67300 42.31400 22.04200
C  40.60600 43.41000 21.00500
N  41.29300 43.16000 27.04800
C  41.26200 44.06900 26.06600
C  40.75800 45.35600 26.46600
C  40.55700 45.14800 27.82800
C  40.97100 43.79900 28.18300
C  40.63200 46.61500 25.64600
C  40.12100 45.72800 29.11700
O  39.72700 46.89700 29.32100
C  40.46500 44.66800 30.17800
C  41.39100 45.37200 31.05200
O  42.45200 45.82900 30.73100
O  40.93000 45.33400 32.33100
C  41.95400 45.56100 33.31300
H  43.15600 38.20700 30.29800
H  43.38900 38.31200 23.93100
H  41.36700 44.21300 23.81200
H  42.04000 42.58000 32.13800
H  41.77000 39.64800 31.84100
H  43.83300 41.15600 33.03900
H  44.50800 40.39400 31.61000
H  43.91200 39.35800 32.89600
H  39.79400 40.57300 32.30000
H  39.30100 42.04900 31.50100
H  39.01300 43.08200 33.23900
H  40.59400 42.84400 33.90700
H  43.34400 36.21400 29.93400
H  44.48100 35.43200 28.88700
H  42.79800 35.05700 28.73500
H  43.41900 34.14100 26.60600
H  44.97200 34.86800 26.77900
H  44.68100 33.94400 25.29200
H  41.98600 40.16100 22.17300
H  42.75800 42.92800 22.29700
H  44.77800 40.72000 23.15400
H  44.43300 41.57400 21.71900
H  44.38300 39.80100 21.56200
H  39.89900 42.38900 22.80700
H  40.40900 41.37000 21.56500
H  40.64600 42.97900 20.00400
H  41.38200 44.17100 21.08100
H  39.65300 43.92300 21.13300
H  39.92900 46.58300 24.81300
H  41.62800 46.85700 25.27500
H  40.30800 47.36400 26.36800
H  39.50200 44.49700 30.65900
H  42.41000 46.54200 33.18400
H  42.72900 44.80000 33.21600
H  41.56200 45.54000 34.33000
Mg -5.80400 24.98300 25.56800
C  -4.66500 26.64800 28.59300
C  -7.52700 22.91800 27.51100
C  -6.31100 23.15600 22.91100
C  -3.65800 27.06300 23.78700
N  -6.07800 24.79900 27.77800
C  -5.57800 25.64900 28.81000
C  -6.18000 25.12900 30.18700
C  -6.83500 23.73800 29.76400
C  -6.79000 23.79400 28.24200
C  -6.23800 22.46200 30.40700
C  -7.25000 26.21300 30.73300
C  -7.11800 26.66100 32.24200
H  -6.20600 25.77300 33.12400
N  -6.74100 23.27200 25.24200
C  -7.52400 22.63300 26.14200
C  -8.34800 21.63300 25.49500
C  -7.96600 21.63000 24.13100
C  -6.93000 22.67100 24.04000
C  -9.33700 20.78300 26.24200
C  -8.35300 20.64100 23.00100
O  -7.82600 20.68000 21.89300
C  -9.35200 19.55400 23.14300
N  -4.94500 25.01100 23.60800
C  -5.48200 24.28300 22.66800
C  -4.84600 24.50600 21.26900
C  -4.01500 25.83600 21.48300
C  -4.24400 26.04100 23.00300
C  -3.96600 23.32100 20.61600
C  -4.25000 27.07800 20.51200
C  -3.12100 27.29600 19.46700
N  -4.45500 26.57100 26.05700
C  -3.71000 27.35100 25.20100
C  -3.01700 28.37800 25.93900
C  -3.35000 28.16700 27.26400
C  -4.24700 27.07000 27.30600
C  -2.23900 29.50500 25.28000
C  -3.13700 28.58200 28.64800
O  -2.45800 29.54900 29.02100
C  -4.09400 27.73700 29.55300
C  -3.28700 27.23200 30.73800
O  -2.79700 26.13200 30.91500
O  -3.24900 28.29000 31.59200
C  -2.36400 28.13800 32.67500
H  -8.05800 22.19400 28.13300
H  -6.50200 22.63600 21.97000
H  -3.02900 27.78000 23.25500
H  -5.49000 24.81800 30.97100
H  -7.88400 23.71900 30.05800
H  -5.90700 21.77900 29.62500
H  -7.00400 22.03400 31.05400
H  -5.42200 22.65700 31.10400
H  -8.22700 25.77700 30.52300
H  -7.15200 27.13800 30.16400
H  -8.03900 26.86400 32.78800
H  -6.69300 27.65900 32.35000
H  -8.89000 19.78900 26.22500
H  -10.22800 20.74500 25.61600
H  -9.63100 21.06300 27.25400
H  -10.27700 20.12300 23.05500
H  -9.24300 19.07800 24.11800
H  -9.43000 18.79200 22.36700
H  -5.65600 24.85600 20.62900
H  -2.96800 25.57000 21.34100
H  -2.91600 23.56000 20.44800
H  -4.31500 23.08800 19.61000
H  -3.95300 22.42400 21.23500
H  -4.31800 27.90300 21.22000
H  -5.24500 26.93800 20.08800
H  -2.23400 27.40500 20.09100
H  -3.21200 28.25900 18.96500
H  -2.98500 26.52800 18.70600
H  -1.90600 30.17200 26.07600
H  -2.90300 30.10900 24.66200
H  -1.37300 29.12800 24.73600
H  -4.87900 28.35800 29.98300
H  -1.41700 27.91900 32.18200
H  -2.71100 27.51900 33.50300
H  -2.25700 29.14700 33.07200

