158

Mg 48.33000 34.74500 27.58400
C  46.42300 33.39000 30.34500
C  49.07200 37.52900 29.77100
C  49.29800 36.52600 24.98100
C  47.22800 32.16100 25.74900
N  47.72000 35.35600 29.78000
C  47.10600 34.55900 30.69600
C  47.24000 35.07500 32.11400
C  47.82700 36.48900 31.85600
C  48.27400 36.48400 30.37400
C  46.88900 37.66100 32.16400
C  48.18800 34.04200 32.84400
C  47.99900 33.91300 34.31600
H  47.60900 35.12300 35.20900
N  49.23600 36.71100 27.49300
C  49.46900 37.68000 28.40200
C  50.23300 38.79300 27.78700
C  50.22800 38.49800 26.41700
C  49.62900 37.23200 26.24200
C  50.77100 39.97700 28.52500
C  50.75800 39.39000 25.24800
O  50.65000 39.04700 24.07400
C  51.45400 40.74700 25.49500
N  48.42400 34.33900 25.61700
C  48.83100 35.21200 24.66100
C  48.56500 34.66000 23.29600
C  48.20200 33.20600 23.61500
C  47.94900 33.20900 25.11700
C  47.57500 35.48300 22.44300
C  49.23300 32.20800 23.07800
C  50.53200 31.99400 23.88300
N  47.14900 33.06500 27.90100
C  46.76600 32.05900 27.08800
C  45.97400 31.05400 27.70000
C  45.73500 31.62100 28.97500
C  46.55300 32.73900 29.07100
C  45.51900 29.81300 27.01900
C  44.93400 31.39200 30.20200
O  44.20200 30.50000 30.53700
C  45.21800 32.65200 31.05300
C  45.59100 32.26000 32.47900
O  46.34400 31.36100 32.88900
O  44.75600 32.95100 33.28000
C  44.51100 32.45100 34.69700
H  49.42300 38.34700 30.40400
H  49.36900 37.08200 24.04400
H  46.92400 31.35800 25.07400
H  46.29900 35.07900 32.66500
H  48.73200 36.63300 32.44700
H  45.94400 37.31800 32.58500
H  46.62800 38.06900 31.18800
H  47.34200 38.47400 32.73100
H  49.21200 34.40500 32.76100
H  48.09600 33.07800 32.34300
H  48.91300 33.49600 34.73900
H  47.25400 33.12200 34.40000
H  51.82700 39.81300 28.74200
H  50.29100 39.93500 29.50200
H  50.58700 41.00300 28.20500
H  50.71200 41.42700 25.91300
H  51.83600 41.15500 24.55900
H  52.29600 40.68800 26.18500
H  49.45600 34.69800 22.66800
H  47.20600 32.99900 23.22400
H  47.01400 36.11700 23.12900
H  46.92700 34.84900 21.83700
H  48.17000 36.07700 21.74800
H  49.52000 32.42800 22.05000
H  48.67400 31.27300 23.04600
H  51.40100 32.06700 23.22900
H  50.49300 31.03200 24.39500
H  50.71700 32.78000 24.61500
H  46.34000 29.44100 26.40700
H  44.63300 30.02600 26.42100
H  45.25100 29.05400 27.75500
H  44.38300 33.34800 30.97100
H  43.43700 32.27000 34.73600
H  44.79100 33.22000 35.41700
H  44.91600 31.46800 34.93700
Mg 30.63100 59.09400 40.90800
C  28.19500 57.13700 39.45700
C  33.02000 56.85000 39.64200
C  33.13500 61.39200 41.47900
C  28.28700 61.56800 41.35600
N  30.62200 57.18800 39.68500
C  29.48100 56.63600 39.27300
C  29.82200 55.46500 38.38000
C  31.34900 55.15900 38.67400
C  31.72900 56.42000 39.43000
C  31.71200 53.97900 39.64500
C  29.56700 55.72900 36.90800
C  28.67200 54.67600 36.11700
H  27.69500 55.38600 35.11400
N  32.68500 59.05900 40.71400
C  33.48900 58.00700 40.23100
C  34.93200 58.29000 40.46100
C  34.97700 59.58600 41.08000
C  33.56000 60.05400 41.14600
C  35.95900 57.26600 40.02000
C  36.27700 60.29700 41.56600
O  37.38800 59.72500 41.48700
C  36.21500 61.54100 42.33800
N  30.74100 61.34400 41.13300
C  31.85900 61.98200 41.64400
C  31.48900 63.35400 42.31800
C  29.95400 63.37600 42.15700
C  29.62800 61.99500 41.51600
C  32.06800 63.39300 43.70700
C  29.24700 64.57200 41.35500
C  29.31900 64.62700 39.83800
N  28.59300 59.31800 40.64800
C  27.73600 60.35000 40.92500
C  26.36500 59.92300 40.57800
C  26.50300 58.65000 39.93900
C  27.90800 58.35200 40.05800
C  25.21700 60.80800 40.71700
C  25.78500 57.59400 39.29500
O  24.57200 57.44200 38.98900
C  26.93400 56.47500 39.02100
C  26.51000 55.22700 39.72200
O  26.97700 54.92500 40.81900
O  25.45900 54.64100 39.07800
C  25.02800 53.30100 39.64400
H  33.75000 56.10300 39.32300
H  33.96100 62.09000 41.63200
H  27.48100 62.29400 41.48100
H  29.18400 54.61900 38.63600
H  32.02600 55.23600 37.82400
H  32.19700 53.15600 39.12000
H  30.76000 53.68500 40.08800
H  32.44600 54.32300 40.37300
H  30.51900 55.81200 36.38400
H  29.34400 56.77800 36.71200
H  28.01700 54.02100 36.69100
H  29.35400 54.02600 35.56800
H  36.97500 57.56400 40.27700
H  35.94300 57.21400 38.93200
H  35.64900 56.27400 40.35100
H  37.22300 61.83900 42.62700
H  35.47000 61.61100 43.13100
H  35.91800 62.34700 41.66700
H  31.92800 64.24600 41.87100
H  29.52900 63.33600 43.16000
H  31.59700 62.66700 44.36900
H  31.68200 64.29000 44.19100
H  33.15700 63.38900 43.74900
H  29.70700 65.45200 41.80600
H  28.19500 64.54500 41.63900
H  29.50300 65.67300 39.59300
H  28.38300 64.20600 39.47100
H  30.16500 64.08100 39.42200
H  24.39600 60.22300 40.30200
H  25.20400 61.70700 40.10100
H  25.08400 61.21100 41.72100
H  26.94200 56.28900 37.94700
H  24.19400 52.93400 39.04400
H  24.76100 53.43400 40.69200
H  25.74300 52.48100 39.70600

