158

Mg 35.92000 49.35100 25.01200
C  36.36700 47.43200 27.90200
C  34.69900 51.83400 26.86000
C  35.54600 51.06100 22.07500
C  37.01100 46.53800 23.19700
N  35.50700 49.58600 27.20300
C  35.82900 48.68100 28.21600
C  35.52800 49.32300 29.53200
C  34.92600 50.72900 29.14600
C  35.00200 50.67800 27.65900
C  33.45800 51.12100 29.70200
C  36.78200 49.41700 30.47400
C  36.77600 48.87600 31.89500
H  35.58000 49.16900 32.79900
N  35.13400 51.19100 24.51300
C  34.68900 52.12300 25.48100
C  34.29900 53.29900 24.83200
C  34.54100 53.12300 23.43100
C  35.16600 51.78100 23.28200
C  33.79800 54.49400 25.62000
C  34.46100 54.08200 22.32100
O  35.02900 53.80100 21.27400
C  33.89600 55.57900 22.46400
N  36.30700 48.89300 22.98000
C  36.05700 49.74200 21.94500
C  36.26400 49.08000 20.53700
C  36.82800 47.62300 20.91700
C  36.75800 47.70200 22.46800
C  35.05600 49.07200 19.61300
C  38.30000 47.33900 20.31700
C  39.43900 48.19000 20.80200
N  36.55100 47.36400 25.38900
C  36.87100 46.33700 24.51000
C  37.26300 45.15900 25.27300
C  37.09500 45.57400 26.60500
C  36.61200 46.91300 26.59000
C  37.68400 43.79200 24.81300
C  37.28500 45.18100 28.00000
O  37.70200 44.11400 28.47100
C  36.82700 46.40000 28.91500
C  35.74000 45.78000 29.75500
O  34.57800 45.55800 29.47700
O  36.22500 45.59200 31.01500
C  35.32100 44.97000 31.99000
H  34.33900 52.65900 27.47800
H  35.35700 51.50300 21.09500
H  37.24900 45.57200 22.74700
H  34.83400 48.75800 30.15400
H  35.46600 51.51200 29.67800
H  33.15200 50.43200 30.48900
H  32.64800 51.08100 28.97400
H  33.43100 52.04000 30.28700
H  37.06100 50.47100 30.47500
H  37.64600 48.94700 30.00500
H  37.68100 49.28400 32.34600
H  36.89900 47.80500 31.73500
H  32.96600 55.00500 25.13600
H  34.65000 55.16900 25.69900
H  33.42200 54.38200 26.63700
H  34.15600 56.08900 23.39200
H  32.80700 55.61000 22.45200
H  34.27600 56.25800 21.70000
H  37.02100 49.62700 19.97600
H  36.05000 46.95000 20.55600
H  34.51900 48.12600 19.54500
H  35.28100 49.39000 18.59500
H  34.34500 49.80400 19.99600
H  38.15000 47.58300 19.26500
H  38.44900 46.26400 20.41500
H  39.98900 48.52400 19.92200
H  40.16000 47.69600 21.45300
H  39.00600 49.12700 21.15000
H  38.19400 43.91200 23.85700
H  36.81100 43.17100 24.61200
H  38.28400 43.34600 25.60600
H  37.60600 46.67700 29.62500
H  34.38300 45.48200 32.20800
H  35.95800 44.80000 32.85800
H  35.17400 43.97800 31.56400
Mg -11.87600 16.80000 42.99300
C  -8.32900 17.15900 42.79400
C  -11.99300 20.27600 42.19400
C  -15.13500 16.67000 42.56200
C  -11.54200 13.38100 42.87000
N  -10.34000 18.44800 42.31800
C  -8.90000 18.37200 42.39500
C  -8.22000 19.72900 42.21000
C  -9.45400 20.66700 42.45700
C  -10.68200 19.76700 42.32000
C  -9.45900 21.18100 43.94700
C  -7.48300 19.65400 40.83400
C  -5.92600 19.89900 40.94100
H  -5.13100 18.98600 39.95400
N  -13.38800 18.26900 42.51800
C  -13.22200 19.60200 42.32200
C  -14.47900 20.27100 42.06400
C  -15.46400 19.22100 42.21600
C  -14.73600 17.94900 42.45600
C  -14.74700 21.70900 41.55200
C  -17.04600 19.37400 42.00500
O  -17.56400 20.45000 41.84800
C  -17.98100 18.19600 41.98800
N  -13.13600 15.27700 42.67500
C  -14.47300 15.43900 42.62700
C  -15.23400 14.04700 42.62800
C  -14.06900 13.01600 42.67100
C  -12.85700 13.93200 42.76200
C  -16.27100 13.88100 43.78000
C  -14.09400 12.05600 41.50500
C  -14.74100 10.72000 41.74800
N  -10.29900 15.50400 43.00800
C  -10.30900 14.12300 42.91000
C  -8.93200 13.64100 42.95500
C  -8.14700 14.79900 42.99400
C  -9.05200 15.91700 42.95400
C  -8.47700 12.19300 42.98200
C  -6.74300 15.31200 42.98300
O  -5.67600 14.76000 43.08600
C  -6.85400 16.86100 43.05900
C  -6.36500 17.16000 44.39400
O  -6.94300 16.95900 45.47600
O  -5.14300 17.91900 44.22100
C  -4.39400 18.40800 45.42400
H  -12.10500 21.36200 42.18500
H  -16.22700 16.66500 42.55100
H  -11.41900 12.30000 42.97100
H  -7.47500 19.92300 42.98200
H  -9.47900 21.46200 41.71200
H  -8.47000 21.20400 44.40400
H  -10.01600 20.50400 44.59400
H  -10.03900 22.10300 43.88600
H  -7.96900 20.41500 40.22300
H  -7.60600 18.67100 40.37900
H  -5.60500 19.80200 41.97800
H  -5.86900 20.91500 40.55100
H  -15.52800 22.14200 42.17600
H  -15.18600 21.49800 40.57700
H  -13.83900 22.31100 41.51200
H  -19.03300 18.48100 41.97100
H  -17.98300 17.74100 42.97900
H  -17.92100 17.32900 41.33000
H  -15.83700 14.05600 41.72000
H  -14.12100 12.42700 43.58600
H  -16.19000 14.66000 44.53800
H  -16.27500 12.87000 44.18900
H  -17.19300 14.10800 43.24500
H  -13.12100 11.88500 41.04400
H  -14.63500 12.55500 40.70200
H  -15.59500 10.89200 42.40400
H  -13.99900 10.07500 42.21900
H  -15.13200 10.27700 40.83200
H  -9.29100 11.66500 42.48500
H  -8.22400 11.77400 43.95600
H  -7.50700 12.03600 42.51100
H  -6.21500 17.39500 42.35500
H  -4.41500 19.49700 45.47000
H  -3.36000 18.06700 45.37600
H  -4.73200 18.02700 46.38800

