158

Mg 1.98800 -1.44400 44.89100
C  5.31500 -0.44600 44.41300
C  0.96500 1.22500 42.94400
C  -1.25800 -2.61500 45.20800
C  3.16400 -4.38100 46.31700
N  3.10700 0.16300 43.80300
C  4.41600 0.37100 43.74600
C  4.68200 1.56000 42.81500
C  3.31700 2.16100 42.58300
C  2.39000 1.10300 43.11200
C  3.07700 3.57500 43.18000
C  5.39800 1.15600 41.42900
C  6.30400 2.25600 40.81700
H  7.51200 1.75000 40.03200
N  0.01900 -0.76100 44.27300
C  -0.13600 0.33400 43.46500
C  -1.55000 0.53600 43.22300
C  -2.27600 -0.55100 43.89500
C  -1.20400 -1.36100 44.50300
C  -2.14700 1.59200 42.32200
C  -3.73100 -0.82800 43.84100
O  -4.50100 -0.18800 43.15300
C  -4.31300 -1.98500 44.51900
N  1.04800 -3.28300 45.55900
C  -0.24800 -3.53200 45.62400
C  -0.50600 -4.95100 46.11700
C  0.87900 -5.46400 46.55200
C  1.78500 -4.34000 46.06000
C  -1.50100 -4.97300 47.25200
C  1.18200 -6.88600 46.14300
C  1.40900 -7.82900 47.38700
N  3.90900 -2.27400 45.23700
C  4.16400 -3.46100 45.90200
C  5.58600 -3.51900 46.17600
C  6.11300 -2.31700 45.58900
C  5.04900 -1.59500 45.08200
C  6.37700 -4.55700 46.83600
C  7.32700 -1.57700 45.32300
O  8.47600 -1.79500 45.63300
C  6.83100 -0.38800 44.41300
C  7.31700 0.88100 45.01800
O  7.23500 1.28500 46.20300
O  7.99900 1.55800 44.04200
C  8.54500 2.89300 44.38000
H  0.64100 2.10000 42.37600
H  -2.23000 -3.02300 45.49300
H  3.40400 -5.32400 46.81300
H  5.34600 2.22700 43.36400
H  3.12800 2.29300 41.51700
H  2.32000 3.53200 43.96300
H  2.74700 4.23600 42.37900
H  4.06600 3.84300 43.55000
H  4.65500 0.89500 40.67400
H  5.99200 0.25300 41.57100
H  6.55300 2.88900 41.66800
H  5.66600 2.84700 40.15900
H  -2.20200 1.45200 41.24300
H  -1.52000 2.46800 42.48900
H  -3.07700 1.94600 42.76800
H  -4.25900 -2.92200 43.96500
H  -5.35800 -1.67500 44.50700
H  -4.17900 -2.09000 45.59600
H  -0.79600 -5.46700 45.20100
H  0.91300 -5.33600 47.63400
H  -2.07900 -5.83500 46.92000
H  -1.96800 -4.01600 47.48800
H  -1.07300 -5.26900 48.21000
H  2.17000 -6.90000 45.68100
H  0.42500 -7.26400 45.45600
H  2.39300 -8.29100 47.30500
H  0.61300 -8.55700 47.23700
H  1.30000 -7.32300 48.34600
H  5.63900 -5.09100 47.43400
H  7.22200 -4.21900 47.43400
H  6.67000 -5.16500 45.98000
H  7.22400 -0.55300 43.41000
H  7.79200 3.48600 44.89900
H  8.64000 3.44100 43.44200
H  9.48400 2.84300 44.93000
Mg 41.82900 40.70500 26.43900
C  40.97000 43.08300 29.05700
C  42.83700 38.64600 29.01600
C  43.10300 38.70900 24.09800
C  41.25300 43.11200 24.10400
N  41.89700 40.93700 28.84200
C  41.41200 41.88800 29.69200
C  41.46100 41.49500 31.17100
C  42.42700 40.22500 31.03500
C  42.35800 39.82900 29.52700
C  43.88100 40.31300 31.52700
C  40.17300 41.34600 31.88200
C  39.96300 42.23300 33.17300
H  39.24500 41.61100 34.32700
N  42.66600 38.80900 26.47800
C  43.06800 38.21000 27.69200
C  43.59800 36.87100 27.23900
C  43.64700 36.86000 25.80100
C  43.03800 38.17100 25.40800
C  43.96100 35.78500 28.24300
C  44.22100 35.88000 24.78600
O  44.11100 35.95800 23.57400
C  44.88300 34.59000 25.30600
N  42.16800 40.93300 24.41200
C  42.69700 39.97300 23.61000
C  42.42500 40.19900 22.15500
C  41.71000 41.59200 22.16000
C  41.72500 41.96200 23.62800
C  43.63500 40.01700 21.24900
C  40.28200 41.71100 21.49800
C  39.94000 42.98700 20.67100
N  41.22300 42.71400 26.55100
C  41.00400 43.52900 25.43700
C  40.48000 44.76500 25.96000
C  40.41300 44.65300 27.34300
C  40.94600 43.41400 27.68400
C  40.01100 45.93100 25.10700
C  39.97500 45.30700 28.58800
O  39.39200 46.43000 28.74800
C  40.27000 44.19400 29.71700
C  41.13800 44.76000 30.76900
O  42.34200 44.60300 30.86200
O  40.32700 45.51000 31.59800
C  41.03800 46.02400 32.77800
H  43.05600 37.84300 29.72200
H  43.54000 38.18600 23.24500
H  40.96400 43.88100 23.38500
H  41.97200 42.29700 31.70300
H  42.02000 39.48100 31.71900
H  44.70900 40.45700 30.83300
H  44.05500 39.35900 32.02500
H  43.86500 41.09500 32.28600
H  40.04900 40.30700 32.18800
H  39.27500 41.50800 31.28600
H  39.41500 43.09000 32.78200
H  40.90400 42.63300 33.55100
H  43.64400 34.82200 27.84300
H  43.50500 35.86700 29.23000
H  45.03100 35.71000 28.43400
H  44.12600 34.00100 25.82300
H  45.84500 34.61300 25.81800
H  45.15200 34.03900 24.40500
H  41.62000 39.53000 21.85000
H  42.28800 42.34800 21.62800
H  43.29400 39.33100 20.47500
H  44.51400 39.68700 21.80300
H  43.97600 40.88800 20.68900
H  39.55400 41.58300 22.29900
H  40.16500 40.80500 20.90400
H  40.79000 43.65300 20.52600
H  39.11000 43.54300 21.10800
H  39.55700 42.54100 19.75300
H  39.79900 45.65900 24.07200
H  40.77200 46.71100 25.10100
H  39.03300 46.23900 25.47600
H  39.27700 43.96500 30.10500
H  41.27300 45.18500 33.43400
H  40.31100 46.70200 33.22500
H  41.91100 46.63100 32.53900

