158

Mg 35.59800 3.55800 30.48100
C  32.88400 4.42700 32.53900
C  37.74500 3.78900 33.04800
C  37.95800 3.14600 28.27700
C  33.24500 3.85100 27.79200
N  35.31000 4.10400 32.49900
C  34.13800 4.22300 33.18300
C  34.34000 4.22400 34.69800
C  35.86400 4.51400 34.75400
C  36.36400 4.04500 33.33700
C  36.28500 5.92100 35.18800
C  33.90200 2.95100 35.49500
C  33.68900 3.21200 37.02700
H  34.42300 4.40600 37.62100
N  37.66600 3.39600 30.69400
C  38.38900 3.38900 31.80500
C  39.77800 3.04400 31.54300
C  39.81100 2.78100 30.11700
C  38.41400 3.01500 29.64300
C  40.84700 2.68900 32.53800
C  40.91500 2.20600 29.23900
O  40.86200 2.15300 28.06500
C  42.25900 1.74100 29.88900
N  35.60300 3.53100 28.27500
C  36.75700 3.41500 27.66000
C  36.50400 3.28100 26.09200
C  34.93600 3.55900 25.89500
C  34.52300 3.61400 27.38900
C  37.39100 4.23600 25.19200
C  34.28700 2.36300 25.15900
C  32.99700 2.70800 24.32000
N  33.40200 4.16200 30.16900
C  32.60200 4.10000 29.05100
C  31.25400 4.40400 29.43500
C  31.32300 4.51300 30.85100
C  32.62300 4.32800 31.17000
C  30.09700 4.52900 28.55900
C  30.50700 4.73100 32.01100
O  29.32400 4.93500 32.16500
C  31.52200 4.54300 33.18200
C  31.39100 5.72800 34.11800
O  31.80700 6.84000 33.81600
O  30.79600 5.33200 35.30300
C  30.77500 6.27800 36.42100
H  38.45100 3.77100 33.88100
H  38.61100 2.78300 27.48100
H  32.54400 3.98100 26.96500
H  33.79100 5.04300 35.16400
H  36.38700 3.89500 35.48300
H  35.91900 6.26000 36.15700
H  35.96700 6.72400 34.52300
H  37.36400 6.05800 35.25200
H  34.57300 2.09300 35.43500
H  32.90300 2.66800 35.16500
H  33.83200 2.32200 37.64100
H  32.63700 3.48800 37.09800
H  41.82100 3.06300 32.22400
H  40.96000 1.60600 32.59700
H  40.55400 3.02100 33.53400
H  42.89600 1.29500 29.12500
H  42.18400 1.00800 30.69200
H  42.56000 2.70200 30.30700
H  36.79600 2.25500 25.86900
H  34.64700 4.48800 25.40300
H  38.05900 4.87600 25.76900
H  36.75100 4.93000 24.64800
H  38.01800 3.62800 24.53900
H  33.86400 1.67100 25.88700
H  34.92100 1.87900 24.41600
H  32.90200 2.18000 23.37100
H  33.01100 3.78000 24.12400
H  32.12800 2.50900 24.94600
H  29.21000 4.62300 29.18400
H  30.00600 3.63000 27.94900
H  30.27800 5.45000 28.00400
H  31.36000 3.62700 33.75000
H  30.78300 7.31500 36.08600
H  31.65600 6.06500 37.02800
H  29.92400 6.07900 37.07200
Mg 0.20300 43.47100 26.94400
C  2.75400 43.69500 29.34400
C  -2.05800 42.89000 29.36200
C  -2.04000 42.54800 24.61600
C  2.74200 43.74600 24.44200
N  0.35200 43.37000 29.08900
C  1.45800 43.52500 29.85900
C  1.07900 43.45100 31.33700
C  -0.38800 42.94200 31.31600
C  -0.75200 43.10300 29.81900
C  -0.75300 41.56000 31.89500
C  1.29200 44.78100 32.08500
C  1.52100 44.70300 33.64000
H  1.26500 43.31900 34.41800
N  -1.90200 43.14300 27.02400
C  -2.63900 42.96200 28.14400
C  -3.99100 42.64800 27.75900
C  -3.99700 42.50900 26.30300
C  -2.58100 42.68700 25.89800
C  -5.02600 42.34900 28.77400
C  -5.12100 42.18500 25.33700
O  -5.02700 42.10200 24.11000
C  -6.58600 41.96300 25.92200
N  0.31500 43.26700 24.84400
C  -0.72900 42.77000 24.13100
C  -0.28400 42.40000 22.70900
C  0.99700 43.29200 22.58300
C  1.45000 43.40000 24.06100
C  -0.07100 40.85800 22.56200
C  0.77600 44.80300 22.16200
C  1.13300 45.20400 20.70900
N  2.31200 43.74000 26.79300
C  3.20800 43.93600 25.76600
C  4.56800 44.06400 26.22400
C  4.43500 44.00400 27.66300
C  3.06900 43.83700 27.93100
C  5.78500 44.11700 25.34900
C  5.17000 43.98800 28.91600
O  6.41400 43.98400 29.03600
C  4.05500 44.04600 30.06400
C  4.52700 42.97000 31.03300
O  4.75900 41.78100 30.78600
O  4.67200 43.55100 32.26300
C  5.24900 42.78900 33.32400
H  -2.81200 42.66900 30.12000
H  -2.85600 42.24900 23.95400
H  3.49800 43.81200 23.65700
H  1.75000 42.69800 31.75000
H  -1.05100 43.68600 31.75900
H  -1.49400 41.66000 32.68800
H  0.15900 41.12300 32.30000
H  -1.09300 40.79900 31.19200
H  0.39300 45.39600 32.07000
H  2.01900 45.45600 31.63400
H  0.89000 45.46300 34.10000
H  2.52700 45.08500 33.81900
H  -5.81600 43.09900 28.81200
H  -4.68300 42.33900 29.80900
H  -5.38500 41.32500 28.67100
H  -6.61200 41.17800 26.67800
H  -7.15500 41.65800 25.04400
H  -7.06000 42.90800 26.18700
H  -1.09000 42.69500 22.03800
H  1.72700 42.80200 21.93800
H  -0.65400 40.40500 21.76000
H  -0.40800 40.44600 23.51300
H  0.98600 40.62100 22.43500
H  1.34400 45.39100 22.88300
H  -0.24700 45.07000 22.42600
H  0.29800 44.88200 20.08700
H  2.08500 44.73800 20.45300
H  1.30900 46.27900 20.74900
H  5.69000 43.41200 24.52300
H  6.63000 43.96100 26.02000
H  5.83100 45.12100 24.92900
H  4.22500 45.08100 30.36200
H  6.30800 42.55000 33.22900
H  4.57600 41.93400 33.39600
H  5.25300 43.40500 34.22300

