158

Mg 45.37600 5.77900 49.09900
C  43.01200 8.26200 48.21400
C  42.97000 3.51200 48.53100
C  47.80600 3.37300 49.12900
C  47.75800 8.21200 49.38000
N  43.25600 5.90400 48.38900
C  42.44400 6.99500 48.21300
C  40.96100 6.58300 47.94800
C  41.06600 5.04800 48.12400
C  42.52200 4.78900 48.41600
C  40.07200 4.42000 49.22400
C  40.49600 7.01900 46.49300
C  39.07500 7.68800 46.30800
H  38.52400 7.54500 44.87900
N  45.28500 3.61300 48.98200
C  44.22900 2.90000 48.62800
C  44.63200 1.50200 48.62400
C  46.08000 1.41700 48.91900
C  46.48500 2.83900 49.01700
C  43.66600 0.37100 48.37800
C  46.83700 0.12900 49.18700
O  46.27300 -0.95500 49.02800
C  48.29900 0.16000 49.88700
N  47.47600 5.78600 49.39200
C  48.30400 4.67400 49.37000
C  49.79700 5.05300 49.21900
C  49.78300 6.52100 49.56500
C  48.27600 6.90700 49.51900
C  50.79600 4.15200 50.05800
C  50.69100 7.40900 48.67100
C  52.23000 7.28500 48.99700
N  45.42100 7.83700 48.93300
C  46.51200 8.65500 48.97200
C  46.11700 10.08000 48.66400
C  44.65000 9.92700 48.50300
C  44.33800 8.58400 48.54900
C  47.04200 11.28400 48.62900
C  43.45100 10.66500 48.19900
O  43.26700 11.85500 47.87200
C  42.28000 9.52700 48.04900
C  41.27600 9.73800 49.14000
O  41.17000 9.19000 50.17000
O  40.41000 10.62600 48.60600
C  39.10600 10.70000 49.36800
H  42.14500 2.81800 48.35400
H  48.62500 2.66000 49.24400
H  48.55100 8.95600 49.47400
H  40.28700 7.08700 48.64100
H  40.84400 4.60900 47.15100
H  39.34000 5.15400 49.56000
H  40.58600 4.08000 50.12300
H  39.51000 3.61200 48.75500
H  40.46600 6.11700 45.88200
H  41.22100 7.72400 46.08500
H  39.08900 8.74700 46.56600
H  38.50600 7.16100 47.07400
H  42.78900 0.79700 47.89000
H  43.31200 -0.11100 49.28900
H  43.96800 -0.33500 47.60400
H  49.02400 0.56400 49.18100
H  48.58700 -0.86400 50.12500
H  48.26900 0.82900 50.74700
H  49.99000 4.95300 48.15100
H  50.17000 6.62400 50.57800
H  51.58600 4.75600 50.50500
H  51.18200 3.38100 49.39200
H  50.12600 3.66800 50.76800
H  50.57300 8.49200 48.69800
H  50.46800 7.11200 47.64600
H  52.62300 6.64200 48.21000
H  52.54100 6.80500 49.92500
H  52.67400 8.27800 48.92900
H  48.10000 11.02700 48.57700
H  46.92400 12.00600 49.43600
H  46.66800 11.86200 47.78400
H  41.79400 9.53100 47.07400
H  39.34600 11.45800 50.11400
H  38.74200 9.77800 49.82100
H  38.36300 10.96600 48.61600
Mg 48.27400 16.36200 29.25900
C  46.17400 15.91200 32.18900
C  50.40000 18.17600 31.33000
C  50.12100 16.86700 26.62000
C  45.76900 14.94200 27.41300
N  48.23900 17.01600 31.56500
C  47.32900 16.67200 32.52900
C  47.74700 17.16100 33.84900
C  49.01300 18.06800 33.55700
C  49.24200 17.83600 32.07200
C  48.73900 19.46900 33.94800
C  48.00300 15.90200 34.70900
C  48.29100 16.23400 36.20500
H  47.99500 17.61500 36.76700
N  50.10500 17.35800 29.02900
C  50.88900 17.96600 29.99500
C  52.18500 18.28900 29.34100
C  52.07200 18.00500 27.94500
C  50.72300 17.42600 27.77200
C  53.32000 18.78500 30.13500
C  53.12000 18.25100 26.78000
O  52.96800 17.83100 25.63800
C  54.41700 18.92700 27.17700
N  47.95400 16.02700 27.38000
C  48.89300 16.31800 26.42300
C  48.44000 15.99700 24.98400
C  47.12900 15.14100 25.21900
C  46.93500 15.34500 26.76600
C  48.16800 17.17100 24.04800
C  47.17500 13.66900 24.81900
C  46.38600 13.33600 23.51900
N  46.31800 15.61700 29.63200
C  45.48300 15.06800 28.78200
C  44.33100 14.59000 29.42400
C  44.59300 14.87100 30.81700
C  45.81700 15.54200 30.88200
C  43.10100 13.99000 28.73600
C  44.06200 14.73300 32.18000
O  43.10900 14.09300 32.60000
C  45.07800 15.35600 33.10600
C  44.29600 16.42200 33.93600
O  43.84300 17.46500 33.44800
O  44.10500 16.01800 35.19900
C  43.26600 16.93300 36.04700
H  51.23100 18.72100 31.78400
H  50.66700 17.12000 25.70800
H  45.07600 14.24100 26.94200
H  46.87000 17.57000 34.34900
H  49.94800 17.73900 34.01100
H  47.81300 19.59900 34.50700
H  48.62700 19.99600 33.00000
H  49.57000 19.97700 34.43700
H  48.86400 15.35200 34.33000
H  47.11900 15.26900 34.63300
H  49.35400 16.04600 36.35600
H  47.62800 15.64600 36.84000
H  53.47700 18.19900 31.04100
H  53.06200 19.80000 30.44000
H  54.33000 18.79900 29.72500
H  54.17200 19.92900 27.53100
H  54.95900 19.10000 26.24700
H  55.08100 18.30600 27.77800
H  49.38000 15.52800 24.69300
H  46.24000 15.60600 24.79400
H  48.16500 18.09100 24.63200
H  47.24300 17.05100 23.48600
H  48.98800 17.05200 23.33900
H  46.65300 13.13900 25.61500
H  48.19200 13.32800 24.62500
H  46.07500 14.21900 22.96100
H  45.47800 12.79500 23.78700
H  46.97600 12.76700 22.80100
H  43.41900 13.34400 27.91700
H  42.66800 14.85100 28.22700
H  42.47100 13.42600 29.42300
H  45.35100 14.51700 33.74600
H  43.63500 17.95400 35.94300
H  43.55800 16.62500 37.05100
H  42.20000 16.78900 35.87200

