158

Mg 48.03700 16.41100 28.68200
C  46.09400 16.16900 31.64100
C  50.33500 18.17300 30.39600
C  49.54800 16.70600 25.74200
C  45.18400 14.83700 27.06500
N  48.14300 17.11300 30.73500
C  47.31900 16.83700 31.78800
C  47.82400 17.32500 33.16300
C  49.04100 18.22000 32.70000
C  49.20900 17.82900 31.16300
C  48.98600 19.73000 33.03600
C  48.11000 16.03400 34.06800
C  47.94200 16.14700 35.61600
H  47.49400 17.50000 36.22900
N  49.76700 17.20900 28.13200
C  50.62200 17.90800 29.00200
C  51.90100 18.15300 28.32900
C  51.72900 17.70500 26.95700
C  50.37200 17.19600 26.91400
C  53.18400 18.74000 29.06300
C  52.69200 17.72700 25.87800
O  52.38100 17.26400 24.78400
C  54.06700 18.19600 26.07400
N  47.45000 15.75900 26.75600
C  48.30000 16.12200 25.69100
C  47.64200 15.71600 24.33900
C  46.34500 14.96800 24.75400
C  46.31400 15.19000 26.26600
C  47.52200 16.82600 23.35800
C  46.25700 13.41600 24.50500
C  46.04600 12.95600 23.06400
N  46.14900 15.53300 29.29100
C  45.12000 14.98200 28.45000
C  43.94600 14.78300 29.25800
C  44.30100 15.18000 30.53000
C  45.59500 15.67300 30.47500
C  42.57700 14.25700 28.69000
C  43.75600 15.28900 31.83000
O  42.66500 14.99800 32.38400
C  45.01900 15.77800 32.64600
C  44.57700 16.96100 33.36900
O  44.13800 18.00700 32.87600
O  44.45100 16.60700 34.70700
C  43.50300 17.24100 35.66300
H  51.07600 18.75000 30.95400
H  50.03200 16.71100 24.76300
H  44.34000 14.51200 26.45300
H  46.96800 17.86600 33.56700
H  49.94000 17.78200 33.13400
H  48.86700 20.44100 32.21800
H  49.86200 19.96600 33.64000
H  48.08400 19.89000 33.62600
H  49.13100 15.73500 33.83100
H  47.48500 15.23200 33.67500
H  48.91400 15.91600 36.05300
H  47.17400 15.38000 35.71100
H  53.93800 17.95900 29.15300
H  53.05400 19.05700 30.09700
H  53.47100 19.61900 28.48700
H  54.61500 18.04400 25.14400
H  54.38500 17.56100 26.90200
H  54.01700 19.25700 26.32000
H  48.33700 15.04000 23.84100
H  45.49100 15.51700 24.35800
H  48.21200 16.62800 22.53800
H  47.89800 17.71900 23.85800
H  46.48900 17.00200 23.06000
H  45.77000 12.85400 25.30200
H  47.26700 13.07200 24.72700
H  46.49000 11.96900 22.93000
H  46.47100 13.66400 22.35300
H  44.96200 12.93300 22.95200
H  42.20000 14.77100 27.80600
H  41.87000 14.45100 29.49800
H  42.68400 13.19100 28.48900
H  45.25500 14.99700 33.36700
H  42.80500 16.43800 35.89800
H  42.88800 17.98100 35.15000
H  43.90800 17.60100 36.60900
Mg 16.92400 52.70500 26.80900
C  18.84600 51.09300 29.09000
C  14.47400 53.16800 29.11500
C  14.60300 53.49000 24.30500
C  19.12700 51.56600 24.26400
N  16.70100 52.25900 28.86100
C  17.73100 51.66700 29.61800
C  17.46000 51.86700 31.11400
C  15.90200 52.26900 31.03000
C  15.63700 52.59100 29.58100
C  15.01000 51.04300 31.44600
C  18.27100 52.91200 31.93800
C  18.44800 52.68500 33.42100
H  17.39700 51.86800 34.08800
N  14.92100 53.40300 26.74500
C  14.06000 53.53000 27.82800
C  12.87500 54.24900 27.44800
C  12.93900 54.40500 26.08100
C  14.19800 53.73600 25.66300
C  11.96700 54.78800 28.51800
C  11.99000 55.13500 25.12900
O  12.41500 55.36400 24.03600
C  10.74500 55.71400 25.58300
N  16.88200 52.53800 24.61200
C  15.86400 52.99100 23.84400
C  16.20700 52.80500 22.32600
C  17.76000 52.62400 22.36400
C  17.97400 52.21500 23.84600
C  15.34800 51.69300 21.56400
C  18.61000 53.92000 21.95600
C  19.28900 53.95200 20.51600
N  18.60000 51.59000 26.67000
C  19.38800 51.21500 25.61900
C  20.51200 50.51000 26.12100
C  20.28200 50.35800 27.49400
C  19.09800 51.06900 27.75800
C  21.75400 50.11700 25.23100
C  20.88300 49.87200 28.77300
O  21.84300 49.09900 28.99100
C  19.86200 50.24400 29.83900
C  19.26800 49.01500 30.43300
O  18.72500 48.09500 29.82300
O  19.37400 49.04600 31.75600
C  18.74300 48.08700 32.66000
H  13.69700 53.22900 29.88000
H  13.90500 53.64500 23.47900
H  19.87000 51.17400 23.56700
H  17.63900 50.82200 31.36900
H  15.72400 53.16400 31.62700
H  15.58000 50.12100 31.33600
H  14.15900 51.05500 30.76500
H  14.64700 51.14600 32.46800
H  17.83100 53.90700 31.87600
H  19.27800 52.98700 31.52700
H  18.59000 53.65700 33.89400
H  19.33000 52.04900 33.50100
H  11.11400 54.14500 28.73900
H  11.59600 55.78500 28.28100
H  12.61100 55.00200 29.37100
H  11.03800 56.64700 26.06500
H  10.22100 55.00700 26.22600
H  10.19000 56.00600 24.69100
H  16.07000 53.73400 21.77100
H  18.05700 51.71400 21.84400
H  14.54600 51.37700 22.23000
H  15.95200 50.83500 21.26800
H  14.93700 52.19400 20.68700
H  19.47100 53.95200 22.62400
H  17.97200 54.79300 22.09700
H  18.80600 53.21100 19.87900
H  20.36200 53.76000 20.48100
H  19.09100 54.91500 20.04500
H  22.71800 50.07100 25.73700
H  21.96200 50.88000 24.48000
H  21.58700 49.12100 24.82000
H  20.45500 50.73100 30.61300
H  19.33100 47.17200 32.72700
H  17.79100 47.80700 32.20900
H  18.65400 48.58000 33.62800

